# generated using pymatgen
data_In86Cu29Se144
_symmetry_space_group_name_H-M   'P 1'
_cell_length_a   17.56863905
_cell_length_b   17.56856873
_cell_length_c   23.42585981
_cell_angle_alpha   90.00556385
_cell_angle_beta   90.00084153
_cell_angle_gamma   89.98817995
_symmetry_Int_Tables_number   1
_chemical_formula_structural   In86Cu29Se144
_chemical_formula_sum   'In86 Cu29 Se144'
_cell_volume   7230.52831230
_cell_formula_units_Z   1
loop_
 _symmetry_equiv_pos_site_id
 _symmetry_equiv_pos_as_xyz
  1  'x, y, z'
loop_
 _atom_site_type_symbol
 _atom_site_label
 _atom_site_symmetry_multiplicity
 _atom_site_fract_x
 _atom_site_fract_y
 _atom_site_fract_z
 _atom_site_occupancy
  In  In0  1  0.01546787  0.15791139  0.13451280  1
  In  In1  1  0.01818032  0.15098521  0.62795298  1
  In  In2  1  -0.01298035  0.49753141  0.12978216  1
  In  In3  1  -0.00270086  0.50403425  0.62447612  1
  In  In4  1  0.01976023  0.84303965  0.11743719  1
  In  In5  1  0.00233816  0.83011952  0.62652696  1
  In  In6  1  0.32000258  0.13978914  0.10573298  1
  In  In7  1  0.33621321  0.16618019  0.61354755  1
  In  In8  1  0.34743640  0.50205706  0.13467870  1
  In  In9  1  0.33647146  0.49267740  0.62534829  1
  In  In10  1  0.32482827  0.86194902  0.15284775  1
  In  In11  1  0.32663674  0.83268954  0.61445126  1
  In  In12  1  0.65841582  0.17220249  0.13246357  1
  In  In13  1  0.65597239  0.16024946  0.61836512  1
  In  In14  1  0.65504819  0.50517051  0.16225100  1
  In  In15  1  0.66677355  0.50235451  0.61133488  1
  In  In16  1  0.64292748  0.84452708  0.15629943  1
  In  In17  1  0.66602252  0.84760389  0.62297355  1
  In  In18  1  0.16828887  -0.00123372  0.38325236  1
  In  In19  1  0.15349813  0.01516706  0.89342796  1
  In  In20  1  0.15714234  0.32626679  0.37014814  1
  In  In21  1  0.15919022  0.32417056  0.86588824  1
  In  In22  1  0.18445972  0.67632374  0.37237203  1
  In  In23  1  0.17338492  0.67702571  0.86530019  1
  In  In24  1  0.49646966  -0.00228609  0.37757928  1
  In  In25  1  0.50904484  -0.00003275  0.87343601  1
  In  In26  1  0.50700443  0.32535221  0.37645688  1
  In  In27  1  0.48600418  0.33187660  0.87077667  1
  In  In28  1  0.49674314  0.66866303  0.37695553  1
  In  In29  1  0.48693981  0.68061423  0.87337805  1
  In  In30  1  0.83754509  0.00160475  0.36780848  1
  In  In31  1  0.83576588  0.00102769  0.86530701  1
  In  In32  1  0.83458078  0.34723929  0.36798479  1
  In  In33  1  0.84134826  0.32115037  0.87398971  1
  In  In34  1  0.82259291  0.66041199  0.37348762  1
  In  In35  1  0.83488797  0.65341495  0.87674585  1
  In  In36  1  0.00357596  0.16500464  0.37666467  1
  In  In37  1  0.00411231  0.16763067  0.86826277  1
  In  In38  1  0.00306214  0.48369192  0.37787802  1
  In  In39  1  -0.00066564  0.50068524  0.86219059  1
  In  In40  1  0.00281317  0.85063799  0.38073883  1
  In  In41  1  0.01826102  0.84936183  0.86076632  1
  In  In42  1  0.34113793  0.14230086  0.39920422  1
  In  In43  1  0.32474476  0.16742951  0.88019875  1
  In  In44  1  0.33843772  0.51855946  0.36768287  1
  In  In45  1  0.33133533  0.49767880  0.86241329  1
  In  In46  1  0.33448032  0.83845743  0.38224929  1
  In  In47  1  0.33027215  0.82819475  0.86981846  1
  In  In48  1  0.65762578  0.15395031  0.36331708  1
  In  In49  1  0.67427562  0.15784149  0.87485775  1
  In  In50  1  0.65968336  0.50308278  0.37010514  1
  In  In51  1  0.67010847  0.50365281  0.87717694  1
  In  In52  1  0.64468046  0.81755431  0.35854949  1
  In  In53  1  0.65080412  0.83965183  0.87586521  1
  In  In54  1  0.16756391  0.00068885  0.12373593  1
  In  In55  1  0.16187765  -0.01770864  0.59595545  1
  In  In56  1  0.17210308  0.30772750  0.12887479  1
  In  In57  1  0.17407846  0.32340146  0.63167837  1
  In  In58  1  0.17227405  0.68805061  0.12464786  1
  In  In59  1  0.16123932  0.67372400  0.62850172  1
  In  In60  1  0.48253591  0.00714186  0.14696812  1
  In  In61  1  0.50247038  0.00800515  0.61253161  1
  In  In62  1  0.50688690  0.32467233  0.13160113  1
  In  In63  1  0.48866128  0.32467779  0.61323894  1
  In  In64  1  0.48416018  0.68599801  0.15727360  1
  In  In65  1  0.49136343  0.65955882  0.61857470  1
  In  In66  1  0.83789157  0.00185796  0.13221233  1
  In  In67  1  0.83425611  -0.00035809  0.62994390  1
  In  In68  1  0.83308915  0.33828617  0.13921727  1
  In  In69  1  0.83584353  0.34305415  0.62042654  1
  In  In70  1  0.82084476  0.66422735  0.13099825  1
  In  In71  1  0.84521961  0.66282971  0.61906767  1
  In  In72  1  0.66505014  0.67056233  0.75659811  1
  In  In73  1  0.33099749  0.32662718  0.25342177  1
  In  In74  1  0.66829892  0.32901149  0.74437281  1
  In  In75  1  0.50162793  0.50039894  0.01436763  1
  In  In76  1  0.82668536  0.83144302  0.49664544  1
  In  In77  1  -0.00160604  0.66929101  0.24615067  1
  In  In78  1  0.17025419  0.49894191  0.49546555  1
  In  In79  1  0.83932381  0.16718092  -0.00062142  1
  In  In80  1  0.83410022  0.16891434  0.48861222  1
  In  In81  1  0.48818990  0.84292990  0.01478607  1
  In  In82  1  0.83216299  0.49264102  0.01477158  1
  In  In83  1  0.83774839  0.83289204  0.00803273  1
  In  In84  1  0.32790517  0.00084723  0.74387857  1
  In  In85  1  0.16598809  0.49595757  0.00026322  1
  Cu  Cu86  1  -0.00394422  0.33292089  0.50086605  1
  Cu  Cu87  1  0.84207284  0.84183881  0.25117267  1
  Cu  Cu88  1  0.33756017  0.67122369  0.49755707  1
  Cu  Cu89  1  0.16575071  0.50326448  0.74413189  1
  Cu  Cu90  1  0.49824796  0.83539674  0.74954473  1
  Cu  Cu91  1  0.66540371  -0.00373656  0.48985620  1
  Cu  Cu92  1  0.16182337  0.49911746  0.25303498  1
  Cu  Cu93  1  0.66479297  0.00177469  -0.00009812  1
  Cu  Cu94  1  0.00433282  0.32734084  0.00141750  1
  Cu  Cu95  1  0.00680883  0.67596691  -0.00640787  1
  Cu  Cu96  1  0.84020385  0.50320861  0.74475640  1
  Cu  Cu97  1  0.49482056  0.49760759  0.74034828  1
  Cu  Cu98  1  0.48458377  0.16107324  0.25279812  1
  Cu  Cu99  1  0.84011654  0.16510859  0.74877614  1
  Cu  Cu100  1  0.65687158  0.33378132  0.01224650  1
  Cu  Cu101  1  0.00350827  0.66522265  0.50102516  1
  Cu  Cu102  1  0.16959924  0.84365147  0.25289162  1
  Cu  Cu103  1  0.17390469  0.16102629  0.74910157  1
  Cu  Cu104  1  0.16845043  0.84055599  0.74395075  1
  Cu  Cu105  1  0.33354382  0.31902816  -0.00493718  1
  Cu  Cu106  1  0.49764331  0.16436281  0.73900307  1
  Cu  Cu107  1  0.66329113  0.33566834  0.49414008  1
  Cu  Cu108  1  0.83436214  0.83277948  0.74505666  1
  Cu  Cu109  1  0.17050196  0.15580307  0.25543774  1
  Cu  Cu110  1  0.33762245  0.34101395  0.49543359  1
  Cu  Cu111  1  0.83739670  0.17324122  0.25272979  1
  Cu  Cu112  1  0.33401893  0.66696885  0.00038206  1
  Cu  Cu113  1  0.65920419  0.66676543  0.49119395  1
  Cu  Cu114  1  0.65704277  0.66963673  0.01870013  1
  Se  Se115  1  0.08645108  0.08793592  0.05592532  1
  Se  Se116  1  0.09577557  0.09506340  0.54378477  1
  Se  Se117  1  0.07885376  0.40861769  0.06555961  1
  Se  Se118  1  0.08296283  0.41059345  0.55894284  1
  Se  Se119  1  0.09323895  0.75560974  0.04622125  1
  Se  Se120  1  0.08308066  0.75077666  0.55373742  1
  Se  Se121  1  0.42798802  0.06609907  0.05606036  1
  Se  Se122  1  0.41568849  0.08394544  0.54457841  1
  Se  Se123  1  0.40485394  0.40063846  0.06062019  1
  Se  Se124  1  0.41983153  0.42476924  0.54912846  1
  Se  Se125  1  0.40686823  0.74141925  0.06874296  1
  Se  Se126  1  0.42153973  0.75410813  0.55138282  1
  Se  Se127  1  0.74588247  0.08135718  0.06040959  1
  Se  Se128  1  0.74701069  0.07359282  0.55132177  1
  Se  Se129  1  0.73081125  0.41600227  0.07426913  1
  Se  Se130  1  0.75077215  0.41433026  0.54827941  1
  Se  Se131  1  0.73590136  0.75884967  0.07061332  1
  Se  Se132  1  0.73837035  0.73959019  0.55986423  1
  Se  Se133  1  0.24363796  0.24114689  0.04675010  1
  Se  Se134  1  0.25488193  0.26145007  0.55204526  1
  Se  Se135  1  0.25782898  0.58379859  0.06252711  1
  Se  Se136  1  0.25423894  0.59046417  0.55816374  1
  Se  Se137  1  0.25595083  0.90917774  0.06455796  1
  Se  Se138  1  0.28159111  0.93524750  0.54097663  1
  Se  Se139  1  0.57536512  0.24113331  0.05542105  1
  Se  Se140  1  0.58504534  0.24991569  0.54965406  1
  Se  Se141  1  0.58183014  0.58972526  0.08042290  1
  Se  Se142  1  0.57799361  0.58333122  0.54837816  1
  Se  Se143  1  0.59290075  0.92336898  0.06636163  1
  Se  Se144  1  0.58334858  0.91576598  0.54808442  1
  Se  Se145  1  0.92069089  0.25667437  0.06617091  1
  Se  Se146  1  0.92266880  0.24633176  0.56111869  1
  Se  Se147  1  0.92505834  0.59954262  0.05726946  1
  Se  Se148  1  0.91841146  0.57776804  0.54731471  1
  Se  Se149  1  0.92785176  0.93385097  0.05549509  1
  Se  Se150  1  0.91694550  0.91833593  0.55727384  1
  Se  Se151  1  0.08039673  0.25287100  0.44699488  1
  Se  Se152  1  0.08299106  0.24783416  0.94235640  1
  Se  Se153  1  0.08235332  0.59185003  0.43455732  1
  Se  Se154  1  0.07917114  0.58542050  0.93606403  1
  Se  Se155  1  0.09395447  0.90863280  0.45364462  1
  Se  Se156  1  0.08494800  0.90641802  0.94738929  1
  Se  Se157  1  0.41933211  0.25050454  0.44762832  1
  Se  Se158  1  0.42423136  0.24210475  0.94398996  1
  Se  Se159  1  0.41771964  0.58185134  0.44761071  1
  Se  Se160  1  0.41351559  0.58266156  0.94242666  1
  Se  Se161  1  0.40131145  0.93452172  0.45204842  1
  Se  Se162  1  0.41198147  0.92023145  0.93685204  1
  Se  Se163  1  0.74022693  0.25501803  0.43107705  1
  Se  Se164  1  0.74003081  0.26226123  0.94635686  1
  Se  Se165  1  0.74548266  0.57987826  0.44495801  1
  Se  Se166  1  0.73942144  0.59163482  0.95565219  1
  Se  Se167  1  0.74252008  0.91509941  0.42971834  1
  Se  Se168  1  0.74613021  0.92090714  0.94144467  1
  Se  Se169  1  0.21560506  0.10888984  0.45217331  1
  Se  Se170  1  0.26037739  0.07679760  0.95124175  1
  Se  Se171  1  0.25754523  0.41296888  0.43028135  1
  Se  Se172  1  0.25746342  0.40897059  0.93776123  1
  Se  Se173  1  0.24724268  0.75499824  0.45194331  1
  Se  Se174  1  0.25252587  0.74678070  0.94325891  1
  Se  Se175  1  0.58217947  0.08659748  0.44368455  1
  Se  Se176  1  0.58517867  0.08579008  0.94461652  1
  Se  Se177  1  0.57924015  0.42046599  0.44281455  1
  Se  Se178  1  0.58668609  0.41395534  0.94329137  1
  Se  Se179  1  0.57776328  0.75790170  0.44601133  1
  Se  Se180  1  0.58082001  0.74555521  0.94991539  1
  Se  Se181  1  0.92633355  0.06788656  0.44548118  1
  Se  Se182  1  0.92382452  0.07482473  0.93885211  1
  Se  Se183  1  0.91265035  0.41581278  0.44902732  1
  Se  Se184  1  0.92285417  0.41245936  0.94368059  1
  Se  Se185  1  0.92228774  0.74214392  0.43807393  1
  Se  Se186  1  0.91852582  0.74886722  0.93614735  1
  Se  Se187  1  0.25150703  0.23349276  0.31702559  1
  Se  Se188  1  0.25475122  0.24668473  0.80270192  1
  Se  Se189  1  0.24685113  0.58687376  0.29735939  1
  Se  Se190  1  0.25053636  0.58612120  0.79878334  1
  Se  Se191  1  0.25295184  0.92222712  0.31071864  1
  Se  Se192  1  0.23892992  0.92037829  0.81085798  1
  Se  Se193  1  0.57554510  0.24441900  0.29904371  1
  Se  Se194  1  0.57740631  0.24178240  0.80506959  1
  Se  Se195  1  0.59525880  0.60737732  0.30620156  1
  Se  Se196  1  0.56886636  0.57490119  0.80936361  1
  Se  Se197  1  0.58969724  0.93252614  0.30578988  1
  Se  Se198  1  0.58399494  0.91981709  0.79801678  1
  Se  Se199  1  0.91894332  0.25065599  0.31100318  1
  Se  Se200  1  0.92198273  0.25217359  0.79880681  1
  Se  Se201  1  0.92043943  0.57812168  0.31208465  1
  Se  Se202  1  0.91801531  0.59162423  0.79841404  1
  Se  Se203  1  0.92892568  0.92292822  0.30192570  1
  Se  Se204  1  0.91854985  0.91822203  0.79755425  1
  Se  Se205  1  0.08321270  0.07676188  0.30972187  1
  Se  Se206  1  0.09067068  0.07964084  0.80557763  1
  Se  Se207  1  0.08033238  0.41224965  0.30019212  1
  Se  Se208  1  0.08491826  0.41668142  0.79881631  1
  Se  Se209  1  0.08644543  0.75873012  0.30878849  1
  Se  Se210  1  0.08513350  0.75092492  0.79466729  1
  Se  Se211  1  0.40537144  0.07948992  0.31095893  1
  Se  Se212  1  0.42060311  0.08757462  0.80543165  1
  Se  Se213  1  0.42054065  0.41839065  0.31021093  1
  Se  Se214  1  0.41441651  0.41213703  0.79559717  1
  Se  Se215  1  0.40542923  0.74771342  0.31316139  1
  Se  Se216  1  0.41072023  0.75057917  0.79556014  1
  Se  Se217  1  0.75452295  0.08266955  0.29939337  1
  Se  Se218  1  0.75067340  0.08438214  0.79863564  1
  Se  Se219  1  0.73790372  0.41423596  0.30306792  1
  Se  Se220  1  0.75868738  0.42247964  0.80635307  1
  Se  Se221  1  0.76234490  0.75919093  0.30606765  1
  Se  Se222  1  0.75711871  0.76112868  0.81527735  1
  Se  Se223  1  0.25401798  0.08091435  0.19469983  1
  Se  Se224  1  0.24021746  0.08343556  0.67824400  1
  Se  Se225  1  0.24119015  0.41859382  0.18975075  1
  Se  Se226  1  0.25085543  0.41685531  0.69569479  1
  Se  Se227  1  0.25087971  0.75236552  0.20409880  1
  Se  Se228  1  0.25210217  0.75659297  0.69141447  1
  Se  Se229  1  0.58271984  0.08513203  0.20298512  1
  Se  Se230  1  0.58301799  0.07739777  0.69175930  1
  Se  Se231  1  0.56056982  0.41322740  0.20868605  1
  Se  Se232  1  0.57992231  0.41990913  0.68366477  1
  Se  Se233  1  0.60983784  0.72005603  0.20997408  1
  Se  Se234  1  0.57977745  0.75368325  0.68871855  1
  Se  Se235  1  0.91906429  0.08662251  0.19970993  1
  Se  Se236  1  0.92252479  0.08015611  0.69502154  1
  Se  Se237  1  0.91788723  0.41958883  0.20528619  1
  Se  Se238  1  0.92035837  0.41453532  0.69384472  1
  Se  Se239  1  0.91503803  0.76389372  0.18318083  1
  Se  Se240  1  0.91467356  0.74780123  0.69238293  1
  Se  Se241  1  0.08816648  0.24594053  0.20664766  1
  Se  Se242  1  0.08542971  0.24483989  0.69820026  1
  Se  Se243  1  0.09246053  0.58160591  0.18497773  1
  Se  Se244  1  0.07974330  0.58590961  0.69340498  1
  Se  Se245  1  0.08411336  0.92139660  0.19718611  1
  Se  Se246  1  0.09213863  0.92192498  0.68317407  1
  Se  Se247  1  0.40710495  0.23439003  0.18548042  1
  Se  Se248  1  0.41255718  0.24779923  0.68904789  1
  Se  Se249  1  0.41460097  0.57939759  0.21143464  1
  Se  Se250  1  0.41059814  0.58630317  0.69367370  1
  Se  Se251  1  0.45600371  0.88122966  0.20054213  1
  Se  Se252  1  0.42254070  0.91446571  0.68507578  1
  Se  Se253  1  0.74694988  0.25018663  0.19992130  1
  Se  Se254  1  0.75853033  0.23873286  0.68375057  1
  Se  Se255  1  0.77578956  0.56770700  0.20443344  1
  Se  Se256  1  0.74990824  0.58021436  0.69060012  1
  Se  Se257  1  0.75223913  0.92360240  0.20156873  1
  Se  Se258  1  0.74825860  0.91833039  0.69759146  1
