# generated using pymatgen
data_In86Cu29Se144
_symmetry_space_group_name_H-M   'P 1'
_cell_length_a   17.59738197
_cell_length_b   17.58899511
_cell_length_c   23.45994305
_cell_angle_alpha   89.99576847
_cell_angle_beta   89.98674839
_cell_angle_gamma   90.01907681
_symmetry_Int_Tables_number   1
_chemical_formula_structural   In86Cu29Se144
_chemical_formula_sum   'In86 Cu29 Se144'
_cell_volume   7261.32718419
_cell_formula_units_Z   1
loop_
 _symmetry_equiv_pos_site_id
 _symmetry_equiv_pos_as_xyz
  1  'x, y, z'
loop_
 _atom_site_type_symbol
 _atom_site_label
 _atom_site_symmetry_multiplicity
 _atom_site_fract_x
 _atom_site_fract_y
 _atom_site_fract_z
 _atom_site_occupancy
  In  In0  1  -0.00810362  0.18335900  0.13318047  1
  In  In1  1  0.00161925  0.17400152  0.62858511  1
  In  In2  1  -0.00142643  0.49697477  0.12415580  1
  In  In3  1  -0.01019049  0.48324398  0.60405562  1
  In  In4  1  -0.01675889  0.82303380  0.12194656  1
  In  In5  1  0.00960037  0.84228992  0.62919681  1
  In  In6  1  0.34408012  0.17283569  0.13060665  1
  In  In7  1  0.33848061  0.16960793  0.61566818  1
  In  In8  1  0.33381504  0.50337262  0.12626817  1
  In  In9  1  0.34124874  0.51849616  0.60888162  1
  In  In10  1  0.33515774  0.80072437  0.12209320  1
  In  In11  1  0.34399130  0.81066293  0.62759817  1
  In  In12  1  0.67838114  0.17648995  0.12224526  1
  In  In13  1  0.67334194  0.17738032  0.61970134  1
  In  In14  1  0.66831356  0.49789858  0.12956829  1
  In  In15  1  0.66877704  0.50531345  0.63117164  1
  In  In16  1  0.65348740  0.82767909  0.12077540  1
  In  In17  1  0.64887305  0.83142828  0.62284355  1
  In  In18  1  0.17403620  0.00463403  0.37851438  1
  In  In19  1  0.15812547  0.01135729  0.87017366  1
  In  In20  1  0.16739468  0.33630179  0.37873462  1
  In  In21  1  0.16757736  0.35087544  0.87312169  1
  In  In22  1  0.16023767  0.65425138  0.37005896  1
  In  In23  1  0.16915479  0.65155262  0.87324142  1
  In  In24  1  0.50642753  0.00089107  0.38815537  1
  In  In25  1  0.48953234  -0.00510485  0.87430865  1
  In  In26  1  0.49862376  0.33666392  0.37684801  1
  In  In27  1  0.51794932  0.34247121  0.87089638  1
  In  In28  1  0.50010501  0.65843692  0.37800216  1
  In  In29  1  0.50341228  0.65919986  0.87543752  1
  In  In30  1  0.82986053  0.00733669  0.37488943  1
  In  In31  1  0.84541132  -0.00256867  0.87044826  1
  In  In32  1  0.84716805  0.34705989  0.35585141  1
  In  In33  1  0.83030940  0.33588393  0.88056203  1
  In  In34  1  0.81847480  0.65196579  0.36762422  1
  In  In35  1  0.81737755  0.66230791  0.86623282  1
  In  In36  1  -0.00908022  0.22178505  0.38641921  1
  In  In37  1  -0.01395612  0.16403319  0.86851140  1
  In  In38  1  -0.00229214  0.49574016  0.37760133  1
  In  In39  1  0.00496674  0.49024829  0.87748889  1
  In  In40  1  0.01135686  0.82664707  0.37527326  1
  In  In41  1  -0.01759724  0.83764801  0.86429814  1
  In  In42  1  0.32230021  0.17611700  0.38690540  1
  In  In43  1  0.33132860  0.16147604  0.87650035  1
  In  In44  1  0.33787138  0.50416599  0.37651160  1
  In  In45  1  0.32522923  0.51151934  0.88501133  1
  In  In46  1  0.34566192  0.82456155  0.37746576  1
  In  In47  1  0.35066480  0.82050190  0.88327115  1
  In  In48  1  0.65917885  0.17239289  0.37527763  1
  In  In49  1  0.67180509  0.19289591  0.87188941  1
  In  In50  1  0.66545286  0.49687339  0.37611120  1
  In  In51  1  0.66481341  0.49967581  0.87769095  1
  In  In52  1  0.66403371  0.82007413  0.37563836  1
  In  In53  1  0.66771129  0.80510175  0.86887702  1
  In  In54  1  0.16720153  0.00384016  0.12801080  1
  In  In55  1  0.15613203  0.00219711  0.62566739  1
  In  In56  1  0.15300260  0.34953038  0.13582680  1
  In  In57  1  0.16016852  0.33092459  0.61248453  1
  In  In58  1  0.18558239  0.63870879  0.14017076  1
  In  In59  1  0.17746020  0.66677252  0.62607190  1
  In  In60  1  0.51305154  -0.00940385  0.12511964  1
  In  In61  1  0.50423047  -0.01109555  0.61059887  1
  In  In62  1  0.48667385  0.34884095  0.14123271  1
  In  In63  1  0.51515199  0.35111485  0.61283623  1
  In  In64  1  0.50051712  0.66417750  0.12566959  1
  In  In65  1  0.50050024  0.66639441  0.62305982  1
  In  In66  1  0.81745874  0.00351734  0.11961639  1
  In  In67  1  0.83498870  0.01659708  0.62682622  1
  In  In68  1  0.83238766  0.33256274  0.12633264  1
  In  In69  1  0.83149356  0.34541861  0.63282501  1
  In  In70  1  0.84347919  0.65275411  0.13259129  1
  In  In71  1  0.83399113  0.64585862  0.63322893  1
  In  In72  1  0.16247828  0.82412445  -0.00437583  1
  In  In73  1  0.32618704  -0.00320874  0.74943658  1
  In  In74  1  0.82692089  0.17418326  0.50075314  1
  In  In75  1  -0.00065689  0.66057748  0.74862067  1
  In  In76  1  0.66550167  0.00380676  0.25214564  1
  In  In77  1  0.82553250  0.83060608  0.50155644  1
  In  In78  1  0.17116667  0.83255563  0.50460271  1
  In  In79  1  0.50234004  0.17392480  -0.00338459  1
  In  In80  1  0.82733343  0.82752537  -0.01154383  1
  In  In81  1  0.33187827  0.34291701  0.74543995  1
  In  In82  1  0.16492953  0.17373567  -0.00076453  1
  In  In83  1  0.00501335  -0.00111918  0.25371167  1
  In  In84  1  0.67349888  -0.00403984  0.74532237  1
  In  In85  1  0.33626615  -0.00473100  0.26012032  1
  Cu  Cu86  1  0.50463111  0.50306994  0.25403308  1
  Cu  Cu87  1  0.66502039  0.33842948  0.50105967  1
  Cu  Cu88  1  0.66473291  0.00375578  -0.00566103  1
  Cu  Cu89  1  -0.00472470  0.00923864  -0.00538435  1
  Cu  Cu90  1  0.66405939  0.65863966  0.49896202  1
  Cu  Cu91  1  0.33465850  -0.00000289  0.50185462  1
  Cu  Cu92  1  0.00407484  0.65806309  0.00026201  1
  Cu  Cu93  1  -0.00290389  0.01422813  0.50296119  1
  Cu  Cu94  1  0.50475639  0.17120172  0.73940131  1
  Cu  Cu95  1  0.33366148  0.33970609  0.00485148  1
  Cu  Cu96  1  -0.00874930  0.66355707  0.49706137  1
  Cu  Cu97  1  0.16845787  0.50096351  0.74456345  1
  Cu  Cu98  1  0.83456829  0.49831135  0.24831078  1
  Cu  Cu99  1  0.83336938  0.82478602  0.25102441  1
  Cu  Cu100  1  0.66786651  0.34257678  0.00322236  1
  Cu  Cu101  1  0.16342472  0.81808444  0.24825644  1
  Cu  Cu102  1  0.16669721  0.49421748  0.25471592  1
  Cu  Cu103  1  0.17035401  0.83373426  0.74845246  1
  Cu  Cu104  1  0.15667904  0.17482316  0.74775840  1
  Cu  Cu105  1  0.49669529  0.17506819  0.25637164  1
  Cu  Cu106  1  0.83836606  0.17715267  0.74911472  1
  Cu  Cu107  1  0.33894620  -0.01532360  0.00512244  1
  Cu  Cu108  1  0.49943780  0.82300803  0.75114009  1
  Cu  Cu109  1  0.50313209  0.50591282  0.74769973  1
  Cu  Cu110  1  -0.00727911  0.33526840  0.00330005  1
  Cu  Cu111  1  0.49525218  0.82404130  0.24835310  1
  Cu  Cu112  1  0.16417095  0.17382870  0.26023521  1
  Cu  Cu113  1  0.66527315  0.65999046  0.00193537  1
  Cu  Cu114  1  0.33471360  0.33575510  0.49706523  1
  Se  Se115  1  0.07398146  0.08204933  0.06026809  1
  Se  Se116  1  0.08290657  0.09128408  0.55745861  1
  Se  Se117  1  0.08248781  0.41562855  0.05303824  1
  Se  Se118  1  0.10240160  0.43304799  0.54576770  1
  Se  Se119  1  0.07845988  0.73906424  0.06218840  1
  Se  Se120  1  0.07066595  0.74339234  0.55761174  1
  Se  Se121  1  0.41481710  0.07711246  0.05926487  1
  Se  Se122  1  0.42142786  0.08283347  0.55163707  1
  Se  Se123  1  0.41969115  0.41849550  0.05807506  1
  Se  Se124  1  0.41809631  0.42032452  0.54852829  1
  Se  Se125  1  0.43540762  0.75695627  0.05241998  1
  Se  Se126  1  0.41975795  0.74592280  0.55009873  1
  Se  Se127  1  0.74483300  0.08766646  0.04768767  1
  Se  Se128  1  0.73835802  0.07229405  0.55283788  1
  Se  Se129  1  0.75399818  0.42062165  0.05806371  1
  Se  Se130  1  0.74603589  0.41717867  0.56000898  1
  Se  Se131  1  0.74952953  0.74188040  0.05964210  1
  Se  Se132  1  0.74355424  0.73643141  0.56272627  1
  Se  Se133  1  0.25424085  0.25675488  0.06461699  1
  Se  Se134  1  0.25269645  0.24993753  0.55010612  1
  Se  Se135  1  0.25137080  0.58186772  0.05429735  1
  Se  Se136  1  0.24560411  0.59442476  0.54685584  1
  Se  Se137  1  0.25007154  0.91307894  0.06290085  1
  Se  Se138  1  0.26010192  0.92085698  0.56829034  1
  Se  Se139  1  0.58158431  0.26324649  0.06308096  1
  Se  Se140  1  0.58314190  0.24834543  0.55033408  1
  Se  Se141  1  0.58547624  0.57937210  0.05926386  1
  Se  Se142  1  0.58341238  0.57797011  0.55729235  1
  Se  Se143  1  0.58634106  0.91676597  0.04745461  1
  Se  Se144  1  0.58358686  0.90646783  0.54330613  1
  Se  Se145  1  0.91311669  0.24707315  0.05413557  1
  Se  Se146  1  0.91833221  0.26028396  0.56012055  1
  Se  Se147  1  0.91609793  0.58043030  0.05359067  1
  Se  Se148  1  0.90649097  0.58245438  0.54972515  1
  Se  Se149  1  0.91543235  0.92265064  0.05203537  1
  Se  Se150  1  0.92112273  0.92555683  0.55760477  1
  Se  Se151  1  0.10308148  0.24143132  0.45126523  1
  Se  Se152  1  0.07459559  0.25929515  0.93759040  1
  Se  Se153  1  0.07871242  0.58349971  0.44564769  1
  Se  Se154  1  0.08675110  0.57682526  0.94511816  1
  Se  Se155  1  0.07568681  0.92573305  0.44686602  1
  Se  Se156  1  0.07214373  0.92249684  0.93847666  1
  Se  Se157  1  0.42094952  0.24944221  0.44811862  1
  Se  Se158  1  0.40793801  0.26272726  0.93721757  1
  Se  Se159  1  0.41952781  0.58032551  0.44947879  1
  Se  Se160  1  0.42885252  0.57267323  0.94583861  1
  Se  Se161  1  0.41390145  0.91599278  0.44674839  1
  Se  Se162  1  0.42627044  0.90985384  0.95091905  1
  Se  Se163  1  0.74712929  0.26568976  0.43658935  1
  Se  Se164  1  0.74882036  0.25257527  0.95385768  1
  Se  Se165  1  0.75088869  0.57693124  0.44758916  1
  Se  Se166  1  0.75117990  0.58393484  0.94529664  1
  Se  Se167  1  0.74118944  0.92276783  0.43880460  1
  Se  Se168  1  0.73792168  0.92168019  0.93031352  1
  Se  Se169  1  0.24707883  0.08266549  0.45335054  1
  Se  Se170  1  0.25689339  0.06815617  0.94767980  1
  Se  Se171  1  0.25259300  0.42059316  0.44454457  1
  Se  Se172  1  0.24718722  0.41806329  0.95015980  1
  Se  Se173  1  0.24919203  0.74326891  0.43869068  1
  Se  Se174  1  0.25893487  0.73292089  0.94492745  1
  Se  Se175  1  0.59392245  0.08545747  0.44786771  1
  Se  Se176  1  0.58749525  0.08391694  0.93109218  1
  Se  Se177  1  0.58067166  0.41930220  0.44711652  1
  Se  Se178  1  0.57969367  0.42135959  0.95124295  1
  Se  Se179  1  0.58282717  0.74562691  0.44776476  1
  Se  Se180  1  0.58511583  0.74553147  0.94679067  1
  Se  Se181  1  0.92351971  0.09060192  0.43763258  1
  Se  Se182  1  0.90764626  0.08875415  0.94441587  1
  Se  Se183  1  0.92159477  0.39948670  0.44097748  1
  Se  Se184  1  0.91402107  0.42045127  0.94802782  1
  Se  Se185  1  0.91445099  0.74509492  0.43677905  1
  Se  Se186  1  0.92550487  0.73637342  0.93684611  1
  Se  Se187  1  0.25386139  0.25403264  0.30869849  1
  Se  Se188  1  0.24448895  0.24560860  0.80864279  1
  Se  Se189  1  0.25216567  0.58020489  0.30345696  1
  Se  Se190  1  0.25389427  0.57861957  0.80091659  1
  Se  Se191  1  0.23830442  0.90127376  0.31061994  1
  Se  Se192  1  0.24620651  0.90803926  0.81810378  1
  Se  Se193  1  0.58407378  0.25717028  0.30487926  1
  Se  Se194  1  0.58321009  0.25386973  0.79630707  1
  Se  Se195  1  0.58826988  0.58579385  0.30683967  1
  Se  Se196  1  0.58946543  0.58443803  0.80343154  1
  Se  Se197  1  0.57286566  0.91044846  0.30739989  1
  Se  Se198  1  0.57853652  0.90977930  0.80830135  1
  Se  Se199  1  0.91252589  0.23981067  0.29726773  1
  Se  Se200  1  0.91653829  0.26251679  0.80518421  1
  Se  Se201  1  0.91723528  0.57968765  0.30532434  1
  Se  Se202  1  0.91138980  0.57171463  0.80976140  1
  Se  Se203  1  0.90848552  0.90701827  0.31170577  1
  Se  Se204  1  0.91642863  0.92492225  0.79259894  1
  Se  Se205  1  0.08336740  0.09156029  0.31763223  1
  Se  Se206  1  0.07685442  0.08750239  0.80008932  1
  Se  Se207  1  0.08192610  0.41316917  0.30772909  1
  Se  Se208  1  0.08478447  0.41944207  0.79852039  1
  Se  Se209  1  0.07699604  0.74050097  0.30205273  1
  Se  Se210  1  0.08990794  0.75449734  0.81072580  1
  Se  Se211  1  0.42307768  0.08927070  0.31701531  1
  Se  Se212  1  0.42431489  0.09402308  0.80129463  1
  Se  Se213  1  0.41912427  0.41994909  0.30621088  1
  Se  Se214  1  0.42152885  0.42641853  0.80924098  1
  Se  Se215  1  0.41689692  0.74103306  0.30496386  1
  Se  Se216  1  0.41609702  0.74146213  0.80562377  1
  Se  Se217  1  0.75831064  0.09699449  0.30411807  1
  Se  Se218  1  0.75433542  0.09468850  0.80769037  1
  Se  Se219  1  0.74449292  0.41953429  0.29956441  1
  Se  Se220  1  0.72430124  0.39184771  0.81573560  1
  Se  Se221  1  0.74422480  0.74656141  0.30192618  1
  Se  Se222  1  0.77616171  0.77306435  0.80145987  1
  Se  Se223  1  0.24463085  0.09111143  0.20014927  1
  Se  Se224  1  0.24407204  0.09672714  0.69121987  1
  Se  Se225  1  0.25396274  0.41790007  0.19775655  1
  Se  Se226  1  0.24830159  0.42751956  0.67931048  1
  Se  Se227  1  0.25699499  0.73908690  0.20275331  1
  Se  Se228  1  0.25317997  0.74689558  0.70058560  1
  Se  Se229  1  0.57363828  0.09551884  0.19185496  1
  Se  Se230  1  0.57961999  0.08274425  0.68385623  1
  Se  Se231  1  0.58813457  0.41641323  0.20262262  1
  Se  Se232  1  0.58276407  0.41693520  0.69705802  1
  Se  Se233  1  0.58587543  0.74657338  0.19679201  1
  Se  Se234  1  0.58483147  0.74404470  0.69743342  1
  Se  Se235  1  0.91040579  0.07776088  0.18946600  1
  Se  Se236  1  0.91954457  0.08965849  0.69767172  1
  Se  Se237  1  0.91800502  0.41461246  0.19492582  1
  Se  Se238  1  0.92461653  0.42696823  0.69277121  1
  Se  Se239  1  0.92058460  0.74331784  0.20092441  1
  Se  Se240  1  0.91580953  0.75481632  0.68715280  1
  Se  Se241  1  0.08267233  0.25285568  0.20200206  1
  Se  Se242  1  0.08311747  0.26382749  0.69347836  1
  Se  Se243  1  0.08015026  0.57519090  0.19913694  1
  Se  Se244  1  0.08541949  0.57620420  0.68363147  1
  Se  Se245  1  0.08842340  0.90327143  0.18826255  1
  Se  Se246  1  0.08658085  0.92168349  0.70270798  1
  Se  Se247  1  0.40863355  0.25605850  0.20638306  1
  Se  Se248  1  0.42316958  0.25449409  0.68472856  1
  Se  Se249  1  0.42041755  0.58194333  0.19650595  1
  Se  Se250  1  0.41609487  0.58257331  0.69228006  1
  Se  Se251  1  0.41749516  0.90867059  0.18933339  1
  Se  Se252  1  0.42488117  0.91190512  0.69337438  1
  Se  Se253  1  0.75280645  0.24904032  0.19723116  1
  Se  Se254  1  0.74935890  0.25197422  0.69452844  1
  Se  Se255  1  0.74847935  0.58427812  0.19934533  1
  Se  Se256  1  0.74883651  0.58028647  0.70641545  1
  Se  Se257  1  0.75308644  0.90658550  0.19184869  1
  Se  Se258  1  0.75772241  0.90810888  0.68125248  1
