# generated using pymatgen
data_In86Cu29Se144
_symmetry_space_group_name_H-M   'P 1'
_cell_length_a   17.58938086
_cell_length_b   17.58669039
_cell_length_c   23.44942736
_cell_angle_alpha   89.99890567
_cell_angle_beta   90.00344641
_cell_angle_gamma   90.00681741
_symmetry_Int_Tables_number   1
_chemical_formula_structural   In86Cu29Se144
_chemical_formula_sum   'In86 Cu29 Se144'
_cell_volume   7253.82223502
_cell_formula_units_Z   1
loop_
 _symmetry_equiv_pos_site_id
 _symmetry_equiv_pos_as_xyz
  1  'x, y, z'
loop_
 _atom_site_type_symbol
 _atom_site_label
 _atom_site_symmetry_multiplicity
 _atom_site_fract_x
 _atom_site_fract_y
 _atom_site_fract_z
 _atom_site_occupancy
  In  In0  1  -0.00425828  0.15951823  0.11621215  1
  In  In1  1  0.01049911  0.16354168  0.62300150  1
  In  In2  1  0.00016708  0.51233177  0.10856902  1
  In  In3  1  0.01245600  0.50771718  0.62032646  1
  In  In4  1  0.02035307  0.83130104  0.12196461  1
  In  In5  1  -0.02012928  0.83187185  0.63068813  1
  In  In6  1  0.33338759  0.16493496  0.11204632  1
  In  In7  1  0.33145529  0.17242231  0.64170668  1
  In  In8  1  0.34439573  0.51079029  0.11417692  1
  In  In9  1  0.32114403  0.49892973  0.62824710  1
  In  In10  1  0.33545259  0.82843428  0.11895036  1
  In  In11  1  0.34645525  0.81825676  0.62319526  1
  In  In12  1  0.66884574  0.17044033  0.10749339  1
  In  In13  1  0.66136756  0.15896149  0.64776772  1
  In  In14  1  0.67610231  0.51650323  0.11780163  1
  In  In15  1  0.67557587  0.49264398  0.63132205  1
  In  In16  1  0.65504394  0.82866980  0.12030377  1
  In  In17  1  0.66943987  0.83270184  0.63520161  1
  In  In18  1  0.16823942  0.01321392  0.37775098  1
  In  In19  1  0.18033426  -0.01127072  0.87725865  1
  In  In20  1  0.15505816  0.33943854  0.39487244  1
  In  In21  1  0.17354241  0.32562937  0.88161997  1
  In  In22  1  0.16369550  0.65727863  0.37324515  1
  In  In23  1  0.15429963  0.68060927  0.88635278  1
  In  In24  1  0.48614161  -0.01051298  0.37428680  1
  In  In25  1  0.49679163  0.00326722  0.87112996  1
  In  In26  1  0.50435189  0.33319709  0.37356678  1
  In  In27  1  0.50060186  0.33291119  0.86712364  1
  In  In28  1  0.50962419  0.68041637  0.36278713  1
  In  In29  1  0.50788393  0.65571084  0.88260362  1
  In  In30  1  0.82705226  -0.01591410  0.37584179  1
  In  In31  1  0.83399076  0.01141146  0.87485745  1
  In  In32  1  0.84578707  0.34116566  0.38099713  1
  In  In33  1  0.82328644  0.34214730  0.87746504  1
  In  In34  1  0.82917617  0.67002555  0.38485394  1
  In  In35  1  0.82493450  0.66217933  0.86297173  1
  In  In36  1  0.01185942  0.16677180  0.37522772  1
  In  In37  1  0.00053166  0.16559454  0.88499564  1
  In  In38  1  -0.00425345  0.49921949  0.38955045  1
  In  In39  1  -0.00989930  0.51430981  0.88885502  1
  In  In40  1  -0.01619798  0.82751516  0.37392347  1
  In  In41  1  0.01460022  0.82651644  0.86711722  1
  In  In42  1  0.32905446  0.15373368  0.37781504  1
  In  In43  1  0.33852204  0.16140977  0.86799759  1
  In  In44  1  0.31920485  0.50390480  0.37718066  1
  In  In45  1  0.34014478  0.49214024  0.88133600  1
  In  In46  1  0.34578531  0.82745120  0.38335508  1
  In  In47  1  0.32496563  0.84769374  0.87588607  1
  In  In48  1  0.65925742  0.16439500  0.37633187  1
  In  In49  1  0.66230047  0.16974158  0.87046009  1
  In  In50  1  0.65713995  0.51915843  0.37965439  1
  In  In51  1  0.66465098  0.49856415  0.87058518  1
  In  In52  1  0.67413641  0.82753352  0.38258532  1
  In  In53  1  0.66360656  0.81775546  0.86173235  1
  In  In54  1  0.16505518  -0.00566688  0.11837839  1
  In  In55  1  0.15982310  0.01072153  0.62653818  1
  In  In56  1  0.16951351  0.33602817  0.11367143  1
  In  In57  1  0.17415039  0.34404215  0.62452588  1
  In  In58  1  0.17349779  0.68420132  0.10991593  1
  In  In59  1  0.17418880  0.64637368  0.62561439  1
  In  In60  1  0.49142149  -0.00791013  0.11004335  1
  In  In61  1  0.50951998  -0.01170230  0.64238001  1
  In  In62  1  0.50309220  0.33377511  0.11072942  1
  In  In63  1  0.50364478  0.32538797  0.64658849  1
  In  In64  1  0.50375524  0.67190786  0.12052528  1
  In  In65  1  0.49688246  0.68881755  0.62372143  1
  In  In66  1  0.83479200  0.01016960  0.12057373  1
  In  In67  1  0.82592110  -0.01133742  0.62976216  1
  In  In68  1  0.83936868  0.34046665  0.11272288  1
  In  In69  1  0.82372466  0.33150327  0.62728728  1
  In  In70  1  0.83773655  0.65395707  0.12207745  1
  In  In71  1  0.83395528  0.66816264  0.63279845  1
  In  In72  1  -0.00131957  -0.00236374  0.75045268  1
  In  In73  1  0.66420494  -0.00708076  0.24936651  1
  In  In74  1  0.00156213  0.34127208  0.75297006  1
  In  In75  1  0.49822386  0.16391192  0.51382492  1
  In  In76  1  0.83840931  0.16367981  0.51347479  1
  In  In77  1  0.32927396  0.66455462  0.75201629  1
  In  In78  1  0.83608685  0.83366700  -0.01183635  1
  In  In79  1  0.00023521  0.66734724  0.24682260  1
  In  In80  1  0.33115684  0.33512006  0.25487418  1
  In  In81  1  0.49177062  0.50592676  0.50552413  1
  In  In82  1  0.32980085  -0.00920434  0.23992138  1
  In  In83  1  0.67431587  0.34382392  0.23517105  1
  In  In84  1  0.16199453  0.83290032  0.50305228  1
  In  In85  1  0.00262024  0.34091340  0.25183278  1
  Cu  Cu86  1  0.67075575  0.67055527  0.50494896  1
  Cu  Cu87  1  -0.00449945  -0.00128311  0.50490565  1
  Cu  Cu88  1  0.49707096  0.51741302  0.24442861  1
  Cu  Cu89  1  0.16830360  0.49658259  0.75593575  1
  Cu  Cu90  1  0.83216900  0.83167268  0.25218121  1
  Cu  Cu91  1  0.17248719  0.16568715  0.75548838  1
  Cu  Cu92  1  0.65825214  -0.01263984  0.50848790  1
  Cu  Cu93  1  0.49740873  0.83061248  0.75398355  1
  Cu  Cu94  1  0.66772882  0.66434957  -0.00691911  1
  Cu  Cu95  1  0.17037117  0.50674004  0.24659367  1
  Cu  Cu96  1  0.33566145  0.00572540  -0.00649751  1
  Cu  Cu97  1  -0.00071408  0.33298735  -0.00309368  1
  Cu  Cu98  1  0.66099721  0.33203329  -0.01019300  1
  Cu  Cu99  1  0.33229240  0.32616603  0.50910028  1
  Cu  Cu100  1  0.33478778  0.32890180  -0.00670447  1
  Cu  Cu101  1  0.67425552  0.33406189  0.50790938  1
  Cu  Cu102  1  0.83392538  0.50467188  0.75292140  1
  Cu  Cu103  1  0.84298186  0.15804357  0.24197108  1
  Cu  Cu104  1  0.16013296  0.17024833  0.25265272  1
  Cu  Cu105  1  0.33579968  0.66799034  -0.00468994  1
  Cu  Cu106  1  0.82994207  0.50360719  0.24984321  1
  Cu  Cu107  1  0.83114923  0.16785284  0.75381978  1
  Cu  Cu108  1  0.00485037  -0.00192293  -0.00520605  1
  Cu  Cu109  1  0.33353633  -0.00048276  0.50285557  1
  Cu  Cu110  1  0.66118804  0.00213835  -0.00585318  1
  Cu  Cu111  1  0.17192961  0.83989818  0.24553193  1
  Cu  Cu112  1  0.50249921  0.50573024  0.75448877  1
  Cu  Cu113  1  -0.00508937  0.66891650  0.50488772  1
  Cu  Cu114  1  0.50496179  0.16477764  0.23784685  1
  Se  Se115  1  0.08666500  0.08182401  0.05044232  1
  Se  Se116  1  0.08460143  0.08408280  0.54832136  1
  Se  Se117  1  0.08205692  0.41806590  0.04950061  1
  Se  Se118  1  0.08923541  0.41756430  0.55557115  1
  Se  Se119  1  0.06829791  0.74020861  0.04572005  1
  Se  Se120  1  0.07638573  0.74469310  0.56702808  1
  Se  Se121  1  0.42220610  0.08911689  0.04514447  1
  Se  Se122  1  0.41038403  0.07323360  0.57123472  1
  Se  Se123  1  0.41514913  0.41561432  0.04764387  1
  Se  Se124  1  0.41822866  0.40195348  0.56784529  1
  Se  Se125  1  0.42072890  0.75158966  0.04868083  1
  Se  Se126  1  0.40933480  0.73818452  0.54441617  1
  Se  Se127  1  0.75190559  0.07994901  0.04580841  1
  Se  Se128  1  0.73252416  0.07978712  0.56398383  1
  Se  Se129  1  0.73846261  0.41214507  0.05346736  1
  Se  Se130  1  0.75726654  0.42179750  0.55444956  1
  Se  Se131  1  0.74945222  0.74568949  0.05406978  1
  Se  Se132  1  0.75045882  0.75171460  0.56288560  1
  Se  Se133  1  0.24793230  0.24788443  0.04738714  1
  Se  Se134  1  0.25163850  0.24406810  0.56457372  1
  Se  Se135  1  0.25023096  0.58629065  0.04963248  1
  Se  Se136  1  0.25976029  0.58196219  0.55135167  1
  Se  Se137  1  0.25859200  0.92120182  0.05314983  1
  Se  Se138  1  0.25273289  0.92041623  0.56393750  1
  Se  Se139  1  0.57762969  0.24553353  0.04216760  1
  Se  Se140  1  0.59417555  0.25495242  0.56750024  1
  Se  Se141  1  0.58251250  0.58512175  0.04947449  1
  Se  Se142  1  0.58882109  0.58868337  0.56520719  1
  Se  Se143  1  0.58431794  0.91352998  0.04739963  1
  Se  Se144  1  0.57675400  0.90719628  0.56424226  1
  Se  Se145  1  0.91563354  0.24719313  0.04987196  1
  Se  Se146  1  0.92910947  0.26190415  0.56314778  1
  Se  Se147  1  0.90256738  0.57730381  0.04365435  1
  Se  Se148  1  0.91498070  0.58624434  0.56077606  1
  Se  Se149  1  0.92348142  0.91836656  0.05675548  1
  Se  Se150  1  0.91004826  0.91694196  0.55606345  1
  Se  Se151  1  0.07778074  0.24428581  0.45254633  1
  Se  Se152  1  0.08595740  0.24735063  0.95017022  1
  Se  Se153  1  0.08031090  0.59007032  0.44913232  1
  Se  Se154  1  0.09513731  0.57611833  0.94981265  1
  Se  Se155  1  0.07299064  0.92177519  0.43883370  1
  Se  Se156  1  0.08391194  0.91331363  0.94108018  1
  Se  Se157  1  0.41301015  0.25230926  0.44319354  1
  Se  Se158  1  0.41777649  0.24918597  0.93677190  1
  Se  Se159  1  0.41895036  0.58811743  0.43155932  1
  Se  Se160  1  0.41990047  0.57862329  0.94989357  1
  Se  Se161  1  0.41931975  0.91481969  0.45456873  1
  Se  Se162  1  0.41848354  0.91817543  0.94395607  1
  Se  Se163  1  0.74667927  0.24862784  0.44485078  1
  Se  Se164  1  0.74926992  0.24721229  0.94207208  1
  Se  Se165  1  0.74899630  0.58146879  0.45168101  1
  Se  Se166  1  0.75048370  0.58238908  0.93847463  1
  Se  Se167  1  0.74903459  0.91481629  0.45365481  1
  Se  Se168  1  0.73907483  0.92135368  0.93371538  1
  Se  Se169  1  0.24883769  0.08498662  0.45412610  1
  Se  Se170  1  0.24966649  0.08736255  0.94110417  1
  Se  Se171  1  0.25673236  0.41401403  0.45175618  1
  Se  Se172  1  0.24847939  0.41745635  0.94891885  1
  Se  Se173  1  0.24908009  0.74246210  0.44290799  1
  Se  Se174  1  0.25324354  0.75615233  0.94623811  1
  Se  Se175  1  0.58313642  0.07229593  0.44599024  1
  Se  Se176  1  0.58046333  0.08611964  0.94057274  1
  Se  Se177  1  0.58924350  0.41076623  0.44718946  1
  Se  Se178  1  0.57893316  0.41815292  0.93907423  1
  Se  Se179  1  0.58486881  0.74464549  0.44625526  1
  Se  Se180  1  0.58724778  0.75291772  0.94340315  1
  Se  Se181  1  0.91567408  0.07724020  0.43997901  1
  Se  Se182  1  0.91465675  0.08225763  0.95059817  1
  Se  Se183  1  0.91463099  0.41800402  0.45680477  1
  Se  Se184  1  0.91213955  0.41509910  0.94727901  1
  Se  Se185  1  0.91293014  0.75375935  0.45233984  1
  Se  Se186  1  0.92222363  0.74056589  0.93191397  1
  Se  Se187  1  0.23863885  0.24695354  0.31662482  1
  Se  Se188  1  0.25306398  0.25409300  0.80553487  1
  Se  Se189  1  0.25287476  0.58871448  0.30064384  1
  Se  Se190  1  0.24545017  0.57800862  0.81758838  1
  Se  Se191  1  0.24656657  0.91259653  0.31460068  1
  Se  Se192  1  0.24092005  0.90915391  0.79765458  1
  Se  Se193  1  0.58269822  0.24727670  0.29750731  1
  Se  Se194  1  0.58916164  0.25592509  0.79979759  1
  Se  Se195  1  0.59046780  0.58967157  0.29758784  1
  Se  Se196  1  0.58742751  0.59077299  0.80298420  1
  Se  Se197  1  0.57642677  0.90552531  0.31144915  1
  Se  Se198  1  0.58171084  0.91521230  0.80474800  1
  Se  Se199  1  0.91026860  0.24340178  0.30681313  1
  Se  Se200  1  0.91468905  0.24611376  0.81144252  1
  Se  Se201  1  0.91418939  0.57781311  0.31138142  1
  Se  Se202  1  0.92400619  0.58161855  0.80414220  1
  Se  Se203  1  0.91585196  0.91775572  0.30207235  1
  Se  Se204  1  0.91036057  0.91100652  0.81214193  1
  Se  Se205  1  0.08139771  0.07930144  0.30229631  1
  Se  Se206  1  0.08616831  0.08874322  0.81208071  1
  Se  Se207  1  0.09392221  0.42947557  0.31207805  1
  Se  Se208  1  0.08669419  0.42350226  0.81956750  1
  Se  Se209  1  0.09008202  0.76045488  0.30698008  1
  Se  Se210  1  0.08976207  0.74019937  0.79855858  1
  Se  Se211  1  0.42209398  0.08870351  0.30063049  1
  Se  Se212  1  0.40101936  0.06340629  0.79964673  1
  Se  Se213  1  0.42790326  0.42962199  0.30722634  1
  Se  Se214  1  0.41499227  0.42155110  0.80172610  1
  Se  Se215  1  0.40952617  0.75364252  0.30304617  1
  Se  Se216  1  0.41977535  0.74893885  0.81596362  1
  Se  Se217  1  0.75517200  0.09045146  0.30659500  1
  Se  Se218  1  0.74744547  0.08227493  0.80322013  1
  Se  Se219  1  0.75318166  0.42222902  0.31266449  1
  Se  Se220  1  0.74981004  0.41700353  0.80048780  1
  Se  Se221  1  0.75449298  0.74951703  0.30923571  1
  Se  Se222  1  0.76007824  0.75541668  0.79271295  1
  Se  Se223  1  0.24396134  0.09527759  0.19010906  1
  Se  Se224  1  0.24721525  0.07683817  0.70027640  1
  Se  Se225  1  0.24842526  0.42291120  0.18785874  1
  Se  Se226  1  0.25259871  0.41380423  0.70313314  1
  Se  Se227  1  0.24814491  0.75363575  0.19042211  1
  Se  Se228  1  0.24155293  0.75303143  0.68922559  1
  Se  Se229  1  0.58339728  0.08356463  0.18047097  1
  Se  Se230  1  0.56042084  0.09452078  0.70879753  1
  Se  Se231  1  0.57228386  0.42992210  0.18461379  1
  Se  Se232  1  0.58722830  0.42057099  0.70270583  1
  Se  Se233  1  0.59132040  0.74291911  0.19342610  1
  Se  Se234  1  0.58243537  0.74684126  0.70195247  1
  Se  Se235  1  0.92713224  0.07529207  0.19264007  1
  Se  Se236  1  0.91021123  0.09288740  0.68979788  1
  Se  Se237  1  0.91393054  0.42929840  0.18909724  1
  Se  Se238  1  0.91255958  0.42566024  0.68955234  1
  Se  Se239  1  0.91159348  0.75879125  0.18627789  1
  Se  Se240  1  0.91055238  0.75140657  0.70548646  1
  Se  Se241  1  0.08694680  0.25011640  0.18824460  1
  Se  Se242  1  0.09098136  0.24560672  0.69614521  1
  Se  Se243  1  0.09035752  0.58222415  0.18456134  1
  Se  Se244  1  0.08723935  0.57923086  0.70019162  1
  Se  Se245  1  0.08548134  0.92157486  0.19535201  1
  Se  Se246  1  0.08561456  0.90874935  0.68897420  1
  Se  Se247  1  0.41925259  0.24883568  0.18654607  1
  Se  Se248  1  0.42249688  0.24061632  0.71074017  1
  Se  Se249  1  0.41136983  0.59474944  0.19000120  1
  Se  Se250  1  0.42370575  0.58043725  0.68821323  1
  Se  Se251  1  0.43103564  0.90502131  0.19037611  1
  Se  Se252  1  0.40988187  0.90666906  0.69831506  1
  Se  Se253  1  0.76280721  0.24123729  0.18402890  1
  Se  Se254  1  0.74940596  0.25366394  0.70201493  1
  Se  Se255  1  0.74992157  0.58958396  0.19757180  1
  Se  Se256  1  0.74729906  0.58478389  0.69988368  1
  Se  Se257  1  0.75728998  0.90933064  0.18627215  1
  Se  Se258  1  0.73400483  0.93271758  0.70227213  1
