# generated using pymatgen
data_In86Cu29Se144
_symmetry_space_group_name_H-M   'P 1'
_cell_length_a   17.69816541
_cell_length_b   17.69431862
_cell_length_c   23.57952046
_cell_angle_alpha   89.98217026
_cell_angle_beta   90.01283797
_cell_angle_gamma   90.02287607
_symmetry_Int_Tables_number   1
_chemical_formula_structural   In86Cu29Se144
_chemical_formula_sum   'In86 Cu29 Se144'
_cell_volume   7384.09023334
_cell_formula_units_Z   1
loop_
 _symmetry_equiv_pos_site_id
 _symmetry_equiv_pos_as_xyz
  1  'x, y, z'
loop_
 _atom_site_type_symbol
 _atom_site_label
 _atom_site_symmetry_multiplicity
 _atom_site_fract_x
 _atom_site_fract_y
 _atom_site_fract_z
 _atom_site_occupancy
  In  In0  1  0.00387943  0.15898335  0.13050923  1
  In  In1  1  0.00715047  0.15785158  0.61819037  1
  In  In2  1  0.00289162  0.49794688  0.13097386  1
  In  In3  1  0.00145023  0.48614431  0.61508039  1
  In  In4  1  -0.01551074  0.85712603  0.14919268  1
  In  In5  1  0.00241598  0.85406847  0.62215865  1
  In  In6  1  0.33329195  0.17462918  0.12051527  1
  In  In7  1  0.32460481  0.16980885  0.62578558  1
  In  In8  1  0.31950545  0.51323992  0.13483316  1
  In  In9  1  0.33009471  0.49872745  0.61621554  1
  In  In10  1  0.33106339  0.83111319  0.12408187  1
  In  In11  1  0.34930645  0.83900808  0.62337706  1
  In  In12  1  0.66496033  0.16594351  0.12628005  1
  In  In13  1  0.71871209  0.13197151  0.67286339  1
  In  In14  1  0.66037565  0.49369496  0.13005012  1
  In  In15  1  0.68767674  0.48691544  0.63418037  1
  In  In16  1  0.66925751  0.85325210  0.11020560  1
  In  In17  1  0.66657728  0.83525874  0.62880778  1
  In  In18  1  0.16403703  0.01371515  0.37643058  1
  In  In19  1  0.17432382  0.02026353  0.86846284  1
  In  In20  1  0.16300737  0.32920024  0.37348604  1
  In  In21  1  0.15125736  0.31866786  0.86579779  1
  In  In22  1  0.15269632  0.66050490  0.36670815  1
  In  In23  1  0.16945918  0.66614961  0.87498387  1
  In  In24  1  0.49806739  -0.01323009  0.37865135  1
  In  In25  1  0.51450721  -0.00243342  0.87818905  1
  In  In26  1  0.50267296  0.33285417  0.36673061  1
  In  In27  1  0.49518947  0.28679459  0.86873943  1
  In  In28  1  0.50912334  0.67599856  0.37370006  1
  In  In29  1  0.50904080  0.67344758  0.87485339  1
  In  In30  1  0.83090397  0.00577215  0.37526601  1
  In  In31  1  0.82027517  0.00112969  0.86006708  1
  In  In32  1  0.82649200  0.31564289  0.36843790  1
  In  In33  1  0.80272388  0.29873071  0.84405447  1
  In  In34  1  0.84723588  0.67081299  0.37142336  1
  In  In35  1  0.82769854  0.68214884  0.87787967  1
  In  In36  1  -0.00528820  0.16236281  0.36960961  1
  In  In37  1  -0.00346161  0.16960338  0.86672679  1
  In  In38  1  0.00610269  0.50256841  0.37150911  1
  In  In39  1  0.00460205  0.48551987  0.87440530  1
  In  In40  1  -0.00528047  0.83254058  0.36991119  1
  In  In41  1  -0.02324629  0.84345097  0.88167965  1
  In  In42  1  0.32019166  0.16584517  0.37162078  1
  In  In43  1  0.36199560  0.11887429  0.93376386  1
  In  In44  1  0.32662070  0.48894309  0.36794306  1
  In  In45  1  0.33478757  0.49835184  0.87807599  1
  In  In46  1  0.34744068  0.83312816  0.37445294  1
  In  In47  1  0.33552608  0.87056941  0.89009994  1
  In  In48  1  0.67331758  0.16800750  0.37214573  1
  In  In49  1  0.62349648  0.13704592  0.82167350  1
  In  In50  1  0.67893451  0.49092491  0.37476814  1
  In  In51  1  0.65666500  0.49298885  0.87047554  1
  In  In52  1  0.65833986  0.84759584  0.38527346  1
  In  In53  1  0.66994719  0.83457349  0.86957967  1
  In  In54  1  0.15533286  -0.00768753  0.11983642  1
  In  In55  1  0.15545656  0.01465195  0.63813277  1
  In  In56  1  0.16338354  0.33264171  0.13160203  1
  In  In57  1  0.15633697  0.31292785  0.60759623  1
  In  In58  1  0.14664615  0.70080229  0.15762779  1
  In  In59  1  0.18087641  0.66807696  0.61660864  1
  In  In60  1  0.50682284  0.01223902  0.11401643  1
  In  In61  1  0.51678809  -0.00211895  0.64066976  1
  In  In62  1  0.50122634  0.32445653  0.12677846  1
  In  In63  1  0.51623338  0.32460626  0.63049225  1
  In  In64  1  0.48933958  0.67154438  0.12776448  1
  In  In65  1  0.50412231  0.67639817  0.62301293  1
  In  In66  1  0.83829325  -0.00401149  0.12512900  1
  In  In67  1  0.84000029  -0.00414142  0.61962225  1
  In  In68  1  0.83655016  0.32623308  0.13051822  1
  In  In69  1  0.87494742  0.29750580  0.66655056  1
  In  In70  1  0.83095011  0.68947504  0.12708458  1
  In  In71  1  0.82228314  0.67137227  0.62341342  1
  In  In72  1  0.50179535  0.16256439  0.50707678  1
  In  In73  1  0.50375410  0.50036403  0.50526788  1
  In  In74  1  0.16886954  0.49899451  0.01269257  1
  In  In75  1  0.00540150  0.67110995  0.74896049  1
  In  In76  1  0.83719820  0.50183986  0.49445158  1
  In  In77  1  0.16811141  0.83751023  0.49252310  1
  In  In78  1  0.83903858  0.49406973  -0.00381263  1
  In  In79  1  0.50213006  0.49775615  0.00711933  1
  In  In80  1  0.32950629  0.33114781  0.75012617  1
  In  In81  1  0.16454271  0.83824150  0.00522594  1
  In  In82  1  0.33272393  0.67740260  0.75070796  1
  In  In83  1  0.82212775  0.15883677  -0.01261090  1
  In  In84  1  0.32966714  0.00001896  0.24789065  1
  In  In85  1  0.66586871  0.66276532  0.24727266  1
  Cu  Cu86  1  0.32521347  0.33961581  0.00432165  1
  Cu  Cu87  1  0.65848192  0.33233181  0.00033074  1
  Cu  Cu88  1  0.83073309  0.16231490  0.24801265  1
  Cu  Cu89  1  0.50050713  0.83419999  0.75095224  1
  Cu  Cu90  1  0.16582463  0.49799520  0.25355709  1
  Cu  Cu91  1  0.49316295  0.50562945  0.75360510  1
  Cu  Cu92  1  0.83007500  0.83264077  0.75138199  1
  Cu  Cu93  1  0.00023135  0.32629889  0.49717827  1
  Cu  Cu94  1  0.17009990  0.16874144  0.74788686  1
  Cu  Cu95  1  0.16524303  0.49452774  0.74071934  1
  Cu  Cu96  1  0.33221668  0.32991588  0.49267982  1
  Cu  Cu97  1  0.00202398  0.67029520  0.49125278  1
  Cu  Cu98  1  0.16068416  0.17036212  0.25063960  1
  Cu  Cu99  1  0.66762867  0.00019270  0.51065817  1
  Cu  Cu100  1  0.33098855  0.67135031  0.00764739  1
  Cu  Cu101  1  0.33380466  -0.00265431  0.50102990  1
  Cu  Cu102  1  0.83589618  0.49237301  0.25454614  1
  Cu  Cu103  1  0.67675056  0.32671960  0.50072762  1
  Cu  Cu104  1  0.67104547  0.67446479  -0.00217993  1
  Cu  Cu105  1  0.16658282  0.84593807  0.75597261  1
  Cu  Cu106  1  0.00019874  0.66621948  0.00396345  1
  Cu  Cu107  1  0.66483984  0.67783839  0.50252125  1
  Cu  Cu108  1  -0.01075977  0.32142371  -0.00868654  1
  Cu  Cu109  1  0.49644528  0.49024875  0.24615907  1
  Cu  Cu110  1  0.83751172  0.51216146  0.75053193  1
  Cu  Cu111  1  0.49995499  0.16506473  0.24519910  1
  Cu  Cu112  1  0.33316883  0.65860696  0.49588995  1
  Cu  Cu113  1  0.50417726  0.83674576  0.25053374  1
  Cu  Cu114  1  0.82368890  0.83616042  0.25223317  1
  Se  Se115  1  0.07155788  0.07498426  0.05683235  1
  Se  Se116  1  0.09571171  0.07924594  0.55278310  1
  Se  Se117  1  0.06608395  0.40421677  0.05401936  1
  Se  Se118  1  0.08636886  0.41335528  0.54492629  1
  Se  Se119  1  0.07715332  0.74647704  0.06408632  1
  Se  Se120  1  0.07991737  0.74739710  0.55694418  1
  Se  Se121  1  0.41087300  0.08775062  0.05207122  1
  Se  Se122  1  0.41282124  0.07221044  0.56585307  1
  Se  Se123  1  0.40240952  0.41896912  0.06618001  1
  Se  Se124  1  0.41449026  0.39993722  0.55761249  1
  Se  Se125  1  0.41867648  0.75440613  0.05446541  1
  Se  Se126  1  0.41053454  0.74167526  0.55388414  1
  Se  Se127  1  0.74317907  0.07421537  0.05831040  1
  Se  Se128  1  0.74116096  0.08533832  0.56852990  1
  Se  Se129  1  0.74276773  0.40979656  0.05789092  1
  Se  Se130  1  0.75794499  0.40979697  0.55649017  1
  Se  Se131  1  0.75192608  0.75812707  0.05164702  1
  Se  Se132  1  0.74979308  0.75877114  0.55446890  1
  Se  Se133  1  0.24191192  0.25669622  0.05778551  1
  Se  Se134  1  0.25410848  0.24129527  0.54531516  1
  Se  Se135  1  0.24196773  0.60530900  0.06715951  1
  Se  Se136  1  0.24757935  0.57722611  0.54610598  1
  Se  Se137  1  0.26334953  0.92925020  0.05549063  1
  Se  Se138  1  0.25248002  0.91997229  0.56197238  1
  Se  Se139  1  0.58159879  0.24654058  0.05562331  1
  Se  Se140  1  0.59852996  0.24709448  0.56054779  1
  Se  Se141  1  0.59486589  0.59404808  0.06058395  1
  Se  Se142  1  0.59861585  0.58671803  0.56291864  1
  Se  Se143  1  0.56750545  0.91408039  0.04524031  1
  Se  Se144  1  0.58032731  0.91835927  0.56131247  1
  Se  Se145  1  0.91270958  0.24409533  0.05539130  1
  Se  Se146  1  0.92231607  0.25989779  0.56543052  1
  Se  Se147  1  0.91708420  0.58834618  0.06281034  1
  Se  Se148  1  0.92449737  0.59410523  0.55758113  1
  Se  Se149  1  0.92545932  0.91345443  0.06083618  1
  Se  Se150  1  0.91541144  0.91258638  0.54848975  1
  Se  Se151  1  0.07959228  0.24447373  0.43922366  1
  Se  Se152  1  0.07889319  0.24283199  0.94261009  1
  Se  Se153  1  0.08416680  0.58171480  0.44490459  1
  Se  Se154  1  0.07781510  0.58558265  0.94427034  1
  Se  Se155  1  0.07329846  0.92607449  0.43922901  1
  Se  Se156  1  0.08645041  0.91905114  0.93254959  1
  Se  Se157  1  0.41687078  0.24951905  0.43808584  1
  Se  Se158  1  0.41316098  0.25764796  0.95545630  1
  Se  Se159  1  0.41909900  0.58339426  0.43709810  1
  Se  Se160  1  0.41014563  0.59027815  0.94669270  1
  Se  Se161  1  0.41742344  0.91185187  0.45178003  1
  Se  Se162  1  0.44733704  0.90783602  0.95315225  1
  Se  Se163  1  0.75452412  0.24118364  0.44677826  1
  Se  Se164  1  0.73549867  0.25653479  0.93680819  1
  Se  Se165  1  0.74215629  0.59639808  0.43997599  1
  Se  Se166  1  0.74231701  0.58450206  0.94044544  1
  Se  Se167  1  0.74895410  0.92490619  0.44832898  1
  Se  Se168  1  0.75923733  0.91319011  0.93422172  1
  Se  Se169  1  0.25497206  0.08173857  0.44705434  1
  Se  Se170  1  0.22317735  0.09113319  0.95657134  1
  Se  Se171  1  0.24875038  0.41269058  0.44153414  1
  Se  Se172  1  0.24521382  0.41187136  0.93967808  1
  Se  Se173  1  0.25607495  0.74140835  0.43589004  1
  Se  Se174  1  0.25807488  0.74957145  0.94019832  1
  Se  Se175  1  0.58873953  0.07428116  0.44365689  1
  Se  Se176  1  0.60700306  0.09451109  0.92472039  1
  Se  Se177  1  0.59216036  0.40626216  0.44437792  1
  Se  Se178  1  0.57360479  0.40509019  0.93890076  1
  Se  Se179  1  0.57842553  0.75594000  0.44927530  1
  Se  Se180  1  0.58861294  0.75407932  0.94317363  1
  Se  Se181  1  0.89590138  0.10580354  0.43948227  1
  Se  Se182  1  0.91816167  0.07451349  0.93171809  1
  Se  Se183  1  0.92075762  0.40528870  0.43485512  1
  Se  Se184  1  0.90996074  0.39783133  0.93086134  1
  Se  Se185  1  0.91591365  0.75462530  0.44489801  1
  Se  Se186  1  0.91511565  0.74745461  0.95149127  1
  Se  Se187  1  0.24841778  0.25139687  0.30140489  1
  Se  Se188  1  0.25240702  0.23773851  0.81266763  1
  Se  Se189  1  0.24857061  0.58218621  0.30579526  1
  Se  Se190  1  0.24392742  0.57223311  0.80312304  1
  Se  Se191  1  0.24790319  0.91491529  0.31547404  1
  Se  Se192  1  0.25539753  0.92468558  0.80760254  1
  Se  Se193  1  0.58310045  0.24359450  0.30415426  1
  Se  Se194  1  0.60664761  0.28126822  0.80082941  1
  Se  Se195  1  0.57850688  0.56897539  0.30838287  1
  Se  Se196  1  0.57952333  0.58496557  0.80547357  1
  Se  Se197  1  0.58474131  0.91912888  0.30542072  1
  Se  Se198  1  0.58718693  0.91727557  0.80094243  1
  Se  Se199  1  0.91630998  0.24730334  0.29812423  1
  Se  Se200  1  0.92815160  0.26236168  0.79662336  1
  Se  Se201  1  0.91685864  0.58000235  0.30385934  1
  Se  Se202  1  0.91865886  0.58482849  0.81515816  1
  Se  Se203  1  0.90834000  0.91774459  0.30603101  1
  Se  Se204  1  0.91526754  0.91779318  0.79926342  1
  Se  Se205  1  0.08127496  0.08130314  0.30082961  1
  Se  Se206  1  0.08173313  0.08779338  0.79877700  1
  Se  Se207  1  0.08174114  0.41337965  0.30442007  1
  Se  Se208  1  0.08512440  0.41545111  0.79865860  1
  Se  Se209  1  0.08552739  0.75832604  0.30416322  1
  Se  Se210  1  0.08819895  0.76207335  0.81414373  1
  Se  Se211  1  0.42284262  0.08642166  0.31001906  1
  Se  Se212  1  0.41804909  0.09671329  0.83402630  1
  Se  Se213  1  0.41368792  0.40964577  0.30131259  1
  Se  Se214  1  0.42452092  0.41631084  0.81381592  1
  Se  Se215  1  0.42468853  0.75070004  0.30276636  1
  Se  Se216  1  0.41582418  0.76463983  0.81604398  1
  Se  Se217  1  0.74640523  0.08114890  0.30183300  1
  Se  Se218  1  0.76265265  0.10328341  0.79151688  1
  Se  Se219  1  0.74908099  0.40888476  0.30183684  1
  Se  Se220  1  0.75672754  0.42928249  0.80543366  1
  Se  Se221  1  0.74655776  0.75370706  0.31227761  1
  Se  Se222  1  0.74756210  0.74594340  0.79988862  1
  Se  Se223  1  0.24010642  0.09014723  0.18860921  1
  Se  Se224  1  0.25692325  0.08367121  0.69948875  1
  Se  Se225  1  0.24710962  0.41680045  0.19744512  1
  Se  Se226  1  0.24249847  0.41298941  0.68157021  1
  Se  Se227  1  0.27139088  0.74574200  0.20008058  1
  Se  Se228  1  0.24089475  0.76616093  0.69126393  1
  Se  Se229  1  0.58251073  0.08009029  0.19383499  1
  Se  Se230  1  0.57885402  0.10126276  0.70402162  1
  Se  Se231  1  0.58254456  0.40837275  0.19640211  1
  Se  Se232  1  0.57357668  0.43188545  0.69113201  1
  Se  Se233  1  0.58415993  0.75948158  0.18793808  1
  Se  Se234  1  0.58232455  0.74988906  0.69705386  1
  Se  Se235  1  0.91518582  0.07965100  0.19603259  1
  Se  Se236  1  0.91029165  0.09219080  0.68545346  1
  Se  Se237  1  0.91679355  0.41439994  0.19494510  1
  Se  Se238  1  0.92191384  0.43202208  0.69700908  1
  Se  Se239  1  0.91271070  0.75116957  0.20517751  1
  Se  Se240  1  0.91383025  0.75741025  0.68914962  1
  Se  Se241  1  0.07613121  0.25215966  0.19705522  1
  Se  Se242  1  0.08734186  0.24624081  0.68932558  1
  Se  Se243  1  0.08153094  0.58166152  0.20039807  1
  Se  Se244  1  0.09138706  0.58236024  0.68371941  1
  Se  Se245  1  0.11074284  0.89528486  0.19456238  1
  Se  Se246  1  0.07893910  0.92073505  0.70155672  1
  Se  Se247  1  0.41359038  0.24870726  0.19577022  1
  Se  Se248  1  0.42379378  0.24156372  0.69372523  1
  Se  Se249  1  0.42006526  0.58233150  0.19740651  1
  Se  Se250  1  0.41494807  0.58052726  0.69000134  1
  Se  Se251  1  0.42677284  0.91793571  0.18887630  1
  Se  Se252  1  0.41757097  0.91933817  0.69976315  1
  Se  Se253  1  0.74794786  0.24746245  0.19498885  1
  Se  Se254  1  0.73426269  0.27786261  0.68640154  1
  Se  Se255  1  0.76218704  0.57524171  0.18918757  1
  Se  Se256  1  0.75105313  0.58976397  0.69751261  1
  Se  Se257  1  0.74734158  0.91612380  0.19123473  1
  Se  Se258  1  0.75422410  0.91774817  0.69278521  1
