# generated using pymatgen
data_In86Cu29Se144
_symmetry_space_group_name_H-M   'P 1'
_cell_length_a   17.57540268
_cell_length_b   17.56979255
_cell_length_c   23.42266768
_cell_angle_alpha   89.98061322
_cell_angle_beta   90.01124127
_cell_angle_gamma   89.99852087
_symmetry_Int_Tables_number   1
_chemical_formula_structural   In86Cu29Se144
_chemical_formula_sum   'In86 Cu29 Se144'
_cell_volume   7232.82972914
_cell_formula_units_Z   1
loop_
 _symmetry_equiv_pos_site_id
 _symmetry_equiv_pos_as_xyz
  1  'x, y, z'
loop_
 _atom_site_type_symbol
 _atom_site_label
 _atom_site_symmetry_multiplicity
 _atom_site_fract_x
 _atom_site_fract_y
 _atom_site_fract_z
 _atom_site_occupancy
  In  In0  1  0.01266748  0.17771527  0.11546922  1
  In  In1  1  0.02380140  0.19728425  0.59856189  1
  In  In2  1  0.00036423  0.48027650  0.12418521  1
  In  In3  1  -0.00711378  0.47691318  0.60587928  1
  In  In4  1  -0.01211909  0.84861267  0.11442019  1
  In  In5  1  -0.00777222  0.82936963  0.62541139  1
  In  In6  1  0.32411499  0.16198838  0.13262732  1
  In  In7  1  0.33037371  0.18053571  0.63598198  1
  In  In8  1  0.33523300  0.49931348  0.12814591  1
  In  In9  1  0.31708886  0.48211547  0.60948145  1
  In  In10  1  0.34594969  0.82199198  0.13228277  1
  In  In11  1  0.34877131  0.83962401  0.62622823  1
  In  In12  1  0.65357537  0.17958679  0.13665271  1
  In  In13  1  0.66741522  0.15460438  0.62420781  1
  In  In14  1  0.63604021  0.51957633  0.15649183  1
  In  In15  1  0.66230379  0.49882726  0.61208244  1
  In  In16  1  0.66834048  0.83651318  0.12110651  1
  In  In17  1  0.67714434  0.83952120  0.62789846  1
  In  In18  1  0.18352615  0.01648189  0.36804783  1
  In  In19  1  0.18587175  0.00006936  0.87805689  1
  In  In20  1  0.17098888  0.32538874  0.36691309  1
  In  In21  1  0.16815611  0.32773973  0.88157020  1
  In  In22  1  0.16195833  0.64876025  0.36881862  1
  In  In23  1  0.15350836  0.65598925  0.88326628  1
  In  In24  1  0.50008065  -0.00495117  0.36626111  1
  In  In25  1  0.49785301  0.00499521  0.88600810  1
  In  In26  1  0.50411586  0.35409726  0.35580774  1
  In  In27  1  0.48216960  0.34630967  0.88881450  1
  In  In28  1  0.48242476  0.63423903  0.34236790  1
  In  In29  1  0.50425648  0.66818596  0.89203913  1
  In  In30  1  0.83640159  0.00637925  0.36870759  1
  In  In31  1  0.81709896  0.00793256  0.87413677  1
  In  In32  1  0.83341944  0.33020740  0.37780916  1
  In  In33  1  0.83503387  0.32263501  0.87364918  1
  In  In34  1  0.80886313  0.65123882  0.35837857  1
  In  In35  1  0.84139843  0.66897659  0.88212208  1
  In  In36  1  -0.00833492  0.18245339  0.38605335  1
  In  In37  1  0.00391446  0.18902843  0.87645706  1
  In  In38  1  0.01984466  0.46664692  0.39453165  1
  In  In39  1  0.01312128  0.49028044  0.88370970  1
  In  In40  1  -0.00667820  0.83701299  0.37375229  1
  In  In41  1  -0.00285284  0.82175370  0.88459212  1
  In  In42  1  0.32573063  0.16930047  0.36481626  1
  In  In43  1  0.33099957  0.16767298  0.88417855  1
  In  In44  1  0.33567967  0.49205777  0.36053519  1
  In  In45  1  0.33319699  0.49182279  0.88003694  1
  In  In46  1  0.34096685  0.83874248  0.36426065  1
  In  In47  1  0.33548006  0.84863290  0.88053877  1
  In  In48  1  0.67162433  0.17351255  0.36263525  1
  In  In49  1  0.67256790  0.15770019  0.87901644  1
  In  In50  1  0.66484240  0.49887946  0.37040321  1
  In  In51  1  0.66095900  0.49488897  0.88053929  1
  In  In52  1  0.66666604  0.81945279  0.35592549  1
  In  In53  1  0.64304306  0.85126278  0.89997060  1
  In  In54  1  0.16943804  0.03293429  0.12339828  1
  In  In55  1  0.16385155  0.02143923  0.62797579  1
  In  In56  1  0.16236377  0.33102712  0.12608789  1
  In  In57  1  0.17521507  0.33195633  0.62237147  1
  In  In58  1  0.18563357  0.66657300  0.12845023  1
  In  In59  1  0.17803747  0.64808470  0.62232448  1
  In  In60  1  0.50015535  0.00212719  0.12757296  1
  In  In61  1  0.50400203  0.00535051  0.63681886  1
  In  In62  1  0.49667844  0.33486500  0.12941554  1
  In  In63  1  0.48939901  0.33330662  0.62378704  1
  In  In64  1  0.49976378  0.66314064  0.12034408  1
  In  In65  1  0.50681129  0.66426474  0.62205309  1
  In  In66  1  0.83508294  -0.01931772  0.12380269  1
  In  In67  1  0.82607272  0.00248482  0.62752513  1
  In  In68  1  0.83251262  0.33121650  0.13691059  1
  In  In69  1  0.84115680  0.34391720  0.61191240  1
  In  In70  1  0.81167234  0.67896169  0.13271377  1
  In  In71  1  0.83949169  0.66155091  0.62146029  1
  In  In72  1  0.83108395  0.82882553  0.50024000  1
  In  In73  1  0.33503727  0.66559241  0.75156064  1
  In  In74  1  0.00189007  0.00884077  0.24376138  1
  In  In75  1  -0.00122048  0.01130252  0.75146482  1
  In  In76  1  0.83709753  0.16174507  0.00545011  1
  In  In77  1  0.17242102  0.83419997  0.00317281  1
  In  In78  1  -0.00533871  0.65889349  0.25160137  1
  In  In79  1  0.00075901  0.66267401  0.74990445  1
  In  In80  1  0.66516570  0.67245801  0.75344541  1
  In  In81  1  0.49957519  0.17252746  0.49566799  1
  In  In82  1  0.50232788  0.82753101  0.49314716  1
  In  In83  1  0.16612212  0.82763600  0.49959711  1
  In  In84  1  0.82245741  0.50389863  0.01145164  1
  In  In85  1  0.66266051  0.32218413  0.75204785  1
  Cu  Cu86  1  0.84123327  0.16980114  0.74676203  1
  Cu  Cu87  1  0.33667725  0.00045566  0.00719484  1
  Cu  Cu88  1  0.49664220  0.16479868  0.76063096  1
  Cu  Cu89  1  0.16378208  0.48440624  0.74991395  1
  Cu  Cu90  1  0.66556594  0.00479760  0.00567601  1
  Cu  Cu91  1  0.66108028  0.33767070  0.01163190  1
  Cu  Cu92  1  0.17313264  0.84190734  0.75171457  1
  Cu  Cu93  1  0.84217956  0.49126762  0.25627786  1
  Cu  Cu94  1  0.00655806  0.00939171  0.49246483  1
  Cu  Cu95  1  0.32812034  0.01307244  0.50290791  1
  Cu  Cu96  1  0.49896650  0.84824626  0.76088490  1
  Cu  Cu97  1  0.66938541  -0.00172626  0.49526971  1
  Cu  Cu98  1  0.49035508  0.49618186  0.75010010  1
  Cu  Cu99  1  0.16542819  0.83817986  0.24479873  1
  Cu  Cu100  1  0.83869839  0.49309555  0.74340636  1
  Cu  Cu101  1  -0.00240091  0.66229200  0.00891707  1
  Cu  Cu102  1  -0.00572112  0.65367360  0.49471807  1
  Cu  Cu103  1  0.33731255  0.33645886  0.49257844  1
  Cu  Cu104  1  0.66891440  0.33212741  0.48849347  1
  Cu  Cu105  1  0.65492723  0.65399489  0.48740303  1
  Cu  Cu106  1  0.17565013  0.17248064  0.74982388  1
  Cu  Cu107  1  0.32804237  0.33094650  0.00922062  1
  Cu  Cu108  1  0.16916542  0.49380758  0.24919045  1
  Cu  Cu109  1  0.48963744  0.16193355  0.24832172  1
  Cu  Cu110  1  0.81893852  0.84550450  0.75944860  1
  Cu  Cu111  1  0.33605317  0.65288407  0.48371234  1
  Cu  Cu112  1  0.83397295  0.16187365  0.24968218  1
  Cu  Cu113  1  0.33654483  0.65866010  0.00371895  1
  Cu  Cu114  1  0.50461594  0.83510936  0.24074173  1
  Se  Se115  1  0.06622582  0.07036982  0.05145079  1
  Se  Se116  1  0.09505942  0.08832403  0.54474370  1
  Se  Se117  1  0.08806681  0.41630594  0.05189376  1
  Se  Se118  1  0.10161850  0.41803878  0.55005753  1
  Se  Se119  1  0.08165521  0.74418274  0.06507163  1
  Se  Se120  1  0.07232649  0.73499914  0.55904017  1
  Se  Se121  1  0.41460624  0.08730342  0.06163923  1
  Se  Se122  1  0.41692856  0.08298239  0.56333314  1
  Se  Se123  1  0.41599082  0.41547942  0.05690792  1
  Se  Se124  1  0.42226577  0.41672299  0.54773015  1
  Se  Se125  1  0.41618515  0.74975745  0.05180772  1
  Se  Se126  1  0.40538723  0.73714955  0.55156799  1
  Se  Se127  1  0.74132695  0.08464955  0.06918735  1
  Se  Se128  1  0.75071657  0.07997568  0.55099837  1
  Se  Se129  1  0.73827946  0.41490373  0.07431128  1
  Se  Se130  1  0.74714836  0.41821756  0.54607267  1
  Se  Se131  1  0.75802699  0.76041921  0.05196015  1
  Se  Se132  1  0.73266959  0.73504690  0.55543076  1
  Se  Se133  1  0.24554079  0.24369655  0.05853987  1
  Se  Se134  1  0.26403769  0.25105544  0.55348541  1
  Se  Se135  1  0.24943979  0.57844433  0.05472918  1
  Se  Se136  1  0.24820468  0.57822801  0.54146738  1
  Se  Se137  1  0.25516507  0.92092989  0.06881947  1
  Se  Se138  1  0.25427678  0.92297861  0.56074831  1
  Se  Se139  1  0.57649354  0.24893444  0.05754454  1
  Se  Se140  1  0.59305780  0.25793057  0.55864504  1
  Se  Se141  1  0.58924265  0.57356622  0.06168208  1
  Se  Se142  1  0.57149928  0.57794123  0.54724132  1
  Se  Se143  1  0.58010514  0.92042482  0.05550749  1
  Se  Se144  1  0.58765021  0.92108760  0.55770761  1
  Se  Se145  1  0.91784421  0.26772510  0.05538568  1
  Se  Se146  1  0.90100348  0.23868956  0.54954433  1
  Se  Se147  1  0.91678533  0.59016949  0.07272169  1
  Se  Se148  1  0.90869915  0.57508348  0.54945893  1
  Se  Se149  1  0.92332911  0.93605052  0.04154095  1
  Se  Se150  1  0.92701459  0.92585237  0.55386162  1
  Se  Se151  1  0.09094527  0.25511893  0.44473252  1
  Se  Se152  1  0.08225123  0.25384161  0.95392114  1
  Se  Se153  1  0.08918994  0.57795328  0.44788718  1
  Se  Se154  1  0.08092262  0.57723408  0.95838414  1
  Se  Se155  1  0.08499046  0.92403562  0.43573031  1
  Se  Se156  1  0.08349148  0.91980536  0.93915616  1
  Se  Se157  1  0.41843741  0.26033604  0.42963563  1
  Se  Se158  1  0.41354783  0.24941104  0.95438031  1
  Se  Se159  1  0.42247325  0.57344745  0.43250293  1
  Se  Se160  1  0.41728314  0.57525386  0.94774045  1
  Se  Se161  1  0.40697343  0.92819246  0.44517942  1
  Se  Se162  1  0.41963512  0.91558493  0.95533509  1
  Se  Se163  1  0.74789993  0.23988934  0.44279536  1
  Se  Se164  1  0.74192419  0.25912903  0.94930178  1
  Se  Se165  1  0.75148273  0.57744591  0.44303046  1
  Se  Se166  1  0.74045292  0.59190609  0.94314823  1
  Se  Se167  1  0.74247756  0.91264455  0.43458344  1
  Se  Se168  1  0.75247043  0.92485442  0.95129379  1
  Se  Se169  1  0.25145961  0.09673272  0.44592136  1
  Se  Se170  1  0.25025217  0.08225251  0.95513079  1
  Se  Se171  1  0.25504498  0.41441981  0.43387329  1
  Se  Se172  1  0.24921019  0.41466764  0.95023464  1
  Se  Se173  1  0.25693182  0.74449351  0.43215046  1
  Se  Se174  1  0.25812542  0.73999243  0.93957420  1
  Se  Se175  1  0.58644072  0.07769584  0.43722684  1
  Se  Se176  1  0.58528806  0.08970204  0.95136903  1
  Se  Se177  1  0.58172499  0.41434186  0.43925081  1
  Se  Se178  1  0.58068358  0.41852864  0.95255859  1
  Se  Se179  1  0.58115110  0.73868614  0.42731324  1
  Se  Se180  1  0.58923190  0.74321725  0.96012783  1
  Se  Se181  1  0.91096109  0.08287126  0.44432766  1
  Se  Se182  1  0.92119401  0.08363468  0.93241486  1
  Se  Se183  1  0.91343054  0.40507857  0.45272475  1
  Se  Se184  1  0.90894744  0.41467037  0.94374225  1
  Se  Se185  1  0.91666791  0.73850525  0.43656631  1
  Se  Se186  1  0.91527770  0.74833487  0.95792228  1
  Se  Se187  1  0.26096513  0.25998936  0.29329378  1
  Se  Se188  1  0.25484732  0.25138732  0.81058720  1
  Se  Se189  1  0.25142773  0.58473745  0.29682841  1
  Se  Se190  1  0.23626661  0.57726376  0.80793371  1
  Se  Se191  1  0.24887156  0.91917942  0.30129745  1
  Se  Se192  1  0.25984338  0.92173196  0.80189829  1
  Se  Se193  1  0.57379206  0.24573713  0.30070062  1
  Se  Se194  1  0.57363916  0.24807699  0.82187883  1
  Se  Se195  1  0.60839622  0.59520339  0.29659217  1
  Se  Se196  1  0.57157541  0.57732180  0.80868935  1
  Se  Se197  1  0.58624046  0.91683682  0.29821023  1
  Se  Se198  1  0.58557634  0.92571813  0.81476527  1
  Se  Se199  1  0.91340792  0.24643460  0.30534529  1
  Se  Se200  1  0.92103453  0.25633088  0.79898984  1
  Se  Se201  1  0.92365851  0.56583283  0.32098015  1
  Se  Se202  1  0.91223537  0.57164659  0.81105696  1
  Se  Se203  1  0.91136687  0.91128121  0.29914506  1
  Se  Se204  1  0.91603035  0.91319113  0.81388305  1
  Se  Se205  1  0.07953301  0.09512617  0.31315131  1
  Se  Se206  1  0.09489039  0.09253741  0.81286310  1
  Se  Se207  1  0.08273873  0.41437508  0.30291093  1
  Se  Se208  1  0.08154125  0.40710688  0.80863806  1
  Se  Se209  1  0.08780158  0.75774889  0.30693136  1
  Se  Se210  1  0.09393009  0.75768363  0.80865193  1
  Se  Se211  1  0.41014004  0.07691916  0.30377113  1
  Se  Se212  1  0.41356733  0.08258541  0.81452787  1
  Se  Se213  1  0.43285924  0.44144228  0.28484684  1
  Se  Se214  1  0.41045904  0.41332028  0.80527272  1
  Se  Se215  1  0.42000457  0.75342637  0.29639352  1
  Se  Se216  1  0.42510308  0.75460785  0.81481991  1
  Se  Se217  1  0.74719086  0.07733012  0.29868125  1
  Se  Se218  1  0.75139012  0.09254708  0.79823043  1
  Se  Se219  1  0.75149121  0.41142965  0.30691692  1
  Se  Se220  1  0.75417360  0.42214305  0.80658970  1
  Se  Se221  1  0.76967306  0.75906135  0.29153425  1
  Se  Se222  1  0.74933963  0.75747631  0.82008940  1
  Se  Se223  1  0.24337018  0.08595813  0.20773048  1
  Se  Se224  1  0.25641155  0.08301222  0.70009119  1
  Se  Se225  1  0.25074613  0.41253445  0.19381417  1
  Se  Se226  1  0.25679895  0.41269538  0.69583202  1
  Se  Se227  1  0.25401608  0.75034140  0.20274422  1
  Se  Se228  1  0.24506002  0.75650930  0.68768548  1
  Se  Se229  1  0.58146251  0.08130702  0.20033204  1
  Se  Se230  1  0.58519472  0.09079503  0.70347301  1
  Se  Se231  1  0.58900756  0.39775059  0.20375021  1
  Se  Se232  1  0.58045880  0.42310297  0.69203966  1
  Se  Se233  1  0.58447629  0.74983668  0.18761551  1
  Se  Se234  1  0.57219871  0.76635744  0.69415041  1
  Se  Se235  1  0.90962097  0.09323018  0.18096257  1
  Se  Se236  1  0.92011568  0.09522113  0.68109742  1
  Se  Se237  1  0.92525003  0.40856511  0.20281408  1
  Se  Se238  1  0.92171562  0.41168150  0.69031460  1
  Se  Se239  1  0.92015914  0.75822251  0.18918577  1
  Se  Se240  1  0.89831838  0.75964298  0.69967621  1
  Se  Se241  1  0.08116622  0.24692957  0.19586390  1
  Se  Se242  1  0.08990702  0.24717343  0.69015849  1
  Se  Se243  1  0.08949491  0.57705727  0.18867524  1
  Se  Se244  1  0.08675093  0.56968036  0.68980071  1
  Se  Se245  1  0.08988927  0.91611056  0.18235507  1
  Se  Se246  1  0.08616830  0.91300062  0.69029683  1
  Se  Se247  1  0.41132467  0.24925575  0.19572130  1
  Se  Se248  1  0.42418782  0.25329636  0.70266065  1
  Se  Se249  1  0.41586582  0.58809239  0.19357329  1
  Se  Se250  1  0.41647967  0.57624556  0.68494764  1
  Se  Se251  1  0.41400084  0.92076280  0.19702905  1
  Se  Se252  1  0.41475381  0.92397006  0.70161107  1
  Se  Se253  1  0.74727403  0.25068410  0.20460668  1
  Se  Se254  1  0.75750452  0.24844858  0.68570114  1
  Se  Se255  1  0.76110698  0.57421361  0.20084036  1
  Se  Se256  1  0.75289641  0.57779601  0.69126114  1
  Se  Se257  1  0.74602073  0.91765179  0.19526430  1
  Se  Se258  1  0.74150261  0.92827540  0.70154031  1
