# generated using pymatgen
data_In86Cu29Se144
_symmetry_space_group_name_H-M   'P 1'
_cell_length_a   17.57768059
_cell_length_b   17.57459183
_cell_length_c   23.43285347
_cell_angle_alpha   89.97104933
_cell_angle_beta   90.00701053
_cell_angle_gamma   89.97150028
_symmetry_Int_Tables_number   1
_chemical_formula_structural   In86Cu29Se144
_chemical_formula_sum   'In86 Cu29 Se144'
_cell_volume   7238.88838123
_cell_formula_units_Z   1
loop_
 _symmetry_equiv_pos_site_id
 _symmetry_equiv_pos_as_xyz
  1  'x, y, z'
loop_
 _atom_site_type_symbol
 _atom_site_label
 _atom_site_symmetry_multiplicity
 _atom_site_fract_x
 _atom_site_fract_y
 _atom_site_fract_z
 _atom_site_occupancy
  In  In0  1  -0.00425375  0.16031551  0.14316778  1
  In  In1  1  -0.01231538  0.16753425  0.62047394  1
  In  In2  1  0.00170240  0.49004654  0.12717916  1
  In  In3  1  0.00678879  0.51199326  0.61421630  1
  In  In4  1  0.02954088  0.82977951  0.13252624  1
  In  In5  1  0.02043690  0.82111341  0.64108933  1
  In  In6  1  0.34423412  0.17227234  0.13213888  1
  In  In7  1  0.34553383  0.16733439  0.61563780  1
  In  In8  1  0.33461883  0.50530222  0.12259883  1
  In  In9  1  0.34508767  0.50686334  0.61155693  1
  In  In10  1  0.31953543  0.81153641  0.10473008  1
  In  In11  1  0.32002866  0.82602306  0.62979178  1
  In  In12  1  0.67696035  0.17259782  0.13139477  1
  In  In13  1  0.67386493  0.17045534  0.62266165  1
  In  In14  1  0.65943948  0.50632833  0.13435706  1
  In  In15  1  0.66409591  0.50061362  0.62834460  1
  In  In16  1  0.64622275  0.82860255  0.11582103  1
  In  In17  1  0.66782372  0.81974396  0.64202607  1
  In  In18  1  0.15398864  0.00016711  0.37750402  1
  In  In19  1  0.14848315  -0.01355514  0.86688423  1
  In  In20  1  0.17765230  0.35190523  0.36609179  1
  In  In21  1  0.18561193  0.33835561  0.87381639  1
  In  In22  1  0.16992095  0.65813496  0.38151588  1
  In  In23  1  0.16626191  0.66836815  0.87314503  1
  In  In24  1  0.51178120  0.00163766  0.37935182  1
  In  In25  1  0.49599826  -0.02513770  0.86510324  1
  In  In26  1  0.49759041  0.33610042  0.38166897  1
  In  In27  1  0.51632298  0.34708299  0.87169339  1
  In  In28  1  0.48172013  0.65524324  0.36657589  1
  In  In29  1  0.49611625  0.66267707  0.87757985  1
  In  In30  1  0.84812244  0.00170667  0.37725204  1
  In  In31  1  0.83048251  -0.00509243  0.86626635  1
  In  In32  1  0.83272175  0.33393153  0.37735242  1
  In  In33  1  0.81869025  0.35165360  0.87124061  1
  In  In34  1  0.81508589  0.66834354  0.37651108  1
  In  In35  1  0.84173270  0.65735992  0.85812575  1
  In  In36  1  -0.01163198  0.16592613  0.36905557  1
  In  In37  1  0.00231112  0.15366972  0.87217193  1
  In  In38  1  0.00979778  0.49219155  0.38077229  1
  In  In39  1  0.00011618  0.52648025  0.86214698  1
  In  In40  1  0.00463194  0.84399198  0.37361115  1
  In  In41  1  0.00522741  0.83204615  0.86772085  1
  In  In42  1  0.33576762  0.19064119  0.37824993  1
  In  In43  1  0.34312025  0.17194694  0.87548533  1
  In  In44  1  0.33257739  0.49864473  0.38121060  1
  In  In45  1  0.31321120  0.53024592  0.90035782  1
  In  In46  1  0.32821979  0.81667737  0.37057589  1
  In  In47  1  0.34667964  0.80997401  0.88690968  1
  In  In48  1  0.65495067  0.17689206  0.38661123  1
  In  In49  1  0.67213276  0.17315514  0.86596767  1
  In  In50  1  0.66260255  0.50146015  0.37930535  1
  In  In51  1  0.66551228  0.49112841  0.86570189  1
  In  In52  1  0.66764077  0.82548715  0.37315024  1
  In  In53  1  0.63399458  0.80796431  0.84387523  1
  In  In54  1  0.16274502  -0.01903447  0.13101229  1
  In  In55  1  0.17090670  -0.02319115  0.62705889  1
  In  In56  1  0.15822971  0.34224490  0.13213968  1
  In  In57  1  0.15978669  0.34007698  0.61615902  1
  In  In58  1  0.18215276  0.67237467  0.11208021  1
  In  In59  1  0.16925316  0.66626041  0.62856377  1
  In  In60  1  0.50482850  -0.00658648  0.12069070  1
  In  In61  1  0.50572383  0.00869530  0.62359714  1
  In  In62  1  0.48895708  0.34965788  0.14078326  1
  In  In63  1  0.51700394  0.35672934  0.60702687  1
  In  In64  1  0.50046109  0.66164722  0.12147355  1
  In  In65  1  0.51266798  0.65580500  0.64314487  1
  In  In66  1  0.83910785  0.00744946  0.12927851  1
  In  In67  1  0.83139651  0.00404789  0.62888953  1
  In  In68  1  0.83278790  0.32723254  0.14610200  1
  In  In69  1  0.82657977  0.32315728  0.61169038  1
  In  In70  1  0.83201118  0.65079425  0.12841314  1
  In  In71  1  0.83236612  0.66029908  0.63194016  1
  In  In72  1  0.83175380  0.49854320  -0.00172767  1
  In  In73  1  -0.00598258  0.33510159  0.74439304  1
  In  In74  1  0.33017910  -0.00130274  0.24933551  1
  In  In75  1  0.50293058  0.16540176  0.00453835  1
  In  In76  1  0.49700946  0.83127563  0.50849566  1
  In  In77  1  0.83059192  0.83823644  -0.00553424  1
  In  In78  1  0.16772224  0.16497938  -0.00064522  1
  In  In79  1  0.00157533  0.66612054  0.25116388  1
  In  In80  1  0.16472726  0.16895398  0.49274203  1
  In  In81  1  0.66922161  -0.00026235  0.24946152  1
  In  In82  1  0.34357284  0.34158066  0.74374831  1
  In  In83  1  0.83465927  0.16936465  0.01373509  1
  In  In84  1  0.83965662  0.83477205  0.50429078  1
  In  In85  1  0.33325372  -0.01107151  0.75333898  1
  Cu  Cu86  1  0.65647121  0.66152117  0.50356359  1
  Cu  Cu87  1  0.82891455  0.49808302  0.25761196  1
  Cu  Cu88  1  0.17655889  0.50799618  0.25040770  1
  Cu  Cu89  1  0.16912691  0.50612021  0.74868732  1
  Cu  Cu90  1  0.00766512  0.34094128  0.00158268  1
  Cu  Cu91  1  0.50407206  0.49858412  0.25510301  1
  Cu  Cu92  1  0.84236580  0.83727143  0.74844081  1
  Cu  Cu93  1  0.82916131  0.82902415  0.25007008  1
  Cu  Cu94  1  0.67399270  0.00496067  0.50504160  1
  Cu  Cu95  1  0.51390581  0.16870948  0.74460175  1
  Cu  Cu96  1  0.66468983  0.66842700  -0.00555408  1
  Cu  Cu97  1  0.83458970  0.17073597  0.74326689  1
  Cu  Cu98  1  0.66407501  0.34196076  0.00405017  1
  Cu  Cu99  1  0.32317173  -0.00887144  -0.00603558  1
  Cu  Cu100  1  0.32935402  0.66517494  0.50063257  1
  Cu  Cu101  1  0.33674676  0.34425867  0.00662621  1
  Cu  Cu102  1  0.49322497  0.82115587  0.24212195  1
  Cu  Cu103  1  0.65883500  -0.00639126  -0.01263072  1
  Cu  Cu104  1  -0.00083410  0.66960433  0.50677263  1
  Cu  Cu105  1  0.49112597  0.50189460  0.75210244  1
  Cu  Cu106  1  -0.00100007  0.33817398  0.49507387  1
  Cu  Cu107  1  0.16372629  0.17128976  0.25799335  1
  Cu  Cu108  1  0.00375457  -0.00893313  0.00080182  1
  Cu  Cu109  1  0.50011253  0.17503776  0.25867537  1
  Cu  Cu110  1  0.33421136  -0.00469245  0.50100779  1
  Cu  Cu111  1  0.66651833  0.33842703  0.49865659  1
  Cu  Cu112  1  0.16994605  0.15660893  0.74408146  1
  Cu  Cu113  1  0.00966639  0.66773158  -0.00664657  1
  Cu  Cu114  1  0.00355237  -0.00281805  0.50295014  1
  Se  Se115  1  0.07506005  0.07986210  0.06217746  1
  Se  Se116  1  0.08682858  0.07752755  0.56262369  1
  Se  Se117  1  0.09065469  0.42388631  0.05361934  1
  Se  Se118  1  0.08350883  0.42224980  0.54555416  1
  Se  Se119  1  0.08655479  0.75248092  0.04959156  1
  Se  Se120  1  0.08558089  0.75094216  0.55765407  1
  Se  Se121  1  0.40149901  0.07264376  0.05645128  1
  Se  Se122  1  0.42203833  0.07815594  0.54826483  1
  Se  Se123  1  0.42653789  0.42193139  0.05741829  1
  Se  Se124  1  0.40336178  0.40268797  0.54842262  1
  Se  Se125  1  0.43801146  0.76185145  0.05422938  1
  Se  Se126  1  0.41187879  0.73699911  0.56606683  1
  Se  Se127  1  0.73411253  0.06933228  0.05629531  1
  Se  Se128  1  0.76097105  0.08772899  0.55409540  1
  Se  Se129  1  0.75175780  0.41024742  0.06763149  1
  Se  Se130  1  0.74568442  0.42222193  0.55520919  1
  Se  Se131  1  0.74875919  0.73999043  0.05781190  1
  Se  Se132  1  0.73948452  0.74822434  0.55703520  1
  Se  Se133  1  0.25785661  0.25446217  0.06147421  1
  Se  Se134  1  0.25532975  0.25594004  0.55388116  1
  Se  Se135  1  0.25934715  0.58408668  0.04715870  1
  Se  Se136  1  0.24365402  0.58285868  0.55437353  1
  Se  Se137  1  0.23898189  0.91474905  0.05085218  1
  Se  Se138  1  0.25381047  0.90851511  0.55097828  1
  Se  Se139  1  0.58800129  0.25892206  0.06579472  1
  Se  Se140  1  0.58764137  0.24902354  0.55306002  1
  Se  Se141  1  0.59191117  0.58124780  0.05374290  1
  Se  Se142  1  0.57319035  0.58076956  0.55925474  1
  Se  Se143  1  0.57468068  0.91446716  0.04333425  1
  Se  Se144  1  0.59926425  0.91617409  0.56229293  1
  Se  Se145  1  0.92997616  0.26195128  0.06621156  1
  Se  Se146  1  0.91903350  0.24826834  0.54433152  1
  Se  Se147  1  0.92919453  0.58952697  0.05474471  1
  Se  Se148  1  0.90751502  0.58834512  0.55292420  1
  Se  Se149  1  0.92194038  0.91526780  0.06369359  1
  Se  Se150  1  0.93008263  0.91646050  0.56812540  1
  Se  Se151  1  0.07987504  0.26034098  0.43199523  1
  Se  Se152  1  0.07837814  0.25670364  0.93647422  1
  Se  Se153  1  0.07898965  0.58569045  0.44996795  1
  Se  Se154  1  0.08534616  0.57568400  0.94254137  1
  Se  Se155  1  0.08609243  0.91230319  0.45114127  1
  Se  Se156  1  0.08238439  0.90692204  0.94568995  1
  Se  Se157  1  0.42892703  0.24219703  0.45164633  1
  Se  Se158  1  0.41727445  0.26409948  0.94475268  1
  Se  Se159  1  0.41731091  0.58412579  0.44953066  1
  Se  Se160  1  0.43047012  0.57709449  0.95389522  1
  Se  Se161  1  0.41263533  0.91603627  0.43705250  1
  Se  Se162  1  0.41748879  0.91507260  0.94629715  1
  Se  Se163  1  0.75128965  0.25184174  0.44965841  1
  Se  Se164  1  0.74635011  0.25867936  0.94676858  1
  Se  Se165  1  0.74609296  0.58450167  0.45043332  1
  Se  Se166  1  0.74731034  0.58997388  0.93574307  1
  Se  Se167  1  0.74465507  0.92068064  0.44101890  1
  Se  Se168  1  0.73675381  0.91214209  0.92857157  1
  Se  Se169  1  0.26052612  0.07741541  0.43601716  1
  Se  Se170  1  0.25258565  0.07659715  0.93228527  1
  Se  Se171  1  0.24454375  0.41897735  0.44822808  1
  Se  Se172  1  0.24512376  0.41821730  0.95360773  1
  Se  Se173  1  0.24766161  0.75080084  0.44840311  1
  Se  Se174  1  0.24823992  0.73987283  0.94845138  1
  Se  Se175  1  0.58262760  0.08189117  0.45405919  1
  Se  Se176  1  0.58300405  0.08399553  0.93172495  1
  Se  Se177  1  0.57934782  0.42223474  0.45006391  1
  Se  Se178  1  0.58749886  0.42696709  0.94833307  1
  Se  Se179  1  0.57979289  0.74311841  0.44094973  1
  Se  Se180  1  0.58574497  0.75390017  0.93982529  1
  Se  Se181  1  0.92417141  0.08283741  0.44945885  1
  Se  Se182  1  0.91753212  0.07525072  0.94709142  1
  Se  Se183  1  0.91213993  0.42287943  0.44617828  1
  Se  Se184  1  0.92564426  0.41406698  0.93638755  1
  Se  Se185  1  0.92245069  0.74415011  0.43804054  1
  Se  Se186  1  0.91582884  0.73956739  0.93819903  1
  Se  Se187  1  0.25303052  0.25646121  0.30120378  1
  Se  Se188  1  0.24993087  0.24084937  0.80014127  1
  Se  Se189  1  0.25597932  0.58670384  0.30901369  1
  Se  Se190  1  0.25364428  0.58255517  0.80703503  1
  Se  Se191  1  0.24030904  0.91141826  0.30969892  1
  Se  Se192  1  0.25005510  0.90071817  0.81669169  1
  Se  Se193  1  0.58435904  0.25698496  0.30998689  1
  Se  Se194  1  0.58767009  0.25839971  0.80080718  1
  Se  Se195  1  0.58492755  0.58639766  0.30660748  1
  Se  Se196  1  0.57843964  0.58090950  0.80616414  1
  Se  Se197  1  0.57178566  0.90395705  0.30353074  1
  Se  Se198  1  0.60258329  0.93812003  0.79704541  1
  Se  Se199  1  0.92096408  0.26341567  0.30545039  1
  Se  Se200  1  0.90933876  0.24692395  0.81322865  1
  Se  Se201  1  0.91113521  0.58135377  0.31487298  1
  Se  Se202  1  0.88953485  0.54755762  0.79356676  1
  Se  Se203  1  0.91072209  0.91116292  0.30368650  1
  Se  Se204  1  0.92477894  0.92127027  0.80185627  1
  Se  Se205  1  0.08046448  0.08417195  0.30571948  1
  Se  Se206  1  0.08133152  0.07991941  0.79689766  1
  Se  Se207  1  0.08514716  0.42683990  0.29882526  1
  Se  Se208  1  0.09215853  0.41777308  0.80715426  1
  Se  Se209  1  0.09170522  0.75390283  0.31033448  1
  Se  Se210  1  0.05784427  0.72097846  0.80819040  1
  Se  Se211  1  0.42156281  0.08631692  0.31256447  1
  Se  Se212  1  0.42767683  0.09202656  0.80451308  1
  Se  Se213  1  0.41804836  0.41994067  0.31036040  1
  Se  Se214  1  0.41155076  0.42855658  0.81872759  1
  Se  Se215  1  0.40708588  0.74233921  0.29591137  1
  Se  Se216  1  0.42958775  0.75683389  0.80612238  1
  Se  Se217  1  0.74521940  0.08310852  0.32112097  1
  Se  Se218  1  0.75449070  0.08750253  0.80104420  1
  Se  Se219  1  0.74484608  0.41698847  0.31072184  1
  Se  Se220  1  0.74862698  0.41948022  0.79103654  1
  Se  Se221  1  0.74297921  0.74665244  0.29884783  1
  Se  Se222  1  0.75917032  0.75332077  0.80108116  1
  Se  Se223  1  0.23895517  0.09277077  0.19018640  1
  Se  Se224  1  0.25488903  0.08390509  0.68471023  1
  Se  Se225  1  0.25337583  0.42110614  0.19309651  1
  Se  Se226  1  0.24361370  0.42386251  0.68680889  1
  Se  Se227  1  0.24385665  0.75702956  0.18930546  1
  Se  Se228  1  0.23822880  0.75423355  0.70202901  1
  Se  Se229  1  0.57165727  0.09153111  0.19309085  1
  Se  Se230  1  0.59384449  0.08310802  0.69201247  1
  Se  Se231  1  0.59114630  0.41351782  0.20450841  1
  Se  Se232  1  0.57407903  0.41924720  0.69643790  1
  Se  Se233  1  0.58577557  0.74378915  0.19304914  1
  Se  Se234  1  0.56361763  0.76473766  0.70729987  1
  Se  Se235  1  0.89635984  0.09318657  0.20612002  1
  Se  Se236  1  0.92065113  0.08451823  0.69652824  1
  Se  Se237  1  0.91737523  0.42259380  0.20208035  1
  Se  Se238  1  0.91502381  0.41732482  0.67437011  1
  Se  Se239  1  0.91228154  0.75571040  0.18629972  1
  Se  Se240  1  0.91804208  0.74526208  0.69701056  1
  Se  Se241  1  0.08198871  0.25286660  0.19998376  1
  Se  Se242  1  0.09064510  0.24254714  0.68779213  1
  Se  Se243  1  0.09262829  0.58270571  0.18707687  1
  Se  Se244  1  0.07972657  0.58266441  0.69512632  1
  Se  Se245  1  0.06668573  0.93238406  0.20522772  1
  Se  Se246  1  0.08851536  0.91937270  0.70597092  1
  Se  Se247  1  0.41301038  0.25612677  0.20598266  1
  Se  Se248  1  0.43122712  0.24825759  0.68557823  1
  Se  Se249  1  0.42361013  0.57851932  0.19435991  1
  Se  Se250  1  0.40539127  0.58027633  0.69613211  1
  Se  Se251  1  0.41692091  0.91008369  0.18655685  1
  Se  Se252  1  0.42349466  0.91209695  0.68595886  1
  Se  Se253  1  0.75268329  0.23907753  0.20939969  1
  Se  Se254  1  0.75162180  0.25640235  0.69349168  1
  Se  Se255  1  0.74888028  0.58366535  0.20317685  1
  Se  Se256  1  0.71803308  0.61148227  0.69009579  1
  Se  Se257  1  0.75045833  0.90590559  0.18350592  1
  Se  Se258  1  0.75387433  0.91562243  0.69630756  1
