# generated using pymatgen
data_In86Cu29Se144
_symmetry_space_group_name_H-M   'P 1'
_cell_length_a   17.58978239
_cell_length_b   17.59289580
_cell_length_c   23.44527231
_cell_angle_alpha   89.98365883
_cell_angle_beta   89.99115507
_cell_angle_gamma   89.99960303
_symmetry_Int_Tables_number   1
_chemical_formula_structural   In86Cu29Se144
_chemical_formula_sum   'In86 Cu29 Se144'
_cell_volume   7255.26125217
_cell_formula_units_Z   1
loop_
 _symmetry_equiv_pos_site_id
 _symmetry_equiv_pos_as_xyz
  1  'x, y, z'
loop_
 _atom_site_type_symbol
 _atom_site_label
 _atom_site_symmetry_multiplicity
 _atom_site_fract_x
 _atom_site_fract_y
 _atom_site_fract_z
 _atom_site_occupancy
  In  In0  1  -0.00896783  0.16917310  0.14214817  1
  In  In1  1  -0.00014105  0.14997270  0.62191082  1
  In  In2  1  -0.00001862  0.50107555  0.13459855  1
  In  In3  1  -0.00512795  0.51072767  0.61588905  1
  In  In4  1  0.00128400  0.83231916  0.12821338  1
  In  In5  1  0.00006440  0.83766873  0.61669527  1
  In  In6  1  0.34836830  0.16537177  0.12428006  1
  In  In7  1  0.32200798  0.16379477  0.61295493  1
  In  In8  1  0.33058454  0.50155750  0.13962336  1
  In  In9  1  0.37515240  0.50393115  0.61554899  1
  In  In10  1  0.32659544  0.83546907  0.12793006  1
  In  In11  1  0.33174153  0.83417237  0.62539863  1
  In  In12  1  0.66789975  0.17628783  0.12914211  1
  In  In13  1  0.65877749  0.17068599  0.62964806  1
  In  In14  1  0.67266942  0.49916772  0.13672773  1
  In  In15  1  0.64784035  0.49162526  0.60641090  1
  In  In16  1  0.66772253  0.82190557  0.12966758  1
  In  In17  1  0.67785930  0.84371694  0.61628314  1
  In  In18  1  0.16110264  0.00635840  0.37943143  1
  In  In19  1  0.15287399  -0.00872986  0.86355341  1
  In  In20  1  0.16170451  0.32463568  0.37024261  1
  In  In21  1  0.16932639  0.32452303  0.87855526  1
  In  In22  1  0.17660153  0.67416626  0.37168774  1
  In  In23  1  0.17870647  0.67258969  0.87314616  1
  In  In24  1  0.49849120  -0.00034090  0.38745433  1
  In  In25  1  0.50939597  0.01123726  0.86370430  1
  In  In26  1  0.49867014  0.33325049  0.37619555  1
  In  In27  1  0.49617232  0.31743046  0.87441591  1
  In  In28  1  0.50333609  0.66699608  0.38232745  1
  In  In29  1  0.50126115  0.68088479  0.86857908  1
  In  In30  1  0.83403887  -0.01760260  0.36931384  1
  In  In31  1  0.82754271  -0.01518087  0.86237629  1
  In  In32  1  0.84382550  0.34005401  0.36415457  1
  In  In33  1  0.82380226  0.34356108  0.87328941  1
  In  In34  1  0.83024412  0.67130915  0.37213606  1
  In  In35  1  0.84449315  0.67175428  0.87488083  1
  In  In36  1  0.00265008  0.17305583  0.36160046  1
  In  In37  1  0.00903964  0.15907867  0.87675034  1
  In  In38  1  -0.01119882  0.49317972  0.36972368  1
  In  In39  1  -0.01124327  0.50074535  0.87496376  1
  In  In40  1  -0.00007222  0.83630743  0.37038350  1
  In  In41  1  -0.00851189  0.84776404  0.88710624  1
  In  In42  1  0.32853600  0.17700076  0.38876474  1
  In  In43  1  0.34545492  0.17320067  0.87107859  1
  In  In44  1  0.34268883  0.50627981  0.37422173  1
  In  In45  1  0.33045610  0.50242762  0.87080759  1
  In  In46  1  0.34183042  0.82170585  0.38663969  1
  In  In47  1  0.32234532  0.82946395  0.86666245  1
  In  In48  1  0.65050135  0.16737318  0.37712990  1
  In  In49  1  0.66244779  0.15886219  0.86739216  1
  In  In50  1  0.66864334  0.50686044  0.38124114  1
  In  In51  1  0.67383632  0.49881560  0.86676221  1
  In  In52  1  0.68914740  0.80119074  0.40841933  1
  In  In53  1  0.66988655  0.84202218  0.87194577  1
  In  In54  1  0.16420981  -0.01668990  0.12106257  1
  In  In55  1  0.16546648  -0.00192193  0.62291816  1
  In  In56  1  0.16107690  0.34121063  0.13579828  1
  In  In57  1  0.18371579  0.32813068  0.61620759  1
  In  In58  1  0.15818523  0.67846535  0.13644131  1
  In  In59  1  0.16857837  0.68109978  0.61925497  1
  In  In60  1  0.48878256  0.00092228  0.12162936  1
  In  In61  1  0.49809907  0.00019785  0.62485480  1
  In  In62  1  0.50958839  0.32766394  0.13427844  1
  In  In63  1  0.50696158  0.34173487  0.60959591  1
  In  In64  1  0.50494697  0.66271790  0.13925831  1
  In  In65  1  0.49689504  0.65805407  0.61644340  1
  In  In66  1  0.84726431  -0.00550339  0.13241382  1
  In  In67  1  0.83893198  -0.01411383  0.63574641  1
  In  In68  1  0.83065798  0.32362725  0.14430076  1
  In  In69  1  0.81565233  0.32971146  0.62042892  1
  In  In70  1  0.82965768  0.67967294  0.13806432  1
  In  In71  1  0.82777961  0.66979576  0.60578568  1
  In  In72  1  0.34513152  0.33774296  0.74117549  1
  In  In73  1  0.00148737  0.67688905  0.73891420  1
  In  In74  1  0.83596779  0.16332520  0.01103148  1
  In  In75  1  0.50125195  0.83995115  -0.00596303  1
  In  In76  1  0.66694545  -0.00334483  0.25650984  1
  In  In77  1  0.32943078  0.00014127  0.25023406  1
  In  In78  1  0.16662264  0.16414363  -0.00040699  1
  In  In79  1  0.16462734  0.51006009  0.01239305  1
  In  In80  1  0.83608399  0.49721054  0.01255957  1
  In  In81  1  0.49977709  0.49800384  -0.00194942  1
  In  In82  1  0.83324442  0.16173646  0.49817092  1
  In  In83  1  0.16729041  0.49850563  0.49316758  1
  In  In84  1  -0.00019682  0.32920248  0.75533082  1
  In  In85  1  0.66318745  0.66771630  0.74098235  1
  Cu  Cu86  1  0.16524078  0.83641649  0.74476733  1
  Cu  Cu87  1  0.50075021  0.50140461  0.25972300  1
  Cu  Cu88  1  0.16763770  0.16051083  0.74252678  1
  Cu  Cu89  1  -0.00045204  -0.00313162  0.00247624  1
  Cu  Cu90  1  0.00799534  0.67732853  0.00342833  1
  Cu  Cu91  1  0.17591021  0.50192566  0.75027656  1
  Cu  Cu92  1  0.32865989  -0.00420884  0.50520497  1
  Cu  Cu93  1  0.67802553  0.66481377  0.00785666  1
  Cu  Cu94  1  0.33273945  0.00403633  -0.00556961  1
  Cu  Cu95  1  0.00225614  -0.00301671  0.49742270  1
  Cu  Cu96  1  0.82496979  0.49642186  0.73929422  1
  Cu  Cu97  1  0.16905133  0.16412686  0.25385836  1
  Cu  Cu98  1  0.33289825  0.66620231  0.49960266  1
  Cu  Cu99  1  0.49619103  0.17094375  0.25430650  1
  Cu  Cu100  1  0.82938001  0.16310554  0.74537183  1
  Cu  Cu101  1  0.66056468  0.32210642  0.00362080  1
  Cu  Cu102  1  -0.00667600  0.67097862  0.49324066  1
  Cu  Cu103  1  0.82703512  0.51020659  0.25456971  1
  Cu  Cu104  1  0.33548345  0.33337210  0.00363266  1
  Cu  Cu105  1  0.00091138  0.32789844  0.48999445  1
  Cu  Cu106  1  0.50136366  0.16456246  0.74548094  1
  Cu  Cu107  1  0.49398977  0.83642078  0.74496988  1
  Cu  Cu108  1  0.66578186  0.00145479  0.50185520  1
  Cu  Cu109  1  0.66972801  0.33848176  0.49475488  1
  Cu  Cu110  1  0.16841585  0.49569142  0.25964319  1
  Cu  Cu111  1  0.50414104  0.82690921  0.26458930  1
  Cu  Cu112  1  0.16643730  0.83336394  0.25210892  1
  Cu  Cu113  1  0.33391821  0.67918643  0.00002368  1
  Cu  Cu114  1  0.66843196  0.00249877  -0.00873750  1
  Se  Se115  1  0.07340495  0.08195191  0.06356993  1
  Se  Se116  1  0.08571354  0.08144788  0.54966615  1
  Se  Se117  1  0.07291903  0.41096918  0.05892211  1
  Se  Se118  1  0.07633356  0.40830435  0.55609810  1
  Se  Se119  1  0.09274924  0.75774941  0.05695430  1
  Se  Se120  1  0.07849245  0.74918245  0.54902705  1
  Se  Se121  1  0.41794331  0.08409137  0.04746650  1
  Se  Se122  1  0.41588303  0.08100003  0.55349031  1
  Se  Se123  1  0.41130948  0.41556146  0.06443957  1
  Se  Se124  1  0.39295928  0.39068506  0.55007113  1
  Se  Se125  1  0.42232740  0.74789568  0.06199046  1
  Se  Se126  1  0.41285808  0.75039247  0.55555212  1
  Se  Se127  1  0.74138072  0.07151542  0.06500558  1
  Se  Se128  1  0.74801207  0.07783994  0.56505453  1
  Se  Se129  1  0.74095980  0.40225694  0.06361935  1
  Se  Se130  1  0.75428516  0.42094992  0.54795477  1
  Se  Se131  1  0.75683498  0.75300429  0.05751220  1
  Se  Se132  1  0.74162350  0.75300605  0.54275944  1
  Se  Se133  1  0.25112307  0.25684624  0.06310571  1
  Se  Se134  1  0.24479890  0.24495153  0.54058023  1
  Se  Se135  1  0.26195695  0.59793850  0.06535843  1
  Se  Se136  1  0.25527397  0.58190312  0.56079579  1
  Se  Se137  1  0.25830463  0.91769039  0.05121257  1
  Se  Se138  1  0.24361298  0.91003764  0.55477152  1
  Se  Se139  1  0.57587859  0.24260153  0.05711531  1
  Se  Se140  1  0.59319420  0.25042516  0.55026484  1
  Se  Se141  1  0.59101660  0.58550435  0.06081334  1
  Se  Se142  1  0.58370000  0.59095693  0.54250222  1
  Se  Se143  1  0.59181897  0.92402829  0.05863326  1
  Se  Se144  1  0.58049966  0.91858574  0.55405262  1
  Se  Se145  1  0.92207540  0.26046285  0.06589052  1
  Se  Se146  1  0.92332284  0.25438742  0.55915551  1
  Se  Se147  1  0.92705540  0.59484338  0.06217678  1
  Se  Se148  1  0.91291257  0.58145034  0.54268709  1
  Se  Se149  1  0.91773894  0.91366322  0.05667800  1
  Se  Se150  1  0.91257130  0.92182035  0.55197703  1
  Se  Se151  1  0.08190507  0.24107942  0.44092545  1
  Se  Se152  1  0.07054334  0.26009961  0.94795964  1
  Se  Se153  1  0.07603756  0.58889286  0.43526030  1
  Se  Se154  1  0.07683547  0.59120428  0.93990502  1
  Se  Se155  1  0.08460050  0.91283982  0.44392066  1
  Se  Se156  1  0.09087192  0.92079348  0.94937695  1
  Se  Se157  1  0.43950034  0.23354452  0.44542018  1
  Se  Se158  1  0.41595704  0.24790381  0.95097615  1
  Se  Se159  1  0.41865889  0.58104022  0.45087817  1
  Se  Se160  1  0.41158599  0.59596786  0.94127112  1
  Se  Se161  1  0.41442539  0.91478980  0.45290407  1
  Se  Se162  1  0.41139628  0.92511984  0.93160257  1
  Se  Se163  1  0.74980407  0.25555506  0.43653347  1
  Se  Se164  1  0.74704125  0.24937706  0.94289634  1
  Se  Se165  1  0.75327192  0.59081098  0.44610386  1
  Se  Se166  1  0.75042477  0.58461775  0.94255969  1
  Se  Se167  1  0.75450314  0.92205679  0.45081681  1
  Se  Se168  1  0.75382327  0.91620752  0.94466617  1
  Se  Se169  1  0.24982627  0.08032443  0.44838226  1
  Se  Se170  1  0.25220667  0.08091600  0.93204762  1
  Se  Se171  1  0.25572246  0.40871975  0.43541993  1
  Se  Se172  1  0.25393856  0.41531986  0.94676792  1
  Se  Se173  1  0.24438436  0.74966105  0.45232681  1
  Se  Se174  1  0.24782385  0.75821946  0.94739964  1
  Se  Se175  1  0.58102478  0.08712276  0.45363068  1
  Se  Se176  1  0.58188284  0.08585778  0.94330266  1
  Se  Se177  1  0.58093342  0.41930404  0.44472519  1
  Se  Se178  1  0.59321952  0.40887517  0.93960306  1
  Se  Se179  1  0.55799386  0.77135818  0.44995633  1
  Se  Se180  1  0.59722847  0.74153521  0.94420828  1
  Se  Se181  1  0.92341785  0.07781039  0.43499983  1
  Se  Se182  1  0.91778979  0.07585157  0.94206196  1
  Se  Se183  1  0.91400462  0.41387125  0.44525302  1
  Se  Se184  1  0.92196753  0.40649889  0.94635401  1
  Se  Se185  1  0.91431090  0.75762445  0.44057258  1
  Se  Se186  1  0.91591671  0.75146901  0.95006981  1
  Se  Se187  1  0.25508857  0.24431196  0.30626471  1
  Se  Se188  1  0.24566403  0.24749273  0.80039343  1
  Se  Se189  1  0.25363843  0.58315073  0.30602232  1
  Se  Se190  1  0.25521988  0.58910038  0.80193292  1
  Se  Se191  1  0.24902463  0.90871544  0.31466343  1
  Se  Se192  1  0.24902882  0.92054693  0.79820379  1
  Se  Se193  1  0.58335939  0.25413515  0.30301018  1
  Se  Se194  1  0.58243990  0.24904035  0.80148112  1
  Se  Se195  1  0.58397955  0.58706801  0.31007087  1
  Se  Se196  1  0.57597948  0.57877841  0.80633779  1
  Se  Se197  1  0.58138313  0.91143902  0.32108128  1
  Se  Se198  1  0.58132066  0.91213152  0.80162015  1
  Se  Se199  1  0.91285330  0.24821943  0.29584398  1
  Se  Se200  1  0.90533417  0.23919829  0.81355237  1
  Se  Se201  1  0.91793423  0.58886453  0.30423064  1
  Se  Se202  1  0.90875155  0.57735412  0.79711232  1
  Se  Se203  1  0.92236062  0.91753932  0.29747524  1
  Se  Se204  1  0.92760705  0.91291687  0.80276359  1
  Se  Se205  1  0.08452772  0.07744027  0.30109510  1
  Se  Se206  1  0.07862254  0.08531177  0.79745827  1
  Se  Se207  1  0.07866160  0.41163244  0.30508131  1
  Se  Se208  1  0.09437096  0.42596062  0.81114611  1
  Se  Se209  1  0.08452482  0.74778968  0.30459701  1
  Se  Se210  1  0.08579161  0.75761293  0.80926547  1
  Se  Se211  1  0.41907980  0.08584652  0.31221354  1
  Se  Se212  1  0.41348173  0.08555447  0.79888212  1
  Se  Se213  1  0.41511969  0.41422811  0.30548445  1
  Se  Se214  1  0.42872198  0.42386355  0.80992272  1
  Se  Se215  1  0.41385155  0.74368959  0.30997084  1
  Se  Se216  1  0.41308840  0.75195989  0.79964398  1
  Se  Se217  1  0.75234033  0.09013714  0.31590074  1
  Se  Se218  1  0.74788057  0.07820619  0.80066112  1
  Se  Se219  1  0.74732494  0.42355336  0.30786939  1
  Se  Se220  1  0.74588209  0.41256531  0.79498294  1
  Se  Se221  1  0.74116195  0.75885262  0.31155269  1
  Se  Se222  1  0.75607651  0.75071667  0.80627056  1
  Se  Se223  1  0.24225514  0.08836434  0.18468813  1
  Se  Se224  1  0.25314923  0.08136737  0.68976391  1
  Se  Se225  1  0.25178274  0.41228612  0.20449159  1
  Se  Se226  1  0.25045114  0.42638705  0.68487932  1
  Se  Se227  1  0.25536785  0.75184062  0.20098388  1
  Se  Se228  1  0.24877545  0.74902993  0.69593954  1
  Se  Se229  1  0.57158968  0.08417402  0.19354314  1
  Se  Se230  1  0.58527627  0.07753916  0.69619698  1
  Se  Se231  1  0.58215067  0.42029110  0.20064839  1
  Se  Se232  1  0.57920053  0.41850221  0.68610391  1
  Se  Se233  1  0.58636601  0.74981529  0.20417034  1
  Se  Se234  1  0.57540512  0.75992204  0.68262261  1
  Se  Se235  1  0.90437123  0.08724975  0.20459764  1
  Se  Se236  1  0.91834120  0.08198085  0.69739734  1
  Se  Se237  1  0.90901556  0.42424710  0.20024643  1
  Se  Se238  1  0.91600004  0.41754986  0.68668632  1
  Se  Se239  1  0.93852018  0.73498865  0.19710587  1
  Se  Se240  1  0.90207295  0.75618916  0.68280329  1
  Se  Se241  1  0.08514160  0.25035416  0.20188968  1
  Se  Se242  1  0.08924267  0.24880852  0.68694378  1
  Se  Se243  1  0.09067588  0.57797720  0.19974102  1
  Se  Se244  1  0.09243024  0.57610612  0.68814013  1
  Se  Se245  1  0.08421554  0.91743399  0.19826589  1
  Se  Se246  1  0.07894588  0.91583414  0.69086246  1
  Se  Se247  1  0.41325000  0.25228354  0.19851336  1
  Se  Se248  1  0.42415680  0.24138082  0.68093048  1
  Se  Se249  1  0.41646783  0.58458271  0.20450129  1
  Se  Se250  1  0.42022313  0.58821071  0.69599770  1
  Se  Se251  1  0.42830367  0.90583980  0.19811679  1
  Se  Se252  1  0.41047279  0.92142335  0.69428774  1
  Se  Se253  1  0.73585599  0.25109547  0.20699729  1
  Se  Se254  1  0.74686943  0.25124702  0.69769990  1
  Se  Se255  1  0.74352168  0.59400173  0.20167926  1
  Se  Se256  1  0.75074847  0.57877020  0.67844966  1
  Se  Se257  1  0.75585381  0.90674023  0.19557276  1
  Se  Se258  1  0.74401396  0.91286343  0.69946665  1
