# generated using pymatgen
data_In86Cu29Se144
_symmetry_space_group_name_H-M   'P 1'
_cell_length_a   17.54768584
_cell_length_b   17.54698659
_cell_length_c   23.39629468
_cell_angle_alpha   90.00136192
_cell_angle_beta   89.98828316
_cell_angle_gamma   90.00152719
_symmetry_Int_Tables_number   1
_chemical_formula_structural   In86Cu29Se144
_chemical_formula_sum   'In86 Cu29 Se144'
_cell_volume   7203.92973029
_cell_formula_units_Z   1
loop_
 _symmetry_equiv_pos_site_id
 _symmetry_equiv_pos_as_xyz
  1  'x, y, z'
loop_
 _atom_site_type_symbol
 _atom_site_label
 _atom_site_symmetry_multiplicity
 _atom_site_fract_x
 _atom_site_fract_y
 _atom_site_fract_z
 _atom_site_occupancy
  In  In0  1  0.01882547  0.18263332  0.12171794  1
  In  In1  1  -0.00107783  0.16519679  0.62464189  1
  In  In2  1  0.00213819  0.50139284  0.12551700  1
  In  In3  1  0.00354756  0.49473284  0.64959893  1
  In  In4  1  -0.00803095  0.82415971  0.11505720  1
  In  In5  1  0.01699027  0.82250569  0.63414709  1
  In  In6  1  0.32632417  0.18097265  0.13530578  1
  In  In7  1  0.30987979  0.17181640  0.62068919  1
  In  In8  1  0.33185648  0.50530707  0.12397059  1
  In  In9  1  0.33358347  0.50630184  0.63218076  1
  In  In10  1  0.32614727  0.82835387  0.12211219  1
  In  In11  1  0.33273221  0.83508394  0.62414312  1
  In  In12  1  0.64662395  0.17994189  0.14815751  1
  In  In13  1  0.67042325  0.15142056  0.61403113  1
  In  In14  1  0.66563641  0.49998386  0.12742730  1
  In  In15  1  0.66688893  0.50751005  0.62254914  1
  In  In16  1  0.67428055  0.81770685  0.14366081  1
  In  In17  1  0.66625462  0.84190292  0.61713983  1
  In  In18  1  0.16269099  0.00007361  0.38720847  1
  In  In19  1  0.16579287  0.00057721  0.87491167  1
  In  In20  1  0.15960669  0.31605629  0.35568214  1
  In  In21  1  0.14777764  0.34837852  0.89457377  1
  In  In22  1  0.17164628  0.67165535  0.36739107  1
  In  In23  1  0.17193993  0.66372049  0.87562312  1
  In  In24  1  0.49446805  -0.01895069  0.37031823  1
  In  In25  1  0.49339233  0.01084449  0.87467483  1
  In  In26  1  0.50083732  0.33288080  0.35061313  1
  In  In27  1  0.50616861  0.33998552  0.88700563  1
  In  In28  1  0.50267119  0.67401882  0.35346575  1
  In  In29  1  0.48665832  0.66635489  0.87945565  1
  In  In30  1  0.83642226  0.01161638  0.37822099  1
  In  In31  1  0.83436175  -0.01608419  0.88132048  1
  In  In32  1  0.82542965  0.32796964  0.36135930  1
  In  In33  1  0.84698378  0.34139477  0.87429180  1
  In  In34  1  0.82911078  0.65146345  0.35746230  1
  In  In35  1  0.85779693  0.64645374  0.89454593  1
  In  In36  1  -0.00262048  0.16593882  0.38078949  1
  In  In37  1  0.01085757  0.18054551  0.87086539  1
  In  In38  1  -0.00953296  0.49782842  0.35585263  1
  In  In39  1  0.00370298  0.50132215  0.87148582  1
  In  In40  1  0.00844636  0.82805244  0.37834250  1
  In  In41  1  0.00430583  0.82980219  0.87885289  1
  In  In42  1  0.31973503  0.16899435  0.36939078  1
  In  In43  1  0.32538326  0.15187554  0.87115994  1
  In  In44  1  0.34060464  0.50152386  0.35185523  1
  In  In45  1  0.31781002  0.51665293  0.89283439  1
  In  In46  1  0.33437432  0.83168038  0.38167842  1
  In  In47  1  0.32350847  0.82225456  0.86776603  1
  In  In48  1  0.67743678  0.17639385  0.36025542  1
  In  In49  1  0.66331689  0.16684289  0.88190626  1
  In  In50  1  0.66276646  0.49758456  0.34577553  1
  In  In51  1  0.67000776  0.50024245  0.89115835  1
  In  In52  1  0.64574100  0.82175487  0.35652637  1
  In  In53  1  0.67624820  0.84177284  0.88250486  1
  In  In54  1  0.17040153  -0.00216830  0.11542226  1
  In  In55  1  0.16751475  0.00101237  0.62947764  1
  In  In56  1  0.15938226  0.33141914  0.12788565  1
  In  In57  1  0.16311066  0.32301276  0.62250364  1
  In  In58  1  0.16747451  0.66710944  0.12268657  1
  In  In59  1  0.15707790  0.67232962  0.63264980  1
  In  In60  1  0.50258902  0.00873952  0.13278738  1
  In  In61  1  0.50622184  -0.01683760  0.61913696  1
  In  In62  1  0.47267292  0.36534172  0.16378741  1
  In  In63  1  0.50122441  0.34662255  0.61899502  1
  In  In64  1  0.52511983  0.63958549  0.15629108  1
  In  In65  1  0.48310203  0.66870462  0.62285214  1
  In  In66  1  0.83263163  -0.00785388  0.12088142  1
  In  In67  1  0.82702537  0.00984474  0.62170992  1
  In  In68  1  0.81870645  0.36534155  0.14591842  1
  In  In69  1  0.85057590  0.33343603  0.62192200  1
  In  In70  1  0.83453253  0.66200886  0.12889073  1
  In  In71  1  0.83797544  0.67051746  0.62705093  1
  In  In72  1  0.66904438  -0.00352863  0.75139584  1
  In  In73  1  0.33311875  -0.00134157  0.25041905  1
  In  In74  1  0.49078872  0.17453037  0.01491249  1
  In  In75  1  -0.00258283  -0.00190570  0.25419390  1
  In  In76  1  0.83437270  0.49801450  0.49217966  1
  In  In77  1  0.32286681  0.33830218  0.75425012  1
  In  In78  1  0.83646560  0.17289766  0.00496690  1
  In  In79  1  0.67703688  0.66767844  0.74964943  1
  In  In80  1  0.83711383  0.83354841  0.49883725  1
  In  In81  1  0.16684276  0.49977454  0.49636749  1
  In  In82  1  0.49849332  0.50021941  0.47376021  1
  In  In83  1  0.49708473  0.82460845  0.00965411  1
  In  In84  1  0.67369158  0.32848129  0.76292157  1
  In  In85  1  0.49573724  0.16003572  0.48693457  1
  Cu  Cu86  1  0.66934667  0.67025598  0.01389928  1
  Cu  Cu87  1  0.00281038  0.00118281  -0.00075599  1
  Cu  Cu88  1  0.49146719  0.83092393  0.74702906  1
  Cu  Cu89  1  0.32936558  0.00211261  0.50169011  1
  Cu  Cu90  1  0.32894048  0.68087246  0.49719171  1
  Cu  Cu91  1  0.67563721  0.32095976  0.48947777  1
  Cu  Cu92  1  0.00781005  -0.00172934  0.50717725  1
  Cu  Cu93  1  0.84826892  0.16523240  0.24836667  1
  Cu  Cu94  1  0.66825639  -0.00385317  0.49020487  1
  Cu  Cu95  1  0.33471324  0.33318622  0.01326779  1
  Cu  Cu96  1  0.32681486  0.34177315  0.48897806  1
  Cu  Cu97  1  0.16799623  0.50175632  0.24063450  1
  Cu  Cu98  1  0.16145446  0.16717578  0.74877248  1
  Cu  Cu99  1  0.82926979  0.82967316  0.24560769  1
  Cu  Cu100  1  0.67267492  -0.00230772  0.01159133  1
  Cu  Cu101  1  0.48270585  0.16511979  0.74484878  1
  Cu  Cu102  1  0.49721341  0.50235154  0.75619490  1
  Cu  Cu103  1  0.66749746  0.34516065  0.01292686  1
  Cu  Cu104  1  0.65293512  0.66820374  0.48557791  1
  Cu  Cu105  1  0.17284540  0.83760176  0.75307761  1
  Cu  Cu106  1  0.83765937  0.16762633  0.74536755  1
  Cu  Cu107  1  0.33716395  0.66033468  0.00394571  1
  Cu  Cu108  1  0.84626421  0.82578781  0.75691813  1
  Cu  Cu109  1  0.15979540  0.83170075  0.24773850  1
  Cu  Cu110  1  0.00506766  0.32387192  0.49748994  1
  Cu  Cu111  1  0.00235243  0.66285893  0.50127280  1
  Cu  Cu112  1  0.00612877  0.66559342  0.00094954  1
  Cu  Cu113  1  0.32602753  -0.00783021  -0.00422539  1
  Cu  Cu114  1  -0.00240028  0.34234824  0.00364660  1
  Se  Se115  1  0.08347347  0.08514732  0.05309128  1
  Se  Se116  1  0.08934373  0.08681678  0.55804333  1
  Se  Se117  1  0.08846366  0.42066255  0.05547530  1
  Se  Se118  1  0.07145280  0.41625009  0.55945083  1
  Se  Se119  1  0.08955779  0.75303128  0.05107178  1
  Se  Se120  1  0.08503406  0.74767958  0.55289955  1
  Se  Se121  1  0.40039243  0.07194160  0.06193034  1
  Se  Se122  1  0.41192153  0.08251715  0.56146316  1
  Se  Se123  1  0.42179327  0.41288462  0.06528995  1
  Se  Se124  1  0.40761400  0.42274502  0.54864511  1
  Se  Se125  1  0.41792907  0.72914346  0.07054736  1
  Se  Se126  1  0.41825426  0.75761237  0.55061362  1
  Se  Se127  1  0.74054003  0.09200713  0.06753595  1
  Se  Se128  1  0.75367108  0.07987040  0.54039153  1
  Se  Se129  1  0.75981054  0.42862370  0.05630491  1
  Se  Se130  1  0.74163563  0.40796793  0.55490944  1
  Se  Se131  1  0.75356807  0.75551144  0.06238899  1
  Se  Se132  1  0.73952103  0.73594423  0.55195608  1
  Se  Se133  1  0.24600805  0.24763818  0.05770379  1
  Se  Se134  1  0.24723905  0.25818963  0.54458255  1
  Se  Se135  1  0.24472826  0.57957195  0.05208755  1
  Se  Se136  1  0.25567674  0.59205398  0.55744313  1
  Se  Se137  1  0.24537202  0.90563501  0.04870157  1
  Se  Se138  1  0.24768909  0.91897942  0.55764249  1
  Se  Se139  1  0.58333829  0.26528380  0.06876239  1
  Se  Se140  1  0.58490554  0.25377112  0.55131628  1
  Se  Se141  1  0.58045768  0.58694192  0.06136595  1
  Se  Se142  1  0.57822945  0.58618436  0.55015320  1
  Se  Se143  1  0.58815600  0.91632637  0.06796952  1
  Se  Se144  1  0.58442211  0.91210180  0.54165884  1
  Se  Se145  1  0.91509480  0.26789767  0.06749012  1
  Se  Se146  1  0.91652741  0.24423967  0.55008349  1
  Se  Se147  1  0.92026123  0.58627816  0.05653367  1
  Se  Se148  1  0.92342323  0.58009398  0.56104603  1
  Se  Se149  1  0.91656382  0.91819082  0.04930129  1
  Se  Se150  1  0.92528310  0.91650454  0.56563979  1
  Se  Se151  1  0.09286159  0.24862134  0.44165955  1
  Se  Se152  1  0.07696863  0.24707129  0.95671783  1
  Se  Se153  1  0.07305441  0.58276395  0.43349764  1
  Se  Se154  1  0.08618527  0.58173745  0.94370627  1
  Se  Se155  1  0.08217631  0.91021409  0.45185737  1
  Se  Se156  1  0.08702069  0.91677893  0.94588554  1
  Se  Se157  1  0.41614845  0.26537223  0.43337380  1
  Se  Se158  1  0.40423064  0.25364958  0.94183835  1
  Se  Se159  1  0.40088687  0.59759010  0.43101416  1
  Se  Se160  1  0.42601786  0.57681914  0.95485709  1
  Se  Se161  1  0.41425709  0.91851624  0.45040642  1
  Se  Se162  1  0.41496122  0.91576087  0.94067475  1
  Se  Se163  1  0.76209559  0.24070465  0.43876676  1
  Se  Se164  1  0.74024723  0.26487704  0.94540511  1
  Se  Se165  1  0.73512899  0.58227562  0.43259084  1
  Se  Se166  1  0.75066489  0.58712013  0.95706071  1
  Se  Se167  1  0.74497576  0.90958342  0.43100406  1
  Se  Se168  1  0.75493496  0.91415971  0.95887443  1
  Se  Se169  1  0.25132649  0.08859007  0.44731310  1
  Se  Se170  1  0.24582144  0.08405488  0.94838776  1
  Se  Se171  1  0.25163047  0.41968330  0.42483933  1
  Se  Se172  1  0.25300045  0.41380107  0.95513380  1
  Se  Se173  1  0.23663384  0.75619289  0.44516611  1
  Se  Se174  1  0.25665250  0.74515671  0.94746046  1
  Se  Se175  1  0.59298213  0.07866618  0.42824490  1
  Se  Se176  1  0.58556654  0.07641646  0.95307540  1
  Se  Se177  1  0.59776166  0.40397190  0.42686928  1
  Se  Se178  1  0.57940112  0.42458913  0.95867818  1
  Se  Se179  1  0.56871604  0.75190396  0.43561774  1
  Se  Se180  1  0.59260010  0.74313750  0.94341233  1
  Se  Se181  1  0.92330270  0.07812066  0.45222887  1
  Se  Se182  1  0.92155327  0.08355179  0.93955226  1
  Se  Se183  1  0.92612057  0.40635297  0.43573325  1
  Se  Se184  1  0.91734746  0.42511487  0.94718213  1
  Se  Se185  1  0.91506555  0.73258903  0.43809765  1
  Se  Se186  1  0.92003355  0.75468497  0.95294237  1
  Se  Se187  1  0.27065349  0.26353610  0.29461701  1
  Se  Se188  1  0.23567600  0.24828530  0.81516550  1
  Se  Se189  1  0.24783294  0.58869807  0.29541632  1
  Se  Se190  1  0.25824921  0.58206104  0.80755092  1
  Se  Se191  1  0.23712344  0.91353085  0.31030648  1
  Se  Se192  1  0.25524728  0.92345274  0.80506316  1
  Se  Se193  1  0.59484829  0.25446835  0.29086034  1
  Se  Se194  1  0.56595722  0.23858065  0.80970946  1
  Se  Se195  1  0.56326317  0.57190683  0.28817269  1
  Se  Se196  1  0.58413539  0.58175480  0.81305119  1
  Se  Se197  1  0.59173414  0.93296003  0.29573783  1
  Se  Se198  1  0.57405771  0.90647588  0.81057887  1
  Se  Se199  1  0.92673899  0.24813414  0.30528475  1
  Se  Se200  1  0.91494282  0.25087353  0.80350650  1
  Se  Se201  1  0.91886463  0.58632338  0.28668061  1
  Se  Se202  1  0.91601029  0.58584376  0.80654524  1
  Se  Se203  1  0.90707937  0.90513357  0.31249936  1
  Se  Se204  1  0.92188559  0.91703687  0.80878249  1
  Se  Se205  1  0.09130050  0.08556050  0.31036723  1
  Se  Se206  1  0.08029569  0.08301777  0.80570527  1
  Se  Se207  1  0.08671783  0.41787724  0.29673108  1
  Se  Se208  1  0.08205728  0.40605884  0.80840659  1
  Se  Se209  1  0.07704339  0.74771499  0.30154253  1
  Se  Se210  1  0.09048804  0.75329001  0.80848315  1
  Se  Se211  1  0.42210190  0.08913116  0.31142834  1
  Se  Se212  1  0.40817555  0.07582673  0.79820566  1
  Se  Se213  1  0.41945468  0.41566824  0.28247056  1
  Se  Se214  1  0.42019724  0.42005611  0.81579559  1
  Se  Se215  1  0.40008123  0.75524138  0.30323145  1
  Se  Se216  1  0.41514023  0.74344815  0.80197318  1
  Se  Se217  1  0.76150161  0.08271919  0.29991050  1
  Se  Se218  1  0.75758914  0.09097232  0.81169713  1
  Se  Se219  1  0.77804048  0.43688578  0.29662571  1
  Se  Se220  1  0.75634784  0.43336281  0.81134645  1
  Se  Se221  1  0.74484384  0.74433654  0.29782132  1
  Se  Se222  1  0.76130931  0.75226641  0.81794594  1
  Se  Se223  1  0.23667793  0.08538372  0.19387781  1
  Se  Se224  1  0.25089885  0.08687525  0.69873753  1
  Se  Se225  1  0.25108415  0.41505562  0.19074627  1
  Se  Se226  1  0.23449783  0.42549668  0.69056799  1
  Se  Se227  1  0.24623483  0.75102563  0.19529510  1
  Se  Se228  1  0.25153911  0.75295269  0.69447726  1
  Se  Se229  1  0.59463278  0.06587555  0.20726815  1
  Se  Se230  1  0.57585239  0.08836107  0.69052350  1
  Se  Se231  1  0.60890529  0.39896649  0.19755146  1
  Se  Se232  1  0.58205266  0.42295159  0.69784367  1
  Se  Se233  1  0.56744710  0.76351967  0.20649940  1
  Se  Se234  1  0.58193622  0.75630508  0.68893406  1
  Se  Se235  1  0.92183168  0.08669481  0.18317166  1
  Se  Se236  1  0.91550960  0.07858904  0.69309110  1
  Se  Se237  1  0.94322041  0.40082953  0.19550780  1
  Se  Se238  1  0.90645116  0.41142465  0.70285201  1
  Se  Se239  1  0.91933582  0.75160036  0.19450835  1
  Se  Se240  1  0.92328221  0.74343613  0.69784733  1
  Se  Se241  1  0.09028056  0.24624247  0.20403233  1
  Se  Se242  1  0.07846712  0.25086833  0.69518520  1
  Se  Se243  1  0.08265454  0.58907638  0.19365898  1
  Se  Se244  1  0.08387912  0.58920315  0.70519293  1
  Se  Se245  1  0.08345994  0.91247207  0.18683104  1
  Se  Se246  1  0.08531277  0.91917865  0.70018497  1
  Se  Se247  1  0.44953874  0.22056696  0.18511251  1
  Se  Se248  1  0.41579985  0.25466539  0.68451279  1
  Se  Se249  1  0.40025949  0.59126000  0.19958742  1
  Se  Se250  1  0.41763031  0.58687270  0.70076893  1
  Se  Se251  1  0.41955522  0.90766097  0.19060810  1
  Se  Se252  1  0.41698730  0.92058205  0.69291811  1
  Se  Se253  1  0.76074391  0.24763657  0.19778437  1
  Se  Se254  1  0.74899671  0.24094014  0.68635448  1
  Se  Se255  1  0.73473623  0.59746556  0.19438576  1
  Se  Se256  1  0.76397574  0.56906490  0.69352101  1
  Se  Se257  1  0.75211368  0.92301986  0.19776538  1
  Se  Se258  1  0.76251427  0.90247069  0.69313760  1
