# generated using pymatgen
data_In86Cu29Se144
_symmetry_space_group_name_H-M   'P 1'
_cell_length_a   17.57950722
_cell_length_b   17.58201178
_cell_length_c   23.44657161
_cell_angle_alpha   90.02922898
_cell_angle_beta   89.98120037
_cell_angle_gamma   90.01002956
_symmetry_Int_Tables_number   1
_chemical_formula_structural   In86Cu29Se144
_chemical_formula_sum   'In86 Cu29 Se144'
_cell_volume   7246.93766787
_cell_formula_units_Z   1
loop_
 _symmetry_equiv_pos_site_id
 _symmetry_equiv_pos_as_xyz
  1  'x, y, z'
loop_
 _atom_site_type_symbol
 _atom_site_label
 _atom_site_symmetry_multiplicity
 _atom_site_fract_x
 _atom_site_fract_y
 _atom_site_fract_z
 _atom_site_occupancy
  In  In0  1  -0.00628439  0.17953882  0.12585836  1
  In  In1  1  -0.00004725  0.16448888  0.62774462  1
  In  In2  1  0.01005853  0.50910282  0.11503922  1
  In  In3  1  -0.00513620  0.50820790  0.63195239  1
  In  In4  1  0.01219913  0.82045107  0.13058120  1
  In  In5  1  -0.00680749  0.83908819  0.63103823  1
  In  In6  1  0.34770647  0.16488046  0.12282667  1
  In  In7  1  0.31220460  0.15286512  0.59892298  1
  In  In8  1  0.32892170  0.50454360  0.13559118  1
  In  In9  1  0.34479514  0.49448569  0.62134684  1
  In  In10  1  0.31879256  0.82705316  0.12140138  1
  In  In11  1  0.34304715  0.83059324  0.63233724  1
  In  In12  1  0.67461661  0.17258813  0.12232324  1
  In  In13  1  0.66516823  0.16156305  0.61806069  1
  In  In14  1  0.67426995  0.49673134  0.13067113  1
  In  In15  1  0.66256860  0.49886176  0.61614997  1
  In  In16  1  0.65690103  0.83163487  0.13085827  1
  In  In17  1  0.65996921  0.82846073  0.61558034  1
  In  In18  1  0.17138748  0.01629567  0.37890850  1
  In  In19  1  0.16142451  -0.01038431  0.86975415  1
  In  In20  1  0.16892650  0.32133188  0.37370745  1
  In  In21  1  0.16359478  0.35131015  0.88067674  1
  In  In22  1  0.16590282  0.66179049  0.36591414  1
  In  In23  1  0.16835777  0.66941477  0.87682933  1
  In  In24  1  0.48416734  0.00544812  0.39290182  1
  In  In25  1  0.49727055  0.00906234  0.86974889  1
  In  In26  1  0.48141357  0.34737071  0.39099960  1
  In  In27  1  0.48214448  0.32273172  0.87622099  1
  In  In28  1  0.49996281  0.66675252  0.37369128  1
  In  In29  1  0.47873271  0.66719463  0.87399135  1
  In  In30  1  0.83977397  -0.00364591  0.38096730  1
  In  In31  1  0.84816888  -0.00426564  0.87149077  1
  In  In32  1  0.83479880  0.33664279  0.38383687  1
  In  In33  1  0.85144757  0.32076481  0.88959878  1
  In  In34  1  0.82840530  0.66875367  0.37427657  1
  In  In35  1  0.83737670  0.64734938  0.87926951  1
  In  In36  1  0.01056521  0.16115871  0.38287977  1
  In  In37  1  -0.00145481  0.15912978  0.86977184  1
  In  In38  1  -0.01396592  0.50126112  0.37477724  1
  In  In39  1  0.00005007  0.50058555  0.87357057  1
  In  In40  1  -0.00627858  0.82659662  0.37171517  1
  In  In41  1  0.01039442  0.84297607  0.86839182  1
  In  In42  1  0.32051343  0.17692315  0.39223267  1
  In  In43  1  0.34573122  0.17803317  0.87693342  1
  In  In44  1  0.34860253  0.50752391  0.35933736  1
  In  In45  1  0.31354461  0.50266582  0.88204765  1
  In  In46  1  0.34558782  0.83709085  0.38196742  1
  In  In47  1  0.31717136  0.81532691  0.85816017  1
  In  In48  1  0.66849273  0.17283956  0.38251027  1
  In  In49  1  0.66089632  0.17712824  0.87727567  1
  In  In50  1  0.65334720  0.51501867  0.37812981  1
  In  In51  1  0.67657301  0.50400148  0.87667440  1
  In  In52  1  0.66948853  0.82868106  0.38007081  1
  In  In53  1  0.65633804  0.83501420  0.87224232  1
  In  In54  1  0.16747056  -0.01635398  0.12272401  1
  In  In55  1  0.15953665  0.00513261  0.63205171  1
  In  In56  1  0.17452710  0.36994669  0.10735953  1
  In  In57  1  0.16897438  0.31206472  0.62442252  1
  In  In58  1  0.16864400  0.66080994  0.12418153  1
  In  In59  1  0.16501578  0.67267682  0.63299922  1
  In  In60  1  0.49264250  0.00483486  0.12464187  1
  In  In61  1  0.47984633  -0.01189161  0.60658250  1
  In  In62  1  0.50591183  0.32767698  0.13197279  1
  In  In63  1  0.47943055  0.32866945  0.60739627  1
  In  In64  1  0.49510523  0.66579547  0.14076677  1
  In  In65  1  0.49322390  0.66195415  0.61996296  1
  In  In66  1  0.84190185  0.01840472  0.12560038  1
  In  In67  1  0.83970754  0.00566943  0.62070865  1
  In  In68  1  0.84755927  0.34105016  0.10962949  1
  In  In69  1  0.84151080  0.34001463  0.62137989  1
  In  In70  1  0.84119829  0.66076934  0.13313449  1
  In  In71  1  0.83438186  0.66864524  0.61974989  1
  In  In72  1  0.66651281  0.33678919  0.24859714  1
  In  In73  1  0.66681292  -0.00127185  0.74814561  1
  In  In74  1  0.83848236  0.83429301  -0.00069208  1
  In  In75  1  0.16481894  0.83638909  0.50671862  1
  In  In76  1  0.16934885  0.49338657  0.49791660  1
  In  In77  1  0.66818498  0.33891243  0.73819082  1
  In  In78  1  0.32699608  0.33760203  0.75049348  1
  In  In79  1  0.33083252  -0.00800094  0.25246708  1
  In  In80  1  0.66874318  0.66765008  0.74266854  1
  In  In81  1  0.67191979  -0.00832821  0.25928406  1
  In  In82  1  0.00888520  0.33715205  0.24140726  1
  In  In83  1  0.49843661  0.49355762  -0.00010669  1
  In  In84  1  0.16728673  0.16916363  -0.00229550  1
  In  In85  1  0.49298363  0.83378839  0.00380281  1
  Cu  Cu86  1  0.66482455  0.33136936  0.00446634  1
  Cu  Cu87  1  0.83479800  0.82547527  0.74759426  1
  Cu  Cu88  1  0.49078594  0.16500562  0.74411651  1
  Cu  Cu89  1  0.16095599  0.82808342  0.24847727  1
  Cu  Cu90  1  0.66616269  0.66549887  0.49645248  1
  Cu  Cu91  1  0.16728293  0.16551468  0.25158024  1
  Cu  Cu92  1  0.49601901  0.50791641  0.74553017  1
  Cu  Cu93  1  0.33510379  -0.00085278  -0.00136211  1
  Cu  Cu94  1  0.33548504  0.66550660  0.49832286  1
  Cu  Cu95  1  0.67618302  0.33486402  0.49929749  1
  Cu  Cu96  1  0.84349507  0.49279432  0.75297696  1
  Cu  Cu97  1  0.16781604  0.50226448  0.24425286  1
  Cu  Cu98  1  0.16385444  0.16383394  0.74927091  1
  Cu  Cu99  1  0.50088546  0.82625911  0.25697094  1
  Cu  Cu100  1  0.66546600  0.66426574  0.00429688  1
  Cu  Cu101  1  0.00951054  0.66452182  -0.00065731  1
  Cu  Cu102  1  -0.00069098  0.00094517  0.50498901  1
  Cu  Cu103  1  0.83655019  0.83490962  0.25645457  1
  Cu  Cu104  1  0.17075075  0.83349240  0.74940637  1
  Cu  Cu105  1  0.84607122  0.17063002  0.25106391  1
  Cu  Cu106  1  0.83113179  0.50953453  0.25177420  1
  Cu  Cu107  1  -0.01378399  0.66415349  0.49901808  1
  Cu  Cu108  1  0.84261162  0.16268735  0.75063803  1
  Cu  Cu109  1  0.00191827  0.32860050  0.50287231  1
  Cu  Cu110  1  0.66838989  0.01289183  -0.00339702  1
  Cu  Cu111  1  0.16397528  0.50647562  0.75305199  1
  Cu  Cu112  1  0.00209003  0.00103851  -0.00494270  1
  Cu  Cu113  1  0.50187200  0.16320517  0.25281886  1
  Cu  Cu114  1  0.67240114  -0.00415337  0.49927706  1
  Se  Se115  1  0.07994708  0.07817994  0.06035613  1
  Se  Se116  1  0.08422718  0.08428344  0.55659998  1
  Se  Se117  1  0.04886622  0.39145803  0.05562511  1
  Se  Se118  1  0.07933436  0.41145483  0.56389135  1
  Se  Se119  1  0.09023843  0.74911285  0.05389299  1
  Se  Se120  1  0.07061206  0.74093333  0.55864722  1
  Se  Se121  1  0.42111786  0.08233953  0.04828582  1
  Se  Se122  1  0.43901923  0.10977890  0.55403742  1
  Se  Se123  1  0.41437514  0.41135660  0.06731628  1
  Se  Se124  1  0.41664148  0.42725508  0.54132331  1
  Se  Se125  1  0.41009572  0.73584069  0.06087272  1
  Se  Se126  1  0.41360561  0.75135663  0.55371978  1
  Se  Se127  1  0.75442408  0.08765090  0.05333319  1
  Se  Se128  1  0.75341090  0.08257350  0.55191413  1
  Se  Se129  1  0.74621727  0.41979655  0.05393721  1
  Se  Se130  1  0.75572770  0.42036979  0.55362801  1
  Se  Se131  1  0.74452071  0.74909262  0.06089003  1
  Se  Se132  1  0.74931796  0.74824320  0.55144970  1
  Se  Se133  1  0.25481841  0.25397818  0.06217577  1
  Se  Se134  1  0.26698843  0.27532363  0.54871191  1
  Se  Se135  1  0.23125407  0.55514819  0.06151016  1
  Se  Se136  1  0.25091208  0.59145091  0.55933753  1
  Se  Se137  1  0.25080653  0.91387781  0.04791224  1
  Se  Se138  1  0.25398511  0.92195963  0.56651858  1
  Se  Se139  1  0.58192765  0.24812715  0.05737169  1
  Se  Se140  1  0.59084707  0.25863472  0.55630178  1
  Se  Se141  1  0.58309459  0.58688788  0.06382891  1
  Se  Se142  1  0.58048045  0.58456055  0.55096554  1
  Se  Se143  1  0.59263796  0.92819820  0.05681266  1
  Se  Se144  1  0.58193804  0.91472837  0.54789875  1
  Se  Se145  1  0.91211110  0.23947958  0.04751458  1
  Se  Se146  1  0.91755654  0.24604502  0.55682938  1
  Se  Se147  1  0.91713586  0.59168039  0.05351435  1
  Se  Se148  1  0.91204081  0.57556282  0.55454433  1
  Se  Se149  1  0.92632699  0.92210724  0.06153166  1
  Se  Se150  1  0.91615892  0.91304335  0.55417554  1
  Se  Se151  1  0.08970879  0.24940293  0.45013043  1
  Se  Se152  1  0.07469531  0.25535132  0.93867258  1
  Se  Se153  1  0.07646657  0.58935233  0.44276863  1
  Se  Se154  1  0.08804352  0.57918118  0.94316107  1
  Se  Se155  1  0.07761424  0.92209733  0.44091344  1
  Se  Se156  1  0.08632055  0.91407362  0.94743560  1
  Se  Se157  1  0.44061561  0.22605120  0.44361391  1
  Se  Se158  1  0.41978708  0.24672783  0.95654718  1
  Se  Se159  1  0.41448261  0.58289018  0.44164074  1
  Se  Se160  1  0.40324278  0.58908699  0.95016449  1
  Se  Se161  1  0.40729390  0.91813820  0.45958496  1
  Se  Se162  1  0.41148629  0.91815064  0.93556354  1
  Se  Se163  1  0.75920643  0.24625202  0.45062067  1
  Se  Se164  1  0.74777592  0.24926691  0.94820339  1
  Se  Se165  1  0.75165697  0.58181032  0.44465194  1
  Se  Se166  1  0.75008921  0.58064692  0.95355965  1
  Se  Se167  1  0.75481361  0.91214807  0.44605277  1
  Se  Se168  1  0.74247102  0.92369498  0.93902474  1
  Se  Se169  1  0.25313509  0.07806413  0.45605260  1
  Se  Se170  1  0.25502129  0.07776008  0.93623764  1
  Se  Se171  1  0.25754560  0.41774112  0.42961878  1
  Se  Se172  1  0.27087790  0.39435563  0.94772433  1
  Se  Se173  1  0.24822914  0.74305695  0.44178093  1
  Se  Se174  1  0.25395433  0.75255155  0.94336389  1
  Se  Se175  1  0.59052398  0.07986728  0.44589385  1
  Se  Se176  1  0.58000948  0.08696565  0.94109691  1
  Se  Se177  1  0.59041045  0.41516658  0.44548864  1
  Se  Se178  1  0.58916889  0.40566830  0.93587161  1
  Se  Se179  1  0.57992562  0.74947530  0.44549071  1
  Se  Se180  1  0.58481591  0.73959763  0.94267519  1
  Se  Se181  1  0.91823576  0.08501463  0.44843213  1
  Se  Se182  1  0.91624835  0.08239527  0.94427195  1
  Se  Se183  1  0.92148707  0.41680998  0.45122608  1
  Se  Se184  1  0.89867602  0.44004608  0.94073777  1
  Se  Se185  1  0.91041926  0.75279497  0.44497546  1
  Se  Se186  1  0.92679621  0.74422876  0.93844615  1
  Se  Se187  1  0.25534819  0.24238048  0.30543579  1
  Se  Se188  1  0.23887986  0.24630132  0.81247781  1
  Se  Se189  1  0.25228260  0.58543568  0.29759566  1
  Se  Se190  1  0.25155026  0.58639688  0.80476648  1
  Se  Se191  1  0.23846183  0.90589517  0.31414916  1
  Se  Se192  1  0.25357044  0.92271380  0.79847173  1
  Se  Se193  1  0.58057851  0.24669890  0.31047743  1
  Se  Se194  1  0.57282628  0.25005915  0.79961731  1
  Se  Se195  1  0.58075053  0.58734538  0.30154475  1
  Se  Se196  1  0.57956532  0.57920854  0.80863084  1
  Se  Se197  1  0.56831785  0.91661955  0.31692332  1
  Se  Se198  1  0.56917017  0.90819892  0.80127918  1
  Se  Se199  1  0.92245304  0.25369977  0.31151158  1
  Se  Se200  1  0.91814565  0.25161099  0.80530114  1
  Se  Se201  1  0.91747245  0.59047289  0.30411039  1
  Se  Se202  1  0.92059089  0.58656836  0.80130149  1
  Se  Se203  1  0.91918331  0.92189331  0.30558333  1
  Se  Se204  1  0.91816025  0.91315099  0.79779414  1
  Se  Se205  1  0.08416031  0.08387449  0.30488315  1
  Se  Se206  1  0.08211063  0.07760999  0.80199105  1
  Se  Se207  1  0.09049770  0.42556458  0.31103567  1
  Se  Se208  1  0.08325749  0.41802199  0.80299616  1
  Se  Se209  1  0.07779754  0.74543805  0.30301299  1
  Se  Se210  1  0.08691914  0.75036496  0.80428521  1
  Se  Se211  1  0.41762174  0.08540039  0.31059287  1
  Se  Se212  1  0.40883507  0.08794739  0.80254602  1
  Se  Se213  1  0.41649173  0.40100955  0.30222107  1
  Se  Se214  1  0.41985969  0.42815542  0.81042150  1
  Se  Se215  1  0.40944950  0.74993881  0.30759169  1
  Se  Se216  1  0.42501995  0.75459429  0.79810024  1
  Se  Se217  1  0.75998190  0.09418306  0.30860293  1
  Se  Se218  1  0.75420173  0.09078914  0.81032276  1
  Se  Se219  1  0.75663111  0.42389182  0.31149643  1
  Se  Se220  1  0.75695272  0.41419675  0.80919854  1
  Se  Se221  1  0.74715144  0.75351260  0.30415764  1
  Se  Se222  1  0.75631424  0.75233359  0.81298284  1
  Se  Se223  1  0.24665364  0.08424962  0.18839436  1
  Se  Se224  1  0.25237739  0.09356329  0.68994619  1
  Se  Se225  1  0.24706121  0.40891128  0.19838140  1
  Se  Se226  1  0.23813015  0.42605258  0.68688926  1
  Se  Se227  1  0.24728271  0.74678384  0.19599891  1
  Se  Se228  1  0.25513070  0.74909195  0.69837069  1
  Se  Se229  1  0.58541681  0.08473584  0.19403983  1
  Se  Se230  1  0.57550829  0.08557703  0.68821802  1
  Se  Se231  1  0.57200172  0.43139076  0.19801511  1
  Se  Se232  1  0.56565421  0.42155607  0.68430962  1
  Se  Se233  1  0.58744492  0.74738951  0.20352192  1
  Se  Se234  1  0.57293908  0.75675026  0.69046706  1
  Se  Se235  1  0.92902444  0.08699327  0.19896222  1
  Se  Se236  1  0.92099840  0.07556039  0.69711532  1
  Se  Se237  1  0.91039072  0.42831464  0.19038467  1
  Se  Se238  1  0.92402259  0.40970546  0.69755751  1
  Se  Se239  1  0.91760340  0.75183477  0.19874417  1
  Se  Se240  1  0.91698002  0.74195058  0.69396507  1
  Se  Se241  1  0.10302427  0.25021118  0.18391315  1
  Se  Se242  1  0.08037106  0.24959088  0.69875511  1
  Se  Se243  1  0.07928695  0.58414712  0.19487075  1
  Se  Se244  1  0.08048572  0.58943654  0.69903602  1
  Se  Se245  1  0.08195347  0.91782055  0.19791900  1
  Se  Se246  1  0.08254684  0.91515073  0.69826954  1
  Se  Se247  1  0.41902666  0.24531199  0.19859611  1
  Se  Se248  1  0.41020214  0.24727822  0.68667003  1
  Se  Se249  1  0.41080512  0.58379929  0.20487519  1
  Se  Se250  1  0.40905940  0.58680537  0.69353866  1
  Se  Se251  1  0.42383356  0.90314469  0.19065975  1
  Se  Se252  1  0.41377466  0.93152360  0.69371346  1
  Se  Se253  1  0.76750464  0.25264795  0.19090457  1
  Se  Se254  1  0.75957942  0.23887479  0.68961657  1
  Se  Se255  1  0.74469967  0.58975039  0.19889433  1
  Se  Se256  1  0.75755996  0.56785573  0.69163753  1
  Se  Se257  1  0.76236346  0.91329994  0.18852394  1
  Se  Se258  1  0.75422520  0.90568087  0.68781462  1
