# generated using pymatgen
data_In86Cu29Se144
_symmetry_space_group_name_H-M   'P 1'
_cell_length_a   17.58255049
_cell_length_b   17.58676735
_cell_length_c   23.44549219
_cell_angle_alpha   90.00986696
_cell_angle_beta   89.99664715
_cell_angle_gamma   90.02908038
_symmetry_Int_Tables_number   1
_chemical_formula_structural   In86Cu29Se144
_chemical_formula_sum   'In86 Cu29 Se144'
_cell_volume   7249.81930964
_cell_formula_units_Z   1
loop_
 _symmetry_equiv_pos_site_id
 _symmetry_equiv_pos_as_xyz
  1  'x, y, z'
loop_
 _atom_site_type_symbol
 _atom_site_label
 _atom_site_symmetry_multiplicity
 _atom_site_fract_x
 _atom_site_fract_y
 _atom_site_fract_z
 _atom_site_occupancy
  In  In0  1  0.01020916  0.15616667  0.13468765  1
  In  In1  1  -0.00332536  0.16141879  0.62002773  1
  In  In2  1  -0.00651529  0.50756152  0.12727970  1
  In  In3  1  0.00243282  0.50232960  0.62278559  1
  In  In4  1  0.00812316  0.84194710  0.11416354  1
  In  In5  1  0.00809277  0.82557866  0.63196319  1
  In  In6  1  0.31993446  0.15815651  0.11765838  1
  In  In7  1  0.34361439  0.17048566  0.61606542  1
  In  In8  1  0.34479743  0.49325851  0.12107766  1
  In  In9  1  0.31304835  0.49955875  0.62702878  1
  In  In10  1  0.33549766  0.83864623  0.12327137  1
  In  In11  1  0.33404381  0.84230553  0.62611951  1
  In  In12  1  0.65198332  0.16545380  0.12729883  1
  In  In13  1  0.66961582  0.17804064  0.60604908  1
  In  In14  1  0.66847960  0.50635084  0.11891500  1
  In  In15  1  0.67681267  0.49986319  0.62779762  1
  In  In16  1  0.67292589  0.83930111  0.11964934  1
  In  In17  1  0.65883250  0.82140002  0.63179920  1
  In  In18  1  0.16698526  0.00055307  0.37638829  1
  In  In19  1  0.16918814  -0.00434788  0.88043816  1
  In  In20  1  0.15485543  0.34308918  0.37960111  1
  In  In21  1  0.16832689  0.31919876  0.87553663  1
  In  In22  1  0.17443701  0.66067182  0.37940979  1
  In  In23  1  0.16865338  0.68145636  0.88197585  1
  In  In24  1  0.50537717  -0.00229624  0.36034045  1
  In  In25  1  0.49801206  0.00167771  0.88723471  1
  In  In26  1  0.48848977  0.32564130  0.37499442  1
  In  In27  1  0.48597276  0.34625750  0.88871339  1
  In  In28  1  0.48768449  0.67352263  0.36951221  1
  In  In29  1  0.50410254  0.66496535  0.88074189  1
  In  In30  1  0.84419586  0.01496383  0.36527585  1
  In  In31  1  0.83751455  -0.01947791  0.87679327  1
  In  In32  1  0.84557244  0.31708128  0.38839471  1
  In  In33  1  0.84512597  0.33701111  0.87346821  1
  In  In34  1  0.82723439  0.65846622  0.37959303  1
  In  In35  1  0.83554808  0.67284387  0.87677103  1
  In  In36  1  0.00191972  0.16895073  0.37586210  1
  In  In37  1  0.02229914  0.16128187  0.87445643  1
  In  In38  1  0.01433617  0.48683731  0.38051774  1
  In  In39  1  -0.01649597  0.50159840  0.88103853  1
  In  In40  1  0.00174547  0.85045502  0.37088320  1
  In  In41  1  0.00132672  0.83014870  0.87576264  1
  In  In42  1  0.33923090  0.15622363  0.38077027  1
  In  In43  1  0.32951790  0.17363216  0.88516599  1
  In  In44  1  0.31404698  0.49887072  0.36499913  1
  In  In45  1  0.34241479  0.50271767  0.88204391  1
  In  In46  1  0.32790500  0.82181441  0.35999253  1
  In  In47  1  0.33819453  0.81487975  0.90186104  1
  In  In48  1  0.67497101  0.15918686  0.38252764  1
  In  In49  1  0.65800052  0.15589412  0.87317791  1
  In  In50  1  0.67653997  0.50346110  0.37863554  1
  In  In51  1  0.65724280  0.51588972  0.88063470  1
  In  In52  1  0.65025851  0.84026889  0.36968088  1
  In  In53  1  0.67641628  0.82964259  0.88086671  1
  In  In54  1  0.16693689  0.00209303  0.12736682  1
  In  In55  1  0.15942046  -0.00878915  0.61451239  1
  In  In56  1  0.17451435  0.31966218  0.12803051  1
  In  In57  1  0.17533150  0.33659882  0.62339654  1
  In  In58  1  0.16333754  0.67985045  0.11981239  1
  In  In59  1  0.15696023  0.65814916  0.62024295  1
  In  In60  1  0.49385684  -0.00460558  0.12757612  1
  In  In61  1  0.49494560  0.00228927  0.62427800  1
  In  In62  1  0.48411486  0.32762131  0.10595293  1
  In  In63  1  0.50188256  0.31865609  0.62432188  1
  In  In64  1  0.48580891  0.66379976  0.11153700  1
  In  In65  1  0.50516507  0.67778231  0.63796904  1
  In  In66  1  0.84280790  -0.00648702  0.13416962  1
  In  In67  1  0.83379551  0.01318919  0.62305507  1
  In  In68  1  0.83932332  0.34775830  0.12579242  1
  In  In69  1  0.83395275  0.33843453  0.61406405  1
  In  In70  1  0.84108127  0.66562644  0.11215966  1
  In  In71  1  0.84167860  0.65941921  0.63360659  1
  In  In72  1  0.66613100  0.33200501  0.74381609  1
  In  In73  1  0.83007612  0.16965077  -0.00298767  1
  In  In74  1  0.33180418  0.66646312  0.76203326  1
  In  In75  1  0.66712033  0.33439113  0.24694213  1
  In  In76  1  0.49666172  0.83463147  0.49979323  1
  In  In77  1  0.66862400  -0.00313397  0.74866547  1
  In  In78  1  0.00414272  0.33403066  0.74037185  1
  In  In79  1  0.49931614  0.49287373  0.49914250  1
  In  In80  1  0.66523525  0.67095917  0.24022358  1
  In  In81  1  0.83746477  0.83614247  0.49590373  1
  In  In82  1  0.16574607  0.50108624  0.00184717  1
  In  In83  1  0.33011627  0.33023318  0.24772463  1
  In  In84  1  0.33320204  -0.00535720  0.75149925  1
  In  In85  1  0.00417195  0.67093195  0.24163546  1
  Cu  Cu86  1  0.00449136  0.00188559  0.00435307  1
  Cu  Cu87  1  0.66353450  0.00252784  0.00401026  1
  Cu  Cu88  1  0.00152210  0.00560789  0.49488287  1
  Cu  Cu89  1  0.00173492  0.32998368  -0.00094254  1
  Cu  Cu90  1  0.66744315  0.00441279  0.49279031  1
  Cu  Cu91  1  0.49629983  0.16786632  0.74618284  1
  Cu  Cu92  1  0.16489840  0.16436225  0.25468333  1
  Cu  Cu93  1  0.15859350  0.49831306  0.74841724  1
  Cu  Cu94  1  0.00362048  0.66698277  0.50508615  1
  Cu  Cu95  1  0.84361630  0.15893277  0.74363288  1
  Cu  Cu96  1  0.17800420  0.15602697  0.75339044  1
  Cu  Cu97  1  0.83235220  0.16801611  0.25708628  1
  Cu  Cu98  1  0.32490764  0.66548669  0.49702951  1
  Cu  Cu99  1  0.32532948  0.33206178  0.49640019  1
  Cu  Cu100  1  0.67189874  0.65899024  0.50266853  1
  Cu  Cu101  1  0.66803108  0.66935035  -0.00072674  1
  Cu  Cu102  1  0.66763096  0.34048485  0.00099539  1
  Cu  Cu103  1  0.00381851  0.33181035  0.50260940  1
  Cu  Cu104  1  0.16348212  0.84182681  0.24361066  1
  Cu  Cu105  1  0.16821956  0.83189367  0.75286929  1
  Cu  Cu106  1  0.32962489  0.00093999  0.00605657  1
  Cu  Cu107  1  0.82482849  0.51110777  0.75520744  1
  Cu  Cu108  1  0.33153564  -0.00232631  0.49768790  1
  Cu  Cu109  1  0.83978302  0.82981280  0.75563072  1
  Cu  Cu110  1  0.49458314  0.50023746  0.75988467  1
  Cu  Cu111  1  0.50438545  0.50533348  0.24022532  1
  Cu  Cu112  1  0.82713856  0.83957024  0.24830026  1
  Cu  Cu113  1  0.84557099  0.49550814  0.25302280  1
  Cu  Cu114  1  0.49727588  0.15861129  0.24961338  1
  Se  Se115  1  0.08684624  0.08768342  0.05553091  1
  Se  Se116  1  0.08557072  0.08672568  0.55042351  1
  Se  Se117  1  0.07902103  0.40787166  0.06320308  1
  Se  Se118  1  0.08522678  0.41598398  0.55789014  1
  Se  Se119  1  0.05461855  0.72766155  0.05570310  1
  Se  Se120  1  0.08637339  0.75473777  0.55395986  1
  Se  Se121  1  0.41798778  0.08369265  0.05624735  1
  Se  Se122  1  0.42035724  0.07851467  0.54932305  1
  Se  Se123  1  0.41866705  0.42471664  0.04145759  1
  Se  Se124  1  0.40418972  0.41079644  0.56142670  1
  Se  Se125  1  0.41430448  0.76062884  0.04895726  1
  Se  Se126  1  0.40924242  0.73810273  0.56011081  1
  Se  Se127  1  0.74802131  0.08094456  0.06313198  1
  Se  Se128  1  0.75307101  0.08385031  0.54751341  1
  Se  Se129  1  0.75307889  0.41975790  0.05443487  1
  Se  Se130  1  0.73418823  0.40940121  0.55458193  1
  Se  Se131  1  0.75240228  0.75204320  0.05215568  1
  Se  Se132  1  0.74868498  0.74684126  0.55906049  1
  Se  Se133  1  0.26423388  0.26378212  0.05325107  1
  Se  Se134  1  0.24749514  0.24683641  0.55344033  1
  Se  Se135  1  0.25670446  0.58960453  0.06007222  1
  Se  Se136  1  0.24406441  0.58036083  0.55083646  1
  Se  Se137  1  0.24270666  0.91707474  0.05597172  1
  Se  Se138  1  0.25227792  0.91066161  0.55105248  1
  Se  Se139  1  0.58848341  0.25156773  0.05174076  1
  Se  Se140  1  0.57080828  0.24711041  0.54512312  1
  Se  Se141  1  0.58345352  0.58475652  0.05096577  1
  Se  Se142  1  0.58094643  0.59066871  0.56179787  1
  Se  Se143  1  0.58027243  0.91836986  0.05599143  1
  Se  Se144  1  0.59556308  0.92195041  0.55823447  1
  Se  Se145  1  0.92244789  0.24988381  0.06198917  1
  Se  Se146  1  0.91715918  0.24861825  0.55284584  1
  Se  Se147  1  0.91370709  0.57044738  0.04926422  1
  Se  Se148  1  0.91639798  0.58509869  0.55580780  1
  Se  Se149  1  0.91263431  0.92241239  0.05277849  1
  Se  Se150  1  0.92491527  0.92339440  0.55899916  1
  Se  Se151  1  0.08521985  0.24902573  0.44700790  1
  Se  Se152  1  0.08733193  0.24553391  0.95050699  1
  Se  Se153  1  0.08404701  0.58479482  0.44636279  1
  Se  Se154  1  0.07490251  0.58866535  0.94153517  1
  Se  Se155  1  0.08408290  0.91661447  0.44724402  1
  Se  Se156  1  0.08158093  0.91557561  0.94695784  1
  Se  Se157  1  0.41350438  0.24822614  0.44936537  1
  Se  Se158  1  0.43594443  0.23304328  0.94611681  1
  Se  Se159  1  0.40951956  0.58537065  0.43999975  1
  Se  Se160  1  0.40162251  0.60435395  0.94561480  1
  Se  Se161  1  0.41075346  0.91866147  0.43482502  1
  Se  Se162  1  0.41636156  0.91833646  0.95528629  1
  Se  Se163  1  0.74133398  0.25441694  0.44860392  1
  Se  Se164  1  0.73974204  0.25966724  0.93481738  1
  Se  Se165  1  0.75784449  0.57508814  0.45454995  1
  Se  Se166  1  0.75320043  0.58602116  0.94562588  1
  Se  Se167  1  0.74596764  0.92191611  0.43342572  1
  Se  Se168  1  0.74860890  0.92026146  0.95140923  1
  Se  Se169  1  0.24657131  0.08361790  0.44841558  1
  Se  Se170  1  0.24822995  0.08288590  0.94812768  1
  Se  Se171  1  0.24795400  0.42182131  0.44490346  1
  Se  Se172  1  0.25321261  0.40820935  0.94165596  1
  Se  Se173  1  0.25231753  0.75635754  0.44258939  1
  Se  Se174  1  0.23273117  0.75551771  0.96269230  1
  Se  Se175  1  0.57578230  0.07683149  0.43857598  1
  Se  Se176  1  0.58220276  0.08856215  0.95236150  1
  Se  Se177  1  0.58807482  0.40769504  0.43620481  1
  Se  Se178  1  0.58328871  0.42411176  0.94787201  1
  Se  Se179  1  0.58992383  0.73853863  0.44284783  1
  Se  Se180  1  0.58450194  0.75359877  0.94712145  1
  Se  Se181  1  0.91377432  0.08825238  0.44536532  1
  Se  Se182  1  0.92424808  0.07935982  0.93961705  1
  Se  Se183  1  0.92052700  0.41679696  0.44868500  1
  Se  Se184  1  0.91269407  0.41288460  0.95270173  1
  Se  Se185  1  0.92816167  0.74337195  0.43754371  1
  Se  Se186  1  0.90337749  0.76778038  0.94411424  1
  Se  Se187  1  0.24552836  0.24515288  0.31504725  1
  Se  Se188  1  0.25543207  0.24543734  0.80458891  1
  Se  Se189  1  0.26155468  0.60417850  0.30122342  1
  Se  Se190  1  0.23630980  0.57414139  0.81494310  1
  Se  Se191  1  0.24632715  0.91938589  0.30324740  1
  Se  Se192  1  0.25476894  0.90082994  0.81575085  1
  Se  Se193  1  0.57735798  0.24291921  0.30693339  1
  Se  Se194  1  0.57646216  0.24762930  0.80776032  1
  Se  Se195  1  0.58262487  0.57719319  0.30724149  1
  Se  Se196  1  0.58015200  0.58824832  0.80358377  1
  Se  Se197  1  0.57231039  0.90298949  0.29203393  1
  Se  Se198  1  0.58093239  0.91712001  0.81543329  1
  Se  Se199  1  0.91833439  0.25291316  0.30576602  1
  Se  Se200  1  0.91961521  0.24042244  0.80585717  1
  Se  Se201  1  0.91938285  0.58308520  0.31097659  1
  Se  Se202  1  0.91629968  0.58632880  0.80626120  1
  Se  Se203  1  0.91591824  0.92069174  0.29853683  1
  Se  Se204  1  0.92451078  0.91709764  0.80226719  1
  Se  Se205  1  0.08048053  0.08115160  0.30755038  1
  Se  Se206  1  0.09191342  0.07332732  0.80320780  1
  Se  Se207  1  0.09205372  0.42392805  0.30083838  1
  Se  Se208  1  0.08225479  0.41850212  0.81331582  1
  Se  Se209  1  0.08857869  0.75880981  0.30790292  1
  Se  Se210  1  0.08507114  0.74748740  0.80522546  1
  Se  Se211  1  0.40868210  0.08035159  0.30183567  1
  Se  Se212  1  0.42208622  0.08702107  0.80977866  1
  Se  Se213  1  0.42533433  0.42581666  0.30418927  1
  Se  Se214  1  0.41104111  0.41490471  0.80805261  1
  Se  Se215  1  0.43106489  0.76120597  0.29512800  1
  Se  Se216  1  0.42005398  0.76247751  0.81483313  1
  Se  Se217  1  0.74239754  0.08325255  0.30196080  1
  Se  Se218  1  0.76229506  0.08693479  0.80830879  1
  Se  Se219  1  0.75994861  0.41747419  0.31004737  1
  Se  Se220  1  0.75033383  0.42073011  0.81088200  1
  Se  Se221  1  0.75502640  0.75485427  0.30968481  1
  Se  Se222  1  0.74935510  0.75046327  0.80465706  1
  Se  Se223  1  0.24872968  0.08564558  0.19772695  1
  Se  Se224  1  0.25113709  0.08158518  0.68409088  1
  Se  Se225  1  0.24508850  0.42591758  0.19110668  1
  Se  Se226  1  0.24676053  0.41402577  0.70244220  1
  Se  Se227  1  0.24518244  0.75712066  0.19112589  1
  Se  Se228  1  0.24752174  0.75076163  0.69102967  1
  Se  Se229  1  0.58235257  0.07710664  0.19736544  1
  Se  Se230  1  0.58440995  0.09466608  0.68721336  1
  Se  Se231  1  0.57547616  0.41670231  0.18210424  1
  Se  Se232  1  0.56994471  0.42552939  0.69074045  1
  Se  Se233  1  0.57479614  0.75274898  0.17945609  1
  Se  Se234  1  0.58248782  0.75493006  0.70966958  1
  Se  Se235  1  0.91595723  0.08533576  0.20171392  1
  Se  Se236  1  0.92846310  0.07458768  0.69508383  1
  Se  Se237  1  0.92795077  0.41336284  0.19947711  1
  Se  Se238  1  0.90218582  0.42603379  0.69404882  1
  Se  Se239  1  0.90661223  0.75926648  0.18761201  1
  Se  Se240  1  0.92179394  0.74669706  0.69938628  1
  Se  Se241  1  0.08575079  0.24994040  0.20001196  1
  Se  Se242  1  0.09642615  0.23608630  0.69108925  1
  Se  Se243  1  0.09725847  0.57698919  0.19090683  1
  Se  Se244  1  0.07835941  0.58400518  0.69663002  1
  Se  Se245  1  0.07504605  0.92155174  0.19307242  1
  Se  Se246  1  0.09090862  0.91600678  0.69542952  1
  Se  Se247  1  0.42225655  0.24249643  0.18826010  1
  Se  Se248  1  0.41076897  0.25092699  0.69549304  1
  Se  Se249  1  0.41608881  0.58483572  0.19086432  1
  Se  Se250  1  0.41562695  0.57676128  0.69298584  1
  Se  Se251  1  0.39781266  0.93121797  0.19639427  1
  Se  Se252  1  0.43326052  0.90549472  0.69694418  1
  Se  Se253  1  0.75928207  0.24385387  0.18784596  1
  Se  Se254  1  0.76087991  0.24006924  0.68776988  1
  Se  Se255  1  0.76459705  0.57636268  0.19273121  1
  Se  Se256  1  0.74216808  0.59120220  0.69923631  1
  Se  Se257  1  0.74255314  0.92202272  0.19668339  1
  Se  Se258  1  0.76241485  0.90694749  0.68867262  1
