# generated using pymatgen
data_In86Cu29Se144
_symmetry_space_group_name_H-M   'P 1'
_cell_length_a   17.58059059
_cell_length_b   17.58182756
_cell_length_c   23.44176574
_cell_angle_alpha   90.02378861
_cell_angle_beta   89.99055124
_cell_angle_gamma   89.99670706
_symmetry_Int_Tables_number   1
_chemical_formula_structural   In86Cu29Se144
_chemical_formula_sum   'In86 Cu29 Se144'
_cell_volume   7245.82355406
_cell_formula_units_Z   1
loop_
 _symmetry_equiv_pos_site_id
 _symmetry_equiv_pos_as_xyz
  1  'x, y, z'
loop_
 _atom_site_type_symbol
 _atom_site_label
 _atom_site_symmetry_multiplicity
 _atom_site_fract_x
 _atom_site_fract_y
 _atom_site_fract_z
 _atom_site_occupancy
  In  In0  1  -0.02319841  0.16843147  0.12695287  1
  In  In1  1  -0.00707464  0.17145093  0.63309015  1
  In  In2  1  -0.00782814  0.51829322  0.12911307  1
  In  In3  1  -0.02339110  0.50714623  0.62559519  1
  In  In4  1  -0.00064196  0.83074622  0.12988247  1
  In  In5  1  0.00011211  0.83375876  0.61430002  1
  In  In6  1  0.33791452  0.14450923  0.11500857  1
  In  In7  1  0.32172124  0.15772477  0.63169138  1
  In  In8  1  0.32921172  0.50551999  0.12121511  1
  In  In9  1  0.35118400  0.50484204  0.62789006  1
  In  In10  1  0.34011303  0.82962613  0.10799240  1
  In  In11  1  0.33593379  0.82881057  0.62961068  1
  In  In12  1  0.67143494  0.16409511  0.12190778  1
  In  In13  1  0.67831484  0.15313008  0.64112340  1
  In  In14  1  0.67930105  0.48428790  0.13263830  1
  In  In15  1  0.66996764  0.50063218  0.62165072  1
  In  In16  1  0.66355171  0.84002331  0.12858410  1
  In  In17  1  0.67444974  0.84072182  0.61649495  1
  In  In18  1  0.14969052  -0.00472597  0.37779940  1
  In  In19  1  0.15893005  -0.01413584  0.86666641  1
  In  In20  1  0.15561083  0.33714353  0.38208124  1
  In  In21  1  0.16137601  0.34986896  0.86917882  1
  In  In22  1  0.16695166  0.68503246  0.37941677  1
  In  In23  1  0.17809111  0.67703489  0.86966796  1
  In  In24  1  0.50511779  -0.01262022  0.37937638  1
  In  In25  1  0.49945884  0.00128789  0.86562644  1
  In  In26  1  0.52385202  0.32753733  0.37788403  1
  In  In27  1  0.50722350  0.31306493  0.87173779  1
  In  In28  1  0.50540404  0.65928087  0.38398574  1
  In  In29  1  0.49941065  0.68837300  0.88553613  1
  In  In30  1  0.83064459  -0.00353760  0.37766268  1
  In  In31  1  0.84019706  0.00943636  0.86915356  1
  In  In32  1  0.82431669  0.33803489  0.38401301  1
  In  In33  1  0.82273265  0.33333568  0.86764624  1
  In  In34  1  0.83370089  0.66975421  0.37761319  1
  In  In35  1  0.82074947  0.65329750  0.87884238  1
  In  In36  1  -0.01129185  0.14471278  0.36882131  1
  In  In37  1  -0.01409210  0.16109377  0.87526615  1
  In  In38  1  -0.02179500  0.50187832  0.38178675  1
  In  In39  1  -0.00990302  0.49128769  0.86804990  1
  In  In40  1  -0.00252374  0.83252978  0.38044378  1
  In  In41  1  -0.00259158  0.84882423  0.87403148  1
  In  In42  1  0.33591465  0.15803190  0.37446768  1
  In  In43  1  0.35729664  0.15861614  0.87180801  1
  In  In44  1  0.33665666  0.52313900  0.37962466  1
  In  In45  1  0.32375213  0.50656723  0.87025279  1
  In  In46  1  0.33741728  0.82467252  0.38894575  1
  In  In47  1  0.32795191  0.83559904  0.86985829  1
  In  In48  1  0.68231789  0.17556019  0.35918093  1
  In  In49  1  0.66304700  0.16640355  0.86765361  1
  In  In50  1  0.66885072  0.50120469  0.37664996  1
  In  In51  1  0.68969546  0.50184701  0.87522624  1
  In  In52  1  0.66717792  0.83514984  0.37481310  1
  In  In53  1  0.64519829  0.82756905  0.87731658  1
  In  In54  1  0.16992556  -0.01367778  0.12264707  1
  In  In55  1  0.17256395  -0.02405751  0.64403110  1
  In  In56  1  0.16247161  0.34430633  0.11878862  1
  In  In57  1  0.16238486  0.31868111  0.63093152  1
  In  In58  1  0.15843151  0.67315621  0.12143944  1
  In  In59  1  0.15764643  0.70827059  0.62785211  1
  In  In60  1  0.50931224  0.00334362  0.11230704  1
  In  In61  1  0.51454932  -0.00940896  0.63720566  1
  In  In62  1  0.52544589  0.33816399  0.12038087  1
  In  In63  1  0.50713510  0.34737030  0.62887315  1
  In  In64  1  0.50262688  0.68176249  0.11971037  1
  In  In65  1  0.49729553  0.65945419  0.62468718  1
  In  In66  1  0.82140623  0.01154901  0.14010091  1
  In  In67  1  0.83232598  0.00332105  0.62565278  1
  In  In68  1  0.81658526  0.31512415  0.11190658  1
  In  In69  1  0.83578007  0.33167222  0.62560160  1
  In  In70  1  0.84008447  0.66117195  0.13002771  1
  In  In71  1  0.83549253  0.66291444  0.60526879  1
  In  In72  1  0.17053338  0.50150943  0.50825212  1
  In  In73  1  0.83505797  0.83715507  0.00124772  1
  In  In74  1  0.50657847  0.16445459  0.50995938  1
  In  In75  1  0.16484828  0.16232417  -0.00849943  1
  In  In76  1  0.34004047  0.67314149  0.23938112  1
  In  In77  1  0.16123237  0.51134424  0.00095660  1
  In  In78  1  0.50333386  0.50284713  -0.00693405  1
  In  In79  1  -0.00190776  0.67435621  0.74401229  1
  In  In80  1  0.66424364  0.66336384  0.75137662  1
  In  In81  1  0.34940939  0.32937602  0.25280176  1
  In  In82  1  0.16015599  0.15737868  0.51058425  1
  In  In83  1  0.33703249  -0.00307948  0.25000738  1
  In  In84  1  -0.01171750  0.33697167  0.25451656  1
  In  In85  1  0.33041143  0.33162426  0.75373584  1
  Cu  Cu86  1  0.34089264  0.32665441  -0.00349254  1
  Cu  Cu87  1  -0.01806243  0.33515398  -0.00762632  1
  Cu  Cu88  1  0.51227267  0.16574803  0.23829323  1
  Cu  Cu89  1  0.50503053  0.50365618  0.75352356  1
  Cu  Cu90  1  0.15762773  0.17222723  0.25238789  1
  Cu  Cu91  1  0.83793011  0.83053516  0.25605438  1
  Cu  Cu92  1  0.66787822  0.00336628  0.50052501  1
  Cu  Cu93  1  0.82951726  0.50242153  0.25501037  1
  Cu  Cu94  1  0.16006958  0.51041899  0.24450998  1
  Cu  Cu95  1  0.00142811  0.67005339  0.00037870  1
  Cu  Cu96  1  0.34380110  -0.00711944  -0.00866351  1
  Cu  Cu97  1  0.66223660  0.66896934  0.49505777  1
  Cu  Cu98  1  0.49564652  0.83330797  0.75096601  1
  Cu  Cu99  1  -0.00456589  -0.00376868  0.50265406  1
  Cu  Cu100  1  -0.00664367  0.32553303  0.50565460  1
  Cu  Cu101  1  0.15944654  0.83931105  0.25340267  1
  Cu  Cu102  1  0.33619563  0.66857441  0.50692972  1
  Cu  Cu103  1  0.83352763  0.17027959  0.75075336  1
  Cu  Cu104  1  0.67262734  0.32313259  -0.00338114  1
  Cu  Cu105  1  0.50633002  0.83484444  0.24904367  1
  Cu  Cu106  1  0.32993385  -0.01072342  0.50924468  1
  Cu  Cu107  1  0.67281696  0.33522950  0.50077953  1
  Cu  Cu108  1  0.00100678  -0.00074268  0.00025390  1
  Cu  Cu109  1  0.82703892  0.83729264  0.74693857  1
  Cu  Cu110  1  0.51201635  0.49881122  0.25491852  1
  Cu  Cu111  1  0.16188121  0.50601353  0.74515599  1
  Cu  Cu112  1  0.66754302  0.00129731  -0.00381962  1
  Cu  Cu113  1  0.15963681  0.16127627  0.75634139  1
  Cu  Cu114  1  0.34674643  0.34021177  0.50324681  1
  Se  Se115  1  0.07938257  0.08205918  0.06188544  1
  Se  Se116  1  0.07592191  0.06740876  0.57157367  1
  Se  Se117  1  0.06337039  0.41632666  0.05293971  1
  Se  Se118  1  0.07956560  0.40444224  0.56223819  1
  Se  Se119  1  0.07979921  0.75745823  0.05240419  1
  Se  Se120  1  0.06421304  0.73482019  0.54735176  1
  Se  Se121  1  0.42515366  0.08108007  0.04098608  1
  Se  Se122  1  0.40988573  0.07386800  0.56501679  1
  Se  Se123  1  0.41394264  0.41004816  0.05898026  1
  Se  Se124  1  0.42810929  0.42463209  0.55420418  1
  Se  Se125  1  0.42315978  0.74729387  0.04267908  1
  Se  Se126  1  0.42167012  0.75191582  0.55808755  1
  Se  Se127  1  0.75327553  0.07611348  0.05403005  1
  Se  Se128  1  0.74663823  0.08736191  0.55693837  1
  Se  Se129  1  0.74853211  0.41539272  0.04855395  1
  Se  Se130  1  0.75589068  0.41787293  0.55554945  1
  Se  Se131  1  0.75125631  0.74821902  0.06421996  1
  Se  Se132  1  0.74763484  0.75204503  0.54697066  1
  Se  Se133  1  0.25454162  0.25278299  0.05753642  1
  Se  Se134  1  0.26105407  0.25690816  0.55611844  1
  Se  Se135  1  0.25951088  0.60193932  0.05328777  1
  Se  Se136  1  0.25497243  0.59219333  0.57024998  1
  Se  Se137  1  0.25442062  0.91969929  0.04761270  1
  Se  Se138  1  0.24446797  0.90858824  0.56130175  1
  Se  Se139  1  0.58621364  0.24346859  0.05001673  1
  Se  Se140  1  0.59638562  0.25668127  0.56621787  1
  Se  Se141  1  0.58534331  0.57425206  0.06892717  1
  Se  Se142  1  0.58587030  0.58514013  0.55546260  1
  Se  Se143  1  0.58864743  0.91159835  0.04835290  1
  Se  Se144  1  0.58121828  0.92238359  0.55303390  1
  Se  Se145  1  0.91041654  0.24231671  0.04515757  1
  Se  Se146  1  0.91118018  0.23937852  0.55596212  1
  Se  Se147  1  0.91575321  0.58671445  0.05034961  1
  Se  Se148  1  0.92353973  0.58137336  0.54099030  1
  Se  Se149  1  0.91858078  0.92764979  0.06486029  1
  Se  Se150  1  0.90624704  0.91594277  0.55391048  1
  Se  Se151  1  0.07188219  0.24419202  0.44388810  1
  Se  Se152  1  0.07721960  0.26329540  0.93811490  1
  Se  Se153  1  0.08787371  0.57948823  0.43621017  1
  Se  Se154  1  0.07416133  0.59146433  0.93168132  1
  Se  Se155  1  0.08338749  0.91335836  0.45304233  1
  Se  Se156  1  0.08449046  0.91658848  0.94831273  1
  Se  Se157  1  0.41622741  0.25211497  0.44159720  1
  Se  Se158  1  0.42524202  0.24269667  0.94773219  1
  Se  Se159  1  0.42088424  0.58340162  0.45691679  1
  Se  Se160  1  0.40422370  0.59055530  0.94071264  1
  Se  Se161  1  0.41790125  0.91646571  0.45105562  1
  Se  Se162  1  0.42487385  0.91181444  0.93512055  1
  Se  Se163  1  0.74477999  0.24339596  0.44622598  1
  Se  Se164  1  0.75185664  0.24248236  0.93848499  1
  Se  Se165  1  0.74907247  0.58496134  0.44567074  1
  Se  Se166  1  0.73547419  0.59268113  0.95512526  1
  Se  Se167  1  0.74763982  0.91519972  0.44794940  1
  Se  Se168  1  0.74601645  0.91975134  0.93416215  1
  Se  Se169  1  0.25520943  0.07305002  0.44602992  1
  Se  Se170  1  0.25850474  0.07497081  0.93418679  1
  Se  Se171  1  0.26176813  0.41364846  0.44119840  1
  Se  Se172  1  0.25621151  0.41236729  0.94623789  1
  Se  Se173  1  0.24786641  0.75119150  0.45735931  1
  Se  Se174  1  0.24824324  0.75619646  0.94352641  1
  Se  Se175  1  0.58982307  0.08491682  0.43847952  1
  Se  Se176  1  0.58458970  0.08022718  0.93804413  1
  Se  Se177  1  0.58728266  0.41860906  0.44949361  1
  Se  Se178  1  0.59230390  0.40695296  0.93677272  1
  Se  Se179  1  0.57923510  0.75684129  0.44549966  1
  Se  Se180  1  0.60750071  0.72896592  0.95374032  1
  Se  Se181  1  0.91344592  0.08022202  0.44946914  1
  Se  Se182  1  0.91322828  0.08033836  0.95028954  1
  Se  Se183  1  0.91201225  0.41313821  0.45425736  1
  Se  Se184  1  0.90324238  0.42073689  0.93943099  1
  Se  Se185  1  0.91747509  0.74766529  0.44801587  1
  Se  Se186  1  0.92036404  0.74410240  0.93566461  1
  Se  Se187  1  0.24304631  0.24747976  0.31209354  1
  Se  Se188  1  0.24256678  0.24082993  0.81697751  1
  Se  Se189  1  0.24596268  0.58811366  0.30349087  1
  Se  Se190  1  0.24669527  0.58615880  0.79826534  1
  Se  Se191  1  0.24883960  0.90867251  0.31453944  1
  Se  Se192  1  0.25597240  0.92415547  0.79913213  1
  Se  Se193  1  0.58682312  0.25282251  0.29570546  1
  Se  Se194  1  0.58904857  0.25198811  0.79486306  1
  Se  Se195  1  0.58639340  0.58838371  0.30847313  1
  Se  Se196  1  0.57646736  0.58232461  0.82029118  1
  Se  Se197  1  0.58636016  0.91976746  0.30268428  1
  Se  Se198  1  0.58662599  0.91366590  0.79998171  1
  Se  Se199  1  0.90296611  0.24292044  0.31214578  1
  Se  Se200  1  0.91804178  0.25256720  0.80497164  1
  Se  Se201  1  0.91553773  0.58521662  0.30483954  1
  Se  Se202  1  0.90674781  0.58285523  0.80209499  1
  Se  Se203  1  0.91911344  0.91590466  0.30945873  1
  Se  Se204  1  0.91342763  0.91815411  0.79974834  1
  Se  Se205  1  0.08302183  0.07739875  0.30035006  1
  Se  Se206  1  0.07446354  0.08062920  0.80916588  1
  Se  Se207  1  0.08636607  0.42933687  0.30987322  1
  Se  Se208  1  0.07879703  0.42086044  0.79572702  1
  Se  Se209  1  0.08129395  0.75268813  0.30643075  1
  Se  Se210  1  0.08479595  0.76204377  0.80670345  1
  Se  Se211  1  0.43323139  0.09092331  0.30456221  1
  Se  Se212  1  0.42833595  0.08939081  0.79260593  1
  Se  Se213  1  0.42496309  0.42580183  0.31676299  1
  Se  Se214  1  0.42453271  0.42093431  0.81362859  1
  Se  Se215  1  0.42317634  0.75633409  0.30956497  1
  Se  Se216  1  0.41734402  0.74747784  0.80570615  1
  Se  Se217  1  0.74084537  0.06465120  0.30507118  1
  Se  Se218  1  0.75008501  0.08248287  0.80049421  1
  Se  Se219  1  0.74986142  0.41541375  0.30757438  1
  Se  Se220  1  0.75060215  0.42288277  0.79671433  1
  Se  Se221  1  0.74986989  0.74989679  0.30729891  1
  Se  Se222  1  0.75454807  0.75704869  0.81121535  1
  Se  Se223  1  0.24318352  0.09210281  0.19375203  1
  Se  Se224  1  0.24445500  0.07911978  0.70387973  1
  Se  Se225  1  0.24598707  0.42276800  0.19500842  1
  Se  Se226  1  0.24576781  0.42282324  0.68815004  1
  Se  Se227  1  0.24437508  0.76762547  0.18836901  1
  Se  Se228  1  0.25837129  0.74341872  0.70041452  1
  Se  Se229  1  0.58873528  0.07432416  0.18847535  1
  Se  Se230  1  0.56865029  0.09706097  0.70125882  1
  Se  Se231  1  0.59053642  0.40918968  0.20347230  1
  Se  Se232  1  0.58990608  0.42600553  0.69895461  1
  Se  Se233  1  0.58551752  0.74749180  0.19625772  1
  Se  Se234  1  0.58119308  0.75707832  0.68890884  1
  Se  Se235  1  0.92151569  0.08117369  0.20296428  1
  Se  Se236  1  0.91424252  0.08165225  0.69884662  1
  Se  Se237  1  0.90479865  0.42228309  0.18684885  1
  Se  Se238  1  0.93139651  0.40314763  0.69281395  1
  Se  Se239  1  0.91892242  0.74778913  0.19846603  1
  Se  Se240  1  0.89954647  0.75452070  0.68493252  1
  Se  Se241  1  0.08491967  0.25388394  0.18945987  1
  Se  Se242  1  0.08013117  0.24799239  0.70429382  1
  Se  Se243  1  0.07910195  0.59785678  0.19629980  1
  Se  Se244  1  0.08737024  0.58451284  0.68101399  1
  Se  Se245  1  0.08140199  0.92140625  0.19571402  1
  Se  Se246  1  0.06652991  0.90436118  0.69690971  1
  Se  Se247  1  0.42287259  0.24053627  0.18045727  1
  Se  Se248  1  0.41665248  0.25095518  0.68676688  1
  Se  Se249  1  0.43010851  0.57122405  0.18991407  1
  Se  Se250  1  0.42008170  0.58784184  0.70390465  1
  Se  Se251  1  0.42268724  0.90931581  0.18566692  1
  Se  Se252  1  0.41403719  0.91831582  0.69764375  1
  Se  Se253  1  0.75149986  0.24572189  0.19316551  1
  Se  Se254  1  0.75125271  0.25563511  0.69864359  1
  Se  Se255  1  0.74954895  0.58346796  0.19684189  1
  Se  Se256  1  0.76021646  0.58641360  0.68760708  1
  Se  Se257  1  0.75270626  0.90946344  0.20059546  1
  Se  Se258  1  0.74426246  0.92084370  0.69378639  1
