# generated using pymatgen
data_In86Cu29Se144
_symmetry_space_group_name_H-M   'P 1'
_cell_length_a   17.70272525
_cell_length_b   17.70566737
_cell_length_c   23.55523669
_cell_angle_alpha   89.93128380
_cell_angle_beta   89.98259878
_cell_angle_gamma   90.03481308
_symmetry_Int_Tables_number   1
_chemical_formula_structural   In86Cu29Se144
_chemical_formula_sum   'In86 Cu29 Se144'
_cell_volume   7383.11256784
_cell_formula_units_Z   1
loop_
 _symmetry_equiv_pos_site_id
 _symmetry_equiv_pos_as_xyz
  1  'x, y, z'
loop_
 _atom_site_type_symbol
 _atom_site_label
 _atom_site_symmetry_multiplicity
 _atom_site_fract_x
 _atom_site_fract_y
 _atom_site_fract_z
 _atom_site_occupancy
  In  In0  1  0.00815411  0.18690110  0.10794288  1
  In  In1  1  0.00336185  0.16765582  0.62046072  1
  In  In2  1  0.01329573  0.49172527  0.12111508  1
  In  In3  1  0.01388884  0.49460390  0.62693990  1
  In  In4  1  0.00374871  0.82470340  0.11526841  1
  In  In5  1  0.00472590  0.83252875  0.63365718  1
  In  In6  1  0.33504648  0.17127203  0.11896564  1
  In  In7  1  0.33130159  0.17430874  0.62949385  1
  In  In8  1  0.32861287  0.49695748  0.12134091  1
  In  In9  1  0.31702888  0.50069686  0.64101691  1
  In  In10  1  0.32665654  0.82545243  0.11202162  1
  In  In11  1  0.33522104  0.83375657  0.63312283  1
  In  In12  1  0.66051940  0.16282675  0.12071886  1
  In  In13  1  0.66809172  0.16682625  0.61759554  1
  In  In14  1  0.66193739  0.51186725  0.12648278  1
  In  In15  1  0.69071885  0.49870503  0.63420597  1
  In  In16  1  0.66817784  0.84603934  0.12616190  1
  In  In17  1  0.66480178  0.82724765  0.62968068  1
  In  In18  1  0.17690227  0.00202979  0.37999325  1
  In  In19  1  0.16722886  0.00190242  0.87537078  1
  In  In20  1  0.18036865  0.33335054  0.37305080  1
  In  In21  1  0.16553400  0.33084088  0.86887531  1
  In  In22  1  0.16402486  0.64964723  0.37859220  1
  In  In23  1  0.17264078  0.66715396  0.86665159  1
  In  In24  1  0.50526313  -0.00405550  0.37084073  1
  In  In25  1  0.48531437  0.01424839  0.88850728  1
  In  In26  1  0.47844679  0.33651016  0.37401147  1
  In  In27  1  0.49535140  0.33776172  0.87956194  1
  In  In28  1  0.49649957  0.67159913  0.37137607  1
  In  In29  1  0.49648506  0.66407617  0.87774262  1
  In  In30  1  0.83238876  0.01782427  0.37640955  1
  In  In31  1  0.84565519  0.00907020  0.87028126  1
  In  In32  1  0.84464044  0.32759659  0.39126466  1
  In  In33  1  0.83577021  0.32405622  0.86801512  1
  In  In34  1  0.84253581  0.65657933  0.38403706  1
  In  In35  1  0.83096537  0.66468167  0.86239507  1
  In  In36  1  0.00523499  0.16300551  0.39528843  1
  In  In37  1  0.00505429  0.16843585  0.87147887  1
  In  In38  1  0.03647398  0.44041916  0.45008441  1
  In  In39  1  0.01655500  0.50827638  0.85511151  1
  In  In40  1  0.00668994  0.82349265  0.37877517  1
  In  In41  1  0.01066575  0.84452851  0.86702918  1
  In  In42  1  0.32668927  0.17600219  0.38378133  1
  In  In43  1  0.33577528  0.16352267  0.87126888  1
  In  In44  1  0.32909266  0.49860264  0.36911341  1
  In  In45  1  0.32980277  0.49955271  0.86942803  1
  In  In46  1  0.33942846  0.83056621  0.37098853  1
  In  In47  1  0.33216220  0.83484795  0.87603031  1
  In  In48  1  0.66750049  0.16247091  0.37730988  1
  In  In49  1  0.66564761  0.17102689  0.88364007  1
  In  In50  1  0.67012893  0.50851139  0.38082644  1
  In  In51  1  0.65901519  0.49227285  0.87415011  1
  In  In52  1  0.65054669  0.83475706  0.37184622  1
  In  In53  1  0.66379819  0.82353229  0.87726341  1
  In  In54  1  0.16856790  0.00386296  0.11360263  1
  In  In55  1  0.15432379  0.01776158  0.63265373  1
  In  In56  1  0.17781136  0.34611664  0.10857977  1
  In  In57  1  0.17022058  0.33020442  0.62954405  1
  In  In58  1  0.17754942  0.67387902  0.11066662  1
  In  In59  1  0.18692503  0.64708702  0.64284869  1
  In  In60  1  0.50859616  0.00806656  0.11540971  1
  In  In61  1  0.48624769  0.00914783  0.63114408  1
  In  In62  1  0.48600521  0.31912395  0.11540341  1
  In  In63  1  0.49971446  0.32110920  0.62734241  1
  In  In64  1  0.48126236  0.64999883  0.11107700  1
  In  In65  1  0.49330712  0.66663832  0.63608880  1
  In  In66  1  0.82555745  0.00378585  0.13008088  1
  In  In67  1  0.84321924  0.01495616  0.61653976  1
  In  In68  1  0.84792096  0.33117421  0.12353350  1
  In  In69  1  0.85740030  0.34679749  0.59933806  1
  In  In70  1  0.83932090  0.65750280  0.12262413  1
  In  In71  1  0.88188345  0.61481551  0.67690896  1
  In  In72  1  0.66860554  0.33086325  0.74876298  1
  In  In73  1  0.00733106  0.33743249  0.26051701  1
  In  In74  1  0.84130350  0.48747423  -0.00866827  1
  In  In75  1  0.49141750  0.83673213  0.50407221  1
  In  In76  1  0.33652206  -0.00006952  0.24092105  1
  In  In77  1  0.66143969  0.33223389  0.25140512  1
  In  In78  1  -0.00508044  0.66318332  0.25183672  1
  In  In79  1  0.66186379  0.00059742  0.74963880  1
  In  In80  1  0.82769027  0.83499974  0.50803886  1
  In  In81  1  0.83754403  0.83342912  -0.00331020  1
  In  In82  1  0.49777773  0.49948450  0.50190846  1
  In  In83  1  0.17086571  0.83330295  0.50337976  1
  In  In84  1  -0.00638180  0.00089215  0.25116447  1
  In  In85  1  0.65908987  0.67388203  0.25169972  1
  Cu  Cu86  1  0.16862656  0.50160182  0.24801201  1
  Cu  Cu87  1  0.66267818  0.32822803  0.50170464  1
  Cu  Cu88  1  0.01016670  0.66373015  -0.01329921  1
  Cu  Cu89  1  0.49640604  0.82934558  0.24500493  1
  Cu  Cu90  1  0.33104797  0.33418625  0.50443065  1
  Cu  Cu91  1  0.83824532  0.17039997  0.74194994  1
  Cu  Cu92  1  0.49344708  0.16628202  0.24188936  1
  Cu  Cu93  1  0.66534997  0.33843289  0.00019410  1
  Cu  Cu94  1  0.32756982  0.01469911  0.50630823  1
  Cu  Cu95  1  0.16164550  0.17252677  0.25361714  1
  Cu  Cu96  1  0.17042174  0.83030264  0.23721809  1
  Cu  Cu97  1  0.16814611  0.16298137  0.75088514  1
  Cu  Cu98  1  0.50020371  0.49952487  0.75605665  1
  Cu  Cu99  1  0.32986501  -0.00427509  -0.00395524  1
  Cu  Cu100  1  0.66328831  0.66420501  -0.00179466  1
  Cu  Cu101  1  0.83779557  0.50026387  0.26293838  1
  Cu  Cu102  1  0.49675405  0.83607913  0.75574739  1
  Cu  Cu103  1  0.83364304  0.16675176  0.25264535  1
  Cu  Cu104  1  0.66969544  0.00037979  0.00215325  1
  Cu  Cu105  1  0.16857817  0.83522193  0.75362429  1
  Cu  Cu106  1  0.83057561  0.84028361  0.75384090  1
  Cu  Cu107  1  -0.00029158  0.00921154  -0.00795012  1
  Cu  Cu108  1  0.00499619  0.65882082  0.51797295  1
  Cu  Cu109  1  0.48980030  0.49322830  0.24440125  1
  Cu  Cu110  1  0.33319471  0.32836138  -0.00776054  1
  Cu  Cu111  1  0.32800025  0.65983243  -0.00962578  1
  Cu  Cu112  1  0.82602333  0.83704056  0.25224858  1
  Cu  Cu113  1  0.66737486  0.66493972  0.51079342  1
  Cu  Cu114  1  0.65781302  -0.00069069  0.49639454  1
  Se  Se115  1  0.08360197  0.08767085  0.04954450  1
  Se  Se116  1  0.08844416  0.08710968  0.55149236  1
  Se  Se117  1  0.06480611  0.39678657  0.05050804  1
  Se  Se118  1  0.09049738  0.41342704  0.55422580  1
  Se  Se119  1  0.08505250  0.74964423  0.04493241  1
  Se  Se120  1  0.08930498  0.74344353  0.56799139  1
  Se  Se121  1  0.40987795  0.07879087  0.05388938  1
  Se  Se122  1  0.41574440  0.09219900  0.55803812  1
  Se  Se123  1  0.40978831  0.41188971  0.05248479  1
  Se  Se124  1  0.40994442  0.41417998  0.56509173  1
  Se  Se125  1  0.41149201  0.74404148  0.04510949  1
  Se  Se126  1  0.40676314  0.74086566  0.55958079  1
  Se  Se127  1  0.75119954  0.08313430  0.05649644  1
  Se  Se128  1  0.74390802  0.07749991  0.55053214  1
  Se  Se129  1  0.74561480  0.41590785  0.06314718  1
  Se  Se130  1  0.74256157  0.41573915  0.55228726  1
  Se  Se131  1  0.74686628  0.74165679  0.05898926  1
  Se  Se132  1  0.75133559  0.73961316  0.56854188  1
  Se  Se133  1  0.25017122  0.24679438  0.04868903  1
  Se  Se134  1  0.24777534  0.25052067  0.55646241  1
  Se  Se135  1  0.24789493  0.57648217  0.04834478  1
  Se  Se136  1  0.25511033  0.57998164  0.56093587  1
  Se  Se137  1  0.24413615  0.91368762  0.04876068  1
  Se  Se138  1  0.25579095  0.92574629  0.56426737  1
  Se  Se139  1  0.58490814  0.25039569  0.05276018  1
  Se  Se140  1  0.57823335  0.24670717  0.55271949  1
  Se  Se141  1  0.58202463  0.57842459  0.05015798  1
  Se  Se142  1  0.58515231  0.58429381  0.56743715  1
  Se  Se143  1  0.58621370  0.91424472  0.05140402  1
  Se  Se144  1  0.58453883  0.92360321  0.56275424  1
  Se  Se145  1  0.90628882  0.24995687  0.04618708  1
  Se  Se146  1  0.90753853  0.23028302  0.54872836  1
  Se  Se147  1  0.92964974  0.58726709  0.05080656  1
  Se  Se148  1  0.91627656  0.58246901  0.57086870  1
  Se  Se149  1  0.92292375  0.92880150  0.05774058  1
  Se  Se150  1  0.92991000  0.91936336  0.55724188  1
  Se  Se151  1  0.07123190  0.27906701  0.43865195  1
  Se  Se152  1  0.08918907  0.24711077  0.93952945  1
  Se  Se153  1  0.08130447  0.58361768  0.45398791  1
  Se  Se154  1  0.09014621  0.57965485  0.93467169  1
  Se  Se155  1  0.07901447  0.92165350  0.44200021  1
  Se  Se156  1  0.08116373  0.91994918  0.94498045  1
  Se  Se157  1  0.41618092  0.25248079  0.45090675  1
  Se  Se158  1  0.41879258  0.24432727  0.94332747  1
  Se  Se159  1  0.41235077  0.58950685  0.43960678  1
  Se  Se160  1  0.41472079  0.57586534  0.94276742  1
  Se  Se161  1  0.40255719  0.93035754  0.44340799  1
  Se  Se162  1  0.41697624  0.91173907  0.94867530  1
  Se  Se163  1  0.74567406  0.24709403  0.44597916  1
  Se  Se164  1  0.74981897  0.26020507  0.94466138  1
  Se  Se165  1  0.74799609  0.58824546  0.45147729  1
  Se  Se166  1  0.74904759  0.58696451  0.94098297  1
  Se  Se167  1  0.73904365  0.91848764  0.43839331  1
  Se  Se168  1  0.74859610  0.92497964  0.93761571  1
  Se  Se169  1  0.24308985  0.09198407  0.45014140  1
  Se  Se170  1  0.25242756  0.08315762  0.94264913  1
  Se  Se171  1  0.25682993  0.41788461  0.44457685  1
  Se  Se172  1  0.25219277  0.41150120  0.93811691  1
  Se  Se173  1  0.25575300  0.74521995  0.43844071  1
  Se  Se174  1  0.24720195  0.74905131  0.94184802  1
  Se  Se175  1  0.57666415  0.08160242  0.44175192  1
  Se  Se176  1  0.58611953  0.08455954  0.95033940  1
  Se  Se177  1  0.58578852  0.40811652  0.43841693  1
  Se  Se178  1  0.58025674  0.41923982  0.94872821  1
  Se  Se179  1  0.58747717  0.74143688  0.44815254  1
  Se  Se180  1  0.58040373  0.74805051  0.94756711  1
  Se  Se181  1  0.91791542  0.07504041  0.45143796  1
  Se  Se182  1  0.91478955  0.09224705  0.94312396  1
  Se  Se183  1  0.89070406  0.44392609  0.44525547  1
  Se  Se184  1  0.93137316  0.41495826  0.92415101  1
  Se  Se185  1  0.92935606  0.74029063  0.45372869  1
  Se  Se186  1  0.92188919  0.74336159  0.93394645  1
  Se  Se187  1  0.25443427  0.24696148  0.30325591  1
  Se  Se188  1  0.25137014  0.24549760  0.80354162  1
  Se  Se189  1  0.24898854  0.58711634  0.30217446  1
  Se  Se190  1  0.26503104  0.59475754  0.80078328  1
  Se  Se191  1  0.24325495  0.91124629  0.30256371  1
  Se  Se192  1  0.25065185  0.91852969  0.80738222  1
  Se  Se193  1  0.56853439  0.24383003  0.30911863  1
  Se  Se194  1  0.57948748  0.24592512  0.81092962  1
  Se  Se195  1  0.57228322  0.57066198  0.30517956  1
  Se  Se196  1  0.58243709  0.58228890  0.80895300  1
  Se  Se197  1  0.57835201  0.91413508  0.29693521  1
  Se  Se198  1  0.57694443  0.91582148  0.81530759  1
  Se  Se199  1  0.91561662  0.23971814  0.31443884  1
  Se  Se200  1  0.92111351  0.24793221  0.79927020  1
  Se  Se201  1  0.92611124  0.57039098  0.31995900  1
  Se  Se202  1  0.90862544  0.57574697  0.79787454  1
  Se  Se203  1  0.91074618  0.90684043  0.31505229  1
  Se  Se204  1  0.91815508  0.92170179  0.80210112  1
  Se  Se205  1  0.08674919  0.08870568  0.31230795  1
  Se  Se206  1  0.08382683  0.08043948  0.80413124  1
  Se  Se207  1  0.09231290  0.43211140  0.31585590  1
  Se  Se208  1  0.10520945  0.42378004  0.79296107  1
  Se  Se209  1  0.09408404  0.75468680  0.30393459  1
  Se  Se210  1  0.08177087  0.75036827  0.80222921  1
  Se  Se211  1  0.41677940  0.08816116  0.30809173  1
  Se  Se212  1  0.42087565  0.07922909  0.80543680  1
  Se  Se213  1  0.40611389  0.41331846  0.29845734  1
  Se  Se214  1  0.41766971  0.41305798  0.80486325  1
  Se  Se215  1  0.41485317  0.74791512  0.29944891  1
  Se  Se216  1  0.41730132  0.75082098  0.80959095  1
  Se  Se217  1  0.74679485  0.08494581  0.30275160  1
  Se  Se218  1  0.75427926  0.09630798  0.80522021  1
  Se  Se219  1  0.75303687  0.41705211  0.31456854  1
  Se  Se220  1  0.75711176  0.42417401  0.80610617  1
  Se  Se221  1  0.75637803  0.75241176  0.31567525  1
  Se  Se222  1  0.74639738  0.75558299  0.80251091  1
  Se  Se223  1  0.23733618  0.09068465  0.19144279  1
  Se  Se224  1  0.25407687  0.08305986  0.69663672  1
  Se  Se225  1  0.24377390  0.41584422  0.19133504  1
  Se  Se226  1  0.22400917  0.42495403  0.70574140  1
  Se  Se227  1  0.25343185  0.74624990  0.18839956  1
  Se  Se228  1  0.25360743  0.75271219  0.70181846  1
  Se  Se229  1  0.58070197  0.08433817  0.19349130  1
  Se  Se230  1  0.57780343  0.09686238  0.69324250  1
  Se  Se231  1  0.57465871  0.41815606  0.18623987  1
  Se  Se232  1  0.57854417  0.42467091  0.68970753  1
  Se  Se233  1  0.57385353  0.75025345  0.18111727  1
  Se  Se234  1  0.57700897  0.75491407  0.69886055  1
  Se  Se235  1  0.91782848  0.09758716  0.18800371  1
  Se  Se236  1  0.92144614  0.08396023  0.69271080  1
  Se  Se237  1  0.91459767  0.42685924  0.19624573  1
  Se  Se238  1  0.91809609  0.41026878  0.68510457  1
  Se  Se239  1  0.90669232  0.76018560  0.19094546  1
  Se  Se240  1  0.90912297  0.75922698  0.69632243  1
  Se  Se241  1  0.08742262  0.25193159  0.19109705  1
  Se  Se242  1  0.08569922  0.24324614  0.69351331  1
  Se  Se243  1  0.09003646  0.58388071  0.18751387  1
  Se  Se244  1  0.06904944  0.59797560  0.69516581  1
  Se  Se245  1  0.08406125  0.91257682  0.18721606  1
  Se  Se246  1  0.08771377  0.91831063  0.69812800  1
  Se  Se247  1  0.40857997  0.25077197  0.19440104  1
  Se  Se248  1  0.40695718  0.26252302  0.69797750  1
  Se  Se249  1  0.41073571  0.58043815  0.19180984  1
  Se  Se250  1  0.41408199  0.57873513  0.70149558  1
  Se  Se251  1  0.42187762  0.90891467  0.18091884  1
  Se  Se252  1  0.41729224  0.91827828  0.69960502  1
  Se  Se253  1  0.75700600  0.24836401  0.19168724  1
  Se  Se254  1  0.75737822  0.24933872  0.68318649  1
  Se  Se255  1  0.75893013  0.57905368  0.20072972  1
  Se  Se256  1  0.73873713  0.60054916  0.70114474  1
  Se  Se257  1  0.74612954  0.92166428  0.20039537  1
  Se  Se258  1  0.75754581  0.92046456  0.68756010  1
