# generated using pymatgen
data_In86Cu29Se144
_symmetry_space_group_name_H-M   'P 1'
_cell_length_a   17.57625520
_cell_length_b   17.57668860
_cell_length_c   23.43603125
_cell_angle_alpha   90.02152478
_cell_angle_beta   89.97820421
_cell_angle_gamma   90.01577469
_symmetry_Int_Tables_number   1
_chemical_formula_structural   In86Cu29Se144
_chemical_formula_sum   'In86 Cu29 Se144'
_cell_volume   7240.14723724
_cell_formula_units_Z   1
loop_
 _symmetry_equiv_pos_site_id
 _symmetry_equiv_pos_as_xyz
  1  'x, y, z'
loop_
 _atom_site_type_symbol
 _atom_site_label
 _atom_site_symmetry_multiplicity
 _atom_site_fract_x
 _atom_site_fract_y
 _atom_site_fract_z
 _atom_site_occupancy
  In  In0  1  -0.00319190  0.16527080  0.11707495  1
  In  In1  1  -0.00732381  0.16204399  0.62949687  1
  In  In2  1  -0.01367861  0.51412374  0.11844978  1
  In  In3  1  0.00992437  0.50154598  0.61322581  1
  In  In4  1  0.01857153  0.82203265  0.11549802  1
  In  In5  1  0.01435640  0.81901083  0.63787635  1
  In  In6  1  0.34872546  0.18475585  0.10620706  1
  In  In7  1  0.34942324  0.16109948  0.64246960  1
  In  In8  1  0.34060547  0.49506305  0.13274067  1
  In  In9  1  0.33441846  0.50375072  0.62657499  1
  In  In10  1  0.32536780  0.81856345  0.11060094  1
  In  In11  1  0.33602698  0.83029136  0.62488201  1
  In  In12  1  0.67116144  0.17478484  0.12174426  1
  In  In13  1  0.66515921  0.16206032  0.60329709  1
  In  In14  1  0.66967152  0.48827097  0.13652082  1
  In  In15  1  0.66249856  0.48219742  0.60374052  1
  In  In16  1  0.64788979  0.83334529  0.12598615  1
  In  In17  1  0.65210451  0.84492548  0.61715842  1
  In  In18  1  0.15577576  -0.00295218  0.38162685  1
  In  In19  1  0.16908494  -0.00040611  0.87039692  1
  In  In20  1  0.18527175  0.33396313  0.37234300  1
  In  In21  1  0.17382869  0.32231233  0.87879349  1
  In  In22  1  0.17367781  0.65645583  0.38188859  1
  In  In23  1  0.17738053  0.67686735  0.86924366  1
  In  In24  1  0.50906725  0.00395474  0.39435620  1
  In  In25  1  0.47780193  0.01967260  0.88201680  1
  In  In26  1  0.49899027  0.34060813  0.37845012  1
  In  In27  1  0.48255845  0.32139234  0.86661249  1
  In  In28  1  0.49546302  0.66467418  0.37678947  1
  In  In29  1  0.49048585  0.68169749  0.88202220  1
  In  In30  1  0.82636767  0.01738714  0.38368031  1
  In  In31  1  0.84583505  0.00251026  0.87150456  1
  In  In32  1  0.80194791  0.36068051  0.41056371  1
  In  In33  1  0.83046242  0.33626061  0.88176569  1
  In  In34  1  0.81728225  0.66324346  0.37171084  1
  In  In35  1  0.83737188  0.65231642  0.87669172  1
  In  In36  1  -0.01146054  0.16660067  0.38016389  1
  In  In37  1  0.00859384  0.15959807  0.88127926  1
  In  In38  1  -0.00751337  0.49552235  0.38918020  1
  In  In39  1  -0.00885749  0.49577913  0.87083536  1
  In  In40  1  0.00555272  0.84191986  0.38127523  1
  In  In41  1  0.01390444  0.84005770  0.86594709  1
  In  In42  1  0.34105404  0.18338026  0.37362788  1
  In  In43  1  0.33808833  0.16329011  0.87027869  1
  In  In44  1  0.33542690  0.50302661  0.37706271  1
  In  In45  1  0.32611869  0.49894210  0.86978268  1
  In  In46  1  0.34104547  0.82630614  0.38307071  1
  In  In47  1  0.32679924  0.83191343  0.87490859  1
  In  In48  1  0.64146953  0.19632038  0.40113643  1
  In  In49  1  0.65919279  0.17505186  0.88173495  1
  In  In50  1  0.65859648  0.50028241  0.37837907  1
  In  In51  1  0.67209897  0.50672872  0.87906035  1
  In  In52  1  0.66502644  0.81781664  0.37178161  1
  In  In53  1  0.65045134  0.83242393  0.87654620  1
  In  In54  1  0.16907512  0.00098106  0.11540971  1
  In  In55  1  0.18499744  -0.01375691  0.63830228  1
  In  In56  1  0.18127780  0.33755377  0.12201338  1
  In  In57  1  0.17185142  0.34903242  0.62107440  1
  In  In58  1  0.16843816  0.67712784  0.11757884  1
  In  In59  1  0.16851759  0.66422683  0.62641254  1
  In  In60  1  0.48920446  -0.00582692  0.11694610  1
  In  In61  1  0.49507784  -0.00519022  0.61491601  1
  In  In62  1  0.50535960  0.33394533  0.13298466  1
  In  In63  1  0.49057645  0.31915338  0.61226937  1
  In  In64  1  0.49209310  0.67105020  0.13135987  1
  In  In65  1  0.49535385  0.65736989  0.61869734  1
  In  In66  1  0.82581703  0.00887431  0.12127978  1
  In  In67  1  0.83524761  0.01086664  0.62953536  1
  In  In68  1  0.82636511  0.33017902  0.12326507  1
  In  In69  1  0.83488238  0.32321231  0.60594081  1
  In  In70  1  0.83568931  0.64366635  0.12349441  1
  In  In71  1  0.84369794  0.66523321  0.62730370  1
  In  In72  1  0.00200656  0.33457716  0.74387224  1
  In  In73  1  0.16792787  0.16723906  0.50377215  1
  In  In74  1  -0.00338206  0.00174134  0.25462423  1
  In  In75  1  0.66261385  0.00317282  0.73953948  1
  In  In76  1  0.16589614  0.50122627  -0.00265821  1
  In  In77  1  0.00446739  0.66781267  0.24478396  1
  In  In78  1  0.33436417  0.00138567  0.24948188  1
  In  In79  1  0.66159142  0.33000982  0.73842886  1
  In  In80  1  0.00286067  0.33465717  0.25768717  1
  In  In81  1  0.83355115  0.83674236  -0.00332508  1
  In  In82  1  0.83154283  0.83288710  0.50003612  1
  In  In83  1  0.66728530  0.66492135  0.74931720  1
  In  In84  1  0.66026523  -0.00040548  0.25136785  1
  In  In85  1  0.50291812  0.49684812  -0.00017773  1
  Cu  Cu86  1  0.17400429  0.82978277  0.24666395  1
  Cu  Cu87  1  0.32870021  -0.00277855  -0.00734831  1
  Cu  Cu88  1  0.33356898  0.33982183  0.50100866  1
  Cu  Cu89  1  0.33206311  0.66527880  0.50290455  1
  Cu  Cu90  1  0.67025535  0.66422803  0.00399199  1
  Cu  Cu91  1  0.50058265  0.17067611  0.25204746  1
  Cu  Cu92  1  0.17382751  0.17074248  0.24503597  1
  Cu  Cu93  1  0.82814988  0.49639072  0.25587363  1
  Cu  Cu94  1  0.17011004  0.16494472  0.75582828  1
  Cu  Cu95  1  -0.00827132  0.33600875  -0.00084920  1
  Cu  Cu96  1  0.83429996  0.82854328  0.24999357  1
  Cu  Cu97  1  0.83426157  0.16722896  0.75087537  1
  Cu  Cu98  1  0.33011866  0.00291209  0.50728029  1
  Cu  Cu99  1  0.17896092  0.50407562  0.25172936  1
  Cu  Cu100  1  0.16740904  0.50612648  0.74526669  1
  Cu  Cu101  1  0.66211155  0.00552975  0.00191886  1
  Cu  Cu102  1  0.00115627  0.66674668  0.50547585  1
  Cu  Cu103  1  0.83824471  0.82972248  0.75266510  1
  Cu  Cu104  1  0.50033088  0.50093132  0.25669408  1
  Cu  Cu105  1  0.00054937  0.00386096  -0.00745742  1
  Cu  Cu106  1  0.49051979  0.83737030  0.74936454  1
  Cu  Cu107  1  0.82129275  0.17819978  0.25317683  1
  Cu  Cu108  1  0.83352009  0.49933363  0.74482535  1
  Cu  Cu109  1  0.49389035  0.82205097  0.25252806  1
  Cu  Cu110  1  0.66101897  0.66553309  0.49585916  1
  Cu  Cu111  1  0.17059800  0.83197478  0.74960693  1
  Cu  Cu112  1  0.66636216  0.33743075  0.00466058  1
  Cu  Cu113  1  0.49130847  0.50651664  0.74884362  1
  Cu  Cu114  1  0.01107128  -0.01467603  0.51043467  1
  Se  Se115  1  0.08245154  0.08452974  0.05071332  1
  Se  Se116  1  0.08873713  0.07152903  0.56800273  1
  Se  Se117  1  0.07279990  0.41351519  0.06155359  1
  Se  Se118  1  0.07993909  0.40580874  0.54790859  1
  Se  Se119  1  0.09001060  0.74564534  0.04059394  1
  Se  Se120  1  0.08574647  0.74947403  0.55661359  1
  Se  Se121  1  0.41449742  0.07940420  0.04653204  1
  Se  Se122  1  0.41177255  0.09180065  0.55609752  1
  Se  Se123  1  0.41262498  0.40657088  0.05834202  1
  Se  Se124  1  0.41744061  0.42266018  0.55514744  1
  Se  Se125  1  0.43269045  0.75454080  0.05287400  1
  Se  Se126  1  0.41850488  0.74971707  0.55360587  1
  Se  Se127  1  0.74889670  0.08940323  0.05048028  1
  Se  Se128  1  0.75279992  0.06785388  0.55126667  1
  Se  Se129  1  0.74948818  0.42227551  0.05673906  1
  Se  Se130  1  0.76509804  0.41909611  0.54080413  1
  Se  Se131  1  0.74793510  0.74913277  0.06383182  1
  Se  Se132  1  0.74037864  0.74200455  0.56124606  1
  Se  Se133  1  0.23273708  0.23827838  0.05255618  1
  Se  Se134  1  0.26194040  0.25225738  0.56318260  1
  Se  Se135  1  0.26033317  0.58226853  0.06079952  1
  Se  Se136  1  0.24807331  0.58074976  0.55550284  1
  Se  Se137  1  0.24754904  0.91367240  0.04876151  1
  Se  Se138  1  0.25011674  0.91346872  0.55573658  1
  Se  Se139  1  0.58117612  0.25480025  0.05710046  1
  Se  Se140  1  0.60808686  0.27924161  0.55367789  1
  Se  Se141  1  0.59040715  0.58321066  0.06490268  1
  Se  Se142  1  0.57959982  0.57968121  0.54849671  1
  Se  Se143  1  0.58078312  0.91673886  0.05078539  1
  Se  Se144  1  0.57886497  0.92006381  0.54277722  1
  Se  Se145  1  0.91076917  0.25074266  0.05392614  1
  Se  Se146  1  0.92705247  0.23605850  0.55025987  1
  Se  Se147  1  0.92768639  0.60346594  0.04413474  1
  Se  Se148  1  0.91327402  0.58273957  0.55261107  1
  Se  Se149  1  0.92598526  0.92497504  0.06064197  1
  Se  Se150  1  0.92259528  0.91086250  0.56821290  1
  Se  Se151  1  0.08643337  0.25389702  0.43610668  1
  Se  Se152  1  0.07871265  0.25571511  0.94699339  1
  Se  Se153  1  0.08150163  0.58306087  0.44865923  1
  Se  Se154  1  0.08129337  0.58579376  0.93167546  1
  Se  Se155  1  0.09434678  0.90554488  0.45555550  1
  Se  Se156  1  0.08494882  0.91935123  0.94245935  1
  Se  Se157  1  0.41861678  0.25384027  0.45000247  1
  Se  Se158  1  0.41977270  0.24154215  0.94379201  1
  Se  Se159  1  0.41715386  0.58234834  0.44897682  1
  Se  Se160  1  0.40820136  0.58460332  0.94284023  1
  Se  Se161  1  0.41217057  0.92047875  0.45000341  1
  Se  Se162  1  0.41637182  0.91304980  0.94285277  1
  Se  Se163  1  0.77669235  0.22072173  0.43821359  1
  Se  Se164  1  0.74802104  0.25262895  0.94865191  1
  Se  Se165  1  0.74872003  0.58250706  0.44680103  1
  Se  Se166  1  0.75411344  0.58143183  0.95187074  1
  Se  Se167  1  0.74017009  0.91811834  0.43840990  1
  Se  Se168  1  0.74047205  0.92740929  0.93714808  1
  Se  Se169  1  0.25895728  0.08078296  0.43762245  1
  Se  Se170  1  0.24906271  0.08443525  0.93940260  1
  Se  Se171  1  0.24952656  0.42096900  0.44695685  1
  Se  Se172  1  0.26121308  0.40678823  0.94661140  1
  Se  Se173  1  0.24910934  0.74866944  0.44821264  1
  Se  Se174  1  0.25125178  0.74815347  0.94740974  1
  Se  Se175  1  0.58105466  0.09153908  0.46261498  1
  Se  Se176  1  0.57857582  0.08688724  0.94672562  1
  Se  Se177  1  0.59126280  0.40815412  0.44870573  1
  Se  Se178  1  0.58776904  0.40613104  0.93458266  1
  Se  Se179  1  0.57823584  0.75162817  0.44543006  1
  Se  Se180  1  0.58567749  0.74692611  0.95214431  1
  Se  Se181  1  0.93312864  0.06658474  0.45055579  1
  Se  Se182  1  0.91077803  0.08807767  0.94716097  1
  Se  Se183  1  0.92947712  0.40020796  0.45620894  1
  Se  Se184  1  0.91185171  0.42368549  0.94750659  1
  Se  Se185  1  0.92085489  0.74015310  0.43834020  1
  Se  Se186  1  0.92163491  0.75244687  0.93358494  1
  Se  Se187  1  0.25821765  0.25225138  0.29771799  1
  Se  Se188  1  0.25388508  0.25249702  0.80320501  1
  Se  Se189  1  0.25708349  0.59004630  0.30538175  1
  Se  Se190  1  0.25201442  0.58653450  0.79994486  1
  Se  Se191  1  0.24314009  0.91400939  0.31122458  1
  Se  Se192  1  0.25324674  0.91734055  0.80205458  1
  Se  Se193  1  0.58130422  0.25149569  0.30970255  1
  Se  Se194  1  0.57645202  0.23864537  0.80016295  1
  Se  Se195  1  0.58385306  0.58686901  0.30750310  1
  Se  Se196  1  0.57370669  0.58057761  0.81227383  1
  Se  Se197  1  0.56825410  0.91062939  0.31145742  1
  Se  Se198  1  0.57386892  0.91907102  0.80597770  1
  Se  Se199  1  0.90516114  0.25225439  0.31343492  1
  Se  Se200  1  0.91312386  0.24949529  0.81010367  1
  Se  Se201  1  0.91634754  0.57773263  0.30897864  1
  Se  Se202  1  0.91576458  0.58126378  0.79883103  1
  Se  Se203  1  0.90319749  0.91162806  0.31362384  1
  Se  Se204  1  0.92011107  0.91836877  0.80117592  1
  Se  Se205  1  0.09201077  0.09610958  0.30786747  1
  Se  Se206  1  0.08028939  0.08330121  0.80383517  1
  Se  Se207  1  0.09239165  0.43120366  0.31247636  1
  Se  Se208  1  0.09360015  0.41974382  0.80760524  1
  Se  Se209  1  0.08925760  0.75686904  0.30944830  1
  Se  Se210  1  0.08476940  0.74567852  0.79860083  1
  Se  Se211  1  0.42861653  0.08438934  0.31290865  1
  Se  Se212  1  0.41532155  0.08199127  0.79630047  1
  Se  Se213  1  0.41380976  0.41649751  0.30695691  1
  Se  Se214  1  0.41340380  0.41925853  0.80229824  1
  Se  Se215  1  0.40794753  0.74350428  0.30636537  1
  Se  Se216  1  0.41305395  0.75012742  0.80402713  1
  Se  Se217  1  0.74282750  0.09394156  0.31098132  1
  Se  Se218  1  0.74855674  0.08956592  0.80901734  1
  Se  Se219  1  0.75087318  0.41481519  0.31505756  1
  Se  Se220  1  0.75159636  0.42005802  0.80407958  1
  Se  Se221  1  0.74638302  0.74510814  0.29682396  1
  Se  Se222  1  0.75415901  0.75567919  0.81380011  1
  Se  Se223  1  0.25086752  0.08979011  0.18455152  1
  Se  Se224  1  0.25618237  0.08158038  0.70422412  1
  Se  Se225  1  0.25434827  0.41238333  0.19979263  1
  Se  Se226  1  0.25212813  0.41947247  0.69680437  1
  Se  Se227  1  0.25374989  0.74655682  0.19226880  1
  Se  Se228  1  0.25201973  0.74846101  0.69403577  1
  Se  Se229  1  0.57177213  0.08632404  0.18752936  1
  Se  Se230  1  0.57669079  0.09509013  0.68042485  1
  Se  Se231  1  0.58368174  0.41303029  0.20645391  1
  Se  Se232  1  0.57496378  0.43086520  0.68800810  1
  Se  Se233  1  0.58444711  0.74545555  0.20046524  1
  Se  Se234  1  0.57642579  0.75766173  0.69189809  1
  Se  Se235  1  0.90439156  0.09541885  0.19638251  1
  Se  Se236  1  0.92028566  0.07982395  0.70450583  1
  Se  Se237  1  0.91372835  0.42431628  0.19363400  1
  Se  Se238  1  0.90811917  0.41701771  0.68219850  1
  Se  Se239  1  0.91370050  0.75786131  0.18423067  1
  Se  Se240  1  0.91926988  0.74210087  0.70209147  1
  Se  Se241  1  0.08479406  0.24647233  0.18933439  1
  Se  Se242  1  0.09684412  0.24325274  0.68849459  1
  Se  Se243  1  0.09440820  0.57398654  0.18718409  1
  Se  Se244  1  0.07749430  0.58098481  0.69168391  1
  Se  Se245  1  0.08928462  0.91270067  0.19246599  1
  Se  Se246  1  0.08289989  0.91888155  0.70159357  1
  Se  Se247  1  0.41493039  0.24623345  0.19402566  1
  Se  Se248  1  0.41732368  0.26785180  0.69861089  1
  Se  Se249  1  0.41775840  0.58236852  0.20064457  1
  Se  Se250  1  0.41211948  0.59332137  0.69641772  1
  Se  Se251  1  0.41674484  0.90384174  0.19058014  1
  Se  Se252  1  0.41526525  0.92218359  0.69127694  1
  Se  Se253  1  0.74056606  0.25921930  0.19710393  1
  Se  Se254  1  0.75766355  0.23948802  0.68409822  1
  Se  Se255  1  0.75008067  0.58239857  0.20029886  1
  Se  Se256  1  0.74663779  0.57169775  0.68395258  1
  Se  Se257  1  0.75539551  0.91122194  0.19025943  1
  Se  Se258  1  0.75604171  0.90254330  0.68957851  1
