# generated using pymatgen
data_In86Cu29Se144
_symmetry_space_group_name_H-M   'P 1'
_cell_length_a   17.58725094
_cell_length_b   17.58626261
_cell_length_c   23.44435680
_cell_angle_alpha   90.01967882
_cell_angle_beta   89.97084429
_cell_angle_gamma   89.96676000
_symmetry_Int_Tables_number   1
_chemical_formula_structural   In86Cu29Se144
_chemical_formula_sum   'In86 Cu29 Se144'
_cell_volume   7251.19662636
_cell_formula_units_Z   1
loop_
 _symmetry_equiv_pos_site_id
 _symmetry_equiv_pos_as_xyz
  1  'x, y, z'
loop_
 _atom_site_type_symbol
 _atom_site_label
 _atom_site_symmetry_multiplicity
 _atom_site_fract_x
 _atom_site_fract_y
 _atom_site_fract_z
 _atom_site_occupancy
  In  In0  1  -0.00648127  0.15724933  0.13074369  1
  In  In1  1  -0.00196320  0.16982931  0.63151963  1
  In  In2  1  -0.01215664  0.50229318  0.11951609  1
  In  In3  1  -0.00129218  0.49723447  0.62658696  1
  In  In4  1  0.00083365  0.84188519  0.11235828  1
  In  In5  1  0.00505047  0.83227444  0.64187644  1
  In  In6  1  0.33546762  0.16822238  0.11712065  1
  In  In7  1  0.33827534  0.15051954  0.62903865  1
  In  In8  1  0.32861670  0.49674178  0.12322623  1
  In  In9  1  0.32454391  0.51604449  0.62455706  1
  In  In10  1  0.33969686  0.84443510  0.10634911  1
  In  In11  1  0.35185668  0.83573899  0.63066304  1
  In  In12  1  0.66278641  0.16980100  0.13940921  1
  In  In13  1  0.67299239  0.16540597  0.62172300  1
  In  In14  1  0.68075557  0.49049137  0.13091855  1
  In  In15  1  0.67225284  0.49698350  0.63340651  1
  In  In16  1  0.66870191  0.83472579  0.12206301  1
  In  In17  1  0.64366548  0.85069159  0.64529260  1
  In  In18  1  0.16264429  0.00846931  0.37252254  1
  In  In19  1  0.16510434  -0.00236944  0.86958329  1
  In  In20  1  0.16572231  0.33931286  0.37763003  1
  In  In21  1  0.14285666  0.33223459  0.88264076  1
  In  In22  1  0.15341553  0.65165132  0.37633876  1
  In  In23  1  0.15569405  0.71489457  0.87604080  1
  In  In24  1  0.50820549  -0.00500884  0.37864079  1
  In  In25  1  0.50428841  -0.00292606  0.87390660  1
  In  In26  1  0.50631570  0.32043774  0.37816418  1
  In  In27  1  0.50572846  0.31162475  0.87703964  1
  In  In28  1  0.51513759  0.66973991  0.37694279  1
  In  In29  1  0.50759220  0.67187475  0.87465029  1
  In  In30  1  0.83866781  0.00973684  0.36569929  1
  In  In31  1  0.81834308  -0.00961049  0.87078398  1
  In  In32  1  0.81050618  0.30541365  0.35074934  1
  In  In33  1  0.84504283  0.34320322  0.87466415  1
  In  In34  1  0.82807060  0.67793025  0.37490913  1
  In  In35  1  0.83240098  0.66694426  0.87665727  1
  In  In36  1  -0.01558719  0.15511104  0.36004286  1
  In  In37  1  0.00515718  0.17629867  0.87499017  1
  In  In38  1  0.00889479  0.48707047  0.38233491  1
  In  In39  1  -0.01361516  0.49214134  0.87128241  1
  In  In40  1  -0.01180976  0.83493170  0.37494090  1
  In  In41  1  -0.00214959  0.83452388  0.86823887  1
  In  In42  1  0.34080120  0.17524759  0.37919679  1
  In  In43  1  0.34291126  0.15204690  0.88254669  1
  In  In44  1  0.32215355  0.49022732  0.37877078  1
  In  In45  1  0.33200101  0.50831889  0.87015867  1
  In  In46  1  0.33904861  0.84360633  0.37672216  1
  In  In47  1  0.32370254  0.84424037  0.87744683  1
  In  In48  1  0.66517665  0.16072260  0.37072773  1
  In  In49  1  0.66142322  0.15398714  0.87012115  1
  In  In50  1  0.67346618  0.50301281  0.36884804  1
  In  In51  1  0.68013779  0.50617608  0.87226225  1
  In  In52  1  0.66447325  0.82839003  0.37164187  1
  In  In53  1  0.66514294  0.83532074  0.87759272  1
  In  In54  1  0.15711657  -0.00608824  0.11477714  1
  In  In55  1  0.17185660  -0.00603278  0.64688721  1
  In  In56  1  0.16233180  0.31621241  0.11666441  1
  In  In57  1  0.14676532  0.33557689  0.62657475  1
  In  In58  1  0.15612025  0.67197283  0.11460352  1
  In  In59  1  0.16296788  0.65800521  0.62502967  1
  In  In60  1  0.51237877  0.00694761  0.11725378  1
  In  In61  1  0.50371247  0.00275810  0.62408397  1
  In  In62  1  0.51238300  0.32791776  0.12578184  1
  In  In63  1  0.51940762  0.33199522  0.62347226  1
  In  In64  1  0.50748982  0.68455971  0.11794230  1
  In  In65  1  0.49566296  0.68182676  0.63041683  1
  In  In66  1  0.83820452  0.00185183  0.12980094  1
  In  In67  1  0.82644576  0.00520707  0.63010644  1
  In  In68  1  0.82927767  0.33103650  0.13084762  1
  In  In69  1  0.84544908  0.32114288  0.62960730  1
  In  In70  1  0.82852765  0.65970396  0.11662043  1
  In  In71  1  0.82766235  0.66783490  0.63275862  1
  In  In72  1  0.50749445  0.49851658  -0.00713168  1
  In  In73  1  0.16753162  0.16654072  0.50585056  1
  In  In74  1  0.17114575  0.83065393  0.51271562  1
  In  In75  1  0.33931904  0.00422762  0.25119758  1
  In  In76  1  -0.01013933  0.66511083  0.25125229  1
  In  In77  1  0.33014400  0.67590969  0.75596872  1
  In  In78  1  0.83656848  0.49257094  0.50145408  1
  In  In79  1  0.49447629  0.50206217  0.50063301  1
  In  In80  1  0.83450875  0.16488505  0.00507272  1
  In  In81  1  0.33823724  0.33167099  0.25593354  1
  In  In82  1  0.33100233  0.32887287  0.75414708  1
  In  In83  1  0.83188767  0.83494668  0.50305816  1
  In  In84  1  0.16691256  0.51011178  -0.00848471  1
  In  In85  1  0.33707735  0.67142103  0.23375811  1
  Cu  Cu86  1  0.67176017  0.32179516  0.49458164  1
  Cu  Cu87  1  0.67400792  0.32346353  0.00620037  1
  Cu  Cu88  1  0.50866708  0.16131958  0.74986864  1
  Cu  Cu89  1  0.00092322  0.00055391  0.50055848  1
  Cu  Cu90  1  0.50810026  0.83527901  0.24820869  1
  Cu  Cu91  1  0.83084070  0.82904456  0.75600897  1
  Cu  Cu92  1  0.32767998  0.67321090  0.50336860  1
  Cu  Cu93  1  0.15609703  0.83834817  0.23999553  1
  Cu  Cu94  1  -0.00649581  0.32540133  0.49940936  1
  Cu  Cu95  1  0.15591250  0.50175183  0.75207562  1
  Cu  Cu96  1  0.16470947  0.16942149  0.75610780  1
  Cu  Cu97  1  0.33038257  0.33363218  0.50178421  1
  Cu  Cu98  1  0.66258566  0.67484125  0.50550800  1
  Cu  Cu99  1  0.66763523  0.00210051  0.50334437  1
  Cu  Cu100  1  0.16412911  0.49778913  0.25145245  1
  Cu  Cu101  1  0.83333346  0.16643235  0.75279672  1
  Cu  Cu102  1  0.50855618  0.49732983  0.75294272  1
  Cu  Cu103  1  0.83296474  0.50052851  0.24482813  1
  Cu  Cu104  1  0.51257533  0.50119952  0.24913319  1
  Cu  Cu105  1  -0.00149726  0.67536662  -0.00737128  1
  Cu  Cu106  1  0.34937907  -0.00081536  0.50300543  1
  Cu  Cu107  1  0.82989612  0.83771560  0.24722752  1
  Cu  Cu108  1  0.15770854  0.16120555  0.24510116  1
  Cu  Cu109  1  -0.00134663  -0.00043698  -0.00460527  1
  Cu  Cu110  1  0.66201262  -0.00340464  -0.00303963  1
  Cu  Cu111  1  0.33592475  0.32744506  -0.00406558  1
  Cu  Cu112  1  0.67156186  0.66779424  -0.00259659  1
  Cu  Cu113  1  0.83244748  0.49990467  0.75143591  1
  Cu  Cu114  1  0.32835493  0.00205856  -0.00517174  1
  Se  Se115  1  0.07427633  0.08547226  0.05355727  1
  Se  Se116  1  0.08501561  0.07062406  0.56553610  1
  Se  Se117  1  0.08489400  0.42017436  0.05653560  1
  Se  Se118  1  0.07363346  0.41376466  0.55112823  1
  Se  Se119  1  0.08397601  0.75793988  0.04419169  1
  Se  Se120  1  0.06955128  0.74454640  0.56114890  1
  Se  Se121  1  0.41398479  0.07791806  0.05284397  1
  Se  Se122  1  0.42582263  0.09059860  0.55277440  1
  Se  Se123  1  0.41414189  0.40876828  0.05675403  1
  Se  Se124  1  0.40840569  0.41250416  0.56596197  1
  Se  Se125  1  0.41388166  0.74508548  0.04892660  1
  Se  Se126  1  0.41699643  0.75218323  0.55272831  1
  Se  Se127  1  0.73826434  0.07761579  0.06095125  1
  Se  Se128  1  0.75724488  0.08317678  0.55147718  1
  Se  Se129  1  0.75476143  0.41246625  0.05515339  1
  Se  Se130  1  0.74363522  0.40386394  0.55981056  1
  Se  Se131  1  0.75292498  0.75291284  0.05209067  1
  Se  Se132  1  0.73889207  0.75507977  0.56690612  1
  Se  Se133  1  0.24974310  0.24448861  0.04668937  1
  Se  Se134  1  0.25536298  0.25681016  0.56868820  1
  Se  Se135  1  0.26036858  0.59350505  0.05561227  1
  Se  Se136  1  0.24351536  0.58464475  0.54858211  1
  Se  Se137  1  0.24154728  0.91678108  0.04464303  1
  Se  Se138  1  0.25939010  0.93010896  0.56374428  1
  Se  Se139  1  0.58870086  0.24116260  0.05704797  1
  Se  Se140  1  0.58558085  0.24453856  0.55049815  1
  Se  Se141  1  0.59427506  0.58293878  0.05946669  1
  Se  Se142  1  0.58665176  0.58629775  0.56289158  1
  Se  Se143  1  0.57995091  0.90987019  0.05078396  1
  Se  Se144  1  0.58635686  0.91569581  0.55582459  1
  Se  Se145  1  0.92463085  0.25715468  0.06054332  1
  Se  Se146  1  0.91634828  0.23877978  0.55375379  1
  Se  Se147  1  0.91984064  0.58855645  0.04673059  1
  Se  Se148  1  0.91614910  0.59073157  0.55989316  1
  Se  Se149  1  0.90916734  0.92405626  0.05088770  1
  Se  Se150  1  0.92640876  0.91926526  0.56387638  1
  Se  Se151  1  0.07820845  0.24617612  0.43966512  1
  Se  Se152  1  0.07746988  0.24643245  0.95542266  1
  Se  Se153  1  0.07576533  0.57991926  0.45050053  1
  Se  Se154  1  0.07814667  0.59683171  0.92963191  1
  Se  Se155  1  0.08273634  0.91820777  0.44349328  1
  Se  Se156  1  0.08012764  0.91666842  0.93987787  1
  Se  Se157  1  0.41854543  0.25320647  0.45244655  1
  Se  Se158  1  0.42264366  0.24074431  0.95020308  1
  Se  Se159  1  0.40569237  0.59358646  0.43784913  1
  Se  Se160  1  0.41144923  0.59035649  0.94203945  1
  Se  Se161  1  0.42551263  0.91173249  0.44869110  1
  Se  Se162  1  0.41590010  0.92017892  0.94370153  1
  Se  Se163  1  0.75453892  0.24091217  0.44031636  1
  Se  Se164  1  0.74825884  0.24881287  0.93688892  1
  Se  Se165  1  0.74264480  0.59277039  0.44705432  1
  Se  Se166  1  0.75538820  0.58015036  0.94919901  1
  Se  Se167  1  0.74752356  0.92420467  0.43876652  1
  Se  Se168  1  0.75056542  0.91335983  0.95001796  1
  Se  Se169  1  0.26134915  0.07478054  0.44406766  1
  Se  Se170  1  0.24104113  0.08292313  0.94331527  1
  Se  Se171  1  0.24312822  0.41649822  0.45342512  1
  Se  Se172  1  0.25852939  0.40988604  0.93696718  1
  Se  Se173  1  0.24944517  0.74687048  0.43580961  1
  Se  Se174  1  0.26380562  0.74116458  0.94426197  1
  Se  Se175  1  0.58470212  0.08391941  0.44649777  1
  Se  Se176  1  0.58042347  0.08456966  0.94666162  1
  Se  Se177  1  0.59355392  0.41615381  0.44357117  1
  Se  Se178  1  0.59750718  0.40263061  0.93960468  1
  Se  Se179  1  0.58269186  0.75767138  0.44932589  1
  Se  Se180  1  0.58437581  0.75021875  0.94873562  1
  Se  Se181  1  0.92058510  0.08002196  0.44293768  1
  Se  Se182  1  0.91522387  0.07736373  0.93592988  1
  Se  Se183  1  0.90948836  0.39748921  0.43545731  1
  Se  Se184  1  0.92084929  0.41591937  0.95124325  1
  Se  Se185  1  0.92528107  0.73938094  0.44750671  1
  Se  Se186  1  0.91312763  0.75799431  0.94126171  1
  Se  Se187  1  0.23877359  0.23762070  0.30816303  1
  Se  Se188  1  0.24401953  0.24653283  0.81987022  1
  Se  Se189  1  0.24996725  0.58182274  0.30244028  1
  Se  Se190  1  0.23297708  0.58563755  0.81055930  1
  Se  Se191  1  0.24083900  0.90923774  0.30433749  1
  Se  Se192  1  0.24542378  0.91316487  0.80102597  1
  Se  Se193  1  0.58838173  0.25490922  0.30463087  1
  Se  Se194  1  0.59010173  0.24876572  0.80056204  1
  Se  Se195  1  0.58892519  0.58919256  0.30337118  1
  Se  Se196  1  0.58566798  0.58289531  0.80840080  1
  Se  Se197  1  0.58733133  0.91840641  0.30425762  1
  Se  Se198  1  0.60046863  0.92929701  0.80695971  1
  Se  Se199  1  0.94185668  0.27590793  0.30780416  1
  Se  Se200  1  0.91665082  0.25133165  0.80493847  1
  Se  Se201  1  0.90779661  0.57287003  0.31546045  1
  Se  Se202  1  0.91440496  0.58510332  0.80449860  1
  Se  Se203  1  0.91820069  0.91563826  0.30096943  1
  Se  Se204  1  0.91234652  0.92035246  0.80270315  1
  Se  Se205  1  0.07847301  0.07413324  0.29804893  1
  Se  Se206  1  0.07814815  0.08582095  0.80584608  1
  Se  Se207  1  0.08325527  0.41345222  0.30371992  1
  Se  Se208  1  0.07774556  0.41323163  0.80450746  1
  Se  Se209  1  0.08824158  0.75563512  0.30701944  1
  Se  Se210  1  0.07272117  0.75208289  0.79288278  1
  Se  Se211  1  0.42722453  0.09380197  0.31092652  1
  Se  Se212  1  0.42156822  0.08385015  0.80444328  1
  Se  Se213  1  0.42798695  0.42911219  0.31217628  1
  Se  Se214  1  0.42718587  0.41874633  0.81218977  1
  Se  Se215  1  0.42120402  0.75533515  0.30517594  1
  Se  Se216  1  0.42490851  0.76404766  0.80971775  1
  Se  Se217  1  0.75278883  0.08685468  0.29919802  1
  Se  Se218  1  0.74754907  0.07980916  0.79906487  1
  Se  Se219  1  0.74626496  0.41805081  0.29721276  1
  Se  Se220  1  0.75195324  0.41305818  0.80468900  1
  Se  Se221  1  0.74962706  0.75029136  0.30013460  1
  Se  Se222  1  0.74543868  0.74708685  0.80881409  1
  Se  Se223  1  0.24464586  0.08537761  0.18738013  1
  Se  Se224  1  0.25371049  0.08865043  0.70611861  1
  Se  Se225  1  0.24308465  0.41455331  0.19201461  1
  Se  Se226  1  0.24322132  0.42456010  0.69393168  1
  Se  Se227  1  0.24106344  0.76409493  0.18127011  1
  Se  Se228  1  0.24440480  0.75698982  0.68623001  1
  Se  Se229  1  0.57618767  0.07898799  0.19834724  1
  Se  Se230  1  0.59150244  0.08292971  0.69180528  1
  Se  Se231  1  0.58873059  0.41202396  0.19588426  1
  Se  Se232  1  0.58874627  0.41188179  0.69979829  1
  Se  Se233  1  0.58910396  0.74963635  0.19494270  1
  Se  Se234  1  0.58533057  0.74055752  0.70325666  1
  Se  Se235  1  0.89887042  0.09638269  0.20211143  1
  Se  Se236  1  0.91651220  0.08286203  0.69715818  1
  Se  Se237  1  0.91909967  0.41929845  0.19371605  1
  Se  Se238  1  0.91545231  0.41693153  0.69570367  1
  Se  Se239  1  0.91139519  0.75727229  0.18615399  1
  Se  Se240  1  0.91330169  0.74687511  0.70091105  1
  Se  Se241  1  0.08041388  0.24970462  0.19265485  1
  Se  Se242  1  0.08129410  0.25154777  0.70160377  1
  Se  Se243  1  0.08838289  0.58086687  0.19061127  1
  Se  Se244  1  0.07667298  0.58453906  0.69573181  1
  Se  Se245  1  0.07305625  0.92197372  0.18947582  1
  Se  Se246  1  0.07918474  0.91980334  0.70936165  1
  Se  Se247  1  0.42220386  0.24208996  0.19301076  1
  Se  Se248  1  0.42696005  0.24598243  0.69197373  1
  Se  Se249  1  0.43114358  0.57301658  0.18471037  1
  Se  Se250  1  0.42166708  0.57678709  0.69722185  1
  Se  Se251  1  0.42123417  0.90970099  0.18899880  1
  Se  Se252  1  0.41817935  0.92912441  0.69646895  1
  Se  Se253  1  0.76289035  0.23913356  0.20047134  1
  Se  Se254  1  0.75137440  0.24810141  0.69473939  1
  Se  Se255  1  0.75143888  0.58943865  0.19554102  1
  Se  Se256  1  0.74640496  0.58495240  0.70188874  1
  Se  Se257  1  0.74672480  0.91922668  0.19286768  1
  Se  Se258  1  0.75340851  0.91556948  0.69968960  1
