# generated using pymatgen
data_In86Cu29Se144
_symmetry_space_group_name_H-M   'P 1'
_cell_length_a   17.56115729
_cell_length_b   17.56448897
_cell_length_c   23.42065635
_cell_angle_alpha   89.96217893
_cell_angle_beta   90.02592404
_cell_angle_gamma   89.99467157
_symmetry_Int_Tables_number   1
_chemical_formula_structural   In86Cu29Se144
_chemical_formula_sum   'In86 Cu29 Se144'
_cell_volume   7224.16359385
_cell_formula_units_Z   1
loop_
 _symmetry_equiv_pos_site_id
 _symmetry_equiv_pos_as_xyz
  1  'x, y, z'
loop_
 _atom_site_type_symbol
 _atom_site_label
 _atom_site_symmetry_multiplicity
 _atom_site_fract_x
 _atom_site_fract_y
 _atom_site_fract_z
 _atom_site_occupancy
  In  In0  1  -0.01126016  0.16496015  0.11156665  1
  In  In1  1  0.00340773  0.16935938  0.62890979  1
  In  In2  1  0.02392755  0.49953009  0.12479613  1
  In  In3  1  -0.02675218  0.51495613  0.64766288  1
  In  In4  1  -0.01450933  0.84337853  0.12374290  1
  In  In5  1  -0.01615143  0.83879019  0.64501705  1
  In  In6  1  0.34177436  0.17246435  0.12551804  1
  In  In7  1  0.33372289  0.16569285  0.62543343  1
  In  In8  1  0.31460049  0.49343998  0.12676301  1
  In  In9  1  0.33213187  0.48156113  0.61968979  1
  In  In10  1  0.34660340  0.82650440  0.11900842  1
  In  In11  1  0.35146490  0.84300416  0.63509359  1
  In  In12  1  0.67463725  0.16882769  0.11611920  1
  In  In13  1  0.66077754  0.16296295  0.62243097  1
  In  In14  1  0.66215043  0.50515595  0.13356614  1
  In  In15  1  0.67572144  0.50380787  0.61472098  1
  In  In16  1  0.66956306  0.83555369  0.11177757  1
  In  In17  1  0.67280457  0.82999069  0.65975374  1
  In  In18  1  0.16575776  0.01937124  0.37362238  1
  In  In19  1  0.17034040  0.00854893  0.87161352  1
  In  In20  1  0.15820725  0.31862240  0.37011645  1
  In  In21  1  0.14864622  0.33496037  0.89562803  1
  In  In22  1  0.16015899  0.67048095  0.36982157  1
  In  In23  1  0.14771506  0.67157445  0.88113170  1
  In  In24  1  0.51705358  0.00148356  0.37804514  1
  In  In25  1  0.50503548  0.00042472  0.87534355  1
  In  In26  1  0.50463949  0.33320098  0.37192002  1
  In  In27  1  0.49307003  0.32550362  0.87285855  1
  In  In28  1  0.50166731  0.65199862  0.37435689  1
  In  In29  1  0.52400584  0.67527368  0.86555241  1
  In  In30  1  0.84629827  0.00054118  0.37632502  1
  In  In31  1  0.83380153  -0.00309947  0.87550639  1
  In  In32  1  0.82808905  0.34058996  0.38286661  1
  In  In33  1  0.83359890  0.31765235  0.87717623  1
  In  In34  1  0.82594908  0.66266455  0.36629977  1
  In  In35  1  0.85026813  0.68835984  0.85049446  1
  In  In36  1  0.00442517  0.17043782  0.37939411  1
  In  In37  1  -0.00316040  0.16028569  0.87536862  1
  In  In38  1  -0.01282187  0.49611866  0.37483497  1
  In  In39  1  -0.00126861  0.50664595  0.87259211  1
  In  In40  1  -0.00732445  0.83464740  0.36563555  1
  In  In41  1  -0.00638527  0.83716831  0.87019883  1
  In  In42  1  0.32479563  0.17418017  0.37922620  1
  In  In43  1  0.34660415  0.16173828  0.88297544  1
  In  In44  1  0.35208547  0.50314970  0.37425386  1
  In  In45  1  0.32796235  0.48346516  0.87789791  1
  In  In46  1  0.33694321  0.82889008  0.37148308  1
  In  In47  1  0.33562592  0.85251184  0.87236615  1
  In  In48  1  0.65793415  0.17259592  0.38517327  1
  In  In49  1  0.69288693  0.13045960  0.90614514  1
  In  In50  1  0.66849986  0.49899681  0.37271775  1
  In  In51  1  0.67421404  0.51419205  0.86508404  1
  In  In52  1  0.68439708  0.83221647  0.37191710  1
  In  In53  1  0.67048478  0.83782082  0.87428907  1
  In  In54  1  0.14054594  0.00392451  0.11390975  1
  In  In55  1  0.15726122  0.01278880  0.63680072  1
  In  In56  1  0.16842445  0.34009269  0.11925702  1
  In  In57  1  0.16484310  0.32149565  0.62293813  1
  In  In58  1  0.16264415  0.64957992  0.11978136  1
  In  In59  1  0.14921210  0.65731281  0.62698041  1
  In  In60  1  0.51622807  0.00480933  0.10610609  1
  In  In61  1  0.49336947  0.00144591  0.64130756  1
  In  In62  1  0.50387179  0.32508820  0.13549240  1
  In  In63  1  0.49791219  0.32841910  0.61449164  1
  In  In64  1  0.50837112  0.67515612  0.11798874  1
  In  In65  1  0.52935417  0.66645611  0.62674100  1
  In  In66  1  0.84794434  0.01937718  0.09387137  1
  In  In67  1  0.82642923  0.00785437  0.63793067  1
  In  In68  1  0.83221045  0.31978426  0.12327693  1
  In  In69  1  0.84089583  0.33826147  0.62237586  1
  In  In70  1  0.82898714  0.67101967  0.12899321  1
  In  In71  1  0.82735431  0.66450774  0.63558765  1
  In  In72  1  0.32706571  0.32323747  0.74752266  1
  In  In73  1  -0.00328596  0.33514174  0.24779857  1
  In  In74  1  0.16061301  0.48512002  0.49646954  1
  In  In75  1  0.83252293  0.83417551  0.51503511  1
  In  In76  1  0.16549730  0.83940754  0.50792256  1
  In  In77  1  0.33366755  0.66025047  0.24033315  1
  In  In78  1  0.50702039  0.84223718  0.50938843  1
  In  In79  1  0.32463331  0.66760433  0.74596845  1
  In  In80  1  0.67784229  0.00268454  0.23709078  1
  In  In81  1  0.32999512  -0.00215936  0.24739664  1
  In  In82  1  0.83848947  0.49592960  -0.00255511  1
  In  In83  1  0.16261203  0.83738382  -0.00715374  1
  In  In84  1  0.66951887  0.33119074  0.75637188  1
  In  In85  1  0.49811774  0.49938858  -0.00533728  1
  Cu  Cu86  1  0.67787208  0.67783631  -0.00685812  1
  Cu  Cu87  1  0.66666017  0.00706191  0.51076500  1
  Cu  Cu88  1  -0.01501968  0.66371722  0.50593054  1
  Cu  Cu89  1  0.15681716  0.16139681  0.24754675  1
  Cu  Cu90  1  0.66807174  0.33139811  0.49849029  1
  Cu  Cu91  1  0.65888392  0.33572406  0.00201318  1
  Cu  Cu92  1  0.16480500  0.16829027  0.75593121  1
  Cu  Cu93  1  0.34023764  0.66415679  -0.00269674  1
  Cu  Cu94  1  0.51145353  0.15554784  0.75683199  1
  Cu  Cu95  1  0.83248408  0.16100760  0.24410255  1
  Cu  Cu96  1  0.83451162  0.16335260  0.75618841  1
  Cu  Cu97  1  0.50586785  0.49690344  0.25104257  1
  Cu  Cu98  1  0.83461415  0.50207477  0.25017080  1
  Cu  Cu99  1  0.33699756  -0.00147610  -0.00007294  1
  Cu  Cu100  1  0.15393896  0.50052646  0.75885311  1
  Cu  Cu101  1  0.16407324  0.83665115  0.75558057  1
  Cu  Cu102  1  0.33801334  0.01004871  0.50574026  1
  Cu  Cu103  1  0.49694106  0.17117578  0.25380708  1
  Cu  Cu104  1  0.83646550  0.83309948  0.24396679  1
  Cu  Cu105  1  -0.00461836  0.66693930  -0.00560854  1
  Cu  Cu106  1  0.66661838  0.66342529  0.49713333  1
  Cu  Cu107  1  0.15373184  0.83274729  0.24188861  1
  Cu  Cu108  1  0.34280543  0.33152121  0.49540409  1
  Cu  Cu109  1  0.50079494  0.50074620  0.73810468  1
  Cu  Cu110  1  0.33577044  0.66077778  0.50249401  1
  Cu  Cu111  1  -0.00036802  0.33246041  0.50505293  1
  Cu  Cu112  1  0.51247923  0.83081331  0.23787811  1
  Cu  Cu113  1  0.32887129  0.33315109  0.00304712  1
  Cu  Cu114  1  0.00794573  0.01329006  0.50219720  1
  Se  Se115  1  0.08341551  0.09753498  0.04085881  1
  Se  Se116  1  0.09323683  0.09252910  0.55698617  1
  Se  Se117  1  0.07652815  0.40862073  0.04973712  1
  Se  Se118  1  0.07087106  0.41813258  0.56918451  1
  Se  Se119  1  0.07775950  0.74573903  0.05701599  1
  Se  Se120  1  0.06542067  0.74986480  0.56246566  1
  Se  Se121  1  0.41601323  0.08673769  0.05339535  1
  Se  Se122  1  0.42585954  0.08365069  0.56279484  1
  Se  Se123  1  0.41462760  0.41247192  0.06208860  1
  Se  Se124  1  0.42291143  0.41955587  0.54660252  1
  Se  Se125  1  0.42496203  0.74968033  0.04507735  1
  Se  Se126  1  0.41500001  0.74402505  0.56212307  1
  Se  Se127  1  0.71991885  0.05983973  0.05076732  1
  Se  Se128  1  0.75826875  0.08664769  0.55934647  1
  Se  Se129  1  0.73972641  0.41605685  0.06093186  1
  Se  Se130  1  0.75409278  0.41297210  0.55105597  1
  Se  Se131  1  0.76351587  0.75278255  0.05078147  1
  Se  Se132  1  0.73181774  0.74721211  0.56631958  1
  Se  Se133  1  0.25035979  0.24677280  0.05781263  1
  Se  Se134  1  0.25905640  0.25401708  0.55456337  1
  Se  Se135  1  0.25604576  0.58285042  0.04973163  1
  Se  Se136  1  0.24828902  0.58352788  0.55838268  1
  Se  Se137  1  0.25353170  0.91993441  0.06076918  1
  Se  Se138  1  0.25970799  0.92639826  0.56651363  1
  Se  Se139  1  0.57933459  0.25243204  0.05759260  1
  Se  Se140  1  0.58446448  0.24614231  0.54993307  1
  Se  Se141  1  0.59814010  0.58880740  0.04879357  1
  Se  Se142  1  0.58109636  0.57882047  0.54808585  1
  Se  Se143  1  0.58160252  0.90795311  0.04187193  1
  Se  Se144  1  0.59879531  0.92014236  0.57530531  1
  Se  Se145  1  0.90355664  0.24857030  0.04549987  1
  Se  Se146  1  0.91782030  0.24558741  0.55687105  1
  Se  Se147  1  0.92375415  0.58623135  0.06160332  1
  Se  Se148  1  0.90598630  0.58177684  0.56215245  1
  Se  Se149  1  0.92039397  0.91335690  0.04144726  1
  Se  Se150  1  0.92836258  0.93062323  0.56338793  1
  Se  Se151  1  0.08505966  0.25172996  0.45126704  1
  Se  Se152  1  0.09414428  0.21907689  0.95000687  1
  Se  Se153  1  0.07414954  0.59202871  0.44513467  1
  Se  Se154  1  0.08153427  0.57770608  0.95000351  1
  Se  Se155  1  0.07654165  0.92259118  0.43968832  1
  Se  Se156  1  0.07277824  0.93035778  0.93854107  1
  Se  Se157  1  0.42309482  0.24637828  0.44117884  1
  Se  Se158  1  0.41838749  0.25530502  0.95164033  1
  Se  Se159  1  0.42334213  0.58113870  0.45153656  1
  Se  Se160  1  0.41486785  0.58856002  0.92901199  1
  Se  Se161  1  0.41061991  0.92448129  0.44265648  1
  Se  Se162  1  0.42127286  0.91688587  0.94714744  1
  Se  Se163  1  0.75455003  0.24638029  0.44858294  1
  Se  Se164  1  0.74700050  0.25341438  0.95285222  1
  Se  Se165  1  0.75210998  0.58443404  0.44209191  1
  Se  Se166  1  0.75655099  0.59207765  0.93751239  1
  Se  Se167  1  0.74586111  0.92617063  0.44824348  1
  Se  Se168  1  0.74722170  0.92052681  0.94603611  1
  Se  Se169  1  0.24895230  0.08581217  0.44963355  1
  Se  Se170  1  0.25455176  0.07997476  0.94571491  1
  Se  Se171  1  0.25793471  0.40703828  0.43389737  1
  Se  Se172  1  0.24449390  0.41892979  0.95394368  1
  Se  Se173  1  0.25557372  0.74350128  0.44489417  1
  Se  Se174  1  0.25854891  0.74615685  0.93708383  1
  Se  Se175  1  0.58024945  0.08415376  0.45497410  1
  Se  Se176  1  0.55734230  0.10699193  0.94213687  1
  Se  Se177  1  0.58672455  0.41567075  0.44216886  1
  Se  Se178  1  0.59220841  0.41455974  0.93282811  1
  Se  Se179  1  0.58907087  0.75101042  0.43892779  1
  Se  Se180  1  0.58336506  0.75504485  0.94590150  1
  Se  Se181  1  0.91819530  0.08772557  0.44697023  1
  Se  Se182  1  0.89508058  0.09950356  0.94210256  1
  Se  Se183  1  0.91757601  0.41782804  0.45145400  1
  Se  Se184  1  0.92659486  0.40417573  0.94070362  1
  Se  Se185  1  0.91459214  0.74990492  0.44232565  1
  Se  Se186  1  0.91558487  0.74895065  0.93908414  1
  Se  Se187  1  0.24410150  0.24128407  0.30049835  1
  Se  Se188  1  0.24439390  0.24712910  0.81959868  1
  Se  Se189  1  0.24916102  0.57752075  0.30972741  1
  Se  Se190  1  0.24179589  0.57843525  0.81483980  1
  Se  Se191  1  0.23654922  0.90640476  0.30768813  1
  Se  Se192  1  0.24937629  0.92356839  0.80079474  1
  Se  Se193  1  0.58928747  0.24739396  0.30480637  1
  Se  Se194  1  0.58765081  0.23759270  0.81742234  1
  Se  Se195  1  0.58789225  0.58497359  0.30132506  1
  Se  Se196  1  0.58388285  0.58086610  0.79260032  1
  Se  Se197  1  0.58690138  0.91157949  0.30250841  1
  Se  Se198  1  0.58645177  0.92023111  0.80591191  1
  Se  Se199  1  0.90652365  0.24505731  0.30811897  1
  Se  Se200  1  0.92011137  0.24853565  0.80418408  1
  Se  Se201  1  0.91974726  0.58460444  0.30256538  1
  Se  Se202  1  0.91244306  0.57507955  0.79995864  1
  Se  Se203  1  0.91474060  0.92234848  0.29772257  1
  Se  Se204  1  0.90374212  0.91175110  0.80017238  1
  Se  Se205  1  0.07194198  0.08331733  0.30314399  1
  Se  Se206  1  0.07854128  0.07990496  0.80238991  1
  Se  Se207  1  0.08788052  0.42396257  0.30897581  1
  Se  Se208  1  0.08246672  0.40977597  0.81375653  1
  Se  Se209  1  0.07669130  0.74851756  0.30046377  1
  Se  Se210  1  0.08038962  0.75168613  0.80440342  1
  Se  Se211  1  0.42261165  0.08233634  0.31203545  1
  Se  Se212  1  0.41477048  0.08168202  0.80569365  1
  Se  Se213  1  0.41933398  0.41528442  0.30182613  1
  Se  Se214  1  0.42251881  0.42177531  0.80000342  1
  Se  Se215  1  0.42795964  0.75405577  0.29996487  1
  Se  Se216  1  0.41369894  0.75047836  0.81051266  1
  Se  Se217  1  0.75318534  0.08721798  0.31194991  1
  Se  Se218  1  0.74601690  0.08526965  0.80915169  1
  Se  Se219  1  0.75524615  0.41670113  0.30496627  1
  Se  Se220  1  0.76577483  0.42242762  0.80876789  1
  Se  Se221  1  0.75059482  0.75076097  0.29580622  1
  Se  Se222  1  0.72096471  0.72670919  0.80882574  1
  Se  Se223  1  0.23829757  0.08279469  0.18544055  1
  Se  Se224  1  0.25258804  0.09087876  0.69959069  1
  Se  Se225  1  0.24221400  0.41153630  0.19863162  1
  Se  Se226  1  0.23581653  0.42493754  0.69594231  1
  Se  Se227  1  0.24274268  0.75788756  0.18482898  1
  Se  Se228  1  0.23564707  0.76035728  0.68490790  1
  Se  Se229  1  0.57345283  0.09140633  0.18974345  1
  Se  Se230  1  0.59541077  0.07805133  0.69921590  1
  Se  Se231  1  0.58975784  0.41157479  0.19928467  1
  Se  Se232  1  0.58128280  0.41305455  0.68542111  1
  Se  Se233  1  0.59729713  0.74843845  0.18700894  1
  Se  Se234  1  0.55097627  0.77023217  0.70106614  1
  Se  Se235  1  0.91017163  0.08245666  0.18346827  1
  Se  Se236  1  0.92185681  0.08630224  0.69929427  1
  Se  Se237  1  0.90960843  0.42530207  0.18396567  1
  Se  Se238  1  0.92681400  0.39616964  0.70078145  1
  Se  Se239  1  0.92254734  0.74729916  0.19453725  1
  Se  Se240  1  0.91662277  0.73749626  0.70465607  1
  Se  Se241  1  0.07970961  0.24232028  0.18594242  1
  Se  Se242  1  0.08592184  0.25280886  0.69995281  1
  Se  Se243  1  0.08943859  0.58414270  0.20011507  1
  Se  Se244  1  0.07492188  0.58982736  0.70716376  1
  Se  Se245  1  0.07481341  0.92244785  0.19221527  1
  Se  Se246  1  0.07969328  0.92177584  0.70221751  1
  Se  Se247  1  0.40945203  0.25376963  0.20347245  1
  Se  Se248  1  0.43388306  0.24132045  0.69607448  1
  Se  Se249  1  0.42916857  0.57218075  0.18159411  1
  Se  Se250  1  0.41470568  0.57844870  0.68200303  1
  Se  Se251  1  0.43003257  0.91711490  0.18614897  1
  Se  Se252  1  0.41425402  0.92199522  0.71306885  1
  Se  Se253  1  0.74658041  0.24592490  0.19495120  1
  Se  Se254  1  0.75555605  0.24335429  0.69192582  1
  Se  Se255  1  0.74977814  0.58623161  0.19839154  1
  Se  Se256  1  0.73217930  0.58388665  0.69545783  1
  Se  Se257  1  0.76711676  0.91585892  0.17786398  1
  Se  Se258  1  0.78500941  0.89974394  0.70803852  1
