# generated using pymatgen
data_In86Cu29Se144
_symmetry_space_group_name_H-M   'P 1'
_cell_length_a   17.57189964
_cell_length_b   17.57265972
_cell_length_c   23.42022360
_cell_angle_alpha   90.00237725
_cell_angle_beta   89.99068534
_cell_angle_gamma   90.00130442
_symmetry_Int_Tables_number   1
_chemical_formula_structural   In86Cu29Se144
_chemical_formula_sum   'In86 Cu29 Se144'
_cell_volume   7231.81394674
_cell_formula_units_Z   1
loop_
 _symmetry_equiv_pos_site_id
 _symmetry_equiv_pos_as_xyz
  1  'x, y, z'
loop_
 _atom_site_type_symbol
 _atom_site_label
 _atom_site_symmetry_multiplicity
 _atom_site_fract_x
 _atom_site_fract_y
 _atom_site_fract_z
 _atom_site_occupancy
  In  In0  1  0.00489106  0.16117482  0.14451615  1
  In  In1  1  -0.00701658  0.17235098  0.61488845  1
  In  In2  1  0.00099443  0.49428276  0.14003712  1
  In  In3  1  -0.01379525  0.50779062  0.62392764  1
  In  In4  1  0.01701524  0.82442484  0.15134428  1
  In  In5  1  0.00198228  0.83127543  0.61803447  1
  In  In6  1  0.33533445  0.16381259  0.12429046  1
  In  In7  1  0.32869319  0.16069231  0.61332210  1
  In  In8  1  0.34538321  0.50864711  0.13874224  1
  In  In9  1  0.34252870  0.48192743  0.61781743  1
  In  In10  1  0.32087799  0.84405745  0.14311511  1
  In  In11  1  0.35206094  0.85604793  0.61530494  1
  In  In12  1  0.67074212  0.17691104  0.12759125  1
  In  In13  1  0.66593957  0.17092065  0.61540126  1
  In  In14  1  0.65111693  0.49231106  0.13084064  1
  In  In15  1  0.67624440  0.49298348  0.61340722  1
  In  In16  1  0.66881431  0.83020967  0.12487380  1
  In  In17  1  0.66416663  0.83432898  0.62814332  1
  In  In18  1  0.16961172  -0.00339666  0.37604216  1
  In  In19  1  0.16554526  0.00267406  0.86300218  1
  In  In20  1  0.14696963  0.33001976  0.38595428  1
  In  In21  1  0.16524014  0.33867416  0.86829678  1
  In  In22  1  0.17494882  0.68601929  0.36396769  1
  In  In23  1  0.17033844  0.67653594  0.86682367  1
  In  In24  1  0.49034098  0.00654663  0.38199105  1
  In  In25  1  0.50055400  0.00605795  0.86009782  1
  In  In26  1  0.50944749  0.31223389  0.40026895  1
  In  In27  1  0.49692142  0.32243966  0.86619109  1
  In  In28  1  0.49818648  0.66873273  0.38263776  1
  In  In29  1  0.50089896  0.65610382  0.86426737  1
  In  In30  1  0.84091295  -0.00910970  0.39031249  1
  In  In31  1  0.83220075  0.00047879  0.86063807  1
  In  In32  1  0.84033959  0.33344115  0.38977529  1
  In  In33  1  0.82863543  0.33122203  0.85988449  1
  In  In34  1  0.84218208  0.65952140  0.38238134  1
  In  In35  1  0.83487658  0.67051298  0.85755762  1
  In  In36  1  0.00562690  0.16819104  0.38962906  1
  In  In37  1  -0.00540578  0.16207987  0.85986792  1
  In  In38  1  -0.01269977  0.49235038  0.37758310  1
  In  In39  1  -0.00742138  0.49227455  0.85915807  1
  In  In40  1  0.00241321  0.83714880  0.37537225  1
  In  In41  1  0.00392493  0.83076947  0.85996363  1
  In  In42  1  0.34157530  0.15461918  0.38547207  1
  In  In43  1  0.34883266  0.16773437  0.87808543  1
  In  In44  1  0.33509450  0.51145398  0.37705375  1
  In  In45  1  0.33645064  0.49579992  0.87425508  1
  In  In46  1  0.33072159  0.83576975  0.37714343  1
  In  In47  1  0.32715853  0.83657385  0.87131447  1
  In  In48  1  0.66827034  0.18378476  0.39740596  1
  In  In49  1  0.65679701  0.15773583  0.85763090  1
  In  In50  1  0.68439197  0.47387020  0.40056463  1
  In  In51  1  0.66399170  0.49873057  0.85637518  1
  In  In52  1  0.66608547  0.83104290  0.38986250  1
  In  In53  1  0.66031949  0.83751953  0.84639467  1
  In  In54  1  0.17123676  -0.00079096  0.14004626  1
  In  In55  1  0.16684865  -0.00061164  0.62284043  1
  In  In56  1  0.15957835  0.32212306  0.13384846  1
  In  In57  1  0.16450309  0.31100313  0.60588279  1
  In  In58  1  0.16866277  0.66561957  0.14062675  1
  In  In59  1  0.15183589  0.66718113  0.62280639  1
  In  In60  1  0.48861734  0.00803643  0.12794083  1
  In  In61  1  0.49810707  -0.00406595  0.62976909  1
  In  In62  1  0.51146411  0.33689236  0.12989678  1
  In  In63  1  0.51661497  0.34715666  0.59777833  1
  In  In64  1  0.49560356  0.65594730  0.13528950  1
  In  In65  1  0.51447731  0.68150044  0.62106236  1
  In  In66  1  0.83755195  0.01171192  0.13038936  1
  In  In67  1  0.83741736  0.00032618  0.62006013  1
  In  In68  1  0.83157278  0.32721168  0.14044809  1
  In  In69  1  0.83181617  0.33460670  0.61245281  1
  In  In70  1  0.83556879  0.67585766  0.13053040  1
  In  In71  1  0.83224931  0.66837545  0.61880763  1
  In  In72  1  0.83083707  0.49264691  0.00020343  1
  In  In73  1  0.33055424  0.33636903  0.25751164  1
  In  In74  1  0.49661771  0.49126950  0.00238838  1
  In  In75  1  0.83991966  0.84856273  -0.00721199  1
  In  In76  1  0.17273195  0.16221772  0.00085795  1
  In  In77  1  0.16633990  0.84168354  0.01602137  1
  In  In78  1  0.16814477  0.49868395  -0.00722394  1
  In  In79  1  0.67517547  0.00742792  0.25891118  1
  In  In80  1  0.16134959  0.50553119  0.49736341  1
  In  In81  1  0.83467892  0.16699488  -0.00127870  1
  In  In82  1  0.49573661  0.83526495  -0.00542313  1
  In  In83  1  0.33125619  0.66962147  0.74692945  1
  In  In84  1  0.66769551  0.65657077  0.25313851  1
  In  In85  1  0.33361252  0.32324544  0.74365156  1
  Cu  Cu86  1  0.50894448  0.50134471  0.73481276  1
  Cu  Cu87  1  0.33381764  0.67351895  0.01068063  1
  Cu  Cu88  1  0.84071721  0.83333047  0.26145283  1
  Cu  Cu89  1  0.33065479  0.67163550  0.50117934  1
  Cu  Cu90  1  0.16030049  0.50137925  0.26338194  1
  Cu  Cu91  1  -0.00113845  0.66078515  -0.00187669  1
  Cu  Cu92  1  0.66241665  0.32483185  -0.00199263  1
  Cu  Cu93  1  0.83395329  0.17268442  0.73508035  1
  Cu  Cu94  1  0.65888576  0.67042668  0.50712395  1
  Cu  Cu95  1  0.00245023  0.32478608  0.00135195  1
  Cu  Cu96  1  0.00253303  -0.00587054  0.00358736  1
  Cu  Cu97  1  0.82994403  0.48966101  0.26439774  1
  Cu  Cu98  1  0.33201966  -0.00725222  0.50075165  1
  Cu  Cu99  1  0.50257325  0.17102158  0.26491463  1
  Cu  Cu100  1  0.16330885  0.83248925  0.73949264  1
  Cu  Cu101  1  0.65461856  0.00579634  -0.01241583  1
  Cu  Cu102  1  0.83830757  0.83316890  0.73705870  1
  Cu  Cu103  1  0.50744929  0.49393458  0.26322155  1
  Cu  Cu104  1  0.83828362  0.17199751  0.26562019  1
  Cu  Cu105  1  0.00044975  0.67462447  0.49362586  1
  Cu  Cu106  1  0.15874184  0.49297694  0.73870959  1
  Cu  Cu107  1  0.49386638  0.83608833  0.26038794  1
  Cu  Cu108  1  0.50051591  0.17163815  0.73809585  1
  Cu  Cu109  1  0.00701450  0.00056021  0.50325823  1
  Cu  Cu110  1  0.66849648  0.66661560  -0.01164537  1
  Cu  Cu111  1  0.66210474  -0.00368261  0.50551563  1
  Cu  Cu112  1  0.16257792  0.16176252  0.73742305  1
  Cu  Cu113  1  0.83078978  0.49622310  0.73739085  1
  Cu  Cu114  1  0.16276147  0.16847656  0.26074980  1
  Se  Se115  1  0.07765697  0.07821472  0.06392390  1
  Se  Se116  1  0.08820044  0.08798690  0.55491724  1
  Se  Se117  1  0.07791621  0.41163623  0.05931325  1
  Se  Se118  1  0.07473127  0.41616580  0.55851412  1
  Se  Se119  1  0.07526157  0.73880707  0.06405017  1
  Se  Se120  1  0.08772835  0.75234365  0.54678152  1
  Se  Se121  1  0.42122060  0.09069194  0.05388597  1
  Se  Se122  1  0.41852300  0.07367621  0.55360613  1
  Se  Se123  1  0.40476125  0.40894453  0.06662352  1
  Se  Se124  1  0.41500718  0.41832335  0.53673984  1
  Se  Se125  1  0.41423937  0.75197897  0.06993789  1
  Se  Se126  1  0.41742514  0.75119125  0.55469594  1
  Se  Se127  1  0.73908803  0.07394288  0.05466280  1
  Se  Se128  1  0.74969282  0.08015031  0.55244835  1
  Se  Se129  1  0.73936222  0.40420676  0.06199301  1
  Se  Se130  1  0.77079360  0.43175716  0.53988832  1
  Se  Se131  1  0.74885953  0.74566313  0.04973202  1
  Se  Se132  1  0.74632690  0.75487270  0.55507734  1
  Se  Se133  1  0.25331185  0.26169219  0.05978204  1
  Se  Se134  1  0.27143814  0.25983982  0.54152377  1
  Se  Se135  1  0.25404998  0.58462725  0.06348953  1
  Se  Se136  1  0.25566085  0.58721153  0.56254516  1
  Se  Se137  1  0.26404188  0.93555172  0.06217225  1
  Se  Se138  1  0.24367810  0.91132434  0.55227738  1
  Se  Se139  1  0.58048499  0.24722170  0.05697539  1
  Se  Se140  1  0.58033625  0.24052808  0.54024624  1
  Se  Se141  1  0.58984830  0.59245795  0.05570164  1
  Se  Se142  1  0.57933653  0.57988066  0.55677358  1
  Se  Se143  1  0.58973159  0.92126903  0.05767831  1
  Se  Se144  1  0.57830705  0.91301015  0.55751914  1
  Se  Se145  1  0.92367844  0.25008399  0.06619725  1
  Se  Se146  1  0.89810511  0.23660115  0.54387918  1
  Se  Se147  1  0.92034129  0.58471567  0.06161131  1
  Se  Se148  1  0.91896261  0.59122819  0.54745023  1
  Se  Se149  1  0.92650904  0.91664099  0.06926675  1
  Se  Se150  1  0.91857995  0.91561101  0.55068115  1
  Se  Se151  1  0.08064305  0.25165128  0.46326542  1
  Se  Se152  1  0.07793675  0.24756305  0.93700123  1
  Se  Se153  1  0.07964361  0.59449275  0.43114579  1
  Se  Se154  1  0.07668749  0.58751997  0.93283220  1
  Se  Se155  1  0.08551512  0.91557491  0.44703626  1
  Se  Se156  1  0.08021987  0.91611779  0.93993290  1
  Se  Se157  1  0.40195702  0.24765117  0.45864106  1
  Se  Se158  1  0.41460426  0.26346165  0.94437806  1
  Se  Se159  1  0.41498707  0.58540789  0.45185987  1
  Se  Se160  1  0.40905297  0.59345518  0.94528156  1
  Se  Se161  1  0.41888809  0.91133632  0.44776081  1
  Se  Se162  1  0.40920444  0.92754254  0.93623025  1
  Se  Se163  1  0.76922831  0.24487800  0.46310320  1
  Se  Se164  1  0.74402527  0.25075437  0.93466143  1
  Se  Se165  1  0.74264511  0.59412133  0.44815614  1
  Se  Se166  1  0.74852910  0.58404034  0.93172349  1
  Se  Se167  1  0.75071700  0.91282558  0.45580500  1
  Se  Se168  1  0.73679052  0.92284453  0.93138117  1
  Se  Se169  1  0.24797728  0.07852315  0.44985838  1
  Se  Se170  1  0.25649046  0.07279665  0.93772409  1
  Se  Se171  1  0.25105324  0.41582217  0.43805154  1
  Se  Se172  1  0.26206201  0.40178385  0.94264956  1
  Se  Se173  1  0.24719390  0.75206052  0.44694612  1
  Se  Se174  1  0.25094485  0.74720261  0.94907737  1
  Se  Se175  1  0.58457096  0.08090004  0.44732756  1
  Se  Se176  1  0.57469863  0.09038572  0.93554692  1
  Se  Se177  1  0.56639778  0.42700284  0.45505742  1
  Se  Se178  1  0.59157909  0.41367152  0.93688175  1
  Se  Se179  1  0.57450472  0.75395623  0.45399453  1
  Se  Se180  1  0.58853352  0.74779359  0.93073807  1
  Se  Se181  1  0.91823686  0.08310307  0.45481909  1
  Se  Se182  1  0.92409859  0.07234319  0.94009014  1
  Se  Se183  1  0.90084536  0.43712801  0.45751393  1
  Se  Se184  1  0.92307189  0.40408598  0.93932400  1
  Se  Se185  1  0.91305675  0.75913893  0.44447190  1
  Se  Se186  1  0.92376198  0.74400585  0.93656388  1
  Se  Se187  1  0.24571364  0.24663588  0.32045071  1
  Se  Se188  1  0.24095322  0.23627948  0.80616723  1
  Se  Se189  1  0.25181978  0.58536273  0.30463396  1
  Se  Se190  1  0.24131301  0.56778219  0.80331117  1
  Se  Se191  1  0.25602437  0.92078972  0.30613095  1
  Se  Se192  1  0.24546418  0.91133306  0.79898578  1
  Se  Se193  1  0.58749225  0.25090046  0.31806218  1
  Se  Se194  1  0.58347289  0.25509388  0.79343016  1
  Se  Se195  1  0.58955462  0.57300865  0.32323082  1
  Se  Se196  1  0.58671105  0.58845017  0.79007835  1
  Se  Se197  1  0.58389667  0.91277090  0.31412423  1
  Se  Se198  1  0.58456513  0.93323749  0.78851635  1
  Se  Se199  1  0.92275418  0.25318618  0.31918576  1
  Se  Se200  1  0.91746871  0.25200123  0.79461725  1
  Se  Se201  1  0.91444248  0.58139965  0.30545703  1
  Se  Se202  1  0.91446167  0.57975678  0.79342892  1
  Se  Se203  1  0.91757779  0.92625973  0.30895068  1
  Se  Se204  1  0.91832684  0.91562988  0.79679216  1
  Se  Se205  1  0.08083815  0.08624939  0.31498574  1
  Se  Se206  1  0.07893509  0.07852386  0.79414583  1
  Se  Se207  1  0.07766984  0.41342454  0.31056479  1
  Se  Se208  1  0.07970335  0.40805696  0.79556071  1
  Se  Se209  1  0.07293435  0.75089381  0.30194010  1
  Se  Se210  1  0.08411987  0.74304576  0.79317421  1
  Se  Se211  1  0.41463759  0.08262178  0.30524493  1
  Se  Se212  1  0.41441010  0.09471692  0.79638200  1
  Se  Se213  1  0.42624504  0.41260837  0.32142984  1
  Se  Se214  1  0.42430125  0.42660164  0.79796113  1
  Se  Se215  1  0.41572805  0.74695789  0.31106588  1
  Se  Se216  1  0.42399010  0.75911717  0.80553269  1
  Se  Se217  1  0.75651344  0.09380845  0.32603980  1
  Se  Se218  1  0.75471269  0.08800826  0.79347342  1
  Se  Se219  1  0.74892279  0.40468675  0.31621808  1
  Se  Se220  1  0.74623131  0.41286174  0.79189524  1
  Se  Se221  1  0.75080886  0.75355379  0.31328404  1
  Se  Se222  1  0.75077415  0.74943486  0.78916308  1
  Se  Se223  1  0.24838279  0.09858513  0.19847271  1
  Se  Se224  1  0.25447297  0.08288252  0.68992785  1
  Se  Se225  1  0.23870567  0.42667380  0.19500711  1
  Se  Se226  1  0.24046907  0.41230798  0.68288394  1
  Se  Se227  1  0.25767783  0.74258943  0.20448507  1
  Se  Se228  1  0.24834990  0.75554052  0.68082235  1
  Se  Se229  1  0.58032439  0.09245098  0.19820737  1
  Se  Se230  1  0.58636674  0.08862706  0.68823483  1
  Se  Se231  1  0.58730960  0.40954644  0.20828677  1
  Se  Se232  1  0.58655295  0.41299584  0.68212523  1
  Se  Se233  1  0.57661532  0.75760361  0.19837687  1
  Se  Se234  1  0.58246397  0.75472845  0.70015509  1
  Se  Se235  1  0.91295594  0.08311040  0.20836652  1
  Se  Se236  1  0.91992647  0.08631509  0.68814897  1
  Se  Se237  1  0.91592697  0.41078616  0.20519475  1
  Se  Se238  1  0.91514915  0.41010124  0.68786968  1
  Se  Se239  1  0.91642300  0.74348136  0.20637995  1
  Se  Se240  1  0.92152299  0.74608857  0.68799150  1
  Se  Se241  1  0.07883136  0.25474279  0.21035004  1
  Se  Se242  1  0.08308057  0.24899917  0.68570298  1
  Se  Se243  1  0.07909649  0.58366373  0.20464585  1
  Se  Se244  1  0.07610954  0.58320715  0.69373928  1
  Se  Se245  1  0.07846820  0.93155704  0.20714632  1
  Se  Se246  1  0.07898494  0.91756904  0.68961602  1
  Se  Se247  1  0.42412287  0.24732513  0.19792658  1
  Se  Se248  1  0.42537643  0.25214188  0.67475344  1
  Se  Se249  1  0.42309449  0.58193451  0.21458463  1
  Se  Se250  1  0.41792850  0.57923649  0.68344745  1
  Se  Se251  1  0.42019433  0.92219473  0.20136068  1
  Se  Se252  1  0.41058367  0.92212077  0.70140544  1
  Se  Se253  1  0.74849538  0.24399889  0.20719244  1
  Se  Se254  1  0.74861199  0.25569774  0.68436230  1
  Se  Se255  1  0.75978734  0.56682268  0.19107560  1
  Se  Se256  1  0.74850538  0.58148762  0.68544608  1
  Se  Se257  1  0.75928186  0.90826111  0.19590426  1
  Se  Se258  1  0.75349313  0.92048690  0.69092503  1
