# generated using pymatgen
data_In86Cu29Se144
_symmetry_space_group_name_H-M   'P 1'
_cell_length_a   17.58199794
_cell_length_b   17.57799898
_cell_length_c   23.44153677
_cell_angle_alpha   90.01101900
_cell_angle_beta   90.02026582
_cell_angle_gamma   89.98652323
_symmetry_Int_Tables_number   1
_chemical_formula_structural   In86Cu29Se144
_chemical_formula_sum   'In86 Cu29 Se144'
_cell_volume   7244.75481347
_cell_formula_units_Z   1
loop_
 _symmetry_equiv_pos_site_id
 _symmetry_equiv_pos_as_xyz
  1  'x, y, z'
loop_
 _atom_site_type_symbol
 _atom_site_label
 _atom_site_symmetry_multiplicity
 _atom_site_fract_x
 _atom_site_fract_y
 _atom_site_fract_z
 _atom_site_occupancy
  In  In0  1  -0.00221495  0.14836851  0.12900776  1
  In  In1  1  -0.00238811  0.17017285  0.62680611  1
  In  In2  1  0.01353614  0.51343561  0.11910273  1
  In  In3  1  -0.01026133  0.49388246  0.61785612  1
  In  In4  1  -0.00360984  0.83956820  0.12209718  1
  In  In5  1  -0.00020706  0.84305587  0.61521289  1
  In  In6  1  0.33582871  0.16833536  0.13614361  1
  In  In7  1  0.33128074  0.15104373  0.62598172  1
  In  In8  1  0.32736266  0.49734287  0.12283813  1
  In  In9  1  0.32701428  0.51306662  0.62201397  1
  In  In10  1  0.33766792  0.83569856  0.12407252  1
  In  In11  1  0.33139744  0.84810799  0.62527191  1
  In  In12  1  0.68213164  0.16034058  0.12625829  1
  In  In13  1  0.65582046  0.14417011  0.59987776  1
  In  In14  1  0.68548050  0.51762257  0.11303215  1
  In  In15  1  0.67839234  0.50290586  0.62712253  1
  In  In16  1  0.65754393  0.82971964  0.11693361  1
  In  In17  1  0.67141160  0.82429309  0.63605944  1
  In  In18  1  0.14720559  -0.02684747  0.35083837  1
  In  In19  1  0.15613709  -0.00878675  0.86745804  1
  In  In20  1  0.18088844  0.32747615  0.37599956  1
  In  In21  1  0.16127269  0.34594950  0.87593877  1
  In  In22  1  0.14565229  0.68675971  0.38194768  1
  In  In23  1  0.16323289  0.67271478  0.88602420  1
  In  In24  1  0.50630696  0.00985784  0.37805764  1
  In  In25  1  0.49319609  -0.01029004  0.85923473  1
  In  In26  1  0.48984676  0.32125697  0.37333407  1
  In  In27  1  0.50752169  0.33633682  0.87490676  1
  In  In28  1  0.50934274  0.65496514  0.36853136  1
  In  In29  1  0.50594520  0.66950186  0.88074749  1
  In  In30  1  0.86364541  -0.04944502  0.43186627  1
  In  In31  1  0.83276664  -0.00810234  0.86772667  1
  In  In32  1  0.83653845  0.33146581  0.38018324  1
  In  In33  1  0.84390194  0.32918911  0.87383309  1
  In  In34  1  0.83607695  0.66437809  0.37105588  1
  In  In35  1  0.82095163  0.68071689  0.88235747  1
  In  In36  1  -0.00102468  0.13264133  0.38647251  1
  In  In37  1  -0.01025941  0.16411503  0.86041601  1
  In  In38  1  -0.00972879  0.51015582  0.37745975  1
  In  In39  1  0.00279475  0.49668961  0.88184614  1
  In  In40  1  -0.00000964  0.82809772  0.36910935  1
  In  In41  1  -0.01305903  0.85277650  0.89358282  1
  In  In42  1  0.33508995  0.16073135  0.37270709  1
  In  In43  1  0.34232043  0.14967559  0.86901838  1
  In  In44  1  0.33552207  0.48607844  0.37041190  1
  In  In45  1  0.32638725  0.51204697  0.88443215  1
  In  In46  1  0.31523874  0.83172874  0.37059909  1
  In  In47  1  0.32578085  0.84277007  0.88060973  1
  In  In48  1  0.68366447  0.13459116  0.40028501  1
  In  In49  1  0.66540419  0.15540330  0.86593702  1
  In  In50  1  0.67292874  0.51284541  0.37049660  1
  In  In51  1  0.65965952  0.51060371  0.88246912  1
  In  In52  1  0.68757788  0.83457355  0.37783849  1
  In  In53  1  0.67390278  0.84040903  0.87439388  1
  In  In54  1  0.16783918  -0.00601865  0.12951460  1
  In  In55  1  0.16255860  -0.00133173  0.62480031  1
  In  In56  1  0.16920051  0.35052117  0.12872850  1
  In  In57  1  0.14917829  0.33083953  0.62272951  1
  In  In58  1  0.16499105  0.66860510  0.12528987  1
  In  In59  1  0.15947978  0.66735180  0.61540424  1
  In  In60  1  0.50055517  -0.01644485  0.12287614  1
  In  In61  1  0.49471834  0.00447184  0.63715465  1
  In  In62  1  0.48917130  0.33369860  0.12353694  1
  In  In63  1  0.51361245  0.32613780  0.62653086  1
  In  In64  1  0.51269934  0.67646489  0.11736947  1
  In  In65  1  0.50864906  0.68529681  0.63131681  1
  In  In66  1  0.84182375  -0.01005626  0.11960362  1
  In  In67  1  0.83571531  -0.00110299  0.62133494  1
  In  In68  1  0.82424620  0.33382693  0.12369503  1
  In  In69  1  0.83593141  0.34017476  0.62138411  1
  In  In70  1  0.83970438  0.67333063  0.12675255  1
  In  In71  1  0.82659957  0.66642063  0.62093975  1
  In  In72  1  0.33312164  0.67107410  0.75882846  1
  In  In73  1  0.16443788  0.16601847  0.00642004  1
  In  In74  1  0.66711886  -0.00268160  0.25474109  1
  In  In75  1  0.50078074  0.83793578  0.50531814  1
  In  In76  1  0.65388794  0.33716973  0.25900631  1
  In  In77  1  0.50007428  0.49477645  0.49823424  1
  In  In78  1  -0.00230521  0.67460154  0.75928339  1
  In  In79  1  0.00515634  0.33172115  0.25211633  1
  In  In80  1  0.67408207  0.32701948  0.75248120  1
  In  In81  1  0.32825727  0.32716613  0.74831458  1
  In  In82  1  0.32739374  0.66529465  0.24372616  1
  In  In83  1  0.16493128  0.16046447  0.50162110  1
  In  In84  1  0.83030233  0.16127587  -0.00582623  1
  In  In85  1  0.50259280  0.16722881  -0.00851691  1
  Cu  Cu86  1  0.84318563  0.50761502  0.24361929  1
  Cu  Cu87  1  0.17026863  0.16421784  0.25526071  1
  Cu  Cu88  1  0.49968134  0.50375607  0.75922768  1
  Cu  Cu89  1  0.83340788  0.16549761  0.73858712  1
  Cu  Cu90  1  0.00144352  0.66215869  0.00556225  1
  Cu  Cu91  1  0.15059315  0.49597106  0.74894258  1
  Cu  Cu92  1  0.67255253  0.66675727  0.49956947  1
  Cu  Cu93  1  0.83862106  0.83431762  0.25557217  1
  Cu  Cu94  1  0.16401273  0.16307466  0.74657519  1
  Cu  Cu95  1  0.83773890  0.83741379  0.75352238  1
  Cu  Cu96  1  0.32218552  0.66739292  0.49603639  1
  Cu  Cu97  1  0.33938949  0.66952628  0.00590007  1
  Cu  Cu98  1  -0.00515781  0.66795189  0.49953016  1
  Cu  Cu99  1  0.49959265  0.82893106  0.24463515  1
  Cu  Cu100  1  0.66160647  0.33938838  -0.00003699  1
  Cu  Cu101  1  0.83574570  0.15901824  0.25723176  1
  Cu  Cu102  1  0.50841501  0.49938585  0.24524658  1
  Cu  Cu103  1  0.32799418  -0.00217160  0.50021409  1
  Cu  Cu104  1  0.17113325  0.50355710  0.24967467  1
  Cu  Cu105  1  0.16825429  0.84001060  0.74872032  1
  Cu  Cu106  1  0.33253000  0.34461350  -0.00016560  1
  Cu  Cu107  1  0.00426282  0.34148808  0.49747779  1
  Cu  Cu108  1  0.33559905  -0.00207698  0.00056745  1
  Cu  Cu109  1  0.50089044  0.16566732  0.25414455  1
  Cu  Cu110  1  0.67116558  0.66935783  -0.00094873  1
  Cu  Cu111  1  -0.00093565  0.33198787  0.00051429  1
  Cu  Cu112  1  0.83365588  0.50563809  0.74674836  1
  Cu  Cu113  1  0.66735056  0.33567887  0.50219871  1
  Cu  Cu114  1  0.33428894  0.33107997  0.49598563  1
  Se  Se115  1  0.07183133  0.06845339  0.05294797  1
  Se  Se116  1  0.06744157  0.07324039  0.55456382  1
  Se  Se117  1  0.08393603  0.41520376  0.05328015  1
  Se  Se118  1  0.08733793  0.42412368  0.55095691  1
  Se  Se119  1  0.08193032  0.75042514  0.05707764  1
  Se  Se120  1  0.07923497  0.75353375  0.54962773  1
  Se  Se121  1  0.41217554  0.08470413  0.05878998  1
  Se  Se122  1  0.41462265  0.07394930  0.55611744  1
  Se  Se123  1  0.41910490  0.42299399  0.05324200  1
  Se  Se124  1  0.41036720  0.40852197  0.56332426  1
  Se  Se125  1  0.42260065  0.75785215  0.05386817  1
  Se  Se126  1  0.40584368  0.74092052  0.55876075  1
  Se  Se127  1  0.74114056  0.06815248  0.05179965  1
  Se  Se128  1  0.78123095  0.10342109  0.55192134  1
  Se  Se129  1  0.75424620  0.41601681  0.04956969  1
  Se  Se130  1  0.74937152  0.42191762  0.55267674  1
  Se  Se131  1  0.75260027  0.75019168  0.05614173  1
  Se  Se132  1  0.74746933  0.75565187  0.55438343  1
  Se  Se133  1  0.25885725  0.25957391  0.06130632  1
  Se  Se134  1  0.25510326  0.25484968  0.56135199  1
  Se  Se135  1  0.25099096  0.58787157  0.05684942  1
  Se  Se136  1  0.24178843  0.58066421  0.54854822  1
  Se  Se137  1  0.25215757  0.91923975  0.05718237  1
  Se  Se138  1  0.24316245  0.91621590  0.55302696  1
  Se  Se139  1  0.59236241  0.25156955  0.06147581  1
  Se  Se140  1  0.57876676  0.25062268  0.54669724  1
  Se  Se141  1  0.58405094  0.58342551  0.04905934  1
  Se  Se142  1  0.58473988  0.59139190  0.55885442  1
  Se  Se143  1  0.58607857  0.92185421  0.04910655  1
  Se  Se144  1  0.58815734  0.91956374  0.56974091  1
  Se  Se145  1  0.92203177  0.24896671  0.06123241  1
  Se  Se146  1  0.92579757  0.25978994  0.55604668  1
  Se  Se147  1  0.91279541  0.58080008  0.05633967  1
  Se  Se148  1  0.91125164  0.58457145  0.55333092  1
  Se  Se149  1  0.90692430  0.90464192  0.04583192  1
  Se  Se150  1  0.90372433  0.90941231  0.54621653  1
  Se  Se151  1  0.07565307  0.25139078  0.43718904  1
  Se  Se152  1  0.07421306  0.24933793  0.93882665  1
  Se  Se153  1  0.08036405  0.58503211  0.44606415  1
  Se  Se154  1  0.08520699  0.58029654  0.94973736  1
  Se  Se155  1  0.07564255  0.92076608  0.43671374  1
  Se  Se156  1  0.10374093  0.90548216  0.94710560  1
  Se  Se157  1  0.41381880  0.24191786  0.44705409  1
  Se  Se158  1  0.40319040  0.25883910  0.93741006  1
  Se  Se159  1  0.40939591  0.58956645  0.43995724  1
  Se  Se160  1  0.41927314  0.58718452  0.94810723  1
  Se  Se161  1  0.40866868  0.91776870  0.43848377  1
  Se  Se162  1  0.42119599  0.92271495  0.94274392  1
  Se  Se163  1  0.74874831  0.25304268  0.44660745  1
  Se  Se164  1  0.73678607  0.25590347  0.93724878  1
  Se  Se165  1  0.75418170  0.58327032  0.44496863  1
  Se  Se166  1  0.75446502  0.58141711  0.94887008  1
  Se  Se167  1  0.71678634  0.94353615  0.44608505  1
  Se  Se168  1  0.77403428  0.90304645  0.94336761  1
  Se  Se169  1  0.24665970  0.07171870  0.43604401  1
  Se  Se170  1  0.25336792  0.07881506  0.94220470  1
  Se  Se171  1  0.25184409  0.41747716  0.44676207  1
  Se  Se172  1  0.24337073  0.42232966  0.94766033  1
  Se  Se173  1  0.24184106  0.75792412  0.44854917  1
  Se  Se174  1  0.25516315  0.75062729  0.94983432  1
  Se  Se175  1  0.57154616  0.08217882  0.45913974  1
  Se  Se176  1  0.58915057  0.07199702  0.93818880  1
  Se  Se177  1  0.59035915  0.41065761  0.43400141  1
  Se  Se178  1  0.57667163  0.42117026  0.94771333  1
  Se  Se179  1  0.58641899  0.74363380  0.44077639  1
  Se  Se180  1  0.59158549  0.75524336  0.94435564  1
  Se  Se181  1  0.89299769  0.09454716  0.45530156  1
  Se  Se182  1  0.92675618  0.07708879  0.93830134  1
  Se  Se183  1  0.91504703  0.42087522  0.44580819  1
  Se  Se184  1  0.91404188  0.41383300  0.94772407  1
  Se  Se185  1  0.91454631  0.74900542  0.44146228  1
  Se  Se186  1  0.92145696  0.74373325  0.94856764  1
  Se  Se187  1  0.25671450  0.24865787  0.30258068  1
  Se  Se188  1  0.23914934  0.24087042  0.81329708  1
  Se  Se189  1  0.24601286  0.58290433  0.31542347  1
  Se  Se190  1  0.23253769  0.57730741  0.80786554  1
  Se  Se191  1  0.26325518  0.92359048  0.29575062  1
  Se  Se192  1  0.25447414  0.92095346  0.80212045  1
  Se  Se193  1  0.58830674  0.23042434  0.31860847  1
  Se  Se194  1  0.57020727  0.24052663  0.80312036  1
  Se  Se195  1  0.59268545  0.58480008  0.29427768  1
  Se  Se196  1  0.58497728  0.58851418  0.80696978  1
  Se  Se197  1  0.57596046  0.90387792  0.31281709  1
  Se  Se198  1  0.60772283  0.93485342  0.80490820  1
  Se  Se199  1  0.91948822  0.23968692  0.31370252  1
  Se  Se200  1  0.91167926  0.25349723  0.79371763  1
  Se  Se201  1  0.92456642  0.59009124  0.29881382  1
  Se  Se202  1  0.90783503  0.58100805  0.81503529  1
  Se  Se203  1  0.89614705  0.91910756  0.32445225  1
  Se  Se204  1  0.92892740  0.91543821  0.80334982  1
  Se  Se205  1  0.07602779  0.08454578  0.29950345  1
  Se  Se206  1  0.07924695  0.07956655  0.79938662  1
  Se  Se207  1  0.09242440  0.42308178  0.31274146  1
  Se  Se208  1  0.07092888  0.41312826  0.80384722  1
  Se  Se209  1  0.08444574  0.75255330  0.29704345  1
  Se  Se210  1  0.09110995  0.76440430  0.81414880  1
  Se  Se211  1  0.41923892  0.07723804  0.30405614  1
  Se  Se212  1  0.41971113  0.08328611  0.79297882  1
  Se  Se213  1  0.42807659  0.41671984  0.30139945  1
  Se  Se214  1  0.41241896  0.42383691  0.81131505  1
  Se  Se215  1  0.42129315  0.74988528  0.30892766  1
  Se  Se216  1  0.42302447  0.76170618  0.81388013  1
  Se  Se217  1  0.76151158  0.07558933  0.31673025  1
  Se  Se218  1  0.75846478  0.08443800  0.80016009  1
  Se  Se219  1  0.76374488  0.42417108  0.30357301  1
  Se  Se220  1  0.75523326  0.42558407  0.81172360  1
  Se  Se221  1  0.75063033  0.74776093  0.30246371  1
  Se  Se222  1  0.75153654  0.75225261  0.80184603  1
  Se  Se223  1  0.24930797  0.08199745  0.19661771  1
  Se  Se224  1  0.24633230  0.07707148  0.69652081  1
  Se  Se225  1  0.25729504  0.41803221  0.20185058  1
  Se  Se226  1  0.24069540  0.42473690  0.69053628  1
  Se  Se227  1  0.23946224  0.76500575  0.19419671  1
  Se  Se228  1  0.24116636  0.75067491  0.69093098  1
  Se  Se229  1  0.57961128  0.08919079  0.19003171  1
  Se  Se230  1  0.59219944  0.09163951  0.68940288  1
  Se  Se231  1  0.58814553  0.42266664  0.18136209  1
  Se  Se232  1  0.57983131  0.42533601  0.69690927  1
  Se  Se233  1  0.58853625  0.74932467  0.19543827  1
  Se  Se234  1  0.58435089  0.75231255  0.70808498  1
  Se  Se235  1  0.90859861  0.07502249  0.19680079  1
  Se  Se236  1  0.92067861  0.07869054  0.69253823  1
  Se  Se237  1  0.91767087  0.41865089  0.18710122  1
  Se  Se238  1  0.91481211  0.41955902  0.69575308  1
  Se  Se239  1  0.92057301  0.75536756  0.19700862  1
  Se  Se240  1  0.91415989  0.75661827  0.68910604  1
  Se  Se241  1  0.09295242  0.24165780  0.18830471  1
  Se  Se242  1  0.08029028  0.25128919  0.69874779  1
  Se  Se243  1  0.08642927  0.58566781  0.19804021  1
  Se  Se244  1  0.07826217  0.58406656  0.69054918  1
  Se  Se245  1  0.06202441  0.93525708  0.19171472  1
  Se  Se246  1  0.07984231  0.91350675  0.69222935  1
  Se  Se247  1  0.42141878  0.25331493  0.20125926  1
  Se  Se248  1  0.42218491  0.24177980  0.69022675  1
  Se  Se249  1  0.42637087  0.58079093  0.18672439  1
  Se  Se250  1  0.42244098  0.58044385  0.69388873  1
  Se  Se251  1  0.41642401  0.91704089  0.19790434  1
  Se  Se252  1  0.42305859  0.90409286  0.69758777  1
  Se  Se253  1  0.75618620  0.24527084  0.20244503  1
  Se  Se254  1  0.74858974  0.24272916  0.68005396  1
  Se  Se255  1  0.75322802  0.58867324  0.19492396  1
  Se  Se256  1  0.74855968  0.59088874  0.69835404  1
  Se  Se257  1  0.75377369  0.90773535  0.19139615  1
  Se  Se258  1  0.75728738  0.91775384  0.69410308  1
