# generated using pymatgen
data_In86Cu29Se144
_symmetry_space_group_name_H-M   'P 1'
_cell_length_a   17.58926362
_cell_length_b   17.58964138
_cell_length_c   23.44716691
_cell_angle_alpha   90.02730544
_cell_angle_beta   89.98968791
_cell_angle_gamma   90.00584490
_symmetry_Int_Tables_number   1
_chemical_formula_structural   In86Cu29Se144
_chemical_formula_sum   'In86 Cu29 Se144'
_cell_volume   7254.29077363
_cell_formula_units_Z   1
loop_
 _symmetry_equiv_pos_site_id
 _symmetry_equiv_pos_as_xyz
  1  'x, y, z'
loop_
 _atom_site_type_symbol
 _atom_site_label
 _atom_site_symmetry_multiplicity
 _atom_site_fract_x
 _atom_site_fract_y
 _atom_site_fract_z
 _atom_site_occupancy
  In  In0  1  -0.01354645  0.16482019  0.12697209  1
  In  In1  1  0.01423911  0.18246003  0.61829277  1
  In  In2  1  0.01285621  0.50801227  0.12749839  1
  In  In3  1  -0.00163956  0.50123037  0.61838298  1
  In  In4  1  0.00501872  0.81240765  0.12605353  1
  In  In5  1  -0.00110263  0.81899067  0.62803281  1
  In  In6  1  0.34758357  0.16905452  0.12427079  1
  In  In7  1  0.33976533  0.16818332  0.62274868  1
  In  In8  1  0.33884041  0.48403576  0.14554972  1
  In  In9  1  0.33732137  0.50352854  0.62973161  1
  In  In10  1  0.32563479  0.83285218  0.12145053  1
  In  In11  1  0.34396840  0.82501044  0.62790186  1
  In  In12  1  0.65551995  0.17953667  0.13083141  1
  In  In13  1  0.65986875  0.17820526  0.61374252  1
  In  In14  1  0.66004984  0.49720158  0.13074354  1
  In  In15  1  0.65270352  0.47421110  0.60257475  1
  In  In16  1  0.65489001  0.82520537  0.12453207  1
  In  In17  1  0.66284046  0.84832715  0.62815732  1
  In  In18  1  0.18193258  0.00708481  0.38281173  1
  In  In19  1  0.17018797  -0.01557255  0.87333411  1
  In  In20  1  0.17332807  0.33036249  0.38377230  1
  In  In21  1  0.16448305  0.33583743  0.86789126  1
  In  In22  1  0.15301152  0.64606495  0.35700483  1
  In  In23  1  0.17372217  0.67241185  0.86899090  1
  In  In24  1  0.48219622  0.00553650  0.39148664  1
  In  In25  1  0.51166978  0.01344826  0.86060551  1
  In  In26  1  0.49562055  0.33865058  0.38037838  1
  In  In27  1  0.49868322  0.33389609  0.87586876  1
  In  In28  1  0.49869862  0.66321337  0.38005294  1
  In  In29  1  0.48796335  0.66618081  0.87254470  1
  In  In30  1  0.83209243  0.01138660  0.37706710  1
  In  In31  1  0.83005017  0.01473223  0.86604130  1
  In  In32  1  0.80822160  0.35815101  0.40424651  1
  In  In33  1  0.83126024  0.33381822  0.86359282  1
  In  In34  1  0.82600670  0.65353842  0.37410381  1
  In  In35  1  0.83783000  0.65136368  0.87240768  1
  In  In36  1  -0.01159690  0.18322656  0.39141525  1
  In  In37  1  -0.00630257  0.17591152  0.86693107  1
  In  In38  1  -0.00118600  0.51375977  0.38687803  1
  In  In39  1  -0.00749503  0.49975512  0.86170530  1
  In  In40  1  0.00845521  0.81952131  0.37767892  1
  In  In41  1  0.02112413  0.83538647  0.87473231  1
  In  In42  1  0.32087533  0.17863836  0.38919450  1
  In  In43  1  0.35543269  0.19032967  0.85840857  1
  In  In44  1  0.33248859  0.50251627  0.37930927  1
  In  In45  1  0.34089707  0.50363711  0.86361974  1
  In  In46  1  0.34449347  0.82657761  0.38089152  1
  In  In47  1  0.32239225  0.82358873  0.86535398  1
  In  In48  1  0.64161566  0.20219205  0.40240117  1
  In  In49  1  0.66546291  0.16956261  0.86632600  1
  In  In50  1  0.65796054  0.49483840  0.38446546  1
  In  In51  1  0.64885984  0.48017461  0.86207477  1
  In  In52  1  0.66218389  0.81673212  0.37449746  1
  In  In53  1  0.65265718  0.83711368  0.87173345  1
  In  In54  1  0.18774108  -0.00436833  0.12006064  1
  In  In55  1  0.17599586  0.01634733  0.62039503  1
  In  In56  1  0.17073856  0.34622009  0.12652607  1
  In  In57  1  0.17221382  0.33650252  0.62751714  1
  In  In58  1  0.16438362  0.66419439  0.13069989  1
  In  In59  1  0.16955251  0.66173120  0.62426348  1
  In  In60  1  0.48647516  0.00773603  0.12070992  1
  In  In61  1  0.49571057  0.00479252  0.61953452  1
  In  In62  1  0.49732836  0.33331523  0.12543705  1
  In  In63  1  0.50620318  0.33539369  0.62135330  1
  In  In64  1  0.50970301  0.65267314  0.13722212  1
  In  In65  1  0.48293800  0.64870876  0.61724453  1
  In  In66  1  0.83596743  0.00976450  0.12954708  1
  In  In67  1  0.81660997  0.00573820  0.62691139  1
  In  In68  1  0.82574284  0.32267040  0.12724900  1
  In  In69  1  0.83108625  0.33731164  0.61678276  1
  In  In70  1  0.83622340  0.65045934  0.13593907  1
  In  In71  1  0.84520329  0.65518384  0.62146682  1
  In  In72  1  0.82662967  0.49391709  -0.00181827  1
  In  In73  1  0.00930479  -0.00841151  0.26708168  1
  In  In74  1  0.83732183  0.83344727  0.00415923  1
  In  In75  1  0.67036079  0.66640808  0.74489778  1
  In  In76  1  0.17170105  0.16559360  -0.01518510  1
  In  In77  1  0.67032212  -0.00644706  0.25409719  1
  In  In78  1  0.33675005  -0.00211086  0.25522851  1
  In  In79  1  0.16906049  0.50048453  0.00466808  1
  In  In80  1  0.17117328  0.82610119  0.50467625  1
  In  In81  1  0.82967094  0.83542039  0.50044316  1
  In  In82  1  -0.00071355  0.33859217  0.25435595  1
  In  In83  1  0.48961736  0.83612406  -0.00108448  1
  In  In84  1  0.83153562  0.16927195  -0.00870333  1
  In  In85  1  0.00162851  0.00206435  0.74885990  1
  Cu  Cu86  1  0.16403667  0.82603109  0.24721639  1
  Cu  Cu87  1  0.83271001  0.81945376  0.25232312  1
  Cu  Cu88  1  0.82229775  0.17330815  0.26035966  1
  Cu  Cu89  1  0.66612618  0.00656861  -0.00940083  1
  Cu  Cu90  1  0.33181564  0.66177859  -0.00295582  1
  Cu  Cu91  1  0.82983542  0.17359571  0.74115209  1
  Cu  Cu92  1  0.50675865  0.82549584  0.25559973  1
  Cu  Cu93  1  0.82878300  0.49291534  0.26047696  1
  Cu  Cu94  1  0.50134208  0.17874306  0.25525620  1
  Cu  Cu95  1  0.33308158  0.33862518  0.50671852  1
  Cu  Cu96  1  0.33717673  0.33439518  -0.00001895  1
  Cu  Cu97  1  0.50103894  0.83812978  0.74599596  1
  Cu  Cu98  1  0.01138343  0.66977812  -0.00165848  1
  Cu  Cu99  1  0.16470363  0.50151801  0.74453714  1
  Cu  Cu100  1  0.66382801  0.65670434  0.00436585  1
  Cu  Cu101  1  0.16780300  0.83091605  0.74557692  1
  Cu  Cu102  1  0.83265768  0.49938985  0.73987809  1
  Cu  Cu103  1  0.50158128  0.49790715  0.25839824  1
  Cu  Cu104  1  0.65924742  0.00332907  0.50276485  1
  Cu  Cu105  1  0.83431477  0.83195972  0.74576303  1
  Cu  Cu106  1  0.17198009  0.17036580  0.74343037  1
  Cu  Cu107  1  0.01547400  -0.00111986  0.00190994  1
  Cu  Cu108  1  0.16735240  0.17438414  0.25738598  1
  Cu  Cu109  1  0.33321067  0.66009117  0.49771118  1
  Cu  Cu110  1  0.00053317  -0.00098174  0.50467778  1
  Cu  Cu111  1  0.66140641  0.66960069  0.50150190  1
  Cu  Cu112  1  0.50655869  0.17165299  0.74091627  1
  Cu  Cu113  1  0.33751551  0.00121163  -0.01040955  1
  Cu  Cu114  1  0.00829601  0.33127150  0.50505693  1
  Se  Se115  1  0.08656940  0.08508515  0.06255254  1
  Se  Se116  1  0.08493473  0.08581141  0.55214159  1
  Se  Se117  1  0.07052767  0.40724681  0.05507253  1
  Se  Se118  1  0.08998955  0.41707797  0.55655411  1
  Se  Se119  1  0.09498806  0.74891732  0.05306453  1
  Se  Se120  1  0.07136494  0.73620368  0.55299624  1
  Se  Se121  1  0.41422090  0.08640573  0.04611496  1
  Se  Se122  1  0.41987875  0.09048060  0.54959037  1
  Se  Se123  1  0.40868425  0.41954508  0.06087431  1
  Se  Se124  1  0.41798517  0.42181112  0.55816424  1
  Se  Se125  1  0.41494563  0.73741553  0.06188294  1
  Se  Se126  1  0.41564051  0.74670234  0.55001912  1
  Se  Se127  1  0.74371323  0.08119230  0.05900731  1
  Se  Se128  1  0.74707554  0.08549405  0.55158395  1
  Se  Se129  1  0.73853578  0.40488760  0.05888895  1
  Se  Se130  1  0.76762890  0.42840961  0.54293533  1
  Se  Se131  1  0.74714578  0.73736462  0.06071201  1
  Se  Se132  1  0.74273142  0.74696508  0.56387467  1
  Se  Se133  1  0.25187821  0.25386810  0.05691672  1
  Se  Se134  1  0.25062833  0.25137921  0.55714889  1
  Se  Se135  1  0.26199576  0.58368497  0.06483537  1
  Se  Se136  1  0.25244094  0.58015751  0.55590296  1
  Se  Se137  1  0.25880807  0.91594358  0.04420183  1
  Se  Se138  1  0.25860658  0.91888833  0.56086305  1
  Se  Se139  1  0.57020487  0.24069924  0.05698606  1
  Se  Se140  1  0.59834039  0.27569404  0.54318794  1
  Se  Se141  1  0.57904536  0.57670492  0.05791924  1
  Se  Se142  1  0.57834388  0.58093920  0.54914488  1
  Se  Se143  1  0.58873422  0.92743353  0.05534243  1
  Se  Se144  1  0.57967746  0.91483992  0.55295589  1
  Se  Se145  1  0.92346082  0.25807864  0.05358755  1
  Se  Se146  1  0.91695928  0.24839127  0.55186471  1
  Se  Se147  1  0.92418301  0.58859322  0.05383662  1
  Se  Se148  1  0.91710309  0.58060578  0.54566250  1
  Se  Se149  1  0.92965259  0.92624962  0.06392156  1
  Se  Se150  1  0.92028208  0.92172645  0.56544209  1
  Se  Se151  1  0.09260124  0.24555465  0.45312719  1
  Se  Se152  1  0.07252995  0.25988943  0.94078752  1
  Se  Se153  1  0.09795884  0.58681438  0.44763768  1
  Se  Se154  1  0.07979899  0.58373267  0.93543556  1
  Se  Se155  1  0.07904489  0.92149298  0.44296987  1
  Se  Se156  1  0.09483696  0.91089243  0.95137493  1
  Se  Se157  1  0.41547404  0.25517689  0.45166884  1
  Se  Se158  1  0.41847083  0.24806177  0.94796007  1
  Se  Se159  1  0.42264056  0.57637281  0.45066556  1
  Se  Se160  1  0.41389187  0.58004148  0.94295267  1
  Se  Se161  1  0.40519638  0.91533129  0.45428978  1
  Se  Se162  1  0.41587790  0.92213220  0.92669672  1
  Se  Se163  1  0.77567946  0.22482970  0.44226600  1
  Se  Se164  1  0.74076325  0.26303879  0.93868016  1
  Se  Se165  1  0.74312482  0.58448615  0.44885004  1
  Se  Se166  1  0.73619828  0.58255100  0.93620447  1
  Se  Se167  1  0.73732487  0.92342023  0.43905512  1
  Se  Se168  1  0.74953289  0.92232312  0.93832944  1
  Se  Se169  1  0.25817667  0.08001694  0.45667360  1
  Se  Se170  1  0.26477268  0.08130393  0.92496085  1
  Se  Se171  1  0.25061916  0.42037032  0.45050922  1
  Se  Se172  1  0.25476025  0.41279207  0.94032933  1
  Se  Se173  1  0.24966460  0.73712954  0.43738152  1
  Se  Se174  1  0.25141662  0.74850432  0.94530722  1
  Se  Se175  1  0.57475670  0.08790836  0.45188291  1
  Se  Se176  1  0.58359626  0.08966134  0.93884454  1
  Se  Se177  1  0.59719630  0.39303335  0.45284081  1
  Se  Se178  1  0.57753988  0.42064625  0.94487467  1
  Se  Se179  1  0.57733323  0.75348104  0.44993087  1
  Se  Se180  1  0.58734607  0.74245473  0.94503866  1
  Se  Se181  1  0.91625997  0.08002419  0.45082960  1
  Se  Se182  1  0.93161495  0.07306631  0.94024193  1
  Se  Se183  1  0.92815470  0.41545729  0.45071868  1
  Se  Se184  1  0.92058017  0.41060397  0.93692786  1
  Se  Se185  1  0.91653548  0.74128517  0.44337712  1
  Se  Se186  1  0.92371826  0.74448379  0.93904654  1
  Se  Se187  1  0.25445305  0.25459519  0.30808527  1
  Se  Se188  1  0.24958586  0.25667395  0.79962022  1
  Se  Se189  1  0.27320546  0.59956371  0.30743706  1
  Se  Se190  1  0.24762029  0.58338809  0.80108688  1
  Se  Se191  1  0.24145451  0.90491226  0.31026992  1
  Se  Se192  1  0.25106057  0.91695167  0.79630207  1
  Se  Se193  1  0.58445743  0.25878268  0.30994089  1
  Se  Se194  1  0.58179787  0.25431635  0.80167589  1
  Se  Se195  1  0.58425886  0.58068711  0.31225395  1
  Se  Se196  1  0.57266915  0.58221686  0.80196485  1
  Se  Se197  1  0.57227936  0.91618181  0.31646976  1
  Se  Se198  1  0.58929955  0.92018629  0.79528365  1
  Se  Se199  1  0.90544911  0.25565688  0.31531608  1
  Se  Se200  1  0.91664734  0.25352139  0.79439546  1
  Se  Se201  1  0.91690823  0.57773919  0.30674729  1
  Se  Se202  1  0.91429045  0.58594061  0.79285627  1
  Se  Se203  1  0.90460350  0.90249474  0.31546290  1
  Se  Se204  1  0.91328950  0.90900983  0.81116540  1
  Se  Se205  1  0.08901011  0.09707610  0.32001085  1
  Se  Se206  1  0.09493102  0.09084453  0.80891118  1
  Se  Se207  1  0.08591521  0.42133507  0.31949619  1
  Se  Se208  1  0.08125396  0.41725398  0.79904145  1
  Se  Se209  1  0.07553130  0.74563366  0.29715650  1
  Se  Se210  1  0.08356172  0.74942865  0.79931246  1
  Se  Se211  1  0.41872058  0.09662825  0.31283871  1
  Se  Se212  1  0.42039730  0.08788901  0.79403188  1
  Se  Se213  1  0.41392127  0.41677013  0.30927589  1
  Se  Se214  1  0.40297034  0.39755417  0.80548728  1
  Se  Se215  1  0.41884679  0.74646701  0.30709637  1
  Se  Se216  1  0.41986930  0.75386236  0.80039930  1
  Se  Se217  1  0.73783427  0.09554645  0.31735663  1
  Se  Se218  1  0.74811265  0.08829764  0.79461216  1
  Se  Se219  1  0.74490846  0.41300364  0.31393898  1
  Se  Se220  1  0.75041353  0.41864614  0.79651205  1
  Se  Se221  1  0.74600315  0.74033278  0.30494218  1
  Se  Se222  1  0.75672481  0.75609259  0.81317848  1
  Se  Se223  1  0.24536538  0.09216595  0.19543777  1
  Se  Se224  1  0.25708407  0.08538887  0.69591529  1
  Se  Se225  1  0.23451605  0.41946100  0.20643850  1
  Se  Se226  1  0.25313764  0.41864190  0.69761902  1
  Se  Se227  1  0.25378906  0.75004323  0.19407177  1
  Se  Se228  1  0.25079505  0.74720589  0.69235124  1
  Se  Se229  1  0.57108148  0.08339805  0.19786776  1
  Se  Se230  1  0.58601621  0.08853439  0.68413572  1
  Se  Se231  1  0.57816505  0.41377119  0.19858692  1
  Se  Se232  1  0.59343521  0.41330827  0.69064887  1
  Se  Se233  1  0.59119717  0.74385856  0.20212949  1
  Se  Se234  1  0.57579471  0.75165753  0.68577610  1
  Se  Se235  1  0.91097169  0.08842373  0.20930542  1
  Se  Se236  1  0.91632407  0.09084403  0.68583777  1
  Se  Se237  1  0.90793201  0.42466331  0.18812693  1
  Se  Se238  1  0.91696773  0.41607748  0.68793096  1
  Se  Se239  1  0.91923749  0.74171817  0.19746494  1
  Se  Se240  1  0.91273528  0.74321873  0.69693848  1
  Se  Se241  1  0.08480917  0.24244633  0.19117944  1
  Se  Se242  1  0.08449502  0.25563795  0.69775883  1
  Se  Se243  1  0.08955682  0.57922959  0.20160274  1
  Se  Se244  1  0.07994979  0.58336684  0.69145916  1
  Se  Se245  1  0.09051519  0.91582853  0.18871770  1
  Se  Se246  1  0.08985805  0.91379405  0.68545117  1
  Se  Se247  1  0.41308217  0.25377663  0.19909303  1
  Se  Se248  1  0.42081692  0.25434955  0.69036784  1
  Se  Se249  1  0.41758790  0.58172911  0.20484709  1
  Se  Se250  1  0.41151364  0.59105836  0.70139425  1
  Se  Se251  1  0.42712860  0.90569533  0.19304647  1
  Se  Se252  1  0.41780144  0.92082960  0.69287134  1
  Se  Se253  1  0.74281961  0.25294813  0.20193824  1
  Se  Se254  1  0.74748281  0.25373185  0.68578635  1
  Se  Se255  1  0.74728533  0.57415744  0.20075145  1
  Se  Se256  1  0.74687682  0.57279114  0.68020147  1
  Se  Se257  1  0.76019161  0.90319092  0.18918323  1
  Se  Se258  1  0.74908455  0.91963078  0.70106610  1
