# generated using pymatgen
data_In86Cu29Se144
_symmetry_space_group_name_H-M   'P 1'
_cell_length_a   17.58370377
_cell_length_b   17.58487141
_cell_length_c   23.44950404
_cell_angle_alpha   89.99103846
_cell_angle_beta   90.02506231
_cell_angle_gamma   90.01052784
_symmetry_Int_Tables_number   1
_chemical_formula_structural   In86Cu29Se144
_chemical_formula_sum   'In86 Cu29 Se144'
_cell_volume   7250.75387155
_cell_formula_units_Z   1
loop_
 _symmetry_equiv_pos_site_id
 _symmetry_equiv_pos_as_xyz
  1  'x, y, z'
loop_
 _atom_site_type_symbol
 _atom_site_label
 _atom_site_symmetry_multiplicity
 _atom_site_fract_x
 _atom_site_fract_y
 _atom_site_fract_z
 _atom_site_occupancy
  In  In0  1  0.01018258  0.15386417  0.13168818  1
  In  In1  1  -0.01170361  0.16973637  0.62304439  1
  In  In2  1  -0.00595137  0.51375952  0.13635044  1
  In  In3  1  0.00713924  0.49651388  0.61753650  1
  In  In4  1  -0.00256161  0.84089711  0.13065215  1
  In  In5  1  0.01850003  0.83261287  0.61645076  1
  In  In6  1  0.32368612  0.16411610  0.11588878  1
  In  In7  1  0.34284639  0.15025207  0.63809898  1
  In  In8  1  0.33114628  0.49200353  0.11921341  1
  In  In9  1  0.33522103  0.49762892  0.62660838  1
  In  In10  1  0.34484973  0.84124505  0.12438667  1
  In  In11  1  0.33888684  0.83413811  0.63168363  1
  In  In12  1  0.64936251  0.16800391  0.12375395  1
  In  In13  1  0.67253829  0.17747310  0.62317317  1
  In  In14  1  0.65816389  0.49181988  0.11667888  1
  In  In15  1  0.64914859  0.51975022  0.63974496  1
  In  In16  1  0.67809863  0.82926206  0.12703413  1
  In  In17  1  0.64443571  0.82522595  0.62442846  1
  In  In18  1  0.15929481  -0.01202858  0.36985559  1
  In  In19  1  0.18621922  0.02352420  0.85579317  1
  In  In20  1  0.16225800  0.35326283  0.37383793  1
  In  In21  1  0.17370662  0.31823740  0.87583074  1
  In  In22  1  0.16131250  0.66494850  0.38358029  1
  In  In23  1  0.17932363  0.65945272  0.87079944  1
  In  In24  1  0.49883771  0.00171403  0.37762312  1
  In  In25  1  0.49806202  0.01197940  0.87457116  1
  In  In26  1  0.49782110  0.33385902  0.38642303  1
  In  In27  1  0.49754996  0.32935215  0.86913710  1
  In  In28  1  0.50135047  0.67124674  0.39262501  1
  In  In29  1  0.48375706  0.64820834  0.85653014  1
  In  In30  1  0.84201344  0.00672470  0.37009041  1
  In  In31  1  0.83314686  -0.01369297  0.87720965  1
  In  In32  1  0.83535299  0.32194929  0.37500858  1
  In  In33  1  0.83589467  0.34705803  0.87794682  1
  In  In34  1  0.83891273  0.65458238  0.37555370  1
  In  In35  1  0.82666789  0.67410621  0.87916522  1
  In  In36  1  -0.00275705  0.15863166  0.36824585  1
  In  In37  1  0.02265533  0.16659950  0.87702285  1
  In  In38  1  0.01811325  0.51366325  0.35082131  1
  In  In39  1  -0.00298856  0.49048743  0.88016108  1
  In  In40  1  0.00661469  0.83599808  0.37427549  1
  In  In41  1  -0.01232683  0.84079030  0.87656304  1
  In  In42  1  0.34511882  0.16390021  0.38057380  1
  In  In43  1  0.33752946  0.17184439  0.87026920  1
  In  In44  1  0.33143260  0.50435531  0.38647555  1
  In  In45  1  0.34680283  0.50553505  0.86749100  1
  In  In46  1  0.32609537  0.83626338  0.38329960  1
  In  In47  1  0.34019814  0.82535714  0.86054675  1
  In  In48  1  0.67559307  0.16196061  0.38373262  1
  In  In49  1  0.64501770  0.16378469  0.87612271  1
  In  In50  1  0.66166203  0.49698223  0.38048650  1
  In  In51  1  0.66643292  0.49758280  0.87159648  1
  In  In52  1  0.65076223  0.83469398  0.38117687  1
  In  In53  1  0.67446669  0.83387783  0.87461020  1
  In  In54  1  0.16183839  0.00692805  0.13009878  1
  In  In55  1  0.18171687  -0.00727323  0.63518312  1
  In  In56  1  0.17166029  0.32505340  0.12584291  1
  In  In57  1  0.16335652  0.34161980  0.62730072  1
  In  In58  1  0.15589462  0.65714239  0.12842715  1
  In  In59  1  0.18265535  0.68321349  0.60942024  1
  In  In60  1  0.49277346  0.00923351  0.13347825  1
  In  In61  1  0.48755937  -0.01042342  0.61874566  1
  In  In62  1  0.48215748  0.32962369  0.10665154  1
  In  In63  1  0.50024781  0.33385580  0.62654740  1
  In  In64  1  0.50629262  0.66432183  0.12004988  1
  In  In65  1  0.50255211  0.66568584  0.62820122  1
  In  In66  1  0.84221419  -0.01189545  0.13149695  1
  In  In67  1  0.82717724  0.01442228  0.62451364  1
  In  In68  1  0.82811196  0.34676392  0.12075642  1
  In  In69  1  0.83473118  0.32291037  0.62445929  1
  In  In70  1  0.83610676  0.67759429  0.12011325  1
  In  In71  1  0.83018972  0.65724252  0.62440981  1
  In  In72  1  0.32706041  0.33087738  0.24447936  1
  In  In73  1  0.00119845  0.33093641  0.75257763  1
  In  In74  1  0.66338972  -0.00165309  0.74913488  1
  In  In75  1  0.83182547  0.83387856  0.49553522  1
  In  In76  1  0.50328000  0.82809004  -0.00601468  1
  In  In77  1  0.16989360  0.49741114  -0.00077413  1
  In  In78  1  0.66963862  0.66964393  0.25647757  1
  In  In79  1  0.32576858  0.67145708  0.25733878  1
  In  In80  1  0.17014563  0.16510328  0.50575224  1
  In  In81  1  0.66717078  0.33237926  0.24859802  1
  In  In82  1  0.16536951  0.83631390  -0.01317951  1
  In  In83  1  0.82954323  0.16585815  0.00629576  1
  In  In84  1  0.83294721  0.49392169  0.49873170  1
  In  In85  1  0.00489824  0.66860290  0.74576525  1
  Cu  Cu86  1  0.33662989  0.33259968  0.50470737  1
  Cu  Cu87  1  0.16706010  0.83185262  0.74435408  1
  Cu  Cu88  1  0.66443414  -0.00681178  -0.00090307  1
  Cu  Cu89  1  0.83452714  0.16264588  0.25071817  1
  Cu  Cu90  1  0.50254072  0.49276421  0.74656134  1
  Cu  Cu91  1  0.82818433  0.50097110  0.75259298  1
  Cu  Cu92  1  -0.00695216  0.66772840  0.00319718  1
  Cu  Cu93  1  0.33396262  -0.00723902  0.50489919  1
  Cu  Cu94  1  0.66128210  0.00827565  0.50444476  1
  Cu  Cu95  1  0.66139916  0.34082418  0.50631189  1
  Cu  Cu96  1  0.49813435  0.84500339  0.25471298  1
  Cu  Cu97  1  0.83308724  0.83323139  0.74946152  1
  Cu  Cu98  1  0.66606725  0.65637497  -0.00434074  1
  Cu  Cu99  1  0.00054155  0.00259687  0.49471419  1
  Cu  Cu100  1  -0.00008197  0.33591623  0.00117388  1
  Cu  Cu101  1  0.83737682  0.83725377  0.25112081  1
  Cu  Cu102  1  0.32887181  0.00635654  -0.00312206  1
  Cu  Cu103  1  0.83403818  0.16405317  0.75039474  1
  Cu  Cu104  1  0.33551491  0.66169278  0.50807197  1
  Cu  Cu105  1  0.17705625  0.50183799  0.74726872  1
  Cu  Cu106  1  0.16996169  0.83568962  0.25493355  1
  Cu  Cu107  1  0.49885993  0.16751716  0.74829551  1
  Cu  Cu108  1  0.83543617  0.50371228  0.24386856  1
  Cu  Cu109  1  0.65988796  0.33460941  -0.00518011  1
  Cu  Cu110  1  0.49306638  0.49824297  0.24864573  1
  Cu  Cu111  1  0.00025717  0.33225791  0.49574205  1
  Cu  Cu112  1  0.17209968  0.16541705  0.25096417  1
  Cu  Cu113  1  0.50133497  0.16069404  0.25329431  1
  Cu  Cu114  1  0.00349605  0.00323766  0.00481945  1
  Se  Se115  1  0.09049703  0.08719914  0.05288119  1
  Se  Se116  1  0.07878204  0.07449930  0.56330514  1
  Se  Se117  1  0.07693798  0.41730906  0.06420272  1
  Se  Se118  1  0.08597620  0.41225105  0.54879067  1
  Se  Se119  1  0.07967169  0.74967598  0.05667227  1
  Se  Se120  1  0.07959836  0.74225527  0.54511376  1
  Se  Se121  1  0.41637418  0.08035051  0.05500531  1
  Se  Se122  1  0.41294555  0.08518520  0.55359829  1
  Se  Se123  1  0.42308349  0.43559933  0.04635410  1
  Se  Se124  1  0.42002930  0.41793345  0.55639740  1
  Se  Se125  1  0.40860579  0.74235151  0.05544202  1
  Se  Se126  1  0.41578205  0.74902504  0.56030391  1
  Se  Se127  1  0.74160913  0.07186271  0.06431360  1
  Se  Se128  1  0.75010725  0.09187616  0.55113010  1
  Se  Se129  1  0.74564194  0.41712323  0.04650269  1
  Se  Se130  1  0.74370356  0.41732204  0.56774943  1
  Se  Se131  1  0.74327687  0.74611716  0.05016105  1
  Se  Se132  1  0.74475890  0.74714794  0.56001446  1
  Se  Se133  1  0.26988902  0.27426251  0.05518134  1
  Se  Se134  1  0.25906667  0.25252995  0.56684966  1
  Se  Se135  1  0.25372090  0.59588837  0.05724817  1
  Se  Se136  1  0.24889133  0.57403258  0.55419775  1
  Se  Se137  1  0.25206463  0.92158261  0.05590423  1
  Se  Se138  1  0.25072557  0.91109385  0.55904434  1
  Se  Se139  1  0.57946112  0.24910458  0.04867330  1
  Se  Se140  1  0.58087029  0.25030201  0.55515381  1
  Se  Se141  1  0.57871615  0.57881841  0.04935154  1
  Se  Se142  1  0.58312080  0.58414529  0.55654605  1
  Se  Se143  1  0.58371388  0.91666789  0.06331058  1
  Se  Se144  1  0.58133170  0.91731963  0.55191388  1
  Se  Se145  1  0.92446520  0.25349373  0.06411181  1
  Se  Se146  1  0.91474970  0.25098183  0.54820094  1
  Se  Se147  1  0.91432114  0.58203863  0.05782630  1
  Se  Se148  1  0.92537153  0.59025354  0.55376038  1
  Se  Se149  1  0.91997658  0.91614590  0.05373551  1
  Se  Se150  1  0.91873506  0.92517112  0.55837908  1
  Se  Se151  1  0.08311009  0.24970532  0.43848865  1
  Se  Se152  1  0.08697697  0.25364620  0.95199184  1
  Se  Se153  1  0.08139628  0.56643961  0.44036830  1
  Se  Se154  1  0.07667020  0.59346601  0.94097923  1
  Se  Se155  1  0.08551449  0.91506760  0.44873234  1
  Se  Se156  1  0.07963024  0.93436066  0.93375796  1
  Se  Se157  1  0.41843803  0.24653855  0.45336452  1
  Se  Se158  1  0.43321345  0.23542016  0.93969004  1
  Se  Se159  1  0.42011969  0.57949088  0.45402638  1
  Se  Se160  1  0.41649608  0.58887489  0.94220819  1
  Se  Se161  1  0.41880383  0.91501280  0.44699431  1
  Se  Se162  1  0.40707666  0.92092333  0.93923703  1
  Se  Se163  1  0.74513893  0.26020330  0.44912186  1
  Se  Se164  1  0.74388634  0.25121725  0.93889758  1
  Se  Se165  1  0.74002703  0.59233990  0.44593348  1
  Se  Se166  1  0.75334560  0.57723472  0.94212546  1
  Se  Se167  1  0.74265919  0.93089218  0.44065278  1
  Se  Se168  1  0.75141839  0.91109932  0.95044321  1
  Se  Se169  1  0.25305502  0.07209347  0.44233071  1
  Se  Se170  1  0.24971361  0.09057532  0.94127891  1
  Se  Se171  1  0.25136534  0.41237408  0.44998649  1
  Se  Se172  1  0.25835844  0.41488874  0.93516105  1
  Se  Se173  1  0.25374016  0.74183650  0.44848747  1
  Se  Se174  1  0.26407681  0.74363939  0.93974951  1
  Se  Se175  1  0.57842057  0.08894844  0.44704184  1
  Se  Se176  1  0.57926540  0.07949545  0.95239708  1
  Se  Se177  1  0.57839185  0.42243456  0.45176020  1
  Se  Se178  1  0.57937207  0.41637477  0.93810962  1
  Se  Se179  1  0.58688097  0.75252471  0.45688205  1
  Se  Se180  1  0.58780025  0.73636895  0.93333437  1
  Se  Se181  1  0.91639938  0.08771171  0.44529545  1
  Se  Se182  1  0.91950857  0.08100793  0.94236252  1
  Se  Se183  1  0.92456694  0.41480407  0.43355943  1
  Se  Se184  1  0.91345304  0.42083455  0.95453243  1
  Se  Se185  1  0.92433615  0.74139955  0.44142703  1
  Se  Se186  1  0.91493005  0.75299125  0.94688475  1
  Se  Se187  1  0.24580321  0.24481518  0.31585909  1
  Se  Se188  1  0.24525014  0.24299873  0.80044434  1
  Se  Se189  1  0.24247627  0.57189436  0.31085250  1
  Se  Se190  1  0.26035368  0.58721997  0.79780650  1
  Se  Se191  1  0.25754578  0.91682243  0.30529129  1
  Se  Se192  1  0.25049115  0.91200157  0.80108390  1
  Se  Se193  1  0.57720300  0.24711442  0.31211254  1
  Se  Se194  1  0.58619032  0.24934891  0.79886155  1
  Se  Se195  1  0.57121785  0.57844726  0.30988445  1
  Se  Se196  1  0.58800603  0.57807716  0.79831903  1
  Se  Se197  1  0.58644390  0.92262541  0.30707934  1
  Se  Se198  1  0.57516312  0.91162884  0.81124871  1
  Se  Se199  1  0.91686782  0.24824208  0.30158085  1
  Se  Se200  1  0.91173669  0.24178354  0.81605029  1
  Se  Se201  1  0.91555556  0.59156643  0.29489580  1
  Se  Se202  1  0.91643764  0.57849739  0.80917565  1
  Se  Se203  1  0.92316799  0.91797622  0.30542211  1
  Se  Se204  1  0.91514210  0.91952232  0.79953452  1
  Se  Se205  1  0.08648218  0.08028399  0.30220858  1
  Se  Se206  1  0.06673588  0.07093782  0.80238164  1
  Se  Se207  1  0.06930426  0.39741611  0.29646829  1
  Se  Se208  1  0.09388089  0.42548732  0.80906191  1
  Se  Se209  1  0.09023888  0.74965136  0.30839539  1
  Se  Se210  1  0.08942321  0.75752784  0.81231249  1
  Se  Se211  1  0.41378883  0.08095806  0.30539895  1
  Se  Se212  1  0.41571472  0.08212616  0.80003291  1
  Se  Se213  1  0.41658840  0.41811087  0.31086485  1
  Se  Se214  1  0.41555384  0.41177084  0.79886268  1
  Se  Se215  1  0.42627694  0.75491370  0.31341251  1
  Se  Se216  1  0.43038747  0.75512388  0.79227629  1
  Se  Se217  1  0.74807762  0.08542559  0.30591168  1
  Se  Se218  1  0.75243245  0.08738226  0.81370889  1
  Se  Se219  1  0.75595141  0.42701554  0.30778263  1
  Se  Se220  1  0.75020098  0.41109598  0.80287082  1
  Se  Se221  1  0.75883984  0.76105070  0.31614192  1
  Se  Se222  1  0.75127839  0.75025102  0.80259679  1
  Se  Se223  1  0.25492868  0.08538484  0.19449369  1
  Se  Se224  1  0.24101846  0.09083116  0.70322435  1
  Se  Se225  1  0.23755322  0.43026720  0.19424923  1
  Se  Se226  1  0.25412786  0.41163147  0.69660220  1
  Se  Se227  1  0.24416886  0.75948259  0.18731929  1
  Se  Se228  1  0.25007447  0.74498131  0.69497984  1
  Se  Se229  1  0.58837209  0.08110033  0.20040999  1
  Se  Se230  1  0.57889259  0.08771955  0.68574499  1
  Se  Se231  1  0.56813095  0.41383197  0.18893404  1
  Se  Se232  1  0.58990147  0.40868111  0.69749755  1
  Se  Se233  1  0.57398377  0.75794579  0.19553271  1
  Se  Se234  1  0.57391302  0.75293346  0.70258117  1
  Se  Se235  1  0.91907082  0.07852712  0.19799356  1
  Se  Se236  1  0.91626653  0.08323734  0.69630965  1
  Se  Se237  1  0.91433426  0.41343447  0.19438876  1
  Se  Se238  1  0.91301660  0.42513926  0.69147450  1
  Se  Se239  1  0.91577808  0.75110625  0.19561709  1
  Se  Se240  1  0.91389287  0.75817591  0.68539697  1
  Se  Se241  1  0.08854761  0.24657521  0.19594141  1
  Se  Se242  1  0.08696221  0.24106955  0.69135959  1
  Se  Se243  1  0.08248374  0.58710603  0.20536862  1
  Se  Se244  1  0.09402600  0.57836826  0.68683498  1
  Se  Se245  1  0.08639721  0.91744367  0.19795741  1
  Se  Se246  1  0.08138412  0.91460531  0.69446647  1
  Se  Se247  1  0.42428001  0.24246189  0.19055621  1
  Se  Se248  1  0.41595152  0.25291173  0.69663762  1
  Se  Se249  1  0.41614104  0.58349516  0.19161446  1
  Se  Se250  1  0.41902178  0.57895245  0.69541238  1
  Se  Se251  1  0.41135960  0.92263219  0.20080541  1
  Se  Se252  1  0.40677463  0.93127744  0.69837834  1
  Se  Se253  1  0.75645551  0.24133015  0.18710024  1
  Se  Se254  1  0.75299238  0.25086480  0.69965532  1
  Se  Se255  1  0.74578197  0.57865371  0.18701458  1
  Se  Se256  1  0.75025800  0.59120943  0.70208932  1
  Se  Se257  1  0.74819550  0.91587867  0.19937603  1
  Se  Se258  1  0.75189207  0.90924848  0.68596416  1
