# generated using pymatgen
data_In86Cu29Se144
_symmetry_space_group_name_H-M   'P 1'
_cell_length_a   17.58104291
_cell_length_b   17.57952486
_cell_length_c   23.44353645
_cell_angle_alpha   90.00924171
_cell_angle_beta   89.96807083
_cell_angle_gamma   89.99945788
_symmetry_Int_Tables_number   1
_chemical_formula_structural   In86Cu29Se144
_chemical_formula_sum   'In86 Cu29 Se144'
_cell_volume   7245.60774780
_cell_formula_units_Z   1
loop_
 _symmetry_equiv_pos_site_id
 _symmetry_equiv_pos_as_xyz
  1  'x, y, z'
loop_
 _atom_site_type_symbol
 _atom_site_label
 _atom_site_symmetry_multiplicity
 _atom_site_fract_x
 _atom_site_fract_y
 _atom_site_fract_z
 _atom_site_occupancy
  In  In0  1  -0.01913978  0.16299656  0.12449170  1
  In  In1  1  -0.01368063  0.17580893  0.63461589  1
  In  In2  1  -0.00333707  0.50969781  0.12209256  1
  In  In3  1  0.00096247  0.49435290  0.62863131  1
  In  In4  1  0.00229790  0.84677042  0.12691430  1
  In  In5  1  0.00052178  0.83495690  0.62432644  1
  In  In6  1  0.34785269  0.15764365  0.13200184  1
  In  In7  1  0.34318023  0.14777255  0.62199237  1
  In  In8  1  0.33797188  0.48578364  0.12943440  1
  In  In9  1  0.33729203  0.50663857  0.61889750  1
  In  In10  1  0.34590703  0.84305590  0.12920240  1
  In  In11  1  0.33506668  0.84933660  0.60817029  1
  In  In12  1  0.66839549  0.16627550  0.13112330  1
  In  In13  1  0.66612082  0.17438137  0.61382568  1
  In  In14  1  0.65450370  0.48431571  0.11822341  1
  In  In15  1  0.65398367  0.49074206  0.62239190  1
  In  In16  1  0.68009757  0.83097075  0.12725278  1
  In  In17  1  0.67171480  0.83544981  0.61198606  1
  In  In18  1  0.16138629  -0.00108458  0.37144971  1
  In  In19  1  0.16813687  -0.00526557  0.86354675  1
  In  In20  1  0.18402907  0.32846660  0.38068522  1
  In  In21  1  0.16474605  0.34518252  0.87050424  1
  In  In22  1  0.15942060  0.66638946  0.39089993  1
  In  In23  1  0.16600427  0.67686684  0.86948314  1
  In  In24  1  0.49793940  0.00356927  0.37443192  1
  In  In25  1  0.50529374  0.03343600  0.86459580  1
  In  In26  1  0.50204709  0.33518991  0.37912753  1
  In  In27  1  0.51348059  0.32128265  0.88149070  1
  In  In28  1  0.49833477  0.66902731  0.38110473  1
  In  In29  1  0.48942189  0.65430432  0.87971135  1
  In  In30  1  0.83221255  0.00410051  0.37849881  1
  In  In31  1  0.83444621  -0.00655388  0.88525988  1
  In  In32  1  0.81019403  0.32900947  0.37472729  1
  In  In33  1  0.82849852  0.32954277  0.87271502  1
  In  In34  1  0.84223504  0.67752242  0.37963534  1
  In  In35  1  0.83793381  0.66136204  0.87556406  1
  In  In36  1  0.00060224  0.15272827  0.37769004  1
  In  In37  1  -0.00889189  0.15446781  0.86671055  1
  In  In38  1  0.00100825  0.51252545  0.38118431  1
  In  In39  1  -0.01274405  0.49167406  0.86248696  1
  In  In40  1  -0.01263913  0.84469972  0.39221533  1
  In  In41  1  -0.00296329  0.82844784  0.86495975  1
  In  In42  1  0.34617598  0.18144569  0.37088562  1
  In  In43  1  0.35676935  0.16585479  0.87029062  1
  In  In44  1  0.34653161  0.48685245  0.38613926  1
  In  In45  1  0.34957750  0.50524040  0.88170070  1
  In  In46  1  0.32224924  0.85087623  0.38795791  1
  In  In47  1  0.32569500  0.83271441  0.87328466  1
  In  In48  1  0.66859992  0.16781793  0.37880287  1
  In  In49  1  0.65321750  0.17112973  0.88527253  1
  In  In50  1  0.65202561  0.48238907  0.36430159  1
  In  In51  1  0.67933771  0.48551261  0.88137801  1
  In  In52  1  0.65328364  0.85031520  0.38377326  1
  In  In53  1  0.67279190  0.85478076  0.87877085  1
  In  In54  1  0.16788541  -0.00157246  0.13517345  1
  In  In55  1  0.17360196  -0.01076310  0.62488568  1
  In  In56  1  0.17497840  0.34284790  0.13079217  1
  In  In57  1  0.15102247  0.32690773  0.62337185  1
  In  In58  1  0.16075417  0.66472060  0.12722658  1
  In  In59  1  0.15259334  0.66433695  0.61203304  1
  In  In60  1  0.49803332  0.01004217  0.13215333  1
  In  In61  1  0.49510925  -0.00044227  0.61238769  1
  In  In62  1  0.50909355  0.33178703  0.13078745  1
  In  In63  1  0.50492233  0.33042310  0.62087709  1
  In  In64  1  0.50578063  0.66505481  0.12175878  1
  In  In65  1  0.49802193  0.66663783  0.61733720  1
  In  In66  1  0.83190299  0.00245536  0.12897531  1
  In  In67  1  0.83578404  0.01073324  0.62289536  1
  In  In68  1  0.81378117  0.31117184  0.11367644  1
  In  In69  1  0.83154395  0.33062468  0.62743456  1
  In  In70  1  0.83492240  0.66757852  0.11330215  1
  In  In71  1  0.83667040  0.67905272  0.62384676  1
  In  In72  1  0.32456960  0.32641641  0.74470017  1
  In  In73  1  0.00043208  0.33202179  0.24629182  1
  In  In74  1  0.67047931  0.66246833  0.74897906  1
  In  In75  1  0.66626949  0.00838346  0.74772556  1
  In  In76  1  0.00130308  0.67206487  0.25429421  1
  In  In77  1  0.50469072  0.83458555  -0.00020344  1
  In  In78  1  0.32864042  0.66819632  0.74547540  1
  In  In79  1  0.16712973  0.16651521  -0.00381652  1
  In  In80  1  0.82711380  0.49946020  0.49708666  1
  In  In81  1  0.17042210  0.16294236  0.50269960  1
  In  In82  1  0.33062872  0.66867498  0.25150708  1
  In  In83  1  0.66762192  0.66797193  0.25427274  1
  In  In84  1  0.16911788  0.50086305  0.00036976  1
  In  In85  1  0.16717588  0.83086307  -0.00639254  1
  Cu  Cu86  1  0.17721934  0.49268837  0.26095536  1
  Cu  Cu87  1  -0.00714710  0.66471337  -0.00972003  1
  Cu  Cu88  1  0.83390547  0.49665728  0.75184220  1
  Cu  Cu89  1  0.83145411  0.16229920  0.25138814  1
  Cu  Cu90  1  0.33876058  0.33821488  0.50150990  1
  Cu  Cu91  1  0.49824971  0.84412466  0.25622384  1
  Cu  Cu92  1  0.34099460  0.00147312  -0.00130577  1
  Cu  Cu93  1  -0.00424981  0.00252338  0.50527274  1
  Cu  Cu94  1  0.50660015  0.48478701  0.75244175  1
  Cu  Cu95  1  0.33120840  0.67090891  0.49935724  1
  Cu  Cu96  1  0.66877710  0.66638686  -0.00122224  1
  Cu  Cu97  1  0.16521977  0.83288836  0.74129899  1
  Cu  Cu98  1  0.83000216  0.16791336  0.75016071  1
  Cu  Cu99  1  0.66773416  0.00057754  0.49609594  1
  Cu  Cu100  1  0.16983416  0.16528670  0.25466187  1
  Cu  Cu101  1  0.16653893  0.84115714  0.25891818  1
  Cu  Cu102  1  -0.00428792  0.33491927  0.50552552  1
  Cu  Cu103  1  0.66543700  0.33345360  0.00324006  1
  Cu  Cu104  1  0.50558916  0.17143454  0.25430413  1
  Cu  Cu105  1  0.83556421  0.84405838  0.25436608  1
  Cu  Cu106  1  0.49647468  0.83792700  0.73972632  1
  Cu  Cu107  1  0.66978110  0.66157197  0.49925784  1
  Cu  Cu108  1  0.15938143  0.50353755  0.74626554  1
  Cu  Cu109  1  0.16260039  0.16350340  0.74403506  1
  Cu  Cu110  1  0.84070937  0.83691313  0.75091535  1
  Cu  Cu111  1  0.82597702  0.49566605  0.24278634  1
  Cu  Cu112  1  -0.00914078  0.00153315  0.00135872  1
  Cu  Cu113  1  -0.00819073  0.33671650  -0.00852100  1
  Cu  Cu114  1  0.34661851  0.32571540  0.00524099  1
  Se  Se115  1  0.07996757  0.07627481  0.05954908  1
  Se  Se116  1  0.07411300  0.08464632  0.56610625  1
  Se  Se117  1  0.07535810  0.40675945  0.05714017  1
  Se  Se118  1  0.08222166  0.41815978  0.55349248  1
  Se  Se119  1  0.07246841  0.74151562  0.05498963  1
  Se  Se120  1  0.08918425  0.76774883  0.55105028  1
  Se  Se121  1  0.42193521  0.08393529  0.05354625  1
  Se  Se122  1  0.41114905  0.07762194  0.54166883  1
  Se  Se123  1  0.42412098  0.41316764  0.05880812  1
  Se  Se124  1  0.42233258  0.42059624  0.55621943  1
  Se  Se125  1  0.40816929  0.74615630  0.05825289  1
  Se  Se126  1  0.41840274  0.75250282  0.55094794  1
  Se  Se127  1  0.77167446  0.10646028  0.06531728  1
  Se  Se128  1  0.74924039  0.08331845  0.55198832  1
  Se  Se129  1  0.75394202  0.41881118  0.05201272  1
  Se  Se130  1  0.73990206  0.40568007  0.55405995  1
  Se  Se131  1  0.75078121  0.75355150  0.04903898  1
  Se  Se132  1  0.75472526  0.74767913  0.54780139  1
  Se  Se133  1  0.25571824  0.25262471  0.06156694  1
  Se  Se134  1  0.25929494  0.25672355  0.56327276  1
  Se  Se135  1  0.25656148  0.58732263  0.06463197  1
  Se  Se136  1  0.24988002  0.58470601  0.55245014  1
  Se  Se137  1  0.25585680  0.92359640  0.05653916  1
  Se  Se138  1  0.24747966  0.92826625  0.54229737  1
  Se  Se139  1  0.58626329  0.24773762  0.05900926  1
  Se  Se140  1  0.56879523  0.24099480  0.54720290  1
  Se  Se141  1  0.58602031  0.58415753  0.05265861  1
  Se  Se142  1  0.58421139  0.58198587  0.55322036  1
  Se  Se143  1  0.58753553  0.91994967  0.06643586  1
  Se  Se144  1  0.58369514  0.91538583  0.54812798  1
  Se  Se145  1  0.91783031  0.24949854  0.04892288  1
  Se  Se146  1  0.91312172  0.24957442  0.55572269  1
  Se  Se147  1  0.91537936  0.57922578  0.04685110  1
  Se  Se148  1  0.91772904  0.58394594  0.55941064  1
  Se  Se149  1  0.91334418  0.91627069  0.05761622  1
  Se  Se150  1  0.91186487  0.91773689  0.55758999  1
  Se  Se151  1  0.07728759  0.25543909  0.44304598  1
  Se  Se152  1  0.07742389  0.25719435  0.93589358  1
  Se  Se153  1  0.08300745  0.57665217  0.45662838  1
  Se  Se154  1  0.07929938  0.58536574  0.93435811  1
  Se  Se155  1  0.08392030  0.92705686  0.44949273  1
  Se  Se156  1  0.07537934  0.92522953  0.94021525  1
  Se  Se157  1  0.42025326  0.25131621  0.45059126  1
  Se  Se158  1  0.42503489  0.24138648  0.94966853  1
  Se  Se159  1  0.41694320  0.58571531  0.44969575  1
  Se  Se160  1  0.41949440  0.58095798  0.95815346  1
  Se  Se161  1  0.43846948  0.90123206  0.44172179  1
  Se  Se162  1  0.41593173  0.92050996  0.93523016  1
  Se  Se163  1  0.75687610  0.24056386  0.45055670  1
  Se  Se164  1  0.74701383  0.25169901  0.94582760  1
  Se  Se165  1  0.74120376  0.58602262  0.42995351  1
  Se  Se166  1  0.75197024  0.58341670  0.94400644  1
  Se  Se167  1  0.75568864  0.91437414  0.44785293  1
  Se  Se168  1  0.74692160  0.92226586  0.95675167  1
  Se  Se169  1  0.25638465  0.08610859  0.43326680  1
  Se  Se170  1  0.25661143  0.07539688  0.93641684  1
  Se  Se171  1  0.24781322  0.41899731  0.45342471  1
  Se  Se172  1  0.26363107  0.40480596  0.94513569  1
  Se  Se173  1  0.24566909  0.75594496  0.45093091  1
  Se  Se174  1  0.26286606  0.73340269  0.94547314  1
  Se  Se175  1  0.58235680  0.08367776  0.44487178  1
  Se  Se176  1  0.59631787  0.06035787  0.94577960  1
  Se  Se177  1  0.58059283  0.42356629  0.44750338  1
  Se  Se178  1  0.58235417  0.41744619  0.94821813  1
  Se  Se179  1  0.58688859  0.74807288  0.44682784  1
  Se  Se180  1  0.59124169  0.74409874  0.93413624  1
  Se  Se181  1  0.91385882  0.08634407  0.45105154  1
  Se  Se182  1  0.91439333  0.08961967  0.94750976  1
  Se  Se183  1  0.91824974  0.40731034  0.43645344  1
  Se  Se184  1  0.90975462  0.42081633  0.93978225  1
  Se  Se185  1  0.93529560  0.73268033  0.45173289  1
  Se  Se186  1  0.91546960  0.75583301  0.94000358  1
  Se  Se187  1  0.25267042  0.25357599  0.30162040  1
  Se  Se188  1  0.24022538  0.23746366  0.81257434  1
  Se  Se189  1  0.24683657  0.58246101  0.31918584  1
  Se  Se190  1  0.24657781  0.57153180  0.80985974  1
  Se  Se191  1  0.25626443  0.92358553  0.30507248  1
  Se  Se192  1  0.25242510  0.90983465  0.79763721  1
  Se  Se193  1  0.58720157  0.25314608  0.30978642  1
  Se  Se194  1  0.57406998  0.23472849  0.80591844  1
  Se  Se195  1  0.56757679  0.58016087  0.30396470  1
  Se  Se196  1  0.58055695  0.57357197  0.81078129  1
  Se  Se197  1  0.58798439  0.92598405  0.30311419  1
  Se  Se198  1  0.57403923  0.91357037  0.80541793  1
  Se  Se199  1  0.91378161  0.24486670  0.31067527  1
  Se  Se200  1  0.91563339  0.25037884  0.80360287  1
  Se  Se201  1  0.90458079  0.57518627  0.30465447  1
  Se  Se202  1  0.91548760  0.58907020  0.79780749  1
  Se  Se203  1  0.92073468  0.92023166  0.31122281  1
  Se  Se204  1  0.91538364  0.92506299  0.80691897  1
  Se  Se205  1  0.08095454  0.08305019  0.30143501  1
  Se  Se206  1  0.08199108  0.07889342  0.79998531  1
  Se  Se207  1  0.08555722  0.41786017  0.31519945  1
  Se  Se208  1  0.08008065  0.41466051  0.79754521  1
  Se  Se209  1  0.08741741  0.75990852  0.31714062  1
  Se  Se210  1  0.08402198  0.74893182  0.79657775  1
  Se  Se211  1  0.41808594  0.08756338  0.30354455  1
  Se  Se212  1  0.40027152  0.06955484  0.79449324  1
  Se  Se213  1  0.41265988  0.41036061  0.30862142  1
  Se  Se214  1  0.41712548  0.41179633  0.80968509  1
  Se  Se215  1  0.41720519  0.76004789  0.31206928  1
  Se  Se216  1  0.42599889  0.75405636  0.80527717  1
  Se  Se217  1  0.74815843  0.08193305  0.30748739  1
  Se  Se218  1  0.75420803  0.08918822  0.81488824  1
  Se  Se219  1  0.74554838  0.41188046  0.29651794  1
  Se  Se220  1  0.74721663  0.41237439  0.80045186  1
  Se  Se221  1  0.75486666  0.76200956  0.31285531  1
  Se  Se222  1  0.75263209  0.76110355  0.80888300  1
  Se  Se223  1  0.25320157  0.08370127  0.19784866  1
  Se  Se224  1  0.24808087  0.08326818  0.69183759  1
  Se  Se225  1  0.25833645  0.41200828  0.20533288  1
  Se  Se226  1  0.24141171  0.42549945  0.68637262  1
  Se  Se227  1  0.23891277  0.76299662  0.19129350  1
  Se  Se228  1  0.24792917  0.75636570  0.67985962  1
  Se  Se229  1  0.58642559  0.08456122  0.20138250  1
  Se  Se230  1  0.57664310  0.08812901  0.68303441  1
  Se  Se231  1  0.58760595  0.41778277  0.20021203  1
  Se  Se232  1  0.58705971  0.40440362  0.69697597  1
  Se  Se233  1  0.57407575  0.76048490  0.19476721  1
  Se  Se234  1  0.58219286  0.75565276  0.68798661  1
  Se  Se235  1  0.91911553  0.07935774  0.20194730  1
  Se  Se236  1  0.91416239  0.08039858  0.70120352  1
  Se  Se237  1  0.91049581  0.41851863  0.18393334  1
  Se  Se238  1  0.91563183  0.41280213  0.69572815  1
  Se  Se239  1  0.90784722  0.75642669  0.19250583  1
  Se  Se240  1  0.91991755  0.75126248  0.69699945  1
  Se  Se241  1  0.09101291  0.23922847  0.18660245  1
  Se  Se242  1  0.07782096  0.25372868  0.70143046  1
  Se  Se243  1  0.09299030  0.56965680  0.20062542  1
  Se  Se244  1  0.08134930  0.58870889  0.69174474  1
  Se  Se245  1  0.08021104  0.91901564  0.20257144  1
  Se  Se246  1  0.08030369  0.92092800  0.69460766  1
  Se  Se247  1  0.42002777  0.25090894  0.19825150  1
  Se  Se248  1  0.42096374  0.24084817  0.69107282  1
  Se  Se249  1  0.42279322  0.58061794  0.19295653  1
  Se  Se250  1  0.42971235  0.57414141  0.69621338  1
  Se  Se251  1  0.41439500  0.92680440  0.20226736  1
  Se  Se252  1  0.41477658  0.91907444  0.68625957  1
  Se  Se253  1  0.75018932  0.25219129  0.20189167  1
  Se  Se254  1  0.74616109  0.24478678  0.69239608  1
  Se  Se255  1  0.75189494  0.58326436  0.18517864  1
  Se  Se256  1  0.75663656  0.57322421  0.68540293  1
  Se  Se257  1  0.74840320  0.91970059  0.19908733  1
  Se  Se258  1  0.75343303  0.91012226  0.69097230  1
