# generated using pymatgen
data_In86Cu29Se144
_symmetry_space_group_name_H-M   'P 1'
_cell_length_a   17.57252119
_cell_length_b   17.57169933
_cell_length_c   23.43147192
_cell_angle_alpha   90.03363427
_cell_angle_beta   89.99834880
_cell_angle_gamma   90.00349575
_symmetry_Int_Tables_number   1
_chemical_formula_structural   In86Cu29Se144
_chemical_formula_sum   'In86 Cu29 Se144'
_cell_volume   7235.14658164
_cell_formula_units_Z   1
loop_
 _symmetry_equiv_pos_site_id
 _symmetry_equiv_pos_as_xyz
  1  'x, y, z'
loop_
 _atom_site_type_symbol
 _atom_site_label
 _atom_site_symmetry_multiplicity
 _atom_site_fract_x
 _atom_site_fract_y
 _atom_site_fract_z
 _atom_site_occupancy
  In  In0  1  0.00245216  0.16000588  0.13972106  1
  In  In1  1  0.01138385  0.17625554  0.61239241  1
  In  In2  1  -0.00070904  0.50709435  0.13497550  1
  In  In3  1  0.00178925  0.50159839  0.62101110  1
  In  In4  1  -0.00234458  0.83065153  0.13323477  1
  In  In5  1  -0.00379227  0.83672143  0.62629297  1
  In  In6  1  0.32478668  0.17266078  0.13815669  1
  In  In7  1  0.34022029  0.17473331  0.61450638  1
  In  In8  1  0.33437028  0.50049630  0.12985446  1
  In  In9  1  0.32318521  0.50678011  0.62804938  1
  In  In10  1  0.34101541  0.82263252  0.13732896  1
  In  In11  1  0.33678566  0.81637836  0.62484925  1
  In  In12  1  0.66864844  0.16580399  0.12653186  1
  In  In13  1  0.67586200  0.17606168  0.61616689  1
  In  In14  1  0.67337902  0.50758237  0.11291130  1
  In  In15  1  0.66782752  0.48820530  0.62669948  1
  In  In16  1  0.66108272  0.82401034  0.11492964  1
  In  In17  1  0.66698097  0.83168063  0.61999701  1
  In  In18  1  0.17766977  0.00011292  0.36375820  1
  In  In19  1  0.16973717  -0.00488376  0.88090714  1
  In  In20  1  0.15875230  0.33979658  0.37317245  1
  In  In21  1  0.16813805  0.33618495  0.86508146  1
  In  In22  1  0.15460058  0.65086316  0.35588338  1
  In  In23  1  0.16465026  0.67197699  0.86230871  1
  In  In24  1  0.49079815  0.00507943  0.38238484  1
  In  In25  1  0.49318715  -0.00635263  0.88029470  1
  In  In26  1  0.48462375  0.33341344  0.37821902  1
  In  In27  1  0.50677742  0.34105378  0.86502674  1
  In  In28  1  0.49176274  0.67714791  0.38059313  1
  In  In29  1  0.47656487  0.67673244  0.88674535  1
  In  In30  1  0.83940275  -0.00092102  0.37732814  1
  In  In31  1  0.82833216  0.00030874  0.87941249  1
  In  In32  1  0.85581297  0.31696785  0.38824162  1
  In  In33  1  0.84210893  0.34706356  0.86423124  1
  In  In34  1  0.84738354  0.65615095  0.38612603  1
  In  In35  1  0.84036863  0.65680029  0.87828402  1
  In  In36  1  0.00068465  0.17170900  0.37450847  1
  In  In37  1  -0.01122629  0.16949405  0.87157586  1
  In  In38  1  0.00609965  0.49763916  0.37404440  1
  In  In39  1  -0.00100799  0.49890084  0.87034250  1
  In  In40  1  -0.00159664  0.82246934  0.36410954  1
  In  In41  1  0.00586249  0.81512114  0.87994149  1
  In  In42  1  0.32776934  0.16781097  0.37914256  1
  In  In43  1  0.32213368  0.16805333  0.87166192  1
  In  In44  1  0.31203661  0.48170982  0.35366021  1
  In  In45  1  0.34164731  0.51025310  0.86956856  1
  In  In46  1  0.33084392  0.83616336  0.36846967  1
  In  In47  1  0.34068604  0.82296543  0.87702610  1
  In  In48  1  0.67151634  0.16082833  0.38486324  1
  In  In49  1  0.65893078  0.17379828  0.87057577  1
  In  In50  1  0.67542393  0.51169180  0.37794058  1
  In  In51  1  0.66985348  0.49505653  0.87426083  1
  In  In52  1  0.66610838  0.83461690  0.38319861  1
  In  In53  1  0.66407240  0.83431388  0.87793900  1
  In  In54  1  0.15887696  -0.00321332  0.14200559  1
  In  In55  1  0.15664708  0.00313301  0.61893290  1
  In  In56  1  0.16569131  0.34348540  0.13950394  1
  In  In57  1  0.16457657  0.33469180  0.62183848  1
  In  In58  1  0.16981308  0.66264863  0.15412306  1
  In  In59  1  0.17923193  0.66030986  0.63107242  1
  In  In60  1  0.50590398  -0.01292567  0.12640424  1
  In  In61  1  0.49563523  -0.00115467  0.61599578  1
  In  In62  1  0.48691491  0.33724668  0.12564402  1
  In  In63  1  0.50594097  0.33159479  0.62888109  1
  In  In64  1  0.48937016  0.66018805  0.10818613  1
  In  In65  1  0.48620763  0.66880276  0.62580886  1
  In  In66  1  0.86569155  -0.02323302  0.13526805  1
  In  In67  1  0.83365236  -0.00155648  0.61561764  1
  In  In68  1  0.83349846  0.34365468  0.12668409  1
  In  In69  1  0.83655805  0.33822717  0.62074758  1
  In  In70  1  0.83834139  0.67070487  0.11985146  1
  In  In71  1  0.84790086  0.67828113  0.61682168  1
  In  In72  1  0.49929871  0.16656193  -0.00127695  1
  In  In73  1  0.15904200  0.16986541  0.01936719  1
  In  In74  1  0.16700266  0.83373728  0.49333271  1
  In  In75  1  0.66692935  0.66556872  0.24643268  1
  In  In76  1  0.66981811  0.33484540  0.25180319  1
  In  In77  1  0.49874230  0.50382782  0.50317646  1
  In  In78  1  0.17025785  0.50639839  0.01265536  1
  In  In79  1  0.67184110  -0.00133182  0.25603694  1
  In  In80  1  0.00099261  0.00096335  0.74543174  1
  In  In81  1  0.33220182  -0.00301557  0.75232281  1
  In  In82  1  0.16312587  0.83027272  0.00586680  1
  In  In83  1  0.82979485  0.16199690  0.00470156  1
  In  In84  1  0.66343432  0.00328227  0.75734105  1
  In  In85  1  0.65995264  0.65881500  0.74827133  1
  Cu  Cu86  1  0.48997848  0.83335964  0.24938134  1
  Cu  Cu87  1  0.00154649  0.33824099  0.49856134  1
  Cu  Cu88  1  0.49191071  0.16544674  0.25897766  1
  Cu  Cu89  1  0.83534598  0.83141916  0.75014543  1
  Cu  Cu90  1  0.67053935  0.33912667  -0.00468745  1
  Cu  Cu91  1  0.50202808  0.17323940  0.74275443  1
  Cu  Cu92  1  0.67472061  -0.01279261  0.00295431  1
  Cu  Cu93  1  0.32422074  0.33400617  0.49645639  1
  Cu  Cu94  1  0.66475104  0.00058620  0.49972757  1
  Cu  Cu95  1  0.32890753  0.66155448  0.49831560  1
  Cu  Cu96  1  -0.00440539  0.33148048  -0.00555004  1
  Cu  Cu97  1  0.16143408  0.49597167  0.74564623  1
  Cu  Cu98  1  0.83805798  0.50233444  0.74762747  1
  Cu  Cu99  1  -0.00127456  0.00452144  0.49538535  1
  Cu  Cu100  1  0.33288998  -0.00285872  0.49273786  1
  Cu  Cu101  1  0.16635844  0.17230540  0.74390497  1
  Cu  Cu102  1  0.83370686  0.82368052  0.25115791  1
  Cu  Cu103  1  0.33808927  0.34565247  -0.00098189  1
  Cu  Cu104  1  0.66452394  0.66283057  -0.00829635  1
  Cu  Cu105  1  0.49230913  0.49961622  0.75043466  1
  Cu  Cu106  1  0.67406877  0.67228313  0.50106258  1
  Cu  Cu107  1  0.16617576  0.16969850  0.25827168  1
  Cu  Cu108  1  0.00017613  0.66085841  0.00446332  1
  Cu  Cu109  1  0.66695044  0.33395254  0.50334998  1
  Cu  Cu110  1  0.84502241  0.49535746  0.25595491  1
  Cu  Cu111  1  0.00564936  0.66797745  0.49441516  1
  Cu  Cu112  1  0.33301784  -0.00300703  0.00717097  1
  Cu  Cu113  1  0.49727710  0.50273129  0.24581973  1
  Cu  Cu114  1  0.83661444  0.18227799  0.74081969  1
  Se  Se115  1  0.06920190  0.06812368  0.06323038  1
  Se  Se116  1  0.08755194  0.08589122  0.54463244  1
  Se  Se117  1  0.07528298  0.40772500  0.06012652  1
  Se  Se118  1  0.08644881  0.42043983  0.55181518  1
  Se  Se119  1  0.08298659  0.73303693  0.06892767  1
  Se  Se120  1  0.08285793  0.74622553  0.55957493  1
  Se  Se121  1  0.40990096  0.08379063  0.06502343  1
  Se  Se122  1  0.41463057  0.08220255  0.54804715  1
  Se  Se123  1  0.41945272  0.42668713  0.05421234  1
  Se  Se124  1  0.40780768  0.41080612  0.55967546  1
  Se  Se125  1  0.41673104  0.76528055  0.05413667  1
  Se  Se126  1  0.41588615  0.74629173  0.54680687  1
  Se  Se127  1  0.74782411  0.06669959  0.06688018  1
  Se  Se128  1  0.75145132  0.08429952  0.55041804  1
  Se  Se129  1  0.75660008  0.41717501  0.05024131  1
  Se  Se130  1  0.75130528  0.42109273  0.55114846  1
  Se  Se131  1  0.74771421  0.74211669  0.05025177  1
  Se  Se132  1  0.75755659  0.75867046  0.55199944  1
  Se  Se133  1  0.25877465  0.26688168  0.06158619  1
  Se  Se134  1  0.24387781  0.24839602  0.55108242  1
  Se  Se135  1  0.25445779  0.60343002  0.06909741  1
  Se  Se136  1  0.24456420  0.58000883  0.55132567  1
  Se  Se137  1  0.24901198  0.92312577  0.06739881  1
  Se  Se138  1  0.25761067  0.91923683  0.55944227  1
  Se  Se139  1  0.59181063  0.25901541  0.05741478  1
  Se  Se140  1  0.57872919  0.25154631  0.55290652  1
  Se  Se141  1  0.58165523  0.57966461  0.04594243  1
  Se  Se142  1  0.59236601  0.59344969  0.56316498  1
  Se  Se143  1  0.57829297  0.91157711  0.04929452  1
  Se  Se144  1  0.58334095  0.91466325  0.55263164  1
  Se  Se145  1  0.92441453  0.25157812  0.06125309  1
  Se  Se146  1  0.91608170  0.25313608  0.55037112  1
  Se  Se147  1  0.91790664  0.57561581  0.05752743  1
  Se  Se148  1  0.92124619  0.58612224  0.54998239  1
  Se  Se149  1  0.91378581  0.89386940  0.05421487  1
  Se  Se150  1  0.92257910  0.91691794  0.55137421  1
  Se  Se151  1  0.08408629  0.25359462  0.44480195  1
  Se  Se152  1  0.08211771  0.25178288  0.94081479  1
  Se  Se153  1  0.08968134  0.58469338  0.44198578  1
  Se  Se154  1  0.08379013  0.58769114  0.94170760  1
  Se  Se155  1  0.07682122  0.92256396  0.43325486  1
  Se  Se156  1  0.07270553  0.92194744  0.94556533  1
  Se  Se157  1  0.41297867  0.24852436  0.45016773  1
  Se  Se158  1  0.40901477  0.25668249  0.93908992  1
  Se  Se159  1  0.40544478  0.57765883  0.43634621  1
  Se  Se160  1  0.41039036  0.57827567  0.95157036  1
  Se  Se161  1  0.41409065  0.90747313  0.44393060  1
  Se  Se162  1  0.41010527  0.91489770  0.94881618  1
  Se  Se163  1  0.75104073  0.25084466  0.44949964  1
  Se  Se164  1  0.74971996  0.25496784  0.93735065  1
  Se  Se165  1  0.75507762  0.58204851  0.45373828  1
  Se  Se166  1  0.75132792  0.57752870  0.94379749  1
  Se  Se167  1  0.75155380  0.92030376  0.44606138  1
  Se  Se168  1  0.75630292  0.90795190  0.94574647  1
  Se  Se169  1  0.24443098  0.07847918  0.44390094  1
  Se  Se170  1  0.25291659  0.08283585  0.95189484  1
  Se  Se171  1  0.24735321  0.42182872  0.44204036  1
  Se  Se172  1  0.24818062  0.41663176  0.94121537  1
  Se  Se173  1  0.25026857  0.73906276  0.43434942  1
  Se  Se174  1  0.24839110  0.73939069  0.94338611  1
  Se  Se175  1  0.57882345  0.08465718  0.44910448  1
  Se  Se176  1  0.59690360  0.07306821  0.94360157  1
  Se  Se177  1  0.58872625  0.41355656  0.43981936  1
  Se  Se178  1  0.58080502  0.41535266  0.94261516  1
  Se  Se179  1  0.58335305  0.74847575  0.44914430  1
  Se  Se180  1  0.58048550  0.75045376  0.94410517  1
  Se  Se181  1  0.91490681  0.09011780  0.44472247  1
  Se  Se182  1  0.92663727  0.07540461  0.94594288  1
  Se  Se183  1  0.91870751  0.42529386  0.44702393  1
  Se  Se184  1  0.91689795  0.41944847  0.94307043  1
  Se  Se185  1  0.92197899  0.75681307  0.44617310  1
  Se  Se186  1  0.91716462  0.74340910  0.94954618  1
  Se  Se187  1  0.24974891  0.25429480  0.30995643  1
  Se  Se188  1  0.25277243  0.25199473  0.79828782  1
  Se  Se189  1  0.27522428  0.60499433  0.30228069  1
  Se  Se190  1  0.24450279  0.57713359  0.80232638  1
  Se  Se191  1  0.24197110  0.90290364  0.29514059  1
  Se  Se192  1  0.24203710  0.90572631  0.81078242  1
  Se  Se193  1  0.57965492  0.24426145  0.31372774  1
  Se  Se194  1  0.58785079  0.25476603  0.79641641  1
  Se  Se195  1  0.57440709  0.57920597  0.30992552  1
  Se  Se196  1  0.57007821  0.57922067  0.81399355  1
  Se  Se197  1  0.57446430  0.90941911  0.30983590  1
  Se  Se198  1  0.56920949  0.90724144  0.80621139  1
  Se  Se199  1  0.92528747  0.25921723  0.30368343  1
  Se  Se200  1  0.92269778  0.25689149  0.79886671  1
  Se  Se201  1  0.92228775  0.58669057  0.30677987  1
  Se  Se202  1  0.92011670  0.58648637  0.80134373  1
  Se  Se203  1  0.91042881  0.91340231  0.30402053  1
  Se  Se204  1  0.91316390  0.91429633  0.81073002  1
  Se  Se205  1  0.08121088  0.08318106  0.30645182  1
  Se  Se206  1  0.09369543  0.08999466  0.80948122  1
  Se  Se207  1  0.09625273  0.43349306  0.29921147  1
  Se  Se208  1  0.07776374  0.41380725  0.80050218  1
  Se  Se209  1  0.08503791  0.75011326  0.29423670  1
  Se  Se210  1  0.07595682  0.75158209  0.79801693  1
  Se  Se211  1  0.40909719  0.08055688  0.30944794  1
  Se  Se212  1  0.42769148  0.09343242  0.80811509  1
  Se  Se213  1  0.42125710  0.41262783  0.29847456  1
  Se  Se214  1  0.40894425  0.41284175  0.80181713  1
  Se  Se215  1  0.41298929  0.74543106  0.30258651  1
  Se  Se216  1  0.41273874  0.74430352  0.80188806  1
  Se  Se217  1  0.76037074  0.09541362  0.30807575  1
  Se  Se218  1  0.76378172  0.09917574  0.80565119  1
  Se  Se219  1  0.75953749  0.41995348  0.31529254  1
  Se  Se220  1  0.74889970  0.42059167  0.79779644  1
  Se  Se221  1  0.75349672  0.74821891  0.31434425  1
  Se  Se222  1  0.75256208  0.75070111  0.80774540  1
  Se  Se223  1  0.24724463  0.08376112  0.20358996  1
  Se  Se224  1  0.24606331  0.08722261  0.68770508  1
  Se  Se225  1  0.26878199  0.40763086  0.19952143  1
  Se  Se226  1  0.24788571  0.41376821  0.69361071  1
  Se  Se227  1  0.22803243  0.78231109  0.20203187  1
  Se  Se228  1  0.25284511  0.75081041  0.69862544  1
  Se  Se229  1  0.57544961  0.09053492  0.19655367  1
  Se  Se230  1  0.58108033  0.08742353  0.68688208  1
  Se  Se231  1  0.58451746  0.42633460  0.18758677  1
  Se  Se232  1  0.58102813  0.41952047  0.69933371  1
  Se  Se233  1  0.57181400  0.75294225  0.18974366  1
  Se  Se234  1  0.57622149  0.75739531  0.69139922  1
  Se  Se235  1  0.90354906  0.08683163  0.19937934  1
  Se  Se236  1  0.91237359  0.09214926  0.68518008  1
  Se  Se237  1  0.92219513  0.41111774  0.19875226  1
  Se  Se238  1  0.91910034  0.41868275  0.69142515  1
  Se  Se239  1  0.91653024  0.73844319  0.19863686  1
  Se  Se240  1  0.92032012  0.75094862  0.69721023  1
  Se  Se241  1  0.08456152  0.25104603  0.20123649  1
  Se  Se242  1  0.07916941  0.25246152  0.69229850  1
  Se  Se243  1  0.10409491  0.55099386  0.20667320  1
  Se  Se244  1  0.08228660  0.58371428  0.69269355  1
  Se  Se245  1  0.05691355  0.92981750  0.20195466  1
  Se  Se246  1  0.09714821  0.90856812  0.69390331  1
  Se  Se247  1  0.41925985  0.25212895  0.19987605  1
  Se  Se248  1  0.41207897  0.25191195  0.69254565  1
  Se  Se249  1  0.42102766  0.59091708  0.19179844  1
  Se  Se250  1  0.41173412  0.58441025  0.69655702  1
  Se  Se251  1  0.41383398  0.92544423  0.19819521  1
  Se  Se252  1  0.42265549  0.91153260  0.69055979  1
  Se  Se253  1  0.75986355  0.24276655  0.19362934  1
  Se  Se254  1  0.74658270  0.25979952  0.69041177  1
  Se  Se255  1  0.76083208  0.57116322  0.19395941  1
  Se  Se256  1  0.75980066  0.58310113  0.68566952  1
  Se  Se257  1  0.74929017  0.90124578  0.19109988  1
  Se  Se258  1  0.75485792  0.91511381  0.69399841  1
