# generated using pymatgen
data_In86Cu29Se144
_symmetry_space_group_name_H-M   'P 1'
_cell_length_a   17.57523112
_cell_length_b   17.57436695
_cell_length_c   23.42211299
_cell_angle_alpha   90.02493728
_cell_angle_beta   89.98650604
_cell_angle_gamma   89.98668652
_symmetry_Int_Tables_number   1
_chemical_formula_structural   In86Cu29Se144
_chemical_formula_sum   'In86 Cu29 Se144'
_cell_volume   7234.47036448
_cell_formula_units_Z   1
loop_
 _symmetry_equiv_pos_site_id
 _symmetry_equiv_pos_as_xyz
  1  'x, y, z'
loop_
 _atom_site_type_symbol
 _atom_site_label
 _atom_site_symmetry_multiplicity
 _atom_site_fract_x
 _atom_site_fract_y
 _atom_site_fract_z
 _atom_site_occupancy
  In  In0  1  -0.00228102  0.16767773  0.11599810  1
  In  In1  1  0.00723153  0.17210965  0.64328636  1
  In  In2  1  0.00752847  0.50734208  0.12937258  1
  In  In3  1  0.00052235  0.50114565  0.62326898  1
  In  In4  1  0.00280469  0.83312650  0.12266100  1
  In  In5  1  0.00595324  0.82673736  0.63995626  1
  In  In6  1  0.34109305  0.17488239  0.12274476  1
  In  In7  1  0.30655708  0.17235315  0.63742689  1
  In  In8  1  0.30728465  0.51735576  0.13521425  1
  In  In9  1  0.33363200  0.51670143  0.62690125  1
  In  In10  1  0.32869530  0.81243602  0.10420575  1
  In  In11  1  0.32624557  0.83889946  0.63966333  1
  In  In12  1  0.65114279  0.14342067  0.10350783  1
  In  In13  1  0.67435461  0.15858923  0.62919986  1
  In  In14  1  0.68512348  0.50512865  0.12415827  1
  In  In15  1  0.67421602  0.48953250  0.62573162  1
  In  In16  1  0.66731499  0.83196693  0.12064550  1
  In  In17  1  0.66168059  0.83915337  0.62880750  1
  In  In18  1  0.16298459  0.01126310  0.36836831  1
  In  In19  1  0.16591769  0.00061122  0.88032770  1
  In  In20  1  0.17330547  0.35212214  0.35616400  1
  In  In21  1  0.15554534  0.34823200  0.88714204  1
  In  In22  1  0.13980650  0.63276546  0.33840753  1
  In  In23  1  0.16435232  0.66917770  0.88195215  1
  In  In24  1  0.49630554  -0.02198553  0.36016907  1
  In  In25  1  0.49210013  0.00490243  0.89044788  1
  In  In26  1  0.49883199  0.34508952  0.36732106  1
  In  In27  1  0.48972807  0.32393000  0.88150741  1
  In  In28  1  0.49035291  0.66626488  0.35221449  1
  In  In29  1  0.49177318  0.68051349  0.88538149  1
  In  In30  1  0.83046864  0.00223368  0.35674316  1
  In  In31  1  0.84063081  -0.01291805  0.89522960  1
  In  In32  1  0.85148567  0.33700671  0.36735507  1
  In  In33  1  0.84491315  0.32691425  0.88079497  1
  In  In34  1  0.82632260  0.66259577  0.36926944  1
  In  In35  1  0.84951557  0.65413937  0.88925472  1
  In  In36  1  -0.00287882  0.17132915  0.36059754  1
  In  In37  1  0.01096769  0.16605649  0.88023736  1
  In  In38  1  -0.00195371  0.49619383  0.37288607  1
  In  In39  1  -0.00287439  0.50508704  0.87226221  1
  In  In40  1  -0.00422500  0.83117889  0.36079874  1
  In  In41  1  0.00135590  0.83189430  0.88243472  1
  In  In42  1  0.31532087  0.16653757  0.36966499  1
  In  In43  1  0.34138262  0.15983522  0.89002387  1
  In  In44  1  0.32264738  0.49585353  0.35547122  1
  In  In45  1  0.31397661  0.50391607  0.88174239  1
  In  In46  1  0.33423331  0.81898315  0.36593742  1
  In  In47  1  0.32197470  0.82665036  0.88628062  1
  In  In48  1  0.67439601  0.16210652  0.36040290  1
  In  In49  1  0.67371669  0.15035144  0.89783813  1
  In  In50  1  0.66898666  0.51229195  0.37074351  1
  In  In51  1  0.68213305  0.50502007  0.87651864  1
  In  In52  1  0.65262947  0.82909504  0.34387006  1
  In  In53  1  0.66797118  0.84499885  0.89801351  1
  In  In54  1  0.15711859  -0.00905416  0.11416117  1
  In  In55  1  0.16178564  0.00817448  0.65043727  1
  In  In56  1  0.16710018  0.33608367  0.12715797  1
  In  In57  1  0.14117415  0.34161082  0.63379563  1
  In  In58  1  0.16347005  0.66032436  0.12316466  1
  In  In59  1  0.17447317  0.66081358  0.62829983  1
  In  In60  1  0.51103953  -0.00064503  0.11626574  1
  In  In61  1  0.49477899  -0.01151283  0.62895398  1
  In  In62  1  0.48821945  0.31296941  0.13185244  1
  In  In63  1  0.50152801  0.33354887  0.62705780  1
  In  In64  1  0.48878634  0.68791179  0.13377231  1
  In  In65  1  0.48772596  0.66481010  0.62540548  1
  In  In66  1  0.83351722  -0.00075141  0.11509339  1
  In  In67  1  0.83647361  0.01053368  0.62863557  1
  In  In68  1  0.84535780  0.34171487  0.11766743  1
  In  In69  1  0.84541894  0.34459927  0.62261788  1
  In  In70  1  0.83746703  0.66857313  0.12613463  1
  In  In71  1  0.84779875  0.65940438  0.63012379  1
  In  In72  1  0.15640318  0.17636257  0.50768923  1
  In  In73  1  0.50022905  0.49222131  0.00895189  1
  In  In74  1  0.17065528  0.83188754  0.49727701  1
  In  In75  1  0.49849671  0.16819186  0.49557434  1
  In  In76  1  0.83171660  0.83106266  0.49675510  1
  In  In77  1  0.67117847  0.67344829  0.75208195  1
  In  In78  1  0.33613507  -0.00150788  0.23671838  1
  In  In79  1  0.67009857  -0.00145045  0.76367803  1
  In  In80  1  0.66831662  0.32308621  0.24057669  1
  In  In81  1  0.49733227  0.82118411  0.48305578  1
  In  In82  1  0.32759455  0.33398734  0.76041515  1
  In  In83  1  0.84077961  0.16937937  0.49868183  1
  In  In84  1  0.50048905  0.50751829  0.49367695  1
  In  In85  1  0.67359089  0.32947651  0.76151083  1
  Cu  Cu86  1  0.49759496  0.51318305  0.75411377  1
  Cu  Cu87  1  0.33066746  -0.00570409  0.00453863  1
  Cu  Cu88  1  0.84889983  0.16826289  0.75903080  1
  Cu  Cu89  1  0.32460745  0.66600148  0.49582156  1
  Cu  Cu90  1  0.49394578  0.16099455  0.76318859  1
  Cu  Cu91  1  0.16051402  0.50830768  0.75417569  1
  Cu  Cu92  1  0.66766136  0.33773232  0.00666141  1
  Cu  Cu93  1  0.17152536  0.83355460  0.23495461  1
  Cu  Cu94  1  0.67195605  0.66552649  0.00658679  1
  Cu  Cu95  1  0.15520025  0.16737554  0.24225797  1
  Cu  Cu96  1  0.33251967  0.00169232  0.51092421  1
  Cu  Cu97  1  0.16440632  0.83121325  0.76264607  1
  Cu  Cu98  1  0.49839727  0.49606004  0.24175972  1
  Cu  Cu99  1  0.68074743  0.33470899  0.50119779  1
  Cu  Cu100  1  0.66507396  -0.00905554  0.48377248  1
  Cu  Cu101  1  0.33003086  0.33257221  0.00530087  1
  Cu  Cu102  1  0.83499468  0.82893546  0.76649047  1
  Cu  Cu103  1  0.00628110  0.65617775  0.49650195  1
  Cu  Cu104  1  -0.00020657  0.66402658  0.00342645  1
  Cu  Cu105  1  0.00109282  0.00082158  -0.00145743  1
  Cu  Cu106  1  0.32615197  0.34510844  0.49193076  1
  Cu  Cu107  1  0.82774871  0.15968610  0.23259547  1
  Cu  Cu108  1  0.00326715  0.34036413  0.00182544  1
  Cu  Cu109  1  0.00863427  0.34297841  0.49435076  1
  Cu  Cu110  1  -0.00029240  -0.00261704  0.50110794  1
  Cu  Cu111  1  0.83869334  0.83776514  0.23779833  1
  Cu  Cu112  1  0.84019845  0.50384779  0.24668749  1
  Cu  Cu113  1  0.67463467  0.66489609  0.49500881  1
  Cu  Cu114  1  0.48337099  0.83524594  0.76206955  1
  Se  Se115  1  0.08552990  0.08654257  0.04857684  1
  Se  Se116  1  0.07609371  0.07401348  0.56603267  1
  Se  Se117  1  0.08571594  0.42158730  0.05787450  1
  Se  Se118  1  0.08942134  0.42347832  0.55167325  1
  Se  Se119  1  0.08452760  0.74865382  0.05414698  1
  Se  Se120  1  0.07630729  0.74493737  0.55847322  1
  Se  Se121  1  0.41278462  0.07931994  0.05676239  1
  Se  Se122  1  0.41124968  0.08710532  0.56685482  1
  Se  Se123  1  0.40611619  0.41089697  0.07024905  1
  Se  Se124  1  0.41345949  0.41401683  0.55646341  1
  Se  Se125  1  0.43329872  0.74754876  0.04307870  1
  Se  Se126  1  0.40174906  0.75044421  0.55590008  1
  Se  Se127  1  0.75893699  0.08601536  0.04261879  1
  Se  Se128  1  0.74167292  0.07050523  0.54902233  1
  Se  Se129  1  0.75657710  0.42215535  0.05055985  1
  Se  Se130  1  0.76056099  0.42146206  0.55215963  1
  Se  Se131  1  0.75851141  0.75112187  0.05420020  1
  Se  Se132  1  0.74254376  0.74480566  0.56327257  1
  Se  Se133  1  0.24643802  0.24806190  0.05717288  1
  Se  Se134  1  0.25344450  0.26905970  0.56085505  1
  Se  Se135  1  0.24484117  0.58178378  0.04921527  1
  Se  Se136  1  0.24699370  0.58025564  0.55135467  1
  Se  Se137  1  0.24292306  0.90786608  0.04826946  1
  Se  Se138  1  0.24581293  0.92597240  0.56731945  1
  Se  Se139  1  0.57888932  0.25638936  0.05488251  1
  Se  Se140  1  0.59761659  0.25473451  0.55916899  1
  Se  Se141  1  0.58704051  0.58757948  0.06510493  1
  Se  Se142  1  0.59190680  0.59243442  0.56051651  1
  Se  Se143  1  0.59495296  0.91858503  0.04715077  1
  Se  Se144  1  0.58320751  0.91826413  0.54899658  1
  Se  Se145  1  0.91600115  0.25214160  0.04676165  1
  Se  Se146  1  0.93786923  0.25224631  0.55689861  1
  Se  Se147  1  0.91768141  0.58045126  0.05840814  1
  Se  Se148  1  0.91649252  0.58221250  0.55175608  1
  Se  Se149  1  0.92068704  0.91329213  0.05094156  1
  Se  Se150  1  0.92110250  0.91766519  0.56274897  1
  Se  Se151  1  0.08055956  0.25689817  0.43232161  1
  Se  Se152  1  0.08646641  0.25146488  0.95322248  1
  Se  Se153  1  0.08933124  0.58151882  0.43584200  1
  Se  Se154  1  0.07958312  0.58079411  0.94634420  1
  Se  Se155  1  0.07810599  0.92237677  0.43737977  1
  Se  Se156  1  0.08640284  0.91403213  0.95006252  1
  Se  Se157  1  0.40477914  0.25990251  0.43601970  1
  Se  Se158  1  0.41932356  0.24829774  0.95899744  1
  Se  Se159  1  0.41096481  0.59342795  0.43346390  1
  Se  Se160  1  0.41279707  0.58091575  0.94654636  1
  Se  Se161  1  0.40112590  0.92398531  0.44079077  1
  Se  Se162  1  0.41371405  0.90970462  0.95097956  1
  Se  Se163  1  0.74853121  0.25353715  0.43471847  1
  Se  Se164  1  0.74939455  0.25708225  0.94829182  1
  Se  Se165  1  0.75661921  0.57823486  0.44550870  1
  Se  Se166  1  0.75355481  0.57968257  0.95435406  1
  Se  Se167  1  0.74484517  0.91131233  0.42575785  1
  Se  Se168  1  0.73057267  0.94567993  0.96424744  1
  Se  Se169  1  0.24938090  0.07884825  0.45004717  1
  Se  Se170  1  0.24844274  0.08099910  0.95287549  1
  Se  Se171  1  0.24682878  0.42633774  0.43547928  1
  Se  Se172  1  0.24727253  0.42003153  0.95692185  1
  Se  Se173  1  0.24440477  0.73853772  0.43135453  1
  Se  Se174  1  0.25069380  0.73757769  0.95666927  1
  Se  Se175  1  0.58382615  0.07746175  0.43092022  1
  Se  Se176  1  0.56922843  0.09111625  0.95844893  1
  Se  Se177  1  0.59510076  0.41043570  0.44126131  1
  Se  Se178  1  0.59120897  0.41157035  0.93800767  1
  Se  Se179  1  0.59463490  0.73563764  0.42774646  1
  Se  Se180  1  0.58695757  0.74632001  0.95353297  1
  Se  Se181  1  0.92220208  0.07430212  0.43613650  1
  Se  Se182  1  0.91930678  0.08962376  0.94866419  1
  Se  Se183  1  0.91372271  0.41851810  0.44636318  1
  Se  Se184  1  0.91906468  0.42120340  0.94554464  1
  Se  Se185  1  0.92741734  0.74278457  0.43965177  1
  Se  Se186  1  0.91575775  0.75360085  0.95403775  1
  Se  Se187  1  0.24219626  0.24702732  0.29669935  1
  Se  Se188  1  0.24755901  0.24980826  0.82811458  1
  Se  Se189  1  0.27833611  0.61660606  0.30352297  1
  Se  Se190  1  0.24664172  0.58808158  0.80697835  1
  Se  Se191  1  0.24371531  0.91212051  0.30442090  1
  Se  Se192  1  0.25007725  0.91356773  0.81354103  1
  Se  Se193  1  0.57200895  0.24211150  0.30411865  1
  Se  Se194  1  0.58304148  0.23640080  0.81858228  1
  Se  Se195  1  0.58238585  0.57783230  0.29676902  1
  Se  Se196  1  0.58029375  0.58597955  0.81537614  1
  Se  Se197  1  0.59020452  0.93388878  0.28388083  1
  Se  Se198  1  0.57549587  0.90848840  0.81832428  1
  Se  Se199  1  0.90576647  0.24359530  0.29213543  1
  Se  Se200  1  0.93093175  0.25402196  0.80902596  1
  Se  Se201  1  0.91904596  0.58636333  0.30491511  1
  Se  Se202  1  0.91355493  0.58955679  0.80482649  1
  Se  Se203  1  0.92117860  0.92143418  0.29402283  1
  Se  Se204  1  0.91562074  0.91834149  0.81521388  1
  Se  Se205  1  0.07639163  0.08024390  0.29625272  1
  Se  Se206  1  0.07599320  0.07168323  0.81010698  1
  Se  Se207  1  0.05967886  0.40233598  0.30004773  1
  Se  Se208  1  0.08400332  0.41845540  0.80585896  1
  Se  Se209  1  0.08528129  0.75609712  0.29330875  1
  Se  Se210  1  0.07805460  0.74657047  0.81098791  1
  Se  Se211  1  0.41445675  0.08623795  0.30960577  1
  Se  Se212  1  0.41184164  0.07686059  0.81322591  1
  Se  Se213  1  0.41429646  0.41279303  0.29382920  1
  Se  Se214  1  0.42278732  0.42771808  0.81512505  1
  Se  Se215  1  0.44131775  0.78247108  0.29658391  1
  Se  Se216  1  0.40491772  0.74635864  0.81130807  1
  Se  Se217  1  0.74367655  0.07798506  0.28670033  1
  Se  Se218  1  0.76433867  0.08922801  0.81770033  1
  Se  Se219  1  0.75375494  0.42011741  0.30307548  1
  Se  Se220  1  0.76847700  0.42465900  0.80700789  1
  Se  Se221  1  0.76028545  0.75345605  0.29631383  1
  Se  Se222  1  0.74902312  0.75643777  0.82571890  1
  Se  Se223  1  0.23775447  0.08621757  0.18377278  1
  Se  Se224  1  0.26622187  0.07311495  0.71016200  1
  Se  Se225  1  0.25089953  0.41241648  0.19919042  1
  Se  Se226  1  0.24581464  0.42643368  0.69373469  1
  Se  Se227  1  0.25401808  0.74736165  0.18669260  1
  Se  Se228  1  0.24358287  0.75045077  0.70101530  1
  Se  Se229  1  0.57765180  0.08917641  0.18943260  1
  Se  Se230  1  0.57730831  0.08610958  0.69821594  1
  Se  Se231  1  0.58141019  0.41936465  0.18263843  1
  Se  Se232  1  0.57652478  0.42412774  0.69961660  1
  Se  Se233  1  0.60141351  0.73948220  0.19227423  1
  Se  Se234  1  0.56668678  0.76146732  0.69655158  1
  Se  Se235  1  0.91930029  0.07933343  0.18540026  1
  Se  Se236  1  0.92161186  0.07910600  0.70139665  1
  Se  Se237  1  0.91994059  0.41861536  0.19363873  1
  Se  Se238  1  0.93959977  0.40099643  0.69254649  1
  Se  Se239  1  0.92486239  0.74853173  0.19416574  1
  Se  Se240  1  0.91103581  0.74991085  0.70301084  1
  Se  Se241  1  0.07433771  0.25187418  0.18926505  1
  Se  Se242  1  0.12096370  0.22673398  0.69920462  1
  Se  Se243  1  0.09454473  0.57985375  0.20178082  1
  Se  Se244  1  0.08060750  0.58690861  0.69297596  1
  Se  Se245  1  0.08243037  0.91998497  0.19328292  1
  Se  Se246  1  0.07900186  0.91456577  0.70892846  1
  Se  Se247  1  0.41086832  0.23958275  0.20683922  1
  Se  Se248  1  0.42379416  0.24592421  0.69790083  1
  Se  Se249  1  0.41667512  0.58445779  0.19238519  1
  Se  Se250  1  0.41084432  0.59269261  0.70223667  1
  Se  Se251  1  0.41417189  0.90680953  0.17273876  1
  Se  Se252  1  0.41087139  0.92428562  0.70526839  1
  Se  Se253  1  0.75145184  0.24200893  0.17157649  1
  Se  Se254  1  0.76389214  0.24186876  0.69449972  1
  Se  Se255  1  0.75358534  0.58850357  0.19908962  1
  Se  Se256  1  0.75589608  0.57300058  0.69623240  1
  Se  Se257  1  0.75229585  0.91911202  0.18722731  1
  Se  Se258  1  0.75931912  0.90823913  0.69890152  1
