# generated using pymatgen
data_In86Cu29Se144
_symmetry_space_group_name_H-M   'P 1'
_cell_length_a   17.58906825
_cell_length_b   17.58543853
_cell_length_c   23.45062592
_cell_angle_alpha   90.00624433
_cell_angle_beta   89.98847982
_cell_angle_gamma   89.99332262
_symmetry_Int_Tables_number   1
_chemical_formula_structural   In86Cu29Se144
_chemical_formula_sum   'In86 Cu29 Se144'
_cell_volume   7253.54754084
_cell_formula_units_Z   1
loop_
 _symmetry_equiv_pos_site_id
 _symmetry_equiv_pos_as_xyz
  1  'x, y, z'
loop_
 _atom_site_type_symbol
 _atom_site_label
 _atom_site_symmetry_multiplicity
 _atom_site_fract_x
 _atom_site_fract_y
 _atom_site_fract_z
 _atom_site_occupancy
  In  In0  1  -0.01382592  0.16271314  0.11773566  1
  In  In1  1  0.01819853  0.15164042  0.63686136  1
  In  In2  1  0.00183528  0.49875993  0.11506086  1
  In  In3  1  0.01196736  0.49669793  0.63521464  1
  In  In4  1  0.01219153  0.84301725  0.10970378  1
  In  In5  1  -0.00085303  0.83850084  0.63415247  1
  In  In6  1  0.33311092  0.14410188  0.13086290  1
  In  In7  1  0.32272223  0.15260138  0.61002718  1
  In  In8  1  0.34106478  0.50836388  0.12448968  1
  In  In9  1  0.33108505  0.49766310  0.61398110  1
  In  In10  1  0.33221897  0.83728551  0.13967049  1
  In  In11  1  0.34657206  0.83725366  0.61922182  1
  In  In12  1  0.67030607  0.16581104  0.12500649  1
  In  In13  1  0.65440538  0.15960533  0.62039940  1
  In  In14  1  0.65696643  0.51766288  0.13918102  1
  In  In15  1  0.66220968  0.50558771  0.61831874  1
  In  In16  1  0.66630232  0.83223075  0.12880764  1
  In  In17  1  0.66954713  0.84424167  0.62263029  1
  In  In18  1  0.17023840  -0.00189977  0.37042758  1
  In  In19  1  0.15951412  -0.00683311  0.86948358  1
  In  In20  1  0.16896507  0.33102609  0.38288393  1
  In  In21  1  0.16807147  0.34560046  0.87404322  1
  In  In22  1  0.16864006  0.66001579  0.37454694  1
  In  In23  1  0.13713871  0.69303220  0.90527621  1
  In  In24  1  0.50214559  -0.00106272  0.37378202  1
  In  In25  1  0.51031969  0.00408378  0.86713977  1
  In  In26  1  0.50405145  0.32322005  0.37657500  1
  In  In27  1  0.50650054  0.32431392  0.88401984  1
  In  In28  1  0.49004031  0.67084816  0.37089967  1
  In  In29  1  0.49064770  0.66037355  0.87731291  1
  In  In30  1  0.82562591  -0.00164116  0.36909301  1
  In  In31  1  0.83801860  -0.00404806  0.88177372  1
  In  In32  1  0.82447143  0.34014165  0.36735322  1
  In  In33  1  0.83075824  0.32094976  0.87465590  1
  In  In34  1  0.83098860  0.67542355  0.36725253  1
  In  In35  1  0.85424447  0.67125970  0.88490825  1
  In  In36  1  0.01294085  0.15779220  0.38409135  1
  In  In37  1  -0.00836869  0.15443827  0.86483085  1
  In  In38  1  0.00762279  0.50681344  0.37949445  1
  In  In39  1  0.01401802  0.51519662  0.86763992  1
  In  In40  1  -0.00429077  0.83776076  0.37053801  1
  In  In41  1  0.00035043  0.84058924  0.88145857  1
  In  In42  1  0.34725758  0.14183432  0.39277045  1
  In  In43  1  0.35036293  0.15968840  0.87704997  1
  In  In44  1  0.32550191  0.51132360  0.37624205  1
  In  In45  1  0.33065699  0.49872702  0.88247304  1
  In  In46  1  0.35863613  0.86350116  0.34399332  1
  In  In47  1  0.32285532  0.83212002  0.87604079  1
  In  In48  1  0.64953533  0.15118709  0.36153862  1
  In  In49  1  0.69213842  0.13380206  0.90571849  1
  In  In50  1  0.65877211  0.48607182  0.35860803  1
  In  In51  1  0.66155421  0.49050495  0.88021524  1
  In  In52  1  0.63812239  0.81517449  0.34645032  1
  In  In53  1  0.66955656  0.85373963  0.88333309  1
  In  In54  1  0.17784156  -0.02576487  0.14380851  1
  In  In55  1  0.16471287  0.00485982  0.62574633  1
  In  In56  1  0.15517602  0.33206170  0.12211803  1
  In  In57  1  0.16521222  0.33107287  0.62410595  1
  In  In58  1  0.18054163  0.68510213  0.11217194  1
  In  In59  1  0.16776490  0.66105629  0.62599426  1
  In  In60  1  0.49637023  -0.00071140  0.13141982  1
  In  In61  1  0.49944503  0.00234889  0.62344739  1
  In  In62  1  0.50768663  0.34024248  0.12370452  1
  In  In63  1  0.49124352  0.32406222  0.61296338  1
  In  In64  1  0.50731082  0.66944443  0.13877673  1
  In  In65  1  0.49359422  0.66092416  0.61136967  1
  In  In66  1  0.83118538  0.00675636  0.12152126  1
  In  In67  1  0.83388932  -0.00142537  0.63328158  1
  In  In68  1  0.83297422  0.32353783  0.12270377  1
  In  In69  1  0.83794778  0.34241432  0.62975102  1
  In  In70  1  0.81680062  0.66444496  0.12320515  1
  In  In71  1  0.83738535  0.68385413  0.62896823  1
  In  In72  1  0.67195522  0.67405464  0.75092059  1
  In  In73  1  0.83285993  0.50321143  0.49754846  1
  In  In74  1  0.32808608  0.32651838  0.25812351  1
  In  In75  1  0.32642644  0.66732569  0.75143288  1
  In  In76  1  0.50256612  0.83663236  0.01129334  1
  In  In77  1  0.16794125  0.16516453  -0.00038903  1
  In  In78  1  -0.00712197  0.32610510  0.24281473  1
  In  In79  1  0.82821500  0.49820071  0.00102686  1
  In  In80  1  0.66526699  0.32292727  0.75070046  1
  In  In81  1  -0.00548382  0.66530574  0.24382013  1
  In  In82  1  0.82996429  0.83648009  0.49993475  1
  In  In83  1  0.17596909  0.83675378  0.49032793  1
  In  In84  1  0.83138480  0.16936475  0.50094995  1
  In  In85  1  0.33111642  0.32674357  0.74540896  1
  Cu  Cu86  1  0.00443844  0.33408338  0.50852391  1
  Cu  Cu87  1  0.65732551  0.66709798  0.00713853  1
  Cu  Cu88  1  0.33608393  0.66988893  0.49446203  1
  Cu  Cu89  1  0.16298083  0.49840418  0.24927446  1
  Cu  Cu90  1  0.16328436  0.83808544  0.75621031  1
  Cu  Cu91  1  0.83259890  0.16631139  0.24562377  1
  Cu  Cu92  1  0.49722161  0.49180085  0.74817644  1
  Cu  Cu93  1  0.84012200  0.83815236  0.75737839  1
  Cu  Cu94  1  0.65683662  -0.00795190  0.49237123  1
  Cu  Cu95  1  0.50080079  0.16848134  0.25147176  1
  Cu  Cu96  1  0.16945952  0.16771106  0.74427498  1
  Cu  Cu97  1  0.83326745  0.16061187  0.75624490  1
  Cu  Cu98  1  0.84314266  0.50288435  0.75226762  1
  Cu  Cu99  1  0.16276071  0.51112459  0.75598703  1
  Cu  Cu100  1  0.33553196  0.65826791  0.00323682  1
  Cu  Cu101  1  0.83356086  0.83800287  0.24392042  1
  Cu  Cu102  1  0.00412004  0.00473470  -0.00076130  1
  Cu  Cu103  1  0.65504615  0.66625192  0.48675021  1
  Cu  Cu104  1  0.00807395  0.66344960  0.50391825  1
  Cu  Cu105  1  0.65961409  0.33039755  0.48915453  1
  Cu  Cu106  1  0.49668638  0.50565124  0.25039236  1
  Cu  Cu107  1  0.50485830  0.84018291  0.74521887  1
  Cu  Cu108  1  0.33700848  0.33317103  0.00309649  1
  Cu  Cu109  1  0.65516204  0.33551645  0.00592997  1
  Cu  Cu110  1  0.00052390  0.33682233  -0.00612943  1
  Cu  Cu111  1  0.50712715  0.15496369  0.75122010  1
  Cu  Cu112  1  0.33553417  -0.00878621  0.00694601  1
  Cu  Cu113  1  0.33616253  0.34353384  0.49436387  1
  Cu  Cu114  1  0.16627759  0.15114854  0.25573345  1
  Se  Se115  1  0.08782095  0.07501051  0.06470628  1
  Se  Se116  1  0.08801687  0.08860796  0.55431943  1
  Se  Se117  1  0.08563331  0.41551098  0.04772994  1
  Se  Se118  1  0.08636630  0.42264630  0.55765995  1
  Se  Se119  1  0.07961377  0.74374323  0.04600457  1
  Se  Se120  1  0.08199690  0.75355782  0.55957802  1
  Se  Se121  1  0.41800396  0.07842450  0.05577486  1
  Se  Se122  1  0.43255383  0.09502001  0.55311896  1
  Se  Se123  1  0.41738327  0.41817825  0.05754681  1
  Se  Se124  1  0.42332563  0.42308711  0.54852291  1
  Se  Se125  1  0.41108230  0.74287811  0.06503447  1
  Se  Se126  1  0.41976391  0.75395909  0.54653485  1
  Se  Se127  1  0.76304868  0.10181116  0.05309743  1
  Se  Se128  1  0.74218650  0.06764855  0.55450803  1
  Se  Se129  1  0.73680825  0.41667758  0.06538555  1
  Se  Se130  1  0.74140348  0.40477675  0.55350586  1
  Se  Se131  1  0.74345621  0.75282285  0.05339867  1
  Se  Se132  1  0.73683358  0.73773150  0.55372679  1
  Se  Se133  1  0.25919578  0.25097309  0.06463253  1
  Se  Se134  1  0.25715678  0.26245795  0.55478398  1
  Se  Se135  1  0.24803287  0.57700795  0.05485380  1
  Se  Se136  1  0.25169628  0.59102456  0.55185036  1
  Se  Se137  1  0.25322274  0.91018323  0.06146926  1
  Se  Se138  1  0.25843432  0.92565313  0.55619023  1
  Se  Se139  1  0.57845340  0.24505290  0.05788110  1
  Se  Se140  1  0.58437280  0.24694857  0.54891658  1
  Se  Se141  1  0.57585309  0.58541499  0.06143866  1
  Se  Se142  1  0.58102067  0.57903347  0.54555609  1
  Se  Se143  1  0.59536278  0.93213688  0.05948073  1
  Se  Se144  1  0.57874909  0.91253858  0.55359255  1
  Se  Se145  1  0.91753748  0.25466927  0.04780361  1
  Se  Se146  1  0.92220743  0.25330453  0.56506477  1
  Se  Se147  1  0.91788948  0.59395654  0.05439957  1
  Se  Se148  1  0.92036672  0.58996824  0.56339558  1
  Se  Se149  1  0.91624205  0.92450741  0.05164896  1
  Se  Se150  1  0.92232527  0.92393918  0.55885483  1
  Se  Se151  1  0.08347389  0.25134685  0.45108441  1
  Se  Se152  1  0.07881733  0.25149916  0.93543299  1
  Se  Se153  1  0.09108380  0.58128420  0.45058154  1
  Se  Se154  1  0.08731646  0.57104920  0.95198744  1
  Se  Se155  1  0.07187910  0.92252439  0.44264466  1
  Se  Se156  1  0.09098663  0.92005980  0.94981217  1
  Se  Se157  1  0.41591862  0.25150603  0.44692778  1
  Se  Se158  1  0.41678572  0.24681740  0.95073352  1
  Se  Se159  1  0.41897655  0.58252010  0.44405951  1
  Se  Se160  1  0.42018502  0.57672245  0.95006013  1
  Se  Se161  1  0.40927290  0.91998410  0.43683256  1
  Se  Se162  1  0.41556599  0.91743970  0.94067613  1
  Se  Se163  1  0.74169536  0.24890543  0.43305570  1
  Se  Se164  1  0.74299688  0.25990127  0.94987533  1
  Se  Se165  1  0.74345522  0.58743615  0.43326204  1
  Se  Se166  1  0.73937667  0.59363252  0.94021236  1
  Se  Se167  1  0.73681990  0.91071232  0.43349869  1
  Se  Se168  1  0.75025119  0.92625554  0.95478063  1
  Se  Se169  1  0.23113994  0.08842760  0.44530080  1
  Se  Se170  1  0.25882234  0.07237166  0.94211951  1
  Se  Se171  1  0.24705100  0.42418550  0.44545909  1
  Se  Se172  1  0.25056489  0.41270120  0.95034291  1
  Se  Se173  1  0.26388385  0.74944729  0.42980830  1
  Se  Se174  1  0.25747694  0.75005596  0.95306530  1
  Se  Se175  1  0.57993951  0.08716016  0.44552172  1
  Se  Se176  1  0.56347245  0.09164177  0.94536623  1
  Se  Se177  1  0.58175353  0.42058679  0.43928609  1
  Se  Se178  1  0.57511682  0.42115386  0.95162771  1
  Se  Se179  1  0.57727896  0.75690163  0.43700308  1
  Se  Se180  1  0.58406764  0.74631366  0.93980314  1
  Se  Se181  1  0.91522712  0.07258183  0.44412083  1
  Se  Se182  1  0.92007324  0.08865850  0.94717529  1
  Se  Se183  1  0.92391147  0.40606344  0.44209947  1
  Se  Se184  1  0.91845106  0.41666455  0.93419060  1
  Se  Se185  1  0.92453293  0.74000444  0.44415743  1
  Se  Se186  1  0.91762419  0.76300245  0.95361247  1
  Se  Se187  1  0.24316656  0.23265910  0.31683220  1
  Se  Se188  1  0.24649994  0.24017213  0.81308369  1
  Se  Se189  1  0.24694434  0.58301137  0.29931029  1
  Se  Se190  1  0.24120407  0.58692597  0.81954581  1
  Se  Se191  1  0.23305010  0.90601892  0.29831473  1
  Se  Se192  1  0.25445653  0.91894403  0.80329567  1
  Se  Se193  1  0.58555806  0.25648171  0.29884858  1
  Se  Se194  1  0.58336979  0.23434646  0.81460121  1
  Se  Se195  1  0.58081885  0.58816518  0.30420509  1
  Se  Se196  1  0.57830801  0.57550475  0.80515598  1
  Se  Se197  1  0.60435294  0.94452816  0.30430105  1
  Se  Se198  1  0.59116158  0.91531465  0.80160810  1
  Se  Se199  1  0.91303834  0.23840557  0.31329280  1
  Se  Se200  1  0.91616870  0.25160272  0.80138001  1
  Se  Se201  1  0.91187351  0.57170865  0.30899644  1
  Se  Se202  1  0.91859988  0.59208509  0.80497014  1
  Se  Se203  1  0.91320517  0.91782607  0.30207996  1
  Se  Se204  1  0.92357601  0.92341039  0.80821002  1
  Se  Se205  1  0.07362428  0.07503105  0.30531770  1
  Se  Se206  1  0.08762242  0.08351745  0.79995020  1
  Se  Se207  1  0.08485235  0.41474552  0.30665202  1
  Se  Se208  1  0.08258656  0.41662252  0.80150016  1
  Se  Se209  1  0.08373471  0.74995057  0.30788475  1
  Se  Se210  1  0.08479050  0.75401689  0.81307131  1
  Se  Se211  1  0.41724370  0.08557216  0.30538884  1
  Se  Se212  1  0.41468609  0.07615201  0.80000281  1
  Se  Se213  1  0.41936026  0.42198342  0.31135452  1
  Se  Se214  1  0.42012910  0.41404444  0.81027235  1
  Se  Se215  1  0.41408935  0.74607756  0.29429512  1
  Se  Se216  1  0.42570576  0.75851071  0.80563067  1
  Se  Se217  1  0.74901327  0.08262157  0.29843014  1
  Se  Se218  1  0.75119762  0.08055546  0.81309271  1
  Se  Se219  1  0.75632515  0.41986977  0.29271083  1
  Se  Se220  1  0.75483814  0.42373684  0.80608735  1
  Se  Se221  1  0.75131377  0.74950465  0.29391914  1
  Se  Se222  1  0.75803361  0.75792504  0.81733737  1
  Se  Se223  1  0.25541583  0.07043992  0.20585259  1
  Se  Se224  1  0.25479029  0.08450877  0.69336527  1
  Se  Se225  1  0.24351134  0.41481094  0.19115555  1
  Se  Se226  1  0.24490191  0.43168899  0.69472426  1
  Se  Se227  1  0.24123016  0.74975200  0.19813751  1
  Se  Se228  1  0.24354357  0.76334692  0.68998316  1
  Se  Se229  1  0.58252801  0.08786863  0.19436320  1
  Se  Se230  1  0.59102804  0.07401063  0.69603663  1
  Se  Se231  1  0.57969219  0.41916640  0.19979863  1
  Se  Se232  1  0.57860030  0.41563389  0.68730556  1
  Se  Se233  1  0.57948434  0.76428935  0.20231925  1
  Se  Se234  1  0.57486004  0.74921449  0.68596860  1
  Se  Se235  1  0.91825151  0.08341918  0.19477632  1
  Se  Se236  1  0.91807204  0.08124569  0.69964392  1
  Se  Se237  1  0.91031848  0.42527925  0.18674720  1
  Se  Se238  1  0.92261163  0.41575683  0.70034430  1
  Se  Se239  1  0.91081928  0.75732242  0.18197919  1
  Se  Se240  1  0.92057958  0.75213841  0.70336479  1
  Se  Se241  1  0.09109141  0.23204519  0.19204319  1
  Se  Se242  1  0.08481520  0.25628837  0.69835201  1
  Se  Se243  1  0.08890517  0.57771025  0.18549559  1
  Se  Se244  1  0.08133012  0.59489658  0.70088676  1
  Se  Se245  1  0.06589693  0.91410120  0.19715883  1
  Se  Se246  1  0.08575603  0.92213779  0.69762490  1
  Se  Se247  1  0.41710504  0.24541336  0.19094623  1
  Se  Se248  1  0.42703773  0.23781763  0.69167642  1
  Se  Se249  1  0.41109766  0.58860125  0.20017229  1
  Se  Se250  1  0.41919778  0.57631600  0.69087656  1
  Se  Se251  1  0.42827081  0.90968608  0.20249950  1
  Se  Se252  1  0.41675749  0.91947343  0.69412353  1
  Se  Se253  1  0.74931735  0.25289313  0.19642674  1
  Se  Se254  1  0.75767094  0.23643975  0.68786887  1
  Se  Se255  1  0.75507199  0.58604286  0.20267173  1
  Se  Se256  1  0.75879307  0.57657002  0.68993351  1
  Se  Se257  1  0.75074268  0.92213072  0.19134917  1
  Se  Se258  1  0.75227650  0.91107635  0.69894798  1
