# generated using pymatgen
data_In86Cu29Se144
_symmetry_space_group_name_H-M   'P 1'
_cell_length_a   17.58394594
_cell_length_b   17.57882708
_cell_length_c   23.45162608
_cell_angle_alpha   90.02793556
_cell_angle_beta   90.01114004
_cell_angle_gamma   89.97552051
_symmetry_Int_Tables_number   1
_chemical_formula_structural   In86Cu29Se144
_chemical_formula_sum   'In86 Cu29 Se144'
_cell_volume   7249.01661931
_cell_formula_units_Z   1
loop_
 _symmetry_equiv_pos_site_id
 _symmetry_equiv_pos_as_xyz
  1  'x, y, z'
loop_
 _atom_site_type_symbol
 _atom_site_label
 _atom_site_symmetry_multiplicity
 _atom_site_fract_x
 _atom_site_fract_y
 _atom_site_fract_z
 _atom_site_occupancy
  In  In0  1  -0.00586417  0.15594946  0.12134131  1
  In  In1  1  0.00449442  0.17441989  0.62074254  1
  In  In2  1  0.00949330  0.50901834  0.12082002  1
  In  In3  1  0.00964708  0.50928762  0.61944877  1
  In  In4  1  0.00374978  0.82341522  0.13280272  1
  In  In5  1  -0.00489416  0.82466417  0.62413709  1
  In  In6  1  0.33359269  0.16286436  0.12965431  1
  In  In7  1  0.33142126  0.14468122  0.62757412  1
  In  In8  1  0.32148602  0.50601734  0.12754738  1
  In  In9  1  0.33249985  0.50952860  0.60866049  1
  In  In10  1  0.34474537  0.84745467  0.11730474  1
  In  In11  1  0.34342853  0.84017065  0.61319959  1
  In  In12  1  0.65591882  0.15956059  0.11637556  1
  In  In13  1  0.65323498  0.15663443  0.62133298  1
  In  In14  1  0.66432884  0.48821637  0.11967550  1
  In  In15  1  0.67327276  0.51659472  0.62586692  1
  In  In16  1  0.67231434  0.84860676  0.12289343  1
  In  In17  1  0.66007944  0.84432976  0.63572688  1
  In  In18  1  0.16407160  -0.00379444  0.36281132  1
  In  In19  1  0.16936856  0.00129079  0.88103012  1
  In  In20  1  0.17806463  0.32005207  0.37009761  1
  In  In21  1  0.16792598  0.33310963  0.88645408  1
  In  In22  1  0.15979511  0.68333344  0.39123365  1
  In  In23  1  0.15916213  0.67371484  0.87929994  1
  In  In24  1  0.50038152  0.00196812  0.37511101  1
  In  In25  1  0.49996029  -0.00297032  0.87792364  1
  In  In26  1  0.48942281  0.33488196  0.38087999  1
  In  In27  1  0.48800825  0.32782773  0.87608689  1
  In  In28  1  0.48093605  0.67277186  0.39406551  1
  In  In29  1  0.51645016  0.67892263  0.87275180  1
  In  In30  1  0.84243548  0.00275590  0.36357721  1
  In  In31  1  0.83359504  0.00824685  0.87487725  1
  In  In32  1  0.82151478  0.32469573  0.37192004  1
  In  In33  1  0.84092812  0.32948534  0.88331494  1
  In  In34  1  0.84189381  0.66754720  0.36856948  1
  In  In35  1  0.82545306  0.66393000  0.86911175  1
  In  In36  1  0.00738427  0.11870286  0.38032752  1
  In  In37  1  0.00096501  0.16342806  0.88720325  1
  In  In38  1  -0.00136741  0.51710355  0.37075144  1
  In  In39  1  -0.00656030  0.50599505  0.88392030  1
  In  In40  1  0.02108836  0.85333249  0.35935994  1
  In  In41  1  0.01459378  0.83619706  0.87323078  1
  In  In42  1  0.33472004  0.17519526  0.36226969  1
  In  In43  1  0.34023725  0.16055804  0.88217594  1
  In  In44  1  0.33114022  0.49321725  0.38353974  1
  In  In45  1  0.32903897  0.49030103  0.87771065  1
  In  In46  1  0.32405724  0.84225055  0.38487388  1
  In  In47  1  0.32271915  0.84817555  0.88374886  1
  In  In48  1  0.67690121  0.15437747  0.38275614  1
  In  In49  1  0.67537270  0.15421401  0.87969686  1
  In  In50  1  0.65820405  0.49242105  0.37703096  1
  In  In51  1  0.66991467  0.52422364  0.87628916  1
  In  In52  1  0.65150758  0.83197204  0.37684688  1
  In  In53  1  0.65550046  0.81997388  0.86929430  1
  In  In54  1  0.17167166  -0.00030178  0.12393789  1
  In  In55  1  0.18655112  0.00856610  0.62479227  1
  In  In56  1  0.17437706  0.33800138  0.12623136  1
  In  In57  1  0.15499557  0.34117384  0.62083827  1
  In  In58  1  0.16208016  0.66328027  0.11798178  1
  In  In59  1  0.16192778  0.66496359  0.61825009  1
  In  In60  1  0.49835255  0.00325888  0.12677405  1
  In  In61  1  0.49950199  -0.00313149  0.62461202  1
  In  In62  1  0.50415084  0.32015190  0.12740049  1
  In  In63  1  0.49425957  0.33007446  0.61840590  1
  In  In64  1  0.49009366  0.66782937  0.11890573  1
  In  In65  1  0.50830062  0.68320832  0.60946373  1
  In  In66  1  0.82033886  0.00076060  0.13459088  1
  In  In67  1  0.82017185  -0.00963575  0.62442923  1
  In  In68  1  0.83122448  0.32993820  0.11462979  1
  In  In69  1  0.84448658  0.32857443  0.62157123  1
  In  In70  1  0.84888855  0.67953700  0.12099601  1
  In  In71  1  0.82729329  0.68951513  0.64677467  1
  In  In72  1  0.33640604  0.66917053  0.74447992  1
  In  In73  1  0.83092643  0.83482483  0.00014513  1
  In  In74  1  0.66595558  0.67016475  0.24972257  1
  In  In75  1  0.83470572  0.83764285  0.50181430  1
  In  In76  1  -0.00045299  -0.00413557  0.75085143  1
  In  In77  1  0.83483681  0.50053578  0.50158393  1
  In  In78  1  0.32377132  0.67228931  0.26015427  1
  In  In79  1  0.17020045  0.16485864  0.49715569  1
  In  In80  1  0.49998681  0.50126431  -0.00647410  1
  In  In81  1  0.32936636  0.33003870  0.75128036  1
  In  In82  1  0.00115676  0.32509801  0.24733963  1
  In  In83  1  0.66953526  0.33301994  0.75666103  1
  In  In84  1  0.66302143  0.32995439  0.25324819  1
  In  In85  1  0.00424414  0.33572267  0.74553447  1
  Cu  Cu86  1  0.33532779  0.00481821  0.00427298  1
  Cu  Cu87  1  0.17218690  0.83737620  0.75229223  1
  Cu  Cu88  1  0.16503506  0.50146912  0.24722220  1
  Cu  Cu89  1  0.49463964  0.83862030  0.74760876  1
  Cu  Cu90  1  0.00172575  0.66623148  0.00084015  1
  Cu  Cu91  1  0.33037806  0.32801708  0.49526564  1
  Cu  Cu92  1  0.66309100  0.66735663  0.50093711  1
  Cu  Cu93  1  0.00119961  -0.00347307  0.00272203  1
  Cu  Cu94  1  0.66153042  -0.00145163  0.50297487  1
  Cu  Cu95  1  0.66038197  0.32707638  0.49815486  1
  Cu  Cu96  1  0.32943540  0.67228400  -0.00147446  1
  Cu  Cu97  1  0.83013283  0.16209919  0.75091883  1
  Cu  Cu98  1  0.33320913  0.33172036  0.00464333  1
  Cu  Cu99  1  0.67047532  0.33020994  -0.00423429  1
  Cu  Cu100  1  0.50824769  0.50754595  0.74364968  1
  Cu  Cu101  1  0.84004579  0.50923195  0.24207072  1
  Cu  Cu102  1  0.16974108  0.83183780  0.24685724  1
  Cu  Cu103  1  0.83743953  0.51173962  0.75502016  1
  Cu  Cu104  1  0.83354024  0.16368975  0.24979760  1
  Cu  Cu105  1  0.50013550  0.15044255  0.75168994  1
  Cu  Cu106  1  0.16256363  0.50492914  0.74680843  1
  Cu  Cu107  1  0.66192273  0.00287306  0.00233260  1
  Cu  Cu108  1  -0.00304245  0.67116212  0.50107687  1
  Cu  Cu109  1  -0.00358203  0.32708763  0.49433444  1
  Cu  Cu110  1  0.00537272  0.33098235  0.00780572  1
  Cu  Cu111  1  0.34010689  0.00118085  0.49756410  1
  Cu  Cu112  1  0.50018529  0.16054699  0.24874276  1
  Cu  Cu113  1  0.50174208  0.84297019  0.24964765  1
  Cu  Cu114  1  0.49013808  0.50199476  0.26318992  1
  Se  Se115  1  0.08582462  0.08075505  0.05419942  1
  Se  Se116  1  0.08101330  0.07565178  0.55802948  1
  Se  Se117  1  0.08898696  0.41791541  0.05727697  1
  Se  Se118  1  0.07392951  0.41549800  0.54750760  1
  Se  Se119  1  0.08158793  0.75396062  0.05347166  1
  Se  Se120  1  0.08300526  0.75570276  0.55137625  1
  Se  Se121  1  0.42028256  0.08858081  0.05625237  1
  Se  Se122  1  0.42099309  0.08358069  0.55357190  1
  Se  Se123  1  0.41558923  0.41595069  0.06247916  1
  Se  Se124  1  0.41273115  0.41234579  0.55034237  1
  Se  Se125  1  0.41695697  0.75332439  0.04879630  1
  Se  Se126  1  0.39440989  0.73023780  0.55032590  1
  Se  Se127  1  0.75217507  0.08043792  0.05564940  1
  Se  Se128  1  0.74700328  0.08057068  0.55619211  1
  Se  Se129  1  0.75029347  0.41700104  0.04803401  1
  Se  Se130  1  0.74153028  0.40765335  0.55990062  1
  Se  Se131  1  0.74036264  0.74314971  0.05833078  1
  Se  Se132  1  0.74385022  0.74676296  0.56204670  1
  Se  Se133  1  0.25268677  0.24856499  0.05971458  1
  Se  Se134  1  0.25600962  0.25342000  0.56459413  1
  Se  Se135  1  0.25077242  0.58348946  0.05058175  1
  Se  Se136  1  0.22445309  0.56661654  0.55062305  1
  Se  Se137  1  0.24897945  0.91585265  0.05009326  1
  Se  Se138  1  0.25188973  0.92144753  0.54974925  1
  Se  Se139  1  0.58253190  0.25267462  0.04915964  1
  Se  Se140  1  0.57735907  0.24487644  0.55286758  1
  Se  Se141  1  0.58887847  0.58867964  0.05562935  1
  Se  Se142  1  0.58332768  0.57864057  0.55254765  1
  Se  Se143  1  0.57961509  0.91893442  0.05555443  1
  Se  Se144  1  0.58187577  0.91102881  0.55613481  1
  Se  Se145  1  0.91684058  0.24426184  0.05212051  1
  Se  Se146  1  0.91554757  0.24434555  0.54862749  1
  Se  Se147  1  0.91708057  0.58390443  0.05381417  1
  Se  Se148  1  0.91045891  0.59987684  0.56354802  1
  Se  Se149  1  0.91929565  0.92041109  0.06436844  1
  Se  Se150  1  0.92734592  0.92850713  0.55834528  1
  Se  Se151  1  0.07312500  0.24499657  0.43323676  1
  Se  Se152  1  0.08618995  0.24730239  0.95228131  1
  Se  Se153  1  0.07783860  0.58421008  0.44846515  1
  Se  Se154  1  0.08767642  0.58209359  0.94842714  1
  Se  Se155  1  0.09412201  0.91791303  0.44040373  1
  Se  Se156  1  0.08580547  0.91612707  0.94852671  1
  Se  Se157  1  0.41135540  0.24095344  0.44425543  1
  Se  Se158  1  0.41766225  0.24946543  0.95182355  1
  Se  Se159  1  0.42593140  0.56186798  0.45039010  1
  Se  Se160  1  0.40966939  0.59478147  0.93423971  1
  Se  Se161  1  0.42352927  0.91501432  0.44649955  1
  Se  Se162  1  0.41728742  0.91850501  0.95055668  1
  Se  Se163  1  0.75137254  0.24845769  0.44953540  1
  Se  Se164  1  0.75446171  0.24373307  0.94578370  1
  Se  Se165  1  0.74433693  0.59153239  0.43870902  1
  Se  Se166  1  0.76245066  0.58203042  0.94773565  1
  Se  Se167  1  0.74211466  0.92147582  0.43989835  1
  Se  Se168  1  0.74042975  0.92305504  0.93941349  1
  Se  Se169  1  0.25866804  0.07800951  0.43501718  1
  Se  Se170  1  0.24937504  0.08641028  0.95028938  1
  Se  Se171  1  0.24029512  0.40731690  0.44562552  1
  Se  Se172  1  0.25070608  0.41858483  0.95332973  1
  Se  Se173  1  0.27587168  0.73062676  0.44751490  1
  Se  Se174  1  0.24381541  0.75507656  0.94686638  1
  Se  Se175  1  0.58082775  0.08375960  0.44798687  1
  Se  Se176  1  0.57956191  0.08596167  0.94658832  1
  Se  Se177  1  0.57914018  0.41432151  0.44793519  1
  Se  Se178  1  0.59252538  0.41049081  0.93263315  1
  Se  Se179  1  0.57806300  0.75330534  0.45235508  1
  Se  Se180  1  0.58266840  0.75464170  0.95141702  1
  Se  Se181  1  0.89979058  0.08130109  0.44664267  1
  Se  Se182  1  0.91432771  0.07907685  0.95067396  1
  Se  Se183  1  0.91889540  0.41186869  0.43421250  1
  Se  Se184  1  0.92193784  0.41282205  0.95120929  1
  Se  Se185  1  0.92395464  0.75250661  0.43741026  1
  Se  Se186  1  0.92403813  0.74802641  0.93901478  1
  Se  Se187  1  0.24630321  0.24683999  0.29192500  1
  Se  Se188  1  0.24364410  0.24403262  0.81448830  1
  Se  Se189  1  0.23713148  0.57794892  0.31667475  1
  Se  Se190  1  0.24788699  0.57914662  0.80783684  1
  Se  Se191  1  0.25576473  0.91075757  0.30164361  1
  Se  Se192  1  0.24948589  0.92367588  0.80605209  1
  Se  Se193  1  0.57716807  0.24021390  0.31440940  1
  Se  Se194  1  0.57520885  0.23941852  0.80981639  1
  Se  Se195  1  0.57303918  0.58692674  0.31548944  1
  Se  Se196  1  0.58592987  0.59078122  0.79998435  1
  Se  Se197  1  0.58637368  0.92205814  0.30421426  1
  Se  Se198  1  0.58013390  0.91560753  0.80550399  1
  Se  Se199  1  0.91438577  0.23879306  0.31217447  1
  Se  Se200  1  0.91509500  0.24257148  0.80645838  1
  Se  Se201  1  0.92256296  0.59204061  0.29448216  1
  Se  Se202  1  0.92629358  0.58859459  0.80755789  1
  Se  Se203  1  0.91720093  0.91334278  0.29771884  1
  Se  Se204  1  0.90964561  0.90831744  0.81141986  1
  Se  Se205  1  0.09305223  0.09101362  0.29619148  1
  Se  Se206  1  0.08437007  0.09027678  0.81094296  1
  Se  Se207  1  0.08512080  0.42092443  0.30891756  1
  Se  Se208  1  0.09061080  0.42230914  0.81102492  1
  Se  Se209  1  0.09257069  0.74545167  0.30403744  1
  Se  Se210  1  0.08855545  0.75079144  0.80088015  1
  Se  Se211  1  0.41634946  0.07928673  0.30330115  1
  Se  Se212  1  0.41247454  0.07700868  0.80821229  1
  Se  Se213  1  0.40784731  0.41258425  0.30835796  1
  Se  Se214  1  0.42677419  0.42788360  0.80254568  1
  Se  Se215  1  0.42421141  0.76011402  0.31091734  1
  Se  Se216  1  0.41544471  0.76060039  0.81110355  1
  Se  Se217  1  0.74630507  0.08234485  0.30182415  1
  Se  Se218  1  0.74651538  0.07795294  0.80094612  1
  Se  Se219  1  0.75896059  0.43076124  0.30333673  1
  Se  Se220  1  0.76248431  0.42392076  0.81298460  1
  Se  Se221  1  0.75351614  0.76001825  0.31001226  1
  Se  Se222  1  0.75090758  0.75287248  0.80280356  1
  Se  Se223  1  0.26695034  0.06343150  0.19403637  1
  Se  Se224  1  0.24955780  0.08482371  0.70563273  1
  Se  Se225  1  0.25337273  0.41872596  0.20011708  1
  Se  Se226  1  0.24570253  0.42536259  0.68869949  1
  Se  Se227  1  0.25077076  0.75508894  0.18411073  1
  Se  Se228  1  0.24607188  0.75887970  0.68604067  1
  Se  Se229  1  0.58817454  0.08225762  0.19545646  1
  Se  Se230  1  0.58651277  0.07284980  0.69719486  1
  Se  Se231  1  0.57092603  0.42682105  0.19770182  1
  Se  Se232  1  0.58306750  0.41776619  0.68818836  1
  Se  Se233  1  0.57257393  0.75574777  0.18846017  1
  Se  Se234  1  0.57455682  0.75029165  0.69447615  1
  Se  Se235  1  0.91617633  0.07996802  0.19647513  1
  Se  Se236  1  0.91389702  0.08976757  0.68788246  1
  Se  Se237  1  0.91257196  0.41820876  0.18641730  1
  Se  Se238  1  0.91056598  0.43069928  0.69021566  1
  Se  Se239  1  0.91201111  0.75255801  0.20153424  1
  Se  Se240  1  0.93190173  0.75225724  0.70579169  1
  Se  Se241  1  0.08967597  0.23933881  0.18622152  1
  Se  Se242  1  0.09900449  0.24066502  0.69463967  1
  Se  Se243  1  0.08523369  0.58853095  0.19550728  1
  Se  Se244  1  0.08115653  0.58979096  0.69477257  1
  Se  Se245  1  0.08710214  0.91561859  0.19326999  1
  Se  Se246  1  0.09349395  0.91453107  0.68710025  1
  Se  Se247  1  0.41876232  0.24915284  0.19846184  1
  Se  Se248  1  0.42440891  0.23982098  0.69451089  1
  Se  Se249  1  0.41849924  0.58365864  0.19801068  1
  Se  Se250  1  0.42445378  0.58037556  0.68259627  1
  Se  Se251  1  0.41405024  0.92189468  0.19721144  1
  Se  Se252  1  0.41031293  0.91809592  0.69284721  1
  Se  Se253  1  0.75273804  0.24456429  0.18977659  1
  Se  Se254  1  0.75449653  0.24601425  0.68966642  1
  Se  Se255  1  0.75034464  0.57996907  0.18418230  1
  Se  Se256  1  0.74759087  0.58932169  0.70311762  1
  Se  Se257  1  0.74848443  0.90975260  0.20273181  1
  Se  Se258  1  0.76351107  0.90304370  0.69993322  1
