# generated using pymatgen
data_In86Cu29Se144
_symmetry_space_group_name_H-M   'P 1'
_cell_length_a   17.58045801
_cell_length_b   17.57999659
_cell_length_c   23.43905721
_cell_angle_alpha   90.02203513
_cell_angle_beta   89.99743562
_cell_angle_gamma   90.00613571
_symmetry_Int_Tables_number   1
_chemical_formula_structural   In86Cu29Se144
_chemical_formula_sum   'In86 Cu29 Se144'
_cell_volume   7244.17737956
_cell_formula_units_Z   1
loop_
 _symmetry_equiv_pos_site_id
 _symmetry_equiv_pos_as_xyz
  1  'x, y, z'
loop_
 _atom_site_type_symbol
 _atom_site_label
 _atom_site_symmetry_multiplicity
 _atom_site_fract_x
 _atom_site_fract_y
 _atom_site_fract_z
 _atom_site_occupancy
  In  In0  1  0.00529781  0.16942213  0.12773053  1
  In  In1  1  -0.00237096  0.18145363  0.62285099  1
  In  In2  1  0.00400411  0.50101056  0.12157629  1
  In  In3  1  0.00637641  0.50559946  0.62871314  1
  In  In4  1  -0.01525443  0.83035962  0.12617778  1
  In  In5  1  -0.00708206  0.82415021  0.61464527  1
  In  In6  1  0.33274165  0.16774442  0.13752689  1
  In  In7  1  0.32598797  0.16935429  0.62909293  1
  In  In8  1  0.31868388  0.50944569  0.12845758  1
  In  In9  1  0.31305984  0.50557422  0.62942413  1
  In  In10  1  0.33750135  0.82597419  0.12965691  1
  In  In11  1  0.34397883  0.83464852  0.61544391  1
  In  In12  1  0.65943598  0.16718114  0.12595446  1
  In  In13  1  0.67442494  0.16060475  0.63238343  1
  In  In14  1  0.67308216  0.48824883  0.11909511  1
  In  In15  1  0.66263579  0.50310219  0.64488926  1
  In  In16  1  0.67137736  0.83964162  0.12309609  1
  In  In17  1  0.66802622  0.83548324  0.62708228  1
  In  In18  1  0.16264481  -0.01566305  0.37712450  1
  In  In19  1  0.17346343  -0.01580347  0.86327335  1
  In  In20  1  0.16594966  0.33931317  0.37191797  1
  In  In21  1  0.16661045  0.34457206  0.87111547  1
  In  In22  1  0.16428009  0.66241739  0.37828704  1
  In  In23  1  0.13843300  0.65752148  0.85772723  1
  In  In24  1  0.49269810  -0.00939398  0.36774019  1
  In  In25  1  0.49151013  -0.01065062  0.86947135  1
  In  In26  1  0.49446031  0.34051696  0.37435221  1
  In  In27  1  0.49648433  0.33501295  0.86175328  1
  In  In28  1  0.49681906  0.68441066  0.37811367  1
  In  In29  1  0.51728939  0.66209236  0.87154778  1
  In  In30  1  0.83665812  -0.00015122  0.38245510  1
  In  In31  1  0.81808573  -0.00369958  0.87305765  1
  In  In32  1  0.84130207  0.31495907  0.37902754  1
  In  In33  1  0.85786085  0.35913135  0.86231681  1
  In  In34  1  0.85865479  0.66830986  0.38055919  1
  In  In35  1  0.83352250  0.66699026  0.87538706  1
  In  In36  1  -0.02930468  0.16405339  0.37313020  1
  In  In37  1  -0.00522761  0.17931175  0.87382713  1
  In  In38  1  0.01530665  0.51483577  0.36534969  1
  In  In39  1  -0.00163185  0.49919830  0.87750520  1
  In  In40  1  0.02174342  0.81517716  0.40398036  1
  In  In41  1  -0.00405245  0.80921607  0.86760345  1
  In  In42  1  0.33746869  0.16950490  0.36861528  1
  In  In43  1  0.33568461  0.16645186  0.87043857  1
  In  In44  1  0.31620267  0.49081600  0.36941926  1
  In  In45  1  0.33060568  0.48878814  0.87192397  1
  In  In46  1  0.33103643  0.83105821  0.37360608  1
  In  In47  1  0.32663795  0.84380624  0.87242237  1
  In  In48  1  0.69124569  0.15523831  0.37794720  1
  In  In49  1  0.66634286  0.16425819  0.86864035  1
  In  In50  1  0.66687078  0.49625387  0.37680675  1
  In  In51  1  0.67785192  0.51877558  0.85909136  1
  In  In52  1  0.65833166  0.84406882  0.38101626  1
  In  In53  1  0.66822114  0.83058398  0.87443644  1
  In  In54  1  0.16876270  0.00902367  0.13082440  1
  In  In55  1  0.17965930  -0.00495281  0.62130817  1
  In  In56  1  0.15456831  0.34816789  0.13212678  1
  In  In57  1  0.14849111  0.35629836  0.64526487  1
  In  In58  1  0.17203683  0.65855146  0.12721241  1
  In  In59  1  0.15797304  0.66369550  0.61320866  1
  In  In60  1  0.50926222  -0.00676931  0.13217549  1
  In  In61  1  0.51018149  -0.00713521  0.62921083  1
  In  In62  1  0.50166969  0.32352558  0.12513092  1
  In  In63  1  0.49107582  0.34453675  0.64332741  1
  In  In64  1  0.48204644  0.66651847  0.12167897  1
  In  In65  1  0.49920111  0.68116597  0.62562375  1
  In  In66  1  0.83623075  -0.01712500  0.12882728  1
  In  In67  1  0.82640542  -0.01324130  0.61496211  1
  In  In68  1  0.83475824  0.34408721  0.11923146  1
  In  In69  1  0.83886263  0.33117760  0.63025634  1
  In  In70  1  0.84180088  0.67369168  0.12475315  1
  In  In71  1  0.83526672  0.67209610  0.62976314  1
  In  In72  1  0.16112964  0.16379227  0.49933878  1
  In  In73  1  0.83833561  0.49920951  0.50515731  1
  In  In74  1  0.00182755  -0.00053817  0.73767471  1
  In  In75  1  0.16970172  0.17206872  -0.00437009  1
  In  In76  1  0.66576741  0.66794365  0.25365311  1
  In  In77  1  0.33636099  0.66445845  0.74728500  1
  In  In78  1  0.49775850  0.16323313  -0.00027424  1
  In  In79  1  0.66835974  0.32805819  0.24826330  1
  In  In80  1  0.49472390  0.50799210  0.50989580  1
  In  In81  1  -0.00182387  -0.00330188  0.25666322  1
  In  In82  1  0.82923159  0.16850640  0.00370929  1
  In  In83  1  0.50473379  0.16376879  0.50532356  1
  In  In84  1  0.16430398  0.82821942  -0.00780044  1
  In  In85  1  0.50536109  0.50255200  -0.00485893  1
  Cu  Cu86  1  0.50501895  0.83507149  0.74838532  1
  Cu  Cu87  1  0.49865863  0.15955114  0.74779389  1
  Cu  Cu88  1  0.67254777  0.67115726  -0.00345831  1
  Cu  Cu89  1  0.83572801  0.83174575  0.25545111  1
  Cu  Cu90  1  0.33055871  0.66683292  0.49845713  1
  Cu  Cu91  1  -0.00670902  -0.00641649  -0.00122187  1
  Cu  Cu92  1  0.16901512  0.16879714  0.25384160  1
  Cu  Cu93  1  0.32863973  0.34158600  0.00269345  1
  Cu  Cu94  1  0.33683986  -0.00796187  -0.00049678  1
  Cu  Cu95  1  0.50312999  0.16489997  0.25192674  1
  Cu  Cu96  1  0.83363782  0.83342076  0.74610041  1
  Cu  Cu97  1  0.66772922  0.32825676  0.50830561  1
  Cu  Cu98  1  0.32970061  0.67058795  0.00069624  1
  Cu  Cu99  1  0.82868873  0.16956784  0.75095798  1
  Cu  Cu100  1  0.33848059  -0.00746525  0.49566224  1
  Cu  Cu101  1  0.48566390  0.50251418  0.25077211  1
  Cu  Cu102  1  -0.00467674  0.66100581  -0.00193319  1
  Cu  Cu103  1  0.31889143  0.33311757  0.50153712  1
  Cu  Cu104  1  0.84233476  0.49614272  0.24736081  1
  Cu  Cu105  1  0.49533239  0.83426660  0.25108121  1
  Cu  Cu106  1  0.84084492  0.50784639  0.75046628  1
  Cu  Cu107  1  0.66367967  -0.01452575  0.00064928  1
  Cu  Cu108  1  0.67598251  0.67621236  0.50335033  1
  Cu  Cu109  1  0.16406001  0.50263399  0.24877982  1
  Cu  Cu110  1  0.66720466  -0.00286378  0.50407875  1
  Cu  Cu111  1  0.16617026  0.16725942  0.74868354  1
  Cu  Cu112  1  0.00152286  0.33796818  0.50326564  1
  Cu  Cu113  1  0.67834391  0.34134380  -0.01327949  1
  Cu  Cu114  1  0.16532626  0.82770373  0.25673757  1
  Se  Se115  1  0.07673248  0.07416621  0.05389142  1
  Se  Se116  1  0.07590957  0.07787198  0.56420540  1
  Se  Se117  1  0.09135579  0.42330931  0.05267868  1
  Se  Se118  1  0.08427459  0.41890212  0.55763876  1
  Se  Se119  1  0.07531095  0.74470511  0.05861751  1
  Se  Se120  1  0.08692946  0.75547343  0.54553504  1
  Se  Se121  1  0.40777643  0.07728531  0.06217799  1
  Se  Se122  1  0.40894675  0.07563169  0.56061205  1
  Se  Se123  1  0.41687617  0.41603148  0.06139050  1
  Se  Se124  1  0.40540909  0.40942082  0.56104621  1
  Se  Se125  1  0.41405918  0.75544512  0.04957128  1
  Se  Se126  1  0.42219170  0.74729038  0.54565446  1
  Se  Se127  1  0.74054855  0.07116552  0.06017160  1
  Se  Se128  1  0.74776273  0.08591630  0.55451752  1
  Se  Se129  1  0.75781779  0.42224418  0.04406329  1
  Se  Se130  1  0.74008333  0.41810480  0.56544547  1
  Se  Se131  1  0.75135402  0.75024842  0.05808509  1
  Se  Se132  1  0.75713503  0.75636760  0.55914217  1
  Se  Se133  1  0.25665178  0.25517855  0.06336481  1
  Se  Se134  1  0.23959198  0.25784100  0.56431438  1
  Se  Se135  1  0.24670906  0.58340665  0.04924836  1
  Se  Se136  1  0.24823790  0.57997947  0.54811303  1
  Se  Se137  1  0.24789223  0.91988332  0.05900319  1
  Se  Se138  1  0.25252453  0.91139980  0.54761266  1
  Se  Se139  1  0.59743381  0.26179073  0.04803314  1
  Se  Se140  1  0.58162600  0.25844977  0.56993347  1
  Se  Se141  1  0.59220457  0.59283749  0.06068891  1
  Se  Se142  1  0.59806136  0.59143896  0.56231281  1
  Se  Se143  1  0.57542507  0.90956833  0.05535019  1
  Se  Se144  1  0.58237196  0.91242996  0.55421048  1
  Se  Se145  1  0.92819869  0.25614041  0.05559081  1
  Se  Se146  1  0.91204624  0.25585314  0.55107645  1
  Se  Se147  1  0.91251808  0.58222948  0.05585264  1
  Se  Se148  1  0.92631692  0.59488764  0.55784546  1
  Se  Se149  1  0.91110325  0.91017386  0.05077622  1
  Se  Se150  1  0.92199138  0.92070874  0.54957236  1
  Se  Se151  1  0.07302963  0.25412878  0.43814468  1
  Se  Se152  1  0.07493673  0.26294898  0.94461217  1
  Se  Se153  1  0.08017516  0.58239091  0.44779507  1
  Se  Se154  1  0.08510845  0.58555729  0.94489505  1
  Se  Se155  1  0.08043637  0.93008418  0.45677298  1
  Se  Se156  1  0.07314742  0.92090360  0.93393365  1
  Se  Se157  1  0.40912689  0.25723675  0.44775813  1
  Se  Se158  1  0.41052579  0.26112736  0.94346683  1
  Se  Se159  1  0.41022013  0.58426915  0.43694828  1
  Se  Se160  1  0.41034587  0.59056688  0.93764216  1
  Se  Se161  1  0.42139577  0.90929961  0.44273787  1
  Se  Se162  1  0.41787078  0.90944620  0.94558758  1
  Se  Se163  1  0.74953433  0.24962812  0.45143515  1
  Se  Se164  1  0.75490589  0.25454107  0.93078735  1
  Se  Se165  1  0.74664809  0.58959670  0.44140569  1
  Se  Se166  1  0.74901030  0.58221428  0.94343059  1
  Se  Se167  1  0.75024822  0.91547285  0.44875359  1
  Se  Se168  1  0.75278370  0.90940934  0.94736288  1
  Se  Se169  1  0.25978468  0.07924555  0.43969147  1
  Se  Se170  1  0.25515074  0.07084606  0.93995299  1
  Se  Se171  1  0.24054193  0.41915819  0.44791568  1
  Se  Se172  1  0.24626409  0.42087727  0.94736667  1
  Se  Se173  1  0.24857934  0.75062007  0.44368362  1
  Se  Se174  1  0.24998424  0.73731814  0.93097701  1
  Se  Se175  1  0.58764211  0.07525750  0.43973711  1
  Se  Se176  1  0.58887145  0.07298294  0.94174603  1
  Se  Se177  1  0.58701579  0.40993605  0.45007161  1
  Se  Se178  1  0.59064978  0.41578603  0.92976009  1
  Se  Se179  1  0.58568134  0.75136298  0.44976348  1
  Se  Se180  1  0.58363502  0.74942676  0.94535590  1
  Se  Se181  1  0.91653838  0.08262427  0.45293505  1
  Se  Se182  1  0.91827286  0.07835423  0.93879675  1
  Se  Se183  1  0.92417153  0.41567117  0.43749781  1
  Se  Se184  1  0.91504436  0.42178595  0.94995762  1
  Se  Se185  1  0.90455996  0.76083328  0.45701728  1
  Se  Se186  1  0.91455428  0.75011790  0.94766906  1
  Se  Se187  1  0.25185003  0.25490177  0.30546158  1
  Se  Se188  1  0.24526955  0.24816930  0.80872364  1
  Se  Se189  1  0.24688434  0.58657782  0.30304801  1
  Se  Se190  1  0.24200031  0.57440932  0.80361815  1
  Se  Se191  1  0.24934430  0.91614058  0.30375743  1
  Se  Se192  1  0.26176885  0.91879539  0.79213903  1
  Se  Se193  1  0.58230869  0.24189187  0.31668478  1
  Se  Se194  1  0.58082145  0.24434959  0.80148538  1
  Se  Se195  1  0.57143650  0.57517295  0.31192951  1
  Se  Se196  1  0.57608550  0.57918403  0.79393695  1
  Se  Se197  1  0.58511821  0.91514148  0.30072393  1
  Se  Se198  1  0.58757397  0.91681438  0.80498086  1
  Se  Se199  1  0.91624935  0.25438746  0.29704934  1
  Se  Se200  1  0.91790995  0.25247733  0.79819091  1
  Se  Se201  1  0.91778412  0.58628423  0.30036087  1
  Se  Se202  1  0.92242860  0.58980684  0.80710718  1
  Se  Se203  1  0.92060566  0.90197965  0.31953899  1
  Se  Se204  1  0.91456953  0.91462707  0.80691771  1
  Se  Se205  1  0.08748832  0.09124898  0.31587220  1
  Se  Se206  1  0.08438711  0.08753805  0.80979465  1
  Se  Se207  1  0.08136733  0.41534023  0.29997319  1
  Se  Se208  1  0.07153089  0.41258541  0.80533411  1
  Se  Se209  1  0.07932009  0.75267900  0.31346237  1
  Se  Se210  1  0.10887069  0.77992901  0.80271909  1
  Se  Se211  1  0.41592996  0.08181129  0.30192526  1
  Se  Se212  1  0.41383366  0.07917614  0.80340545  1
  Se  Se213  1  0.40936058  0.41291232  0.30369901  1
  Se  Se214  1  0.41286374  0.41941730  0.79834476  1
  Se  Se215  1  0.41274934  0.74800782  0.30158530  1
  Se  Se216  1  0.42483019  0.75540973  0.81006165  1
  Se  Se217  1  0.76142848  0.07529908  0.30457945  1
  Se  Se218  1  0.74751639  0.08028207  0.79969970  1
  Se  Se219  1  0.75872669  0.42008573  0.30900589  1
  Se  Se220  1  0.75386028  0.41995541  0.79850152  1
  Se  Se221  1  0.75525641  0.75186373  0.31725072  1
  Se  Se222  1  0.75289072  0.75075906  0.80459993  1
  Se  Se223  1  0.25124409  0.08075562  0.20404491  1
  Se  Se224  1  0.24690363  0.08165905  0.69652957  1
  Se  Se225  1  0.25136194  0.41674705  0.19873385  1
  Se  Se226  1  0.26598918  0.40345940  0.70004024  1
  Se  Se227  1  0.24610907  0.74990626  0.19536507  1
  Se  Se228  1  0.25360158  0.74903749  0.67992637  1
  Se  Se229  1  0.58775560  0.08356181  0.19843577  1
  Se  Se230  1  0.58708229  0.07878079  0.69805495  1
  Se  Se231  1  0.57427219  0.42574189  0.19323020  1
  Se  Se232  1  0.58835230  0.41042988  0.70789138  1
  Se  Se233  1  0.57434499  0.75168805  0.18975885  1
  Se  Se234  1  0.58811065  0.74953230  0.69740768  1
  Se  Se235  1  0.91281544  0.08463910  0.19061448  1
  Se  Se236  1  0.90563061  0.09092502  0.68592118  1
  Se  Se237  1  0.92185782  0.41432660  0.19113639  1
  Se  Se238  1  0.91853070  0.42255444  0.69374833  1
  Se  Se239  1  0.91827502  0.74716956  0.20274387  1
  Se  Se240  1  0.92356826  0.75225112  0.69747063  1
  Se  Se241  1  0.08623739  0.24830499  0.19734468  1
  Se  Se242  1  0.07716816  0.24963585  0.70064179  1
  Se  Se243  1  0.08006639  0.58613795  0.19494668  1
  Se  Se244  1  0.09580713  0.58474667  0.69385645  1
  Se  Se245  1  0.08826936  0.90710489  0.19110586  1
  Se  Se246  1  0.09020674  0.90577550  0.68370404  1
  Se  Se247  1  0.42169940  0.25238936  0.20038790  1
  Se  Se248  1  0.41206315  0.24457943  0.69943904  1
  Se  Se249  1  0.40799461  0.58819697  0.19620005  1
  Se  Se250  1  0.42604609  0.57564765  0.68513628  1
  Se  Se251  1  0.41349714  0.91832543  0.19592810  1
  Se  Se252  1  0.41818221  0.91271856  0.69274162  1
  Se  Se253  1  0.76067440  0.24319335  0.18706397  1
  Se  Se254  1  0.74746146  0.25594343  0.69777241  1
  Se  Se255  1  0.75233259  0.57416542  0.19213908  1
  Se  Se256  1  0.75391762  0.59148627  0.70094736  1
  Se  Se257  1  0.75018422  0.91142373  0.20119983  1
  Se  Se258  1  0.75072650  0.92036494  0.69623854  1
