# generated using pymatgen
data_In86Cu29Se144
_symmetry_space_group_name_H-M   'P 1'
_cell_length_a   17.58954709
_cell_length_b   17.59123923
_cell_length_c   23.45086765
_cell_angle_alpha   90.00386091
_cell_angle_beta   90.00249883
_cell_angle_gamma   90.01836310
_symmetry_Int_Tables_number   1
_chemical_formula_structural   In86Cu29Se144
_chemical_formula_sum   'In86 Cu29 Se144'
_cell_volume   7256.21234945
_cell_formula_units_Z   1
loop_
 _symmetry_equiv_pos_site_id
 _symmetry_equiv_pos_as_xyz
  1  'x, y, z'
loop_
 _atom_site_type_symbol
 _atom_site_label
 _atom_site_symmetry_multiplicity
 _atom_site_fract_x
 _atom_site_fract_y
 _atom_site_fract_z
 _atom_site_occupancy
  In  In0  1  0.00309693  0.16745256  0.10998483  1
  In  In1  1  0.00467370  0.17068072  0.61492808  1
  In  In2  1  -0.00758631  0.51195780  0.11677583  1
  In  In3  1  0.01084605  0.50822800  0.61815566  1
  In  In4  1  0.02363914  0.83050323  0.11433739  1
  In  In5  1  0.00266874  0.82031745  0.62942963  1
  In  In6  1  0.34585957  0.18439942  0.10686253  1
  In  In7  1  0.33478145  0.17131516  0.62120812  1
  In  In8  1  0.34118001  0.49716894  0.13523457  1
  In  In9  1  0.33499014  0.49924820  0.63063867  1
  In  In10  1  0.32730214  0.82723844  0.11901049  1
  In  In11  1  0.32357047  0.82424730  0.62008657  1
  In  In12  1  0.67430791  0.17885002  0.11944418  1
  In  In13  1  0.66514630  0.17028362  0.63021307  1
  In  In14  1  0.65977376  0.48591672  0.12310754  1
  In  In15  1  0.64517942  0.47770255  0.61812172  1
  In  In16  1  0.66429984  0.84483255  0.12097017  1
  In  In17  1  0.66522657  0.84768695  0.62932464  1
  In  In18  1  0.16093905  -0.00113374  0.39229432  1
  In  In19  1  0.16363297  -0.00021512  0.88175582  1
  In  In20  1  0.18070453  0.32414200  0.38102546  1
  In  In21  1  0.17809372  0.32040150  0.87150626  1
  In  In22  1  0.17720853  0.65627312  0.38306583  1
  In  In23  1  0.17597385  0.67120892  0.86836672  1
  In  In24  1  0.49785156  0.00349032  0.38601057  1
  In  In25  1  0.50481165  -0.00474124  0.87441157  1
  In  In26  1  0.49912373  0.33378674  0.37649652  1
  In  In27  1  0.48499089  0.31903004  0.86053581  1
  In  In28  1  0.49025976  0.67477039  0.38623842  1
  In  In29  1  0.50102303  0.67647569  0.87313680  1
  In  In30  1  0.85081417  0.00821368  0.37972323  1
  In  In31  1  0.83601718  0.01604210  0.87777201  1
  In  In32  1  0.82590126  0.33861894  0.38220986  1
  In  In33  1  0.82265356  0.33565945  0.87550806  1
  In  In34  1  0.82284317  0.66113454  0.37952474  1
  In  In35  1  0.82795644  0.64996553  0.87527264  1
  In  In36  1  -0.00017146  0.16098086  0.39093430  1
  In  In37  1  0.00425546  0.15573430  0.88787956  1
  In  In38  1  -0.00128084  0.50380655  0.38381379  1
  In  In39  1  -0.01407049  0.50045168  0.87148395  1
  In  In40  1  0.01568732  0.84451012  0.37912008  1
  In  In41  1  0.01760991  0.83301746  0.87841302  1
  In  In42  1  0.32770853  0.17530954  0.37959682  1
  In  In43  1  0.32631759  0.18397903  0.88147708  1
  In  In44  1  0.33550458  0.49897731  0.37863744  1
  In  In45  1  0.33072483  0.49096212  0.86047798  1
  In  In46  1  0.33893017  0.82746254  0.38398222  1
  In  In47  1  0.33755773  0.82834916  0.87776182  1
  In  In48  1  0.65464724  0.18053232  0.38237531  1
  In  In49  1  0.66521524  0.16654673  0.87283226  1
  In  In50  1  0.67443801  0.49045619  0.38544217  1
  In  In51  1  0.67525491  0.49818834  0.87084823  1
  In  In52  1  0.66436589  0.82099853  0.38004260  1
  In  In53  1  0.64583751  0.82707647  0.87465131  1
  In  In54  1  0.17295765  0.00806339  0.11217567  1
  In  In55  1  0.17084053  0.00696490  0.61368310  1
  In  In56  1  0.18110114  0.33140828  0.12294991  1
  In  In57  1  0.17065471  0.33638849  0.62028221  1
  In  In58  1  0.17313304  0.67540560  0.12240517  1
  In  In59  1  0.17041978  0.66492787  0.62849108  1
  In  In60  1  0.49747617  0.00195641  0.11650575  1
  In  In61  1  0.50877177  0.01241848  0.61939252  1
  In  In62  1  0.50523201  0.33630825  0.12996585  1
  In  In63  1  0.49935954  0.33424344  0.63143820  1
  In  In64  1  0.48560571  0.65749993  0.12271993  1
  In  In65  1  0.48004587  0.64805155  0.61931944  1
  In  In66  1  0.82880447  0.00724961  0.11934832  1
  In  In67  1  0.81960456  0.00280139  0.63044554  1
  In  In68  1  0.82595298  0.32778211  0.11924365  1
  In  In69  1  0.82286663  0.32440413  0.62185304  1
  In  In70  1  0.84579870  0.66022397  0.11285250  1
  In  In71  1  0.84673317  0.66621157  0.62869039  1
  In  In72  1  0.00520310  0.66536155  0.24232741  1
  In  In73  1  0.16461560  0.49483586  -0.00879007  1
  In  In74  1  -0.00017928  0.33494321  0.74932024  1
  In  In75  1  0.00293776  0.33589951  0.25465459  1
  In  In76  1  0.50436633  0.50028889  -0.00395725  1
  In  In77  1  0.33683733  0.00356915  0.74207149  1
  In  In78  1  0.83320529  0.83577808  -0.00276531  1
  In  In79  1  0.00121069  0.00155087  0.75739438  1
  In  In80  1  0.65857240  0.01044859  0.26053474  1
  In  In81  1  0.65779829  0.65695220  0.24545741  1
  In  In82  1  0.66169875  0.66141378  0.74729688  1
  In  In83  1  0.83499690  0.83490172  0.50063967  1
  In  In84  1  0.00397913  0.00577999  0.24669631  1
  In  In85  1  0.32979643  0.00278343  0.25095148  1
  Cu  Cu86  1  0.49823657  0.49933742  0.25667686  1
  Cu  Cu87  1  0.66536270  0.32945856  -0.00279648  1
  Cu  Cu88  1  0.33823990  -0.00219885  -0.00545197  1
  Cu  Cu89  1  0.83109115  0.49909594  0.74618215  1
  Cu  Cu90  1  0.00599868  0.66848554  0.50395164  1
  Cu  Cu91  1  0.49127718  0.82653443  0.25378879  1
  Cu  Cu92  1  0.33842286  -0.00273241  0.50301473  1
  Cu  Cu93  1  0.82839594  0.49378112  0.25239030  1
  Cu  Cu94  1  0.16969874  0.83257829  0.74820630  1
  Cu  Cu95  1  0.66890375  0.00729661  0.50382657  1
  Cu  Cu96  1  0.17892824  0.49887863  0.25478841  1
  Cu  Cu97  1  0.66379394  0.66296341  0.50446693  1
  Cu  Cu98  1  0.33767491  0.33625512  0.50284306  1
  Cu  Cu99  1  0.17687620  0.82903595  0.25026171  1
  Cu  Cu100  1  0.82798344  0.17813909  0.24956359  1
  Cu  Cu101  1  0.66341317  0.32910049  0.50431878  1
  Cu  Cu102  1  0.17163773  0.17003037  0.25155542  1
  Cu  Cu103  1  0.83217271  0.16993785  0.75245013  1
  Cu  Cu104  1  0.66085883  0.00443635  -0.00278967  1
  Cu  Cu105  1  0.33043041  0.66691606  -0.00247197  1
  Cu  Cu106  1  0.49483861  0.82938234  0.74896558  1
  Cu  Cu107  1  0.83228243  0.83283410  0.74907383  1
  Cu  Cu108  1  0.50341694  0.16467044  0.74742322  1
  Cu  Cu109  1  0.49704644  0.17611374  0.24746443  1
  Cu  Cu110  1  0.83444695  0.83261157  0.24454481  1
  Cu  Cu111  1  -0.00580757  0.33743550  -0.00687595  1
  Cu  Cu112  1  -0.00182139  0.33869020  0.50039433  1
  Cu  Cu113  1  0.16532922  0.50274044  0.74341681  1
  Cu  Cu114  1  0.32904706  0.66295270  0.50363618  1
  Se  Se115  1  0.08059064  0.07876069  0.04650013  1
  Se  Se116  1  0.08289716  0.08472515  0.54871913  1
  Se  Se117  1  0.07576384  0.40926182  0.05958651  1
  Se  Se118  1  0.08683901  0.41861261  0.55169253  1
  Se  Se119  1  0.07874678  0.72850848  0.04932247  1
  Se  Se120  1  0.08915240  0.75033282  0.55739301  1
  Se  Se121  1  0.41966837  0.08500864  0.04694794  1
  Se  Se122  1  0.41777325  0.08721325  0.55316087  1
  Se  Se123  1  0.41271473  0.41415695  0.05819641  1
  Se  Se124  1  0.41832681  0.41733750  0.55999664  1
  Se  Se125  1  0.41607593  0.74729496  0.05225067  1
  Se  Se126  1  0.41554241  0.74846643  0.55339773  1
  Se  Se127  1  0.74606966  0.08613151  0.05092891  1
  Se  Se128  1  0.75031317  0.08977026  0.55841410  1
  Se  Se129  1  0.74667545  0.41537287  0.05137550  1
  Se  Se130  1  0.74906324  0.41607929  0.55374901  1
  Se  Se131  1  0.74351780  0.74690789  0.05955189  1
  Se  Se132  1  0.74494315  0.74629710  0.56330340  1
  Se  Se133  1  0.23461448  0.23978915  0.04860493  1
  Se  Se134  1  0.25037895  0.25065482  0.55115524  1
  Se  Se135  1  0.25779687  0.57905618  0.05778754  1
  Se  Se136  1  0.24925489  0.57892543  0.55941052  1
  Se  Se137  1  0.25407020  0.91644131  0.05034663  1
  Se  Se138  1  0.25018781  0.91457765  0.55141398  1
  Se  Se139  1  0.57947484  0.25390247  0.05570463  1
  Se  Se140  1  0.57993447  0.24910454  0.56050197  1
  Se  Se141  1  0.59104208  0.59057147  0.05969105  1
  Se  Se142  1  0.57838754  0.57875958  0.55430421  1
  Se  Se143  1  0.58024997  0.91745796  0.04943476  1
  Se  Se144  1  0.58614043  0.91931133  0.55300875  1
  Se  Se145  1  0.91387904  0.25306400  0.05006613  1
  Se  Se146  1  0.91549239  0.25405077  0.55296467  1
  Se  Se147  1  0.91246558  0.57603444  0.03974887  1
  Se  Se148  1  0.91724984  0.58588105  0.55242243  1
  Se  Se149  1  0.92420391  0.92088220  0.06173370  1
  Se  Se150  1  0.91758295  0.91865929  0.56907257  1
  Se  Se151  1  0.08357174  0.25557611  0.44746426  1
  Se  Se152  1  0.08287720  0.25772426  0.94251150  1
  Se  Se153  1  0.08649876  0.58190865  0.45025819  1
  Se  Se154  1  0.07865752  0.58800357  0.93369289  1
  Se  Se155  1  0.07520503  0.92058609  0.45938758  1
  Se  Se156  1  0.08294442  0.91919751  0.95112939  1
  Se  Se157  1  0.41786762  0.25063212  0.44695120  1
  Se  Se158  1  0.42485736  0.25101380  0.94614969  1
  Se  Se159  1  0.41561680  0.58115853  0.45071774  1
  Se  Se160  1  0.40619222  0.58410534  0.93620453  1
  Se  Se161  1  0.42186014  0.91223627  0.45074841  1
  Se  Se162  1  0.42195385  0.91251686  0.94342680  1
  Se  Se163  1  0.75036947  0.24858258  0.45009268  1
  Se  Se164  1  0.75004596  0.24546700  0.94478949  1
  Se  Se165  1  0.75130030  0.58127965  0.45358299  1
  Se  Se166  1  0.73744806  0.58508095  0.94559324  1
  Se  Se167  1  0.74381075  0.92616603  0.43868558  1
  Se  Se168  1  0.73926745  0.92205756  0.93639041  1
  Se  Se169  1  0.25670268  0.08215345  0.44781500  1
  Se  Se170  1  0.25522803  0.08263892  0.94289973  1
  Se  Se171  1  0.25143344  0.41766671  0.44838070  1
  Se  Se172  1  0.26398556  0.40664145  0.94151839  1
  Se  Se173  1  0.24800653  0.75048933  0.45011649  1
  Se  Se174  1  0.24688987  0.75143471  0.94562255  1
  Se  Se175  1  0.58229291  0.08824516  0.45019613  1
  Se  Se176  1  0.57886676  0.08703428  0.94240830  1
  Se  Se177  1  0.58164206  0.41344484  0.44897363  1
  Se  Se178  1  0.58602638  0.40632583  0.93427680  1
  Se  Se179  1  0.58259483  0.75077138  0.45359425  1
  Se  Se180  1  0.58103783  0.74348796  0.94951248  1
  Se  Se181  1  0.91673402  0.08114813  0.45876747  1
  Se  Se182  1  0.91693189  0.07920296  0.95480590  1
  Se  Se183  1  0.91245303  0.42110894  0.44798128  1
  Se  Se184  1  0.90849741  0.41880121  0.94250812  1
  Se  Se185  1  0.92582115  0.74371784  0.43813633  1
  Se  Se186  1  0.91775523  0.74536240  0.93527100  1
  Se  Se187  1  0.25648793  0.25357182  0.30169899  1
  Se  Se188  1  0.25979328  0.25140098  0.79727615  1
  Se  Se189  1  0.25731162  0.58648966  0.30694630  1
  Se  Se190  1  0.25025114  0.58368338  0.79865742  1
  Se  Se191  1  0.24316989  0.91511020  0.31525835  1
  Se  Se192  1  0.24791975  0.91587350  0.80759674  1
  Se  Se193  1  0.58280226  0.25395618  0.30348500  1
  Se  Se194  1  0.58769904  0.24888248  0.80024296  1
  Se  Se195  1  0.57806497  0.57814832  0.31888694  1
  Se  Se196  1  0.57264839  0.57433739  0.80849727  1
  Se  Se197  1  0.57315788  0.90583387  0.31195448  1
  Se  Se198  1  0.57998979  0.91329757  0.79948285  1
  Se  Se199  1  0.91538695  0.24362402  0.31443060  1
  Se  Se200  1  0.91748526  0.24232583  0.81383987  1
  Se  Se201  1  0.90993735  0.57999111  0.30616772  1
  Se  Se202  1  0.91253623  0.58424274  0.79806062  1
  Se  Se203  1  0.91442763  0.90893603  0.30593745  1
  Se  Se204  1  0.91024146  0.90934104  0.81472786  1
  Se  Se205  1  0.09245468  0.09080826  0.31215482  1
  Se  Se206  1  0.09522766  0.09508739  0.80851664  1
  Se  Se207  1  0.09283579  0.42573201  0.31422589  1
  Se  Se208  1  0.09107185  0.42355864  0.81051366  1
  Se  Se209  1  0.09035703  0.75261267  0.30870782  1
  Se  Se210  1  0.08485023  0.75105263  0.80163005  1
  Se  Se211  1  0.42509623  0.08979007  0.30894874  1
  Se  Se212  1  0.42047514  0.08834852  0.80927728  1
  Se  Se213  1  0.41398013  0.41453496  0.30761306  1
  Se  Se214  1  0.41888610  0.41556276  0.79421276  1
  Se  Se215  1  0.41045162  0.74491915  0.30825848  1
  Se  Se216  1  0.41189186  0.74789622  0.80227055  1
  Se  Se217  1  0.75869589  0.09446893  0.31444916  1
  Se  Se218  1  0.75030189  0.08261776  0.80351306  1
  Se  Se219  1  0.74598832  0.41341019  0.30667605  1
  Se  Se220  1  0.74999982  0.41401928  0.79830373  1
  Se  Se221  1  0.75452216  0.75238430  0.30231307  1
  Se  Se222  1  0.75040477  0.75285195  0.80986170  1
  Se  Se223  1  0.24887972  0.09387579  0.18684944  1
  Se  Se224  1  0.23956625  0.09227154  0.69057855  1
  Se  Se225  1  0.25355918  0.41167016  0.19817102  1
  Se  Se226  1  0.24703799  0.41358885  0.69554793  1
  Se  Se227  1  0.25789068  0.74593511  0.19654567  1
  Se  Se228  1  0.25424596  0.74733124  0.69867201  1
  Se  Se229  1  0.57649880  0.09206870  0.18945541  1
  Se  Se230  1  0.58793378  0.07853900  0.69839866  1
  Se  Se231  1  0.58363481  0.41884077  0.20245078  1
  Se  Se232  1  0.58265854  0.41296432  0.70296440  1
  Se  Se233  1  0.57501801  0.75758659  0.18888528  1
  Se  Se234  1  0.57458607  0.75142843  0.68500793  1
  Se  Se235  1  0.90884069  0.09734441  0.19102688  1
  Se  Se236  1  0.91553007  0.09203517  0.69245283  1
  Se  Se237  1  0.91414051  0.42215825  0.19036113  1
  Se  Se238  1  0.91346371  0.42177196  0.68453814  1
  Se  Se239  1  0.91636555  0.76022397  0.18321385  1
  Se  Se240  1  0.91922137  0.74825199  0.70320798  1
  Se  Se241  1  0.08487069  0.24264966  0.19082326  1
  Se  Se242  1  0.08854077  0.24491449  0.69064137  1
  Se  Se243  1  0.09682749  0.56942168  0.18867040  1
  Se  Se244  1  0.07850817  0.58757167  0.69646356  1
  Se  Se245  1  0.09918848  0.91316616  0.19178003  1
  Se  Se246  1  0.09054210  0.91715205  0.69108591  1
  Se  Se247  1  0.41151009  0.25318571  0.19178369  1
  Se  Se248  1  0.41518659  0.24494360  0.69613325  1
  Se  Se249  1  0.41740218  0.58577905  0.20394795  1
  Se  Se250  1  0.41237042  0.58363044  0.70198028  1
  Se  Se251  1  0.42121222  0.91302711  0.19131058  1
  Se  Se252  1  0.42366215  0.91050370  0.68293011  1
  Se  Se253  1  0.74439635  0.25940035  0.19703868  1
  Se  Se254  1  0.74818487  0.25322070  0.70058037  1
  Se  Se255  1  0.75904785  0.57757101  0.18702771  1
  Se  Se256  1  0.75002081  0.57551435  0.68305017  1
  Se  Se257  1  0.75179350  0.92147970  0.19627619  1
  Se  Se258  1  0.74701071  0.91988146  0.70426290  1
