# generated using pymatgen
data_In86Cu29Se144
_symmetry_space_group_name_H-M   'P 1'
_cell_length_a   17.60304166
_cell_length_b   17.59611288
_cell_length_c   23.46873946
_cell_angle_alpha   89.99732415
_cell_angle_beta   89.98557118
_cell_angle_gamma   89.99671691
_symmetry_Int_Tables_number   1
_chemical_formula_structural   In86Cu29Se144
_chemical_formula_sum   'In86 Cu29 Se144'
_cell_volume   7269.32698897
_cell_formula_units_Z   1
loop_
 _symmetry_equiv_pos_site_id
 _symmetry_equiv_pos_as_xyz
  1  'x, y, z'
loop_
 _atom_site_type_symbol
 _atom_site_label
 _atom_site_symmetry_multiplicity
 _atom_site_fract_x
 _atom_site_fract_y
 _atom_site_fract_z
 _atom_site_occupancy
  In  In0  1  0.00267830  0.14821660  0.12650544  1
  In  In1  1  -0.00222600  0.16110191  0.61361250  1
  In  In2  1  0.00201078  0.54602654  0.11329287  1
  In  In3  1  0.01609524  0.51829101  0.62990047  1
  In  In4  1  0.00070957  0.83075105  0.12514041  1
  In  In5  1  -0.00314769  0.82851439  0.62061750  1
  In  In6  1  0.34075408  0.15725007  0.13102216  1
  In  In7  1  0.34114911  0.17943096  0.62171210  1
  In  In8  1  0.34325274  0.49356094  0.13317559  1
  In  In9  1  0.33292428  0.48526572  0.62519932  1
  In  In10  1  0.34684887  0.83265018  0.13128538  1
  In  In11  1  0.33340170  0.83003514  0.61232226  1
  In  In12  1  0.66550721  0.17873943  0.11911420  1
  In  In13  1  0.65611441  0.14148079  0.62635536  1
  In  In14  1  0.67706354  0.50791720  0.10762735  1
  In  In15  1  0.66827558  0.52022620  0.62713720  1
  In  In16  1  0.64796065  0.81516816  0.11700625  1
  In  In17  1  0.66809384  0.82916061  0.62559681  1
  In  In18  1  0.16612155  -0.00432208  0.36956633  1
  In  In19  1  0.16333457  -0.01032125  0.87528011  1
  In  In20  1  0.17041171  0.32183479  0.37651115  1
  In  In21  1  0.16967756  0.32266329  0.87124033  1
  In  In22  1  0.19131980  0.69678527  0.34841941  1
  In  In23  1  0.17319502  0.67677352  0.88108009  1
  In  In24  1  0.48391754  -0.00717288  0.36560175  1
  In  In25  1  0.50515010  -0.01395223  0.88461142  1
  In  In26  1  0.50411200  0.34342015  0.37516604  1
  In  In27  1  0.49475017  0.34021253  0.88237592  1
  In  In28  1  0.50018705  0.66652419  0.37358105  1
  In  In29  1  0.50293429  0.65946339  0.88481517  1
  In  In30  1  0.84099917  -0.01293493  0.38048692  1
  In  In31  1  0.82485126  -0.00147140  0.87380546  1
  In  In32  1  0.82287957  0.33132725  0.37981275  1
  In  In33  1  0.83986434  0.33780938  0.87582121  1
  In  In34  1  0.84829146  0.68050455  0.36254771  1
  In  In35  1  0.83018742  0.67450355  0.87678844  1
  In  In36  1  0.01161874  0.15460473  0.38514813  1
  In  In37  1  -0.00174254  0.16675119  0.87386403  1
  In  In38  1  -0.00088869  0.51860432  0.37279648  1
  In  In39  1  -0.01598604  0.50440289  0.88349834  1
  In  In40  1  0.00210584  0.83135433  0.37024254  1
  In  In41  1  0.01315886  0.81575661  0.89537408  1
  In  In42  1  0.32193262  0.15262873  0.36294681  1
  In  In43  1  0.33196881  0.18030898  0.86964246  1
  In  In44  1  0.34658828  0.51442558  0.36272980  1
  In  In45  1  0.34661884  0.50633279  0.88062488  1
  In  In46  1  0.33601033  0.83367238  0.37129187  1
  In  In47  1  0.33983611  0.81619314  0.89864782  1
  In  In48  1  0.66759646  0.17326704  0.38144524  1
  In  In49  1  0.66201516  0.14757373  0.86940937  1
  In  In50  1  0.65655474  0.49921289  0.37841202  1
  In  In51  1  0.64877566  0.50997196  0.88240585  1
  In  In52  1  0.66999629  0.82843558  0.37350748  1
  In  In53  1  0.66908802  0.83585642  0.87550318  1
  In  In54  1  0.19954841  -0.05706777  0.17424687  1
  In  In55  1  0.16190863  -0.00545497  0.61392761  1
  In  In56  1  0.17342040  0.34480042  0.12464575  1
  In  In57  1  0.18083912  0.33564320  0.61940987  1
  In  In58  1  0.15960706  0.68443684  0.13688388  1
  In  In59  1  0.15829234  0.66388297  0.62828046  1
  In  In60  1  0.48775973  -0.00957735  0.11601470  1
  In  In61  1  0.51234734  -0.00166440  0.62577806  1
  In  In62  1  0.50182097  0.32850362  0.11028900  1
  In  In63  1  0.48365395  0.32818072  0.62768148  1
  In  In64  1  0.50393321  0.67047215  0.12832151  1
  In  In65  1  0.50762518  0.67550140  0.61672123  1
  In  In66  1  0.85314311  -0.00733180  0.13466717  1
  In  In67  1  0.82524909  -0.01494379  0.61605485  1
  In  In68  1  0.82262031  0.34455083  0.12250992  1
  In  In69  1  0.84352615  0.33235758  0.62673305  1
  In  In70  1  0.82853323  0.67014394  0.12040762  1
  In  In71  1  0.83124486  0.67598008  0.63142992  1
  In  In72  1  0.00412236  0.34309495  0.74826048  1
  In  In73  1  -0.00259411  -0.00333096  0.75345225  1
  In  In74  1  0.16583139  0.15967887  -0.00411636  1
  In  In75  1  0.83363539  0.16119921  -0.00337954  1
  In  In76  1  0.66312424  0.33960034  0.24803346  1
  In  In77  1  -0.00187226  0.33794333  0.24945738  1
  In  In78  1  0.33389190  0.66061811  0.75645825  1
  In  In79  1  0.16964163  0.50140585  0.50076055  1
  In  In80  1  0.17096769  0.51225420  0.00519870  1
  In  In81  1  0.49711384  0.16147783  0.49779252  1
  In  In82  1  0.83263687  0.50294279  0.50067634  1
  In  In83  1  0.33632342  0.00134101  0.75070951  1
  In  In84  1  0.66147820  0.33613373  0.75497695  1
  In  In85  1  0.66093456  -0.00314906  0.25216798  1
  Cu  Cu86  1  0.66508800  0.67412925  -0.00196446  1
  Cu  Cu87  1  0.83751599  0.16648602  0.25748701  1
  Cu  Cu88  1  0.49887239  0.50280910  0.75524285  1
  Cu  Cu89  1  0.17428622  0.17225447  0.74216988  1
  Cu  Cu90  1  0.83379028  0.83321848  0.75009497  1
  Cu  Cu91  1  0.32600228  -0.00512146  0.49070367  1
  Cu  Cu92  1  0.83115790  0.51546716  0.75508932  1
  Cu  Cu93  1  0.33484480  0.33367416  0.00017581  1
  Cu  Cu94  1  0.82896839  0.83030133  0.24759978  1
  Cu  Cu95  1  0.16898636  0.49706926  0.24467296  1
  Cu  Cu96  1  0.66851469  0.67131472  0.49758456  1
  Cu  Cu97  1  0.66777857  -0.00839814  0.49904865  1
  Cu  Cu98  1  0.83163496  0.50548571  0.23930337  1
  Cu  Cu99  1  0.16616782  0.16777015  0.25253233  1
  Cu  Cu100  1  -0.00897533  0.33913059  0.00735900  1
  Cu  Cu101  1  -0.00224073  0.32768771  0.49916112  1
  Cu  Cu102  1  0.33636447  0.66649895  0.48876469  1
  Cu  Cu103  1  0.00663816  0.67558265  0.49712590  1
  Cu  Cu104  1  0.82467648  0.16235959  0.74466861  1
  Cu  Cu105  1  0.33459325  0.33176062  0.49733079  1
  Cu  Cu106  1  0.50446600  0.50299112  0.24733203  1
  Cu  Cu107  1  0.17085543  0.83111741  0.75711012  1
  Cu  Cu108  1  0.67030579  0.00062538  0.00195824  1
  Cu  Cu109  1  0.50692444  0.83244983  0.75164345  1
  Cu  Cu110  1  0.01129948  -0.01237905  0.00632800  1
  Cu  Cu111  1  0.49601115  0.16824320  0.23955444  1
  Cu  Cu112  1  0.33244687  0.00006406  0.01065626  1
  Cu  Cu113  1  0.66671138  0.33004217  0.50254181  1
  Cu  Cu114  1  0.00010510  0.00015891  0.49414641  1
  Se  Se115  1  0.09307046  0.06765969  0.06288644  1
  Se  Se116  1  0.08484281  0.08296649  0.54696666  1
  Se  Se117  1  0.07303305  0.42078485  0.06346428  1
  Se  Se118  1  0.07248045  0.41241564  0.55943074  1
  Se  Se119  1  0.07069915  0.73521477  0.05799722  1
  Se  Se120  1  0.09050716  0.75202184  0.55555764  1
  Se  Se121  1  0.41923855  0.09131080  0.05142218  1
  Se  Se122  1  0.40692724  0.07040482  0.55711928  1
  Se  Se123  1  0.41483864  0.42158729  0.05181934  1
  Se  Se124  1  0.41798248  0.41357271  0.55154005  1
  Se  Se125  1  0.42837240  0.75825837  0.05905320  1
  Se  Se126  1  0.41897844  0.74842356  0.54654235  1
  Se  Se127  1  0.75234607  0.07482290  0.06582490  1
  Se  Se128  1  0.74631254  0.07941003  0.55271751  1
  Se  Se129  1  0.73116815  0.39519356  0.04807351  1
  Se  Se130  1  0.74325631  0.41287367  0.56334694  1
  Se  Se131  1  0.75044868  0.75692743  0.05022254  1
  Se  Se132  1  0.75299467  0.74858765  0.55494854  1
  Se  Se133  1  0.25182915  0.25302205  0.05727468  1
  Se  Se134  1  0.25175240  0.24662416  0.54886904  1
  Se  Se135  1  0.25292464  0.59076828  0.07617122  1
  Se  Se136  1  0.26152492  0.59245639  0.55945592  1
  Se  Se137  1  0.25392798  0.92136083  0.07076090  1
  Se  Se138  1  0.24577737  0.91153332  0.54778251  1
  Se  Se139  1  0.59174152  0.25204414  0.04386710  1
  Se  Se140  1  0.58565979  0.24989958  0.56218262  1
  Se  Se141  1  0.58111532  0.59019522  0.05131865  1
  Se  Se142  1  0.58666197  0.58453803  0.54962157  1
  Se  Se143  1  0.58378512  0.91752240  0.05242448  1
  Se  Se144  1  0.58402655  0.91169690  0.55515344  1
  Se  Se145  1  0.92001651  0.24924489  0.06456409  1
  Se  Se146  1  0.91117040  0.24896954  0.55200065  1
  Se  Se147  1  0.88627200  0.56653514  0.05153383  1
  Se  Se148  1  0.92711195  0.59245545  0.55702729  1
  Se  Se149  1  0.91559009  0.91391259  0.05432269  1
  Se  Se150  1  0.92115333  0.91519422  0.55082716  1
  Se  Se151  1  0.08773574  0.24917131  0.44934521  1
  Se  Se152  1  0.06979204  0.26068871  0.94578607  1
  Se  Se153  1  0.08915422  0.59635257  0.43934841  1
  Se  Se154  1  0.07380040  0.59295647  0.94613339  1
  Se  Se155  1  0.08180624  0.91617753  0.43997583  1
  Se  Se156  1  0.09892464  0.90942609  0.95291018  1
  Se  Se157  1  0.41069079  0.24999278  0.43389992  1
  Se  Se158  1  0.41342509  0.24724155  0.94621397  1
  Se  Se159  1  0.42169268  0.57792201  0.44477508  1
  Se  Se160  1  0.40026583  0.60189146  0.95132611  1
  Se  Se161  1  0.41751498  0.91444887  0.44452927  1
  Se  Se162  1  0.41556045  0.91653044  0.95576054  1
  Se  Se163  1  0.75208713  0.24701605  0.45324369  1
  Se  Se164  1  0.74735289  0.24544063  0.93204032  1
  Se  Se165  1  0.75059939  0.59231651  0.43586244  1
  Se  Se166  1  0.74487609  0.58758880  0.94313312  1
  Se  Se167  1  0.75071954  0.90858465  0.44548381  1
  Se  Se168  1  0.75241989  0.91783768  0.94769056  1
  Se  Se169  1  0.24493775  0.08279040  0.44112340  1
  Se  Se170  1  0.26236717  0.07307470  0.93710129  1
  Se  Se171  1  0.25946380  0.41678059  0.43607486  1
  Se  Se172  1  0.24843797  0.41018788  0.94273018  1
  Se  Se173  1  0.24843834  0.75160117  0.44101843  1
  Se  Se174  1  0.24396080  0.74549206  0.96085493  1
  Se  Se175  1  0.58608831  0.06916743  0.43684545  1
  Se  Se176  1  0.58433606  0.08079731  0.94884524  1
  Se  Se177  1  0.58397660  0.41475472  0.45132347  1
  Se  Se178  1  0.57997330  0.41768017  0.95005011  1
  Se  Se179  1  0.58342683  0.75022283  0.44281624  1
  Se  Se180  1  0.58144000  0.75719106  0.94447705  1
  Se  Se181  1  0.91021221  0.08448538  0.44664185  1
  Se  Se182  1  0.93343416  0.06862250  0.94345558  1
  Se  Se183  1  0.92573753  0.41285041  0.43881269  1
  Se  Se184  1  0.90728982  0.41807559  0.95310745  1
  Se  Se185  1  0.91751152  0.75238097  0.44358448  1
  Se  Se186  1  0.90171819  0.75979783  0.95041880  1
  Se  Se187  1  0.25150103  0.25391474  0.29982627  1
  Se  Se188  1  0.25331673  0.25743173  0.79509681  1
  Se  Se189  1  0.25300025  0.58313728  0.29493557  1
  Se  Se190  1  0.24153134  0.57338639  0.81443276  1
  Se  Se191  1  0.25237385  0.91787282  0.30181059  1
  Se  Se192  1  0.25699842  0.90435334  0.81504903  1
  Se  Se193  1  0.57612946  0.24070518  0.30551819  1
  Se  Se194  1  0.57399475  0.24518776  0.81239803  1
  Se  Se195  1  0.58632750  0.58219561  0.30512820  1
  Se  Se196  1  0.58024820  0.58985784  0.80505104  1
  Se  Se197  1  0.57057377  0.90116153  0.30387764  1
  Se  Se198  1  0.58500219  0.91923008  0.80557620  1
  Se  Se199  1  0.91566686  0.24818147  0.31603938  1
  Se  Se200  1  0.90855403  0.24229015  0.80114985  1
  Se  Se201  1  0.91703471  0.58301232  0.29571710  1
  Se  Se202  1  0.91870320  0.59176796  0.80909473  1
  Se  Se203  1  0.91272657  0.91312085  0.30230333  1
  Se  Se204  1  0.91558493  0.90498418  0.81535414  1
  Se  Se205  1  0.08168010  0.08467337  0.30426722  1
  Se  Se206  1  0.09664493  0.09320476  0.80522230  1
  Se  Se207  1  0.09021471  0.42443695  0.31163196  1
  Se  Se208  1  0.08471138  0.42462355  0.81821531  1
  Se  Se209  1  0.06525488  0.73365289  0.30194642  1
  Se  Se210  1  0.08519223  0.75184143  0.81067086  1
  Se  Se211  1  0.41613635  0.08341535  0.29502482  1
  Se  Se212  1  0.42252725  0.08319473  0.81627328  1
  Se  Se213  1  0.42364917  0.41631005  0.30131586  1
  Se  Se214  1  0.41596613  0.41927407  0.80741876  1
  Se  Se215  1  0.39929486  0.72946992  0.30825390  1
  Se  Se216  1  0.42159827  0.75754637  0.81194987  1
  Se  Se217  1  0.75203676  0.08744278  0.31301460  1
  Se  Se218  1  0.74843415  0.07469525  0.79799657  1
  Se  Se219  1  0.75911125  0.42846782  0.30660673  1
  Se  Se220  1  0.75435529  0.42780165  0.81116012  1
  Se  Se221  1  0.74542220  0.74652244  0.29976057  1
  Se  Se222  1  0.74795461  0.75262512  0.80356688  1
  Se  Se223  1  0.24379034  0.08673243  0.19386525  1
  Se  Se224  1  0.24522583  0.08391546  0.68434797  1
  Se  Se225  1  0.25637292  0.40964302  0.20044953  1
  Se  Se226  1  0.23772487  0.42433398  0.69411079  1
  Se  Se227  1  0.23550865  0.78045574  0.19793826  1
  Se  Se228  1  0.25052750  0.75636638  0.69290860  1
  Se  Se229  1  0.58199560  0.08872388  0.18504693  1
  Se  Se230  1  0.56628249  0.08816925  0.70162953  1
  Se  Se231  1  0.57966992  0.42456722  0.18238844  1
  Se  Se232  1  0.57690685  0.42551002  0.68902018  1
  Se  Se233  1  0.58768165  0.74671558  0.20096632  1
  Se  Se234  1  0.58403195  0.74626923  0.69516778  1
  Se  Se235  1  0.92097874  0.08447902  0.20519327  1
  Se  Se236  1  0.91076316  0.08360559  0.68810230  1
  Se  Se237  1  0.91726245  0.42688574  0.18363583  1
  Se  Se238  1  0.90933698  0.43684779  0.69230884  1
  Se  Se239  1  0.91131878  0.74818666  0.19217029  1
  Se  Se240  1  0.92223296  0.75287858  0.69782725  1
  Se  Se241  1  0.08772385  0.24701118  0.18829953  1
  Se  Se242  1  0.08452236  0.24481065  0.68576427  1
  Se  Se243  1  0.08310974  0.58467134  0.19903499  1
  Se  Se244  1  0.08973227  0.58841377  0.70653631  1
  Se  Se245  1  0.05619317  0.93318120  0.19409051  1
  Se  Se246  1  0.09253460  0.91074370  0.69488264  1
  Se  Se247  1  0.42023958  0.25813038  0.18762430  1
  Se  Se248  1  0.41555676  0.24555113  0.70095265  1
  Se  Se249  1  0.41817232  0.58742727  0.19798223  1
  Se  Se250  1  0.42249472  0.57969073  0.68794003  1
  Se  Se251  1  0.41670290  0.92973373  0.19888268  1
  Se  Se252  1  0.41982477  0.90422593  0.69037887  1
  Se  Se253  1  0.75992131  0.24408208  0.19645676  1
  Se  Se254  1  0.74768875  0.24779534  0.68725873  1
  Se  Se255  1  0.74323106  0.58395746  0.18848267  1
  Se  Se256  1  0.74675872  0.59489308  0.70044634  1
  Se  Se257  1  0.74822006  0.91066144  0.18804441  1
  Se  Se258  1  0.75060544  0.91459344  0.69488150  1
