# generated using pymatgen
data_In86Cu29Se144
_symmetry_space_group_name_H-M   'P 1'
_cell_length_a   17.57534611
_cell_length_b   17.57260404
_cell_length_c   23.43579525
_cell_angle_alpha   90.01563148
_cell_angle_beta   90.00314696
_cell_angle_gamma   90.00505799
_symmetry_Int_Tables_number   1
_chemical_formula_structural   In86Cu29Se144
_chemical_formula_sum   'In86 Cu29 Se144'
_cell_volume   7238.01845634
_cell_formula_units_Z   1
loop_
 _symmetry_equiv_pos_site_id
 _symmetry_equiv_pos_as_xyz
  1  'x, y, z'
loop_
 _atom_site_type_symbol
 _atom_site_label
 _atom_site_symmetry_multiplicity
 _atom_site_fract_x
 _atom_site_fract_y
 _atom_site_fract_z
 _atom_site_occupancy
  In  In0  1  -0.00499859  0.15460476  0.11233688  1
  In  In1  1  -0.01530986  0.16297387  0.63663531  1
  In  In2  1  -0.00487027  0.52449159  0.12048755  1
  In  In3  1  0.01452828  0.50974708  0.63016462  1
  In  In4  1  -0.00092735  0.81340110  0.11150307  1
  In  In5  1  0.00790249  0.82479378  0.63663519  1
  In  In6  1  0.33517880  0.16284982  0.12284562  1
  In  In7  1  0.34949704  0.16618315  0.62466403  1
  In  In8  1  0.32721207  0.49604094  0.13283099  1
  In  In9  1  0.34092356  0.49165545  0.63491333  1
  In  In10  1  0.34565554  0.83841004  0.11595604  1
  In  In11  1  0.32665830  0.82564279  0.61346803  1
  In  In12  1  0.64166152  0.13396114  0.09218455  1
  In  In13  1  0.66270739  0.17398480  0.63049981  1
  In  In14  1  0.67808805  0.49659560  0.12413930  1
  In  In15  1  0.65230887  0.50835438  0.63379936  1
  In  In16  1  0.66400232  0.83625777  0.12495152  1
  In  In17  1  0.65113205  0.82900998  0.62626246  1
  In  In18  1  0.16905707  -0.02565780  0.37219713  1
  In  In19  1  0.16287443  0.00604226  0.87886908  1
  In  In20  1  0.17869341  0.32232337  0.37573849  1
  In  In21  1  0.17376267  0.32161678  0.87421386  1
  In  In22  1  0.18094891  0.70561439  0.36286433  1
  In  In23  1  0.17054845  0.67441578  0.87681949  1
  In  In24  1  0.49674748  0.00164340  0.37034763  1
  In  In25  1  0.51759757  -0.00235828  0.89282319  1
  In  In26  1  0.48634317  0.34398416  0.38306581  1
  In  In27  1  0.49516693  0.32558525  0.86770186  1
  In  In28  1  0.50026972  0.66318235  0.38426306  1
  In  In29  1  0.50072690  0.66601422  0.87213382  1
  In  In30  1  0.82646826  0.00804118  0.36516040  1
  In  In31  1  0.84066138  -0.02662213  0.89941008  1
  In  In32  1  0.82911852  0.32643106  0.36914107  1
  In  In33  1  0.82508982  0.34390700  0.88019708  1
  In  In34  1  0.83649664  0.67763635  0.35748656  1
  In  In35  1  0.83277371  0.67149487  0.88013503  1
  In  In36  1  -0.01271634  0.15919329  0.36740499  1
  In  In37  1  0.00886046  0.15594201  0.88283818  1
  In  In38  1  -0.00876842  0.51337978  0.37616627  1
  In  In39  1  -0.01596140  0.50515209  0.87868509  1
  In  In40  1  0.01614759  0.82638308  0.36899599  1
  In  In41  1  -0.00012970  0.83302856  0.88032459  1
  In  In42  1  0.34689932  0.17787448  0.36474542  1
  In  In43  1  0.33529403  0.16703289  0.87858255  1
  In  In44  1  0.36927139  0.51440687  0.36146249  1
  In  In45  1  0.33738453  0.50293848  0.86672134  1
  In  In46  1  0.32617142  0.83740009  0.37931684  1
  In  In47  1  0.33577180  0.81516185  0.89500144  1
  In  In48  1  0.65937054  0.15278166  0.36697748  1
  In  In49  1  0.66099675  0.16761582  0.88472978  1
  In  In50  1  0.64412393  0.50505295  0.37310595  1
  In  In51  1  0.67874422  0.51052772  0.86797917  1
  In  In52  1  0.65041042  0.81331492  0.35390018  1
  In  In53  1  0.67617332  0.82779538  0.89064738  1
  In  In54  1  0.17316587  0.00094984  0.12027570  1
  In  In55  1  0.17148685  -0.01645795  0.62884033  1
  In  In56  1  0.18136709  0.33078794  0.12612289  1
  In  In57  1  0.17046645  0.35286999  0.63084091  1
  In  In58  1  0.16178341  0.66643542  0.12155614  1
  In  In59  1  0.16191137  0.67655228  0.63509957  1
  In  In60  1  0.49927145  -0.00468173  0.12204917  1
  In  In61  1  0.48987178  -0.00680344  0.61426379  1
  In  In62  1  0.50708917  0.32692015  0.12910489  1
  In  In63  1  0.49972986  0.33198087  0.62880118  1
  In  In64  1  0.49336002  0.68495430  0.12333350  1
  In  In65  1  0.49935223  0.66710681  0.62756936  1
  In  In66  1  0.80326814  -0.02518983  0.10048104  1
  In  In67  1  0.83595460  0.01051950  0.63504038  1
  In  In68  1  0.83000311  0.33220538  0.11284528  1
  In  In69  1  0.82545492  0.31758166  0.63501307  1
  In  In70  1  0.83243508  0.66981941  0.12104200  1
  In  In71  1  0.83511299  0.66867462  0.63624898  1
  In  In72  1  0.33327256  -0.00034574  0.75486746  1
  In  In73  1  0.01040421  0.33945049  0.23723929  1
  In  In74  1  0.67183082  -0.00352538  0.75948185  1
  In  In75  1  0.33654006  0.66883738  0.24642441  1
  In  In76  1  0.82198061  0.50552038  0.50782291  1
  In  In77  1  0.16436298  0.50157764  0.00325455  1
  In  In78  1  0.66536552  0.33596645  0.24869183  1
  In  In79  1  0.50179653  0.50105327  -0.00656614  1
  In  In80  1  0.82769268  0.83780593  0.49557362  1
  In  In81  1  0.17972519  0.51084168  0.49923775  1
  In  In82  1  0.82082466  0.16163992  0.49446823  1
  In  In83  1  0.17250413  0.15591975  0.50384385  1
  In  In84  1  -0.00306831  -0.01079341  0.24173179  1
  In  In85  1  -0.00112066  0.34070802  0.75274498  1
  Cu  Cu86  1  0.16575681  0.83640685  0.75662344  1
  Cu  Cu87  1  0.65625443  -0.00243783  0.49226719  1
  Cu  Cu88  1  0.82827534  0.50497064  0.75572054  1
  Cu  Cu89  1  0.50506539  0.16168546  0.75197597  1
  Cu  Cu90  1  0.65005064  0.33459795  0.50635793  1
  Cu  Cu91  1  0.82358801  0.16587488  0.23384250  1
  Cu  Cu92  1  0.33328976  0.00031434  0.49417740  1
  Cu  Cu93  1  0.83475797  0.51463876  0.24536511  1
  Cu  Cu94  1  0.83271398  0.83312117  0.76227574  1
  Cu  Cu95  1  0.66342606  0.66394973  0.49791091  1
  Cu  Cu96  1  0.17596958  0.15626051  0.24729720  1
  Cu  Cu97  1  0.49912150  0.84197703  0.24617315  1
  Cu  Cu98  1  0.17122568  0.17006882  0.75653406  1
  Cu  Cu99  1  0.66718376  0.33284956  -0.00234866  1
  Cu  Cu100  1  0.33382206  0.00299860  -0.00113649  1
  Cu  Cu101  1  0.00549069  -0.00195786  0.00356801  1
  Cu  Cu102  1  0.50587130  0.49683563  0.75060204  1
  Cu  Cu103  1  0.49553141  0.82525774  0.75398575  1
  Cu  Cu104  1  0.83591912  0.15991275  0.76240267  1
  Cu  Cu105  1  0.66674246  0.66662777  -0.00063213  1
  Cu  Cu106  1  -0.00126934  0.33025749  0.49595763  1
  Cu  Cu107  1  0.33884238  0.32974888  -0.00015616  1
  Cu  Cu108  1  0.00539068  -0.01402507  0.50517202  1
  Cu  Cu109  1  0.00770404  0.33555690  -0.00451308  1
  Cu  Cu110  1  0.49905293  0.16251808  0.24119347  1
  Cu  Cu111  1  0.16746668  0.49826682  0.25146612  1
  Cu  Cu112  1  0.16600183  0.51008824  0.75389159  1
  Cu  Cu113  1  0.33851722  0.33750261  0.50260218  1
  Cu  Cu114  1  0.01237489  0.67509994  0.50241078  1
  Se  Se115  1  0.09377475  0.08485213  0.04903588  1
  Se  Se116  1  0.07222672  0.07749743  0.56634777  1
  Se  Se117  1  0.07718036  0.41163845  0.06636725  1
  Se  Se118  1  0.07710638  0.41484437  0.55318288  1
  Se  Se119  1  0.09797721  0.74832552  0.04313586  1
  Se  Se120  1  0.08991659  0.75857374  0.55835247  1
  Se  Se121  1  0.41870461  0.08334024  0.05291734  1
  Se  Se122  1  0.41502096  0.08484761  0.54722659  1
  Se  Se123  1  0.41370078  0.41292274  0.05996348  1
  Se  Se124  1  0.42029168  0.41807630  0.55929137  1
  Se  Se125  1  0.41911865  0.75146229  0.04451706  1
  Se  Se126  1  0.44027576  0.76978617  0.56059032  1
  Se  Se127  1  0.77922962  0.10967181  0.06092599  1
  Se  Se128  1  0.73708604  0.07112886  0.55959090  1
  Se  Se129  1  0.74994009  0.42084222  0.04642465  1
  Se  Se130  1  0.74018586  0.40429680  0.56601659  1
  Se  Se131  1  0.74590108  0.75225400  0.05375243  1
  Se  Se132  1  0.74578212  0.74141185  0.55936272  1
  Se  Se133  1  0.25268159  0.24814044  0.05246658  1
  Se  Se134  1  0.25312953  0.26077448  0.56236558  1
  Se  Se135  1  0.26307786  0.58675913  0.05820009  1
  Se  Se136  1  0.25813076  0.59140937  0.57206044  1
  Se  Se137  1  0.25301642  0.91689763  0.05050626  1
  Se  Se138  1  0.24837517  0.91941314  0.54875048  1
  Se  Se139  1  0.57823151  0.25568863  0.04950960  1
  Se  Se140  1  0.57570489  0.24208189  0.55774766  1
  Se  Se141  1  0.58621965  0.58688265  0.06020676  1
  Se  Se142  1  0.58175231  0.58340465  0.55514797  1
  Se  Se143  1  0.58606033  0.91873625  0.05271576  1
  Se  Se144  1  0.58247986  0.91324267  0.55179081  1
  Se  Se145  1  0.92359966  0.25402683  0.05031089  1
  Se  Se146  1  0.91729862  0.25060597  0.55663384  1
  Se  Se147  1  0.90484780  0.58165993  0.04780171  1
  Se  Se148  1  0.92782590  0.59370762  0.55946282  1
  Se  Se149  1  0.92049113  0.91222199  0.05166151  1
  Se  Se150  1  0.91609199  0.91814684  0.56613762  1
  Se  Se151  1  0.07510004  0.24383680  0.43996537  1
  Se  Se152  1  0.09005669  0.24903326  0.94609803  1
  Se  Se153  1  0.08629810  0.59596833  0.43781097  1
  Se  Se154  1  0.07542114  0.58856415  0.94208294  1
  Se  Se155  1  0.08476739  0.90600584  0.44803777  1
  Se  Se156  1  0.08664154  0.91723672  0.94643016  1
  Se  Se157  1  0.41457996  0.24692477  0.44869931  1
  Se  Se158  1  0.42270533  0.24844384  0.94550864  1
  Se  Se159  1  0.40895303  0.58734317  0.45024475  1
  Se  Se160  1  0.40387311  0.59078888  0.94324602  1
  Se  Se161  1  0.41851197  0.91772859  0.44197913  1
  Se  Se162  1  0.41706618  0.91743654  0.94739618  1
  Se  Se163  1  0.73050055  0.25972094  0.43976505  1
  Se  Se164  1  0.75425494  0.24968976  0.94725589  1
  Se  Se165  1  0.74819536  0.59165276  0.43464151  1
  Se  Se166  1  0.75093500  0.58243386  0.94733720  1
  Se  Se167  1  0.73955387  0.92248202  0.43201210  1
  Se  Se168  1  0.72022268  0.93806173  0.95689608  1
  Se  Se169  1  0.25367124  0.07835372  0.43042218  1
  Se  Se170  1  0.24966776  0.08729536  0.94560363  1
  Se  Se171  1  0.26278034  0.41529575  0.43792799  1
  Se  Se172  1  0.25840544  0.41289825  0.94206899  1
  Se  Se173  1  0.26030789  0.74139243  0.44870207  1
  Se  Se174  1  0.22653427  0.75873955  0.95794235  1
  Se  Se175  1  0.57596148  0.08712274  0.44316166  1
  Se  Se176  1  0.58721893  0.08945193  0.96122655  1
  Se  Se177  1  0.57628326  0.42237507  0.44956014  1
  Se  Se178  1  0.59077174  0.41243572  0.93262905  1
  Se  Se179  1  0.58815710  0.75468018  0.44398476  1
  Se  Se180  1  0.57820186  0.74494491  0.94664274  1
  Se  Se181  1  0.92306906  0.06769091  0.44554248  1
  Se  Se182  1  0.91900617  0.08089422  0.95049904  1
  Se  Se183  1  0.91318112  0.41209170  0.44267531  1
  Se  Se184  1  0.91623642  0.41687264  0.94962899  1
  Se  Se185  1  0.92124678  0.74338254  0.44114366  1
  Se  Se186  1  0.89472875  0.77371638  0.94504516  1
  Se  Se187  1  0.25208941  0.24984209  0.29751722  1
  Se  Se188  1  0.26165051  0.25026058  0.80295516  1
  Se  Se189  1  0.24704369  0.58017935  0.31224793  1
  Se  Se190  1  0.25148140  0.59180327  0.80622196  1
  Se  Se191  1  0.24571734  0.89918545  0.29907513  1
  Se  Se192  1  0.25068122  0.90923820  0.81811367  1
  Se  Se193  1  0.57222204  0.24607560  0.30692147  1
  Se  Se194  1  0.58909804  0.24392662  0.80563581  1
  Se  Se195  1  0.57916084  0.59665986  0.30483966  1
  Se  Se196  1  0.58431589  0.58490078  0.80366685  1
  Se  Se197  1  0.58448722  0.92484758  0.29977254  1
  Se  Se198  1  0.57735543  0.90525495  0.81387470  1
  Se  Se199  1  0.90926573  0.24528983  0.29214075  1
  Se  Se200  1  0.91717689  0.24883712  0.81604953  1
  Se  Se201  1  0.92634984  0.59083940  0.29668272  1
  Se  Se202  1  0.91231696  0.58905243  0.80609558  1
  Se  Se203  1  0.91155835  0.90765418  0.31131832  1
  Se  Se204  1  0.91449718  0.92052947  0.81217958  1
  Se  Se205  1  0.08782298  0.08141877  0.30744495  1
  Se  Se206  1  0.08552910  0.08504055  0.80346305  1
  Se  Se207  1  0.08736134  0.42017561  0.31514371  1
  Se  Se208  1  0.08999801  0.42593965  0.81585361  1
  Se  Se209  1  0.07472662  0.73895651  0.29272521  1
  Se  Se210  1  0.08168488  0.75181109  0.80827057  1
  Se  Se211  1  0.41516031  0.08201978  0.29807095  1
  Se  Se212  1  0.43224241  0.07933136  0.81515032  1
  Se  Se213  1  0.41700706  0.40519335  0.29856333  1
  Se  Se214  1  0.41748171  0.41539972  0.80128275  1
  Se  Se215  1  0.42356618  0.75801075  0.30933659  1
  Se  Se216  1  0.40837634  0.75031371  0.81024156  1
  Se  Se217  1  0.74510899  0.08445824  0.29256725  1
  Se  Se218  1  0.75891936  0.07998905  0.82404392  1
  Se  Se219  1  0.75831605  0.43082225  0.30838665  1
  Se  Se220  1  0.74766729  0.41239798  0.80095466  1
  Se  Se221  1  0.75620835  0.75929345  0.29074442  1
  Se  Se222  1  0.74396511  0.75134540  0.81048294  1
  Se  Se223  1  0.25792146  0.07500715  0.19345586  1
  Se  Se224  1  0.24610965  0.09109555  0.68966052  1
  Se  Se225  1  0.25127868  0.41104572  0.20349858  1
  Se  Se226  1  0.24997533  0.42082388  0.70701172  1
  Se  Se227  1  0.25051983  0.75608448  0.18376633  1
  Se  Se228  1  0.25190288  0.76238269  0.69695139  1
  Se  Se229  1  0.58559032  0.08428969  0.18737889  1
  Se  Se230  1  0.57772161  0.07488143  0.69112751  1
  Se  Se231  1  0.57586567  0.43092095  0.19317782  1
  Se  Se232  1  0.58693262  0.40827375  0.69932606  1
  Se  Se233  1  0.58048990  0.75311767  0.19615403  1
  Se  Se234  1  0.58382410  0.74587536  0.70142343  1
  Se  Se235  1  0.90761158  0.07918194  0.18331175  1
  Se  Se236  1  0.91988652  0.07583990  0.71117963  1
  Se  Se237  1  0.90763219  0.42451903  0.18681675  1
  Se  Se238  1  0.90749843  0.42718674  0.68871051  1
  Se  Se239  1  0.92289056  0.74458991  0.18962336  1
  Se  Se240  1  0.91612414  0.75164102  0.70421254  1
  Se  Se241  1  0.09203333  0.23293730  0.18659127  1
  Se  Se242  1  0.09001100  0.24802360  0.69193494  1
  Se  Se243  1  0.08965959  0.57981153  0.19448093  1
  Se  Se244  1  0.07902839  0.59387882  0.70535044  1
  Se  Se245  1  0.08700776  0.90527200  0.18077527  1
  Se  Se246  1  0.08278948  0.91998401  0.70255836  1
  Se  Se247  1  0.41503845  0.24978499  0.19275024  1
  Se  Se248  1  0.42012013  0.24578749  0.70025304  1
  Se  Se249  1  0.42828237  0.57761483  0.18966148  1
  Se  Se250  1  0.42137481  0.58234772  0.69877779  1
  Se  Se251  1  0.41201989  0.92110160  0.19402962  1
  Se  Se252  1  0.42080021  0.91051790  0.69303811  1
  Se  Se253  1  0.74096983  0.24836087  0.17880401  1
  Se  Se254  1  0.74896737  0.23751010  0.70755478  1
  Se  Se255  1  0.74550058  0.59039346  0.19296905  1
  Se  Se256  1  0.74576627  0.58614041  0.69816089  1
  Se  Se257  1  0.74829425  0.92080706  0.19220566  1
  Se  Se258  1  0.75604487  0.90570151  0.69222850  1
