# generated using pymatgen
data_In86Cu29Se144
_symmetry_space_group_name_H-M   'P 1'
_cell_length_a   17.59255400
_cell_length_b   17.59486205
_cell_length_c   23.45349388
_cell_angle_alpha   90.01207368
_cell_angle_beta   90.01183818
_cell_angle_gamma   90.02562619
_symmetry_Int_Tables_number   1
_chemical_formula_structural   In86Cu29Se144
_chemical_formula_sum   'In86 Cu29 Se144'
_cell_volume   7259.75969826
_cell_formula_units_Z   1
loop_
 _symmetry_equiv_pos_site_id
 _symmetry_equiv_pos_as_xyz
  1  'x, y, z'
loop_
 _atom_site_type_symbol
 _atom_site_label
 _atom_site_symmetry_multiplicity
 _atom_site_fract_x
 _atom_site_fract_y
 _atom_site_fract_z
 _atom_site_occupancy
  In  In0  1  -0.00402477  0.15866381  0.12278787  1
  In  In1  1  0.00209516  0.16586404  0.62265521  1
  In  In2  1  0.00433737  0.50895512  0.12072485  1
  In  In3  1  -0.00531130  0.50632792  0.63159631  1
  In  In4  1  -0.00124813  0.83017064  0.12635788  1
  In  In5  1  -0.01143753  0.83245211  0.63506842  1
  In  In6  1  0.33043985  0.17863703  0.12387915  1
  In  In7  1  0.33286026  0.17806681  0.61342078  1
  In  In8  1  0.33567570  0.48289342  0.12547437  1
  In  In9  1  0.35144772  0.49085436  0.63956659  1
  In  In10  1  0.33287099  0.83294191  0.11512121  1
  In  In11  1  0.33499381  0.82361266  0.62677151  1
  In  In12  1  0.65798048  0.15771155  0.13382849  1
  In  In13  1  0.66524253  0.16354668  0.61295141  1
  In  In14  1  0.67110245  0.50977304  0.12080195  1
  In  In15  1  0.66326837  0.49720594  0.61532193  1
  In  In16  1  0.66368294  0.83572017  0.13769154  1
  In  In17  1  0.67004038  0.83298576  0.61445749  1
  In  In18  1  0.16055287  0.01110421  0.37692575  1
  In  In19  1  0.15468041  0.01086283  0.88257614  1
  In  In20  1  0.17011314  0.32176650  0.37844407  1
  In  In21  1  0.16600668  0.32971136  0.86303637  1
  In  In22  1  0.15805835  0.67885041  0.37308511  1
  In  In23  1  0.17499887  0.67395712  0.87459854  1
  In  In24  1  0.51137111  -0.01132118  0.38602020  1
  In  In25  1  0.49167958  -0.00044925  0.87736097  1
  In  In26  1  0.48629595  0.34730690  0.38611662  1
  In  In27  1  0.49441099  0.34720026  0.87112052  1
  In  In28  1  0.51923592  0.65063616  0.37868481  1
  In  In29  1  0.49826180  0.66557019  0.87838203  1
  In  In30  1  0.83401842  -0.00412993  0.37416986  1
  In  In31  1  0.85551869  -0.00756366  0.87412875  1
  In  In32  1  0.82757269  0.33819185  0.39007163  1
  In  In33  1  0.85942742  0.33771512  0.87614155  1
  In  In34  1  0.83169115  0.66691064  0.37304278  1
  In  In35  1  0.82971069  0.65904549  0.87439633  1
  In  In36  1  0.00344699  0.15516572  0.38144733  1
  In  In37  1  0.03437539  0.18609056  0.84132169  1
  In  In38  1  -0.01093836  0.50312741  0.37825887  1
  In  In39  1  -0.01023299  0.49066594  0.87211288  1
  In  In40  1  -0.02033807  0.81985473  0.35680779  1
  In  In41  1  0.00867623  0.84810063  0.86352926  1
  In  In42  1  0.32711078  0.18066652  0.38727713  1
  In  In43  1  0.30863902  0.17013348  0.86813022  1
  In  In44  1  0.35239930  0.49409749  0.37343336  1
  In  In45  1  0.34245487  0.50391712  0.86216488  1
  In  In46  1  0.33231214  0.84365953  0.37842773  1
  In  In47  1  0.34089438  0.82382133  0.88363088  1
  In  In48  1  0.67337097  0.16085344  0.38353884  1
  In  In49  1  0.66322240  0.16601567  0.87355791  1
  In  In50  1  0.66111025  0.51217152  0.37473751  1
  In  In51  1  0.66357870  0.50457893  0.88153247  1
  In  In52  1  0.67160972  0.82729627  0.37033927  1
  In  In53  1  0.66851713  0.82127979  0.87836063  1
  In  In54  1  0.16007308  -0.00524467  0.11474795  1
  In  In55  1  0.15076110  0.00750395  0.62815664  1
  In  In56  1  0.17904745  0.34009129  0.12080660  1
  In  In57  1  0.17632820  0.31649658  0.63846165  1
  In  In58  1  0.14998010  0.66753128  0.12248316  1
  In  In59  1  0.16912390  0.66694885  0.63700092  1
  In  In60  1  0.50976004  -0.00780037  0.13300161  1
  In  In61  1  0.49841504  -0.00163255  0.61421395  1
  In  In62  1  0.48910562  0.33103324  0.12526461  1
  In  In63  1  0.49345224  0.33865881  0.61502179  1
  In  In64  1  0.50373284  0.66926206  0.12255927  1
  In  In65  1  0.49407656  0.65950070  0.61708454  1
  In  In66  1  0.84039893  -0.01364784  0.14659644  1
  In  In67  1  0.83950884  -0.00257823  0.61721959  1
  In  In68  1  0.82654000  0.33787833  0.12115135  1
  In  In69  1  0.84127933  0.33836231  0.61890754  1
  In  In70  1  0.84165510  0.66648124  0.13647487  1
  In  In71  1  0.84066264  0.67133820  0.61627260  1
  In  In72  1  0.66118266  0.33293919  0.25267702  1
  In  In73  1  0.66930426  0.66495045  0.75402561  1
  In  In74  1  0.83195325  0.16538403  0.00180356  1
  In  In75  1  0.49573424  0.16491727  0.00836235  1
  In  In76  1  0.33333123  0.00472665  0.25719574  1
  In  In77  1  0.17254504  0.49440461  0.51267787  1
  In  In78  1  0.33322179  0.66171845  0.25058674  1
  In  In79  1  0.16178015  0.84199608  0.50787764  1
  In  In80  1  0.32789693  0.00023743  0.74794551  1
  In  In81  1  0.00289885  0.33005787  0.25479869  1
  In  In82  1  0.67027164  0.33704607  0.73674690  1
  In  In83  1  0.16482224  0.50128414  -0.00301442  1
  In  In84  1  0.67328411  -0.00016679  0.73766683  1
  In  In85  1  0.83189472  0.83100911  0.00510491  1
  Cu  Cu86  1  0.84172510  0.15554496  0.74554028  1
  Cu  Cu87  1  -0.00549366  0.67127270  0.00162953  1
  Cu  Cu88  1  0.15986706  0.50736176  0.75433650  1
  Cu  Cu89  1  0.83602436  0.50514085  0.25095467  1
  Cu  Cu90  1  0.15419873  0.83309921  0.24328918  1
  Cu  Cu91  1  0.49105739  0.17840095  0.74215022  1
  Cu  Cu92  1  0.50757641  0.82876259  0.75509136  1
  Cu  Cu93  1  0.66005017  0.66451904  0.00108554  1
  Cu  Cu94  1  0.33122693  -0.00487429  -0.00434386  1
  Cu  Cu95  1  0.67180081  0.66691543  0.49580709  1
  Cu  Cu96  1  0.16878691  0.16849287  0.25400057  1
  Cu  Cu97  1  0.33490865  0.66202070  -0.00182347  1
  Cu  Cu98  1  0.33389128  0.00677642  0.49809412  1
  Cu  Cu99  1  0.16759892  0.50070004  0.24533886  1
  Cu  Cu100  1  0.33277232  0.33121500  -0.00396398  1
  Cu  Cu101  1  -0.00392783  -0.00457571  0.49879065  1
  Cu  Cu102  1  0.66895885  -0.00546405  0.49560945  1
  Cu  Cu103  1  -0.00504761  0.66472046  0.49989209  1
  Cu  Cu104  1  0.49761217  0.16649741  0.25710652  1
  Cu  Cu105  1  0.17225619  0.83238197  0.75451777  1
  Cu  Cu106  1  0.50116531  0.82420788  0.25597700  1
  Cu  Cu107  1  0.66687844  0.33315045  0.49895792  1
  Cu  Cu108  1  0.83369630  0.16168770  0.25923875  1
  Cu  Cu109  1  0.00470166  0.00896155  -0.00376902  1
  Cu  Cu110  1  0.66979929  0.34249767  -0.00191457  1
  Cu  Cu111  1  0.66799049  -0.00846191  0.01124358  1
  Cu  Cu112  1  0.34192037  0.66841162  0.50191789  1
  Cu  Cu113  1  0.00098231  0.32879523  0.50244393  1
  Cu  Cu114  1  0.83106346  0.49754118  0.75033208  1
  Se  Se115  1  0.08642219  0.09209711  0.05106659  1
  Se  Se116  1  0.08054360  0.08168366  0.54907457  1
  Se  Se117  1  0.07580678  0.40847368  0.05558202  1
  Se  Se118  1  0.07628060  0.40751236  0.56728101  1
  Se  Se119  1  0.07997451  0.75577671  0.05137235  1
  Se  Se120  1  0.07864335  0.74066513  0.56158756  1
  Se  Se121  1  0.40733647  0.06927206  0.06550151  1
  Se  Se122  1  0.41856923  0.08893785  0.55128550  1
  Se  Se123  1  0.41764666  0.41272229  0.04921902  1
  Se  Se124  1  0.41417172  0.43072721  0.55208208  1
  Se  Se125  1  0.41751761  0.74658900  0.05258587  1
  Se  Se126  1  0.42166334  0.75814162  0.55228626  1
  Se  Se127  1  0.74907138  0.07365892  0.06781765  1
  Se  Se128  1  0.75116066  0.07725762  0.55096681  1
  Se  Se129  1  0.75270821  0.42412557  0.05210223  1
  Se  Se130  1  0.75217466  0.41628348  0.55166487  1
  Se  Se131  1  0.74062034  0.74271606  0.06372511  1
  Se  Se132  1  0.75513988  0.75058260  0.54829462  1
  Se  Se133  1  0.24789089  0.24976764  0.04894869  1
  Se  Se134  1  0.24126989  0.25794355  0.55075208  1
  Se  Se135  1  0.25482551  0.58672292  0.06340051  1
  Se  Se136  1  0.25939467  0.59497331  0.56402073  1
  Se  Se137  1  0.24627017  0.91274020  0.04894423  1
  Se  Se138  1  0.25797627  0.92968818  0.56529783  1
  Se  Se139  1  0.59591071  0.25691979  0.05970474  1
  Se  Se140  1  0.58123054  0.25276539  0.55210038  1
  Se  Se141  1  0.57651357  0.57870704  0.05211649  1
  Se  Se142  1  0.58479596  0.58573781  0.54916819  1
  Se  Se143  1  0.58177294  0.90827416  0.05998583  1
  Se  Se144  1  0.58230394  0.91356321  0.54924793  1
  Se  Se145  1  0.92333889  0.25981820  0.05741256  1
  Se  Se146  1  0.91470684  0.24455971  0.55311059  1
  Se  Se147  1  0.91362949  0.58981864  0.05750732  1
  Se  Se148  1  0.91630249  0.57592697  0.55212116  1
  Se  Se149  1  0.91958433  0.93210015  0.05711024  1
  Se  Se150  1  0.92057538  0.90590509  0.55300340  1
  Se  Se151  1  0.08208637  0.24732898  0.44627646  1
  Se  Se152  1  0.08300712  0.25048738  0.93249560  1
  Se  Se153  1  0.08476590  0.58683800  0.44574248  1
  Se  Se154  1  0.07404945  0.59202247  0.93879510  1
  Se  Se155  1  0.07392295  0.91441772  0.43595445  1
  Se  Se156  1  0.08080625  0.91418348  0.94676412  1
  Se  Se157  1  0.42373757  0.24815996  0.45211835  1
  Se  Se158  1  0.41360084  0.24728339  0.93745453  1
  Se  Se159  1  0.41909882  0.58467610  0.44486194  1
  Se  Se160  1  0.41390376  0.57801277  0.94289072  1
  Se  Se161  1  0.41447357  0.91557212  0.45133956  1
  Se  Se162  1  0.42241563  0.91417580  0.94945420  1
  Se  Se163  1  0.75292777  0.24452763  0.45390691  1
  Se  Se164  1  0.74478817  0.25846938  0.93781001  1
  Se  Se165  1  0.75479331  0.58083329  0.44390313  1
  Se  Se166  1  0.74898396  0.58587135  0.94874749  1
  Se  Se167  1  0.75139129  0.91138378  0.44200313  1
  Se  Se168  1  0.74662321  0.92537155  0.94086929  1
  Se  Se169  1  0.24494010  0.08549899  0.44755408  1
  Se  Se170  1  0.25085310  0.08485646  0.94695924  1
  Se  Se171  1  0.25606162  0.41547473  0.44072185  1
  Se  Se172  1  0.25540415  0.41486335  0.93583860  1
  Se  Se173  1  0.25309395  0.74688169  0.44673697  1
  Se  Se174  1  0.24918559  0.74953266  0.95205036  1
  Se  Se175  1  0.58290789  0.08435992  0.45139425  1
  Se  Se176  1  0.59145544  0.07518730  0.94856229  1
  Se  Se177  1  0.58933988  0.42009706  0.44388733  1
  Se  Se178  1  0.57899198  0.41670756  0.94514950  1
  Se  Se179  1  0.58634347  0.74990901  0.44302856  1
  Se  Se180  1  0.58029641  0.75038303  0.94756487  1
  Se  Se181  1  0.91161002  0.08078997  0.44754805  1
  Se  Se182  1  0.92767452  0.09122029  0.93648452  1
  Se  Se183  1  0.92051707  0.41825056  0.45215960  1
  Se  Se184  1  0.90977912  0.42864913  0.95224889  1
  Se  Se185  1  0.91841018  0.74935002  0.44234944  1
  Se  Se186  1  0.91992917  0.75156439  0.93707265  1
  Se  Se187  1  0.25460548  0.24995083  0.30470820  1
  Se  Se188  1  0.25786934  0.26112762  0.79311922  1
  Se  Se189  1  0.24177013  0.57671065  0.31418917  1
  Se  Se190  1  0.24950524  0.58811336  0.80373031  1
  Se  Se191  1  0.23419748  0.90905165  0.30677877  1
  Se  Se192  1  0.24977236  0.91243131  0.81724309  1
  Se  Se193  1  0.57833812  0.24543147  0.31795240  1
  Se  Se194  1  0.58010514  0.24793235  0.80272711  1
  Se  Se195  1  0.58288679  0.57884674  0.29666677  1
  Se  Se196  1  0.57454136  0.57288469  0.80601014  1
  Se  Se197  1  0.58066176  0.91344170  0.30699418  1
  Se  Se198  1  0.58488813  0.91682325  0.80998917  1
  Se  Se199  1  0.90805596  0.24867418  0.31690730  1
  Se  Se200  1  0.91355414  0.24924434  0.79843263  1
  Se  Se201  1  0.92159587  0.58641273  0.30358453  1
  Se  Se202  1  0.91320253  0.58152636  0.80417633  1
  Se  Se203  1  0.93139358  0.93678318  0.30341823  1
  Se  Se204  1  0.91502673  0.91483013  0.79483762  1
  Se  Se205  1  0.08129938  0.08580141  0.30184525  1
  Se  Se206  1  0.08747520  0.06605499  0.79488293  1
  Se  Se207  1  0.09110695  0.42415949  0.31320010  1
  Se  Se208  1  0.07814508  0.41815874  0.80231439  1
  Se  Se209  1  0.07715786  0.74290564  0.29508313  1
  Se  Se210  1  0.08597174  0.74887060  0.80517606  1
  Se  Se211  1  0.42199202  0.08714033  0.32144345  1
  Se  Se212  1  0.42131061  0.09411199  0.80697261  1
  Se  Se213  1  0.42032232  0.41033721  0.30015213  1
  Se  Se214  1  0.40970889  0.40750634  0.79562458  1
  Se  Se215  1  0.41685543  0.75055959  0.31656010  1
  Se  Se216  1  0.42020363  0.75030538  0.80765058  1
  Se  Se217  1  0.74526909  0.08074777  0.30784930  1
  Se  Se218  1  0.75680695  0.08549924  0.80886569  1
  Se  Se219  1  0.75917988  0.41990217  0.30895127  1
  Se  Se220  1  0.75183205  0.41730397  0.81180286  1
  Se  Se221  1  0.75425484  0.74762316  0.30109336  1
  Se  Se222  1  0.76316079  0.76131096  0.80496513  1
  Se  Se223  1  0.24509412  0.08700338  0.19032374  1
  Se  Se224  1  0.24616891  0.09371585  0.68767347  1
  Se  Se225  1  0.25163468  0.41223487  0.20009180  1
  Se  Se226  1  0.23878174  0.42892805  0.69384966  1
  Se  Se227  1  0.24404432  0.75467522  0.18940097  1
  Se  Se228  1  0.25696690  0.75038849  0.70207092  1
  Se  Se229  1  0.57900126  0.07966772  0.20607620  1
  Se  Se230  1  0.57205308  0.09216549  0.68860647  1
  Se  Se231  1  0.57985601  0.41976219  0.18637169  1
  Se  Se232  1  0.57231672  0.42834663  0.68987564  1
  Se  Se233  1  0.58127535  0.74269291  0.19924925  1
  Se  Se234  1  0.58390072  0.75418743  0.68922037  1
  Se  Se235  1  0.91997657  0.08845685  0.20061429  1
  Se  Se236  1  0.92158176  0.07439880  0.68945752  1
  Se  Se237  1  0.91425924  0.42036037  0.19233095  1
  Se  Se238  1  0.91419453  0.41415596  0.69684774  1
  Se  Se239  1  0.89979731  0.77442638  0.19572309  1
  Se  Se240  1  0.92219664  0.72976542  0.69619211  1
  Se  Se241  1  0.09133421  0.24670319  0.18882253  1
  Se  Se242  1  0.07167733  0.25081701  0.69749425  1
  Se  Se243  1  0.08037955  0.58386916  0.19739173  1
  Se  Se244  1  0.07619465  0.58968351  0.70063133  1
  Se  Se245  1  0.07961813  0.92304858  0.19009076  1
  Se  Se246  1  0.08987397  0.90730782  0.69429221  1
  Se  Se247  1  0.41793294  0.24495291  0.19801810  1
  Se  Se248  1  0.41124774  0.25877259  0.68685950  1
  Se  Se249  1  0.42106468  0.57407462  0.18960143  1
  Se  Se250  1  0.41051844  0.60215762  0.69620256  1
  Se  Se251  1  0.41588423  0.90393591  0.19786632  1
  Se  Se252  1  0.42861519  0.91148562  0.69433496  1
  Se  Se253  1  0.75848122  0.24161315  0.19448111  1
  Se  Se254  1  0.75858604  0.23549716  0.68667375  1
  Se  Se255  1  0.74910949  0.58313111  0.19714569  1
  Se  Se256  1  0.75216933  0.57540821  0.68830038  1
  Se  Se257  1  0.73291022  0.92896451  0.20472320  1
  Se  Se258  1  0.76214050  0.90208548  0.68825084  1
