# generated using pymatgen
data_In86Cu29Se144
_symmetry_space_group_name_H-M   'P 1'
_cell_length_a   17.58682275
_cell_length_b   17.58369556
_cell_length_c   23.44288472
_cell_angle_alpha   90.03037337
_cell_angle_beta   90.00937345
_cell_angle_gamma   89.98367393
_symmetry_Int_Tables_number   1
_chemical_formula_structural   In86Cu29Se144
_chemical_formula_sum   'In86 Cu29 Se144'
_cell_volume   7249.50760234
_cell_formula_units_Z   1
loop_
 _symmetry_equiv_pos_site_id
 _symmetry_equiv_pos_as_xyz
  1  'x, y, z'
loop_
 _atom_site_type_symbol
 _atom_site_label
 _atom_site_symmetry_multiplicity
 _atom_site_fract_x
 _atom_site_fract_y
 _atom_site_fract_z
 _atom_site_occupancy
  In  In0  1  0.01225904  0.16178628  0.11897707  1
  In  In1  1  -0.00676882  0.17263811  0.63188857  1
  In  In2  1  -0.00440897  0.50713809  0.13644715  1
  In  In3  1  0.00404657  0.49851624  0.62251753  1
  In  In4  1  -0.00810636  0.83253646  0.12424117  1
  In  In5  1  -0.00057236  0.83014984  0.62178177  1
  In  In6  1  0.33455759  0.18009311  0.12658935  1
  In  In7  1  0.34161528  0.16166217  0.62551537  1
  In  In8  1  0.31895858  0.50523121  0.14314564  1
  In  In9  1  0.32100643  0.49199820  0.61846439  1
  In  In10  1  0.32204182  0.82755277  0.13012243  1
  In  In11  1  0.33192983  0.84430077  0.62754029  1
  In  In12  1  0.65288000  0.16594806  0.12539187  1
  In  In13  1  0.65255224  0.17768320  0.62952985  1
  In  In14  1  0.68129809  0.50134934  0.12283366  1
  In  In15  1  0.66619628  0.50352967  0.62365537  1
  In  In16  1  0.67768788  0.82267640  0.13124606  1
  In  In17  1  0.66675126  0.82100164  0.63669091  1
  In  In18  1  0.15405556  -0.01254695  0.37798981  1
  In  In19  1  0.17801244  0.01692335  0.86528342  1
  In  In20  1  0.17008173  0.34527080  0.36478515  1
  In  In21  1  0.15955275  0.32591468  0.86648678  1
  In  In22  1  0.16942841  0.66004723  0.37272307  1
  In  In23  1  0.15749875  0.67857057  0.87332586  1
  In  In24  1  0.51772681  -0.00777994  0.38183970  1
  In  In25  1  0.49700908  -0.00560912  0.86253553  1
  In  In26  1  0.49139474  0.34809823  0.39597442  1
  In  In27  1  0.49519127  0.32774374  0.86181174  1
  In  In28  1  0.49040071  0.65535348  0.37101655  1
  In  In29  1  0.50407429  0.65254473  0.87242812  1
  In  In30  1  0.82263615  -0.00624843  0.37443484  1
  In  In31  1  0.82543233  -0.01048498  0.86748098  1
  In  In32  1  0.83931464  0.32800349  0.37228911  1
  In  In33  1  0.84119023  0.34413972  0.86589837  1
  In  In34  1  0.84626822  0.67783091  0.37185418  1
  In  In35  1  0.83781801  0.66643415  0.87580969  1
  In  In36  1  -0.00545475  0.17444809  0.37334945  1
  In  In37  1  0.01165853  0.17824189  0.86456988  1
  In  In38  1  0.00828949  0.50809139  0.36926197  1
  In  In39  1  -0.00861706  0.49240074  0.86730203  1
  In  In40  1  0.03246554  0.78131419  0.42318773  1
  In  In41  1  -0.00962598  0.82399174  0.86672082  1
  In  In42  1  0.33212907  0.18079421  0.37777443  1
  In  In43  1  0.31939937  0.15900138  0.86999373  1
  In  In44  1  0.33282737  0.49879026  0.37630537  1
  In  In45  1  0.34318956  0.49581788  0.87172096  1
  In  In46  1  0.32552237  0.81683609  0.37016559  1
  In  In47  1  0.32379927  0.84358707  0.87263721  1
  In  In48  1  0.66911444  0.15665008  0.37917135  1
  In  In49  1  0.65809394  0.16020131  0.86272586  1
  In  In50  1  0.64981901  0.49836820  0.38036681  1
  In  In51  1  0.68075858  0.51292164  0.86319338  1
  In  In52  1  0.67799935  0.83577533  0.37402545  1
  In  In53  1  0.67587436  0.84435276  0.86673885  1
  In  In54  1  0.15517849  0.00107380  0.11874911  1
  In  In55  1  0.17312338  -0.00735993  0.62803807  1
  In  In56  1  0.16870680  0.33441883  0.13342065  1
  In  In57  1  0.15472779  0.35004443  0.62800120  1
  In  In58  1  0.15294543  0.67205745  0.15805625  1
  In  In59  1  0.15229365  0.65658488  0.61012418  1
  In  In60  1  0.50560349  0.01440740  0.12821968  1
  In  In61  1  0.48844976  0.00176620  0.63729762  1
  In  In62  1  0.48996409  0.32539964  0.12843810  1
  In  In63  1  0.50282967  0.33266134  0.61772613  1
  In  In64  1  0.50190500  0.66633820  0.13654226  1
  In  In65  1  0.51387520  0.66587864  0.62486192  1
  In  In66  1  0.83884816  -0.01868242  0.12026193  1
  In  In67  1  0.84001035  -0.00806632  0.63422483  1
  In  In68  1  0.82941897  0.35049753  0.11992306  1
  In  In69  1  0.83678282  0.33207226  0.63000216  1
  In  In70  1  0.83584423  0.66736358  0.12730630  1
  In  In71  1  0.82905469  0.67333816  0.62368473  1
  In  In72  1  0.16722414  0.50218901  0.00998171  1
  In  In73  1  0.83084784  0.16947139  0.50833900  1
  In  In74  1  0.49400289  0.16634869  -0.00086141  1
  In  In75  1  -0.00661739  -0.00826328  0.24895911  1
  In  In76  1  0.50530779  0.84003092  -0.01017633  1
  In  In77  1  0.83426804  0.16452377  -0.00828902  1
  In  In78  1  0.49876975  0.83132723  0.50441688  1
  In  In79  1  0.15866791  0.83751601  0.00256961  1
  In  In80  1  0.33228727  0.67122474  0.74950468  1
  In  In81  1  0.33642498  -0.00165904  0.25341743  1
  In  In82  1  0.66422586  0.33406654  0.25155961  1
  In  In83  1  0.16781986  0.16706790  0.49886956  1
  In  In84  1  0.50580644  0.49382006  0.00490613  1
  In  In85  1  0.83807988  0.50398003  0.49967173  1
  Cu  Cu86  1  0.66712874  0.66774325  0.50136160  1
  Cu  Cu87  1  0.83560910  0.82865100  0.74886002  1
  Cu  Cu88  1  0.50153226  0.17301142  0.74541632  1
  Cu  Cu89  1  0.67233741  -0.00650950  -0.00309842  1
  Cu  Cu90  1  0.66402804  0.00069460  0.50399966  1
  Cu  Cu91  1  0.83208759  0.16334643  0.75178217  1
  Cu  Cu92  1  0.15843630  0.83422835  0.74661358  1
  Cu  Cu93  1  0.17120541  0.17009256  0.74176702  1
  Cu  Cu94  1  0.33720273  -0.00020913  0.50511691  1
  Cu  Cu95  1  0.50150474  0.49470789  0.74404416  1
  Cu  Cu96  1  0.49616058  0.49770340  0.25643928  1
  Cu  Cu97  1  0.83398674  0.50762206  0.24969710  1
  Cu  Cu98  1  0.83328037  0.16690381  0.25143933  1
  Cu  Cu99  1  0.00116274  -0.00167986  -0.00770697  1
  Cu  Cu100  1  0.32282445  0.33244219  0.00354243  1
  Cu  Cu101  1  -0.00041795  0.33348429  -0.00825324  1
  Cu  Cu102  1  0.16503271  0.50171028  0.74405237  1
  Cu  Cu103  1  0.33181578  0.66022829  0.49528541  1
  Cu  Cu104  1  0.68114776  0.67128212  -0.00116195  1
  Cu  Cu105  1  -0.00360125  0.66092009  0.00293054  1
  Cu  Cu106  1  0.51130627  0.83675293  0.25384128  1
  Cu  Cu107  1  0.50361225  0.16726980  0.25487625  1
  Cu  Cu108  1  0.33338668  0.67000475  0.01070659  1
  Cu  Cu109  1  0.33355344  0.33436592  0.50097884  1
  Cu  Cu110  1  -0.00710745  -0.00208813  0.50670730  1
  Cu  Cu111  1  0.83635871  0.82943271  0.25163523  1
  Cu  Cu112  1  0.67015139  0.34108983  -0.01120753  1
  Cu  Cu113  1  0.83408490  0.50618197  0.74335067  1
  Cu  Cu114  1  0.16372099  0.17115243  0.24724189  1
  Se  Se115  1  0.08479610  0.08263386  0.04315476  1
  Se  Se116  1  0.07575718  0.08169410  0.56181155  1
  Se  Se117  1  0.07235588  0.40957796  0.06158341  1
  Se  Se118  1  0.08980105  0.42718109  0.54965522  1
  Se  Se119  1  0.08238843  0.73525709  0.06431701  1
  Se  Se120  1  0.08654273  0.75947367  0.54799748  1
  Se  Se121  1  0.40481696  0.07654495  0.05961843  1
  Se  Se122  1  0.42350469  0.07971982  0.55549808  1
  Se  Se123  1  0.40251853  0.41479614  0.06288174  1
  Se  Se124  1  0.41666096  0.42015239  0.55273420  1
  Se  Se125  1  0.42149007  0.75156583  0.06081696  1
  Se  Se126  1  0.40664771  0.73927588  0.56173203  1
  Se  Se127  1  0.74454592  0.08024854  0.05869545  1
  Se  Se128  1  0.74412934  0.07716346  0.56753654  1
  Se  Se129  1  0.75042172  0.42319898  0.04417693  1
  Se  Se130  1  0.75044339  0.41036503  0.55779949  1
  Se  Se131  1  0.75989436  0.75444562  0.05486190  1
  Se  Se132  1  0.74353506  0.75492644  0.55540380  1
  Se  Se133  1  0.24218681  0.25010764  0.05810001  1
  Se  Se134  1  0.25251021  0.25629735  0.56288214  1
  Se  Se135  1  0.24763795  0.59981624  0.07112502  1
  Se  Se136  1  0.24583124  0.57772842  0.54783853  1
  Se  Se137  1  0.25848511  0.92310523  0.05757521  1
  Se  Se138  1  0.25008455  0.91544591  0.55195305  1
  Se  Se139  1  0.58924718  0.26501725  0.05192592  1
  Se  Se140  1  0.58372151  0.24752500  0.54925271  1
  Se  Se141  1  0.59258324  0.59590822  0.05749921  1
  Se  Se142  1  0.58362170  0.58187581  0.55044801  1
  Se  Se143  1  0.59024638  0.92157422  0.06197638  1
  Se  Se144  1  0.58565703  0.92019129  0.56641206  1
  Se  Se145  1  0.91893118  0.25492569  0.05599179  1
  Se  Se146  1  0.92998807  0.26312578  0.55423704  1
  Se  Se147  1  0.91651041  0.57898330  0.05954069  1
  Se  Se148  1  0.92551211  0.59706377  0.55660760  1
  Se  Se149  1  0.92282734  0.91199832  0.04606326  1
  Se  Se150  1  0.90905641  0.91307203  0.55631235  1
  Se  Se151  1  0.08191399  0.25811519  0.43841860  1
  Se  Se152  1  0.08630933  0.24975968  0.94441961  1
  Se  Se153  1  0.07532305  0.59300089  0.44371304  1
  Se  Se154  1  0.07943913  0.58543363  0.94167232  1
  Se  Se155  1  0.08183813  0.91753050  0.45661235  1
  Se  Se156  1  0.08115101  0.91992163  0.92967118  1
  Se  Se157  1  0.41695209  0.24446616  0.45390488  1
  Se  Se158  1  0.40727235  0.26019562  0.94054361  1
  Se  Se159  1  0.42024250  0.57681750  0.44806226  1
  Se  Se160  1  0.40899074  0.58826347  0.94973319  1
  Se  Se161  1  0.40852733  0.91649940  0.43855378  1
  Se  Se162  1  0.40621326  0.93161934  0.94224624  1
  Se  Se163  1  0.74548333  0.25749685  0.44259634  1
  Se  Se164  1  0.74230316  0.25203658  0.93155035  1
  Se  Se165  1  0.74586135  0.59034511  0.43735358  1
  Se  Se166  1  0.75476107  0.58053315  0.94449756  1
  Se  Se167  1  0.74738424  0.91762138  0.45127374  1
  Se  Se168  1  0.75636110  0.91026220  0.94617290  1
  Se  Se169  1  0.25619051  0.07291744  0.43848434  1
  Se  Se170  1  0.24764124  0.08475769  0.94727356  1
  Se  Se171  1  0.24975361  0.41264928  0.44377371  1
  Se  Se172  1  0.25106150  0.41626845  0.94056568  1
  Se  Se173  1  0.24884011  0.74714772  0.44693844  1
  Se  Se174  1  0.25604882  0.74480163  0.94575458  1
  Se  Se175  1  0.58231938  0.08573930  0.45246680  1
  Se  Se176  1  0.58716579  0.07369382  0.94141678  1
  Se  Se177  1  0.59277310  0.41344509  0.45773388  1
  Se  Se178  1  0.58488781  0.41571458  0.92976528  1
  Se  Se179  1  0.58486486  0.74527810  0.43866603  1
  Se  Se180  1  0.59334251  0.74080265  0.93756337  1
  Se  Se181  1  0.91939467  0.07970620  0.44289349  1
  Se  Se182  1  0.92414373  0.07857679  0.92979190  1
  Se  Se183  1  0.92504072  0.41319633  0.43804996  1
  Se  Se184  1  0.91416484  0.41909123  0.94482966  1
  Se  Se185  1  0.89344196  0.76428343  0.45368945  1
  Se  Se186  1  0.92130597  0.74834287  0.94676071  1
  Se  Se187  1  0.24928586  0.24844693  0.30286190  1
  Se  Se188  1  0.25264331  0.25247996  0.79976998  1
  Se  Se189  1  0.26756206  0.59344312  0.30727200  1
  Se  Se190  1  0.24176387  0.57853623  0.81153568  1
  Se  Se191  1  0.23852545  0.90909152  0.30517131  1
  Se  Se192  1  0.24520286  0.91704189  0.79821335  1
  Se  Se193  1  0.57836263  0.25015135  0.31739490  1
  Se  Se194  1  0.58924659  0.25592925  0.79615539  1
  Se  Se195  1  0.58433633  0.58171725  0.30343666  1
  Se  Se196  1  0.58286561  0.58156639  0.79657695  1
  Se  Se197  1  0.59445581  0.92056335  0.30507143  1
  Se  Se198  1  0.58291091  0.91321802  0.79965888  1
  Se  Se199  1  0.91881639  0.25208256  0.29788902  1
  Se  Se200  1  0.91637945  0.25197873  0.80016106  1
  Se  Se201  1  0.92008209  0.58911944  0.30216374  1
  Se  Se202  1  0.91702662  0.58557597  0.80211582  1
  Se  Se203  1  0.91501013  0.90563599  0.31598909  1
  Se  Se204  1  0.91823273  0.91724475  0.79946407  1
  Se  Se205  1  0.08635186  0.08791184  0.30686953  1
  Se  Se206  1  0.08606814  0.08744094  0.79641947  1
  Se  Se207  1  0.07605140  0.41600244  0.29851001  1
  Se  Se208  1  0.08347532  0.41803798  0.80120399  1
  Se  Se209  1  0.07881673  0.75711527  0.32117054  1
  Se  Se210  1  0.07761696  0.74564832  0.79677782  1
  Se  Se211  1  0.42554010  0.08545912  0.31660605  1
  Se  Se212  1  0.41941796  0.09276117  0.80419516  1
  Se  Se213  1  0.42035855  0.41020352  0.31137999  1
  Se  Se214  1  0.41297694  0.41543823  0.79636384  1
  Se  Se215  1  0.42483893  0.75407325  0.30396608  1
  Se  Se216  1  0.42040235  0.75443050  0.81578888  1
  Se  Se217  1  0.75074462  0.08412417  0.30410605  1
  Se  Se218  1  0.74667005  0.07739805  0.80003811  1
  Se  Se219  1  0.75417393  0.42642805  0.31089641  1
  Se  Se220  1  0.75220249  0.41857919  0.79664674  1
  Se  Se221  1  0.74999172  0.74676491  0.30336160  1
  Se  Se222  1  0.75327588  0.74724098  0.80607679  1
  Se  Se223  1  0.24296900  0.08515447  0.19023255  1
  Se  Se224  1  0.25432731  0.08181184  0.69289735  1
  Se  Se225  1  0.26221668  0.39867319  0.20341319  1
  Se  Se226  1  0.25145418  0.41579395  0.69781035  1
  Se  Se227  1  0.25828849  0.74851967  0.20694642  1
  Se  Se228  1  0.23759621  0.75062865  0.68612394  1
  Se  Se229  1  0.58820184  0.08433717  0.20345256  1
  Se  Se230  1  0.58364486  0.08282784  0.69775198  1
  Se  Se231  1  0.57529835  0.42479243  0.18773089  1
  Se  Se232  1  0.58566669  0.41438898  0.68928944  1
  Se  Se233  1  0.58990182  0.74829718  0.20050307  1
  Se  Se234  1  0.57101449  0.75081581  0.70205551  1
  Se  Se235  1  0.90917243  0.08750250  0.18575494  1
  Se  Se236  1  0.91896976  0.08262767  0.69943471  1
  Se  Se237  1  0.90977538  0.41559168  0.19755529  1
  Se  Se238  1  0.91927698  0.42081775  0.69342334  1
  Se  Se239  1  0.92179968  0.74760566  0.19743753  1
  Se  Se240  1  0.91856928  0.74777797  0.69331924  1
  Se  Se241  1  0.07576464  0.24865014  0.19367917  1
  Se  Se242  1  0.08317991  0.25484630  0.69487797  1
  Se  Se243  1  0.10220789  0.55194813  0.20532184  1
  Se  Se244  1  0.08233448  0.58641689  0.69287381  1
  Se  Se245  1  0.09201029  0.90637162  0.19113868  1
  Se  Se246  1  0.07741073  0.91853264  0.69187742  1
  Se  Se247  1  0.41602998  0.24807971  0.20406316  1
  Se  Se248  1  0.41848466  0.25430436  0.69028941  1
  Se  Se249  1  0.41660007  0.58415954  0.20171780  1
  Se  Se250  1  0.41634465  0.57745777  0.68760176  1
  Se  Se251  1  0.42833716  0.91085295  0.19021436  1
  Se  Se252  1  0.41452210  0.90908308  0.70288272  1
  Se  Se253  1  0.75436235  0.24583035  0.18705987  1
  Se  Se254  1  0.75236151  0.24685059  0.69464886  1
  Se  Se255  1  0.74767407  0.58752672  0.19642765  1
  Se  Se256  1  0.74769487  0.58813672  0.69178342  1
  Se  Se257  1  0.75572113  0.91602912  0.19675539  1
  Se  Se258  1  0.74907508  0.91287701  0.69918576  1
