# generated using pymatgen
data_In86Cu29Se144
_symmetry_space_group_name_H-M   'P 1'
_cell_length_a   17.59149813
_cell_length_b   17.59078819
_cell_length_c   23.44925471
_cell_angle_alpha   89.98844748
_cell_angle_beta   90.06836507
_cell_angle_gamma   89.98308627
_symmetry_Int_Tables_number   1
_chemical_formula_structural   In86Cu29Se144
_chemical_formula_sum   'In86 Cu29 Se144'
_cell_volume   7256.32678709
_cell_formula_units_Z   1
loop_
 _symmetry_equiv_pos_site_id
 _symmetry_equiv_pos_as_xyz
  1  'x, y, z'
loop_
 _atom_site_type_symbol
 _atom_site_label
 _atom_site_symmetry_multiplicity
 _atom_site_fract_x
 _atom_site_fract_y
 _atom_site_fract_z
 _atom_site_occupancy
  In  In0  1  -0.02599613  0.17803346  0.14628246  1
  In  In1  1  0.00367859  0.16333110  0.61801538  1
  In  In2  1  -0.00423209  0.51094907  0.12924100  1
  In  In3  1  0.00686851  0.49100451  0.63802326  1
  In  In4  1  0.00188013  0.83426107  0.11848832  1
  In  In5  1  -0.00541288  0.83972171  0.63602294  1
  In  In6  1  0.31946254  0.16300905  0.13019995  1
  In  In7  1  0.32667957  0.18952361  0.61955276  1
  In  In8  1  0.34746853  0.49161347  0.12301769  1
  In  In9  1  0.32990412  0.50454436  0.61250027  1
  In  In10  1  0.33075720  0.84744288  0.12688060  1
  In  In11  1  0.33410691  0.80681451  0.62241891  1
  In  In12  1  0.69053467  0.16791606  0.12632611  1
  In  In13  1  0.67264215  0.15586692  0.62731436  1
  In  In14  1  0.66537213  0.49322220  0.11928140  1
  In  In15  1  0.67630988  0.51082363  0.63032841  1
  In  In16  1  0.66631030  0.82374787  0.12053904  1
  In  In17  1  0.66546499  0.83278468  0.62756907  1
  In  In18  1  0.16523313  -0.00020785  0.37719529  1
  In  In19  1  0.15071723  0.00552490  0.87427166  1
  In  In20  1  0.15469739  0.34199215  0.38544815  1
  In  In21  1  0.15946036  0.32902369  0.86473277  1
  In  In22  1  0.16355606  0.66811349  0.38116420  1
  In  In23  1  0.17112801  0.66949869  0.87049686  1
  In  In24  1  0.48681284  0.00798631  0.37718906  1
  In  In25  1  0.50430607  -0.01690384  0.87124700  1
  In  In26  1  0.50934943  0.33647083  0.37981257  1
  In  In27  1  0.50641711  0.34995718  0.86878411  1
  In  In28  1  0.49953301  0.65766101  0.39452036  1
  In  In29  1  0.49040815  0.66171647  0.86784311  1
  In  In30  1  0.85206826  0.01320710  0.36468376  1
  In  In31  1  0.83296390  -0.00321980  0.87519883  1
  In  In32  1  0.82493493  0.31986824  0.36318793  1
  In  In33  1  0.84485485  0.32468939  0.88300815  1
  In  In34  1  0.84279252  0.65854653  0.37232713  1
  In  In35  1  0.83425796  0.66737804  0.87172885  1
  In  In36  1  -0.00776779  0.16566356  0.37923401  1
  In  In37  1  -0.02887596  0.14440463  0.84335791  1
  In  In38  1  0.00478967  0.50164652  0.37249943  1
  In  In39  1  -0.01902362  0.48383106  0.85716040  1
  In  In40  1  0.00597810  0.83094022  0.36974741  1
  In  In41  1  -0.00170000  0.83476932  0.87627033  1
  In  In42  1  0.33017319  0.14748856  0.37660206  1
  In  In43  1  0.31917912  0.16960306  0.86468470  1
  In  In44  1  0.34151476  0.48572305  0.40572504  1
  In  In45  1  0.34124560  0.50839607  0.86870796  1
  In  In46  1  0.32665264  0.84678045  0.38242016  1
  In  In47  1  0.33583103  0.81910654  0.87584782  1
  In  In48  1  0.66767331  0.19051215  0.37582387  1
  In  In49  1  0.69177027  0.17132117  0.86852904  1
  In  In50  1  0.66961265  0.48127472  0.38559853  1
  In  In51  1  0.65838418  0.50644751  0.87772190  1
  In  In52  1  0.66716227  0.82230028  0.37787324  1
  In  In53  1  0.67969090  0.84597618  0.86571352  1
  In  In54  1  0.16070252  -0.00353345  0.12856414  1
  In  In55  1  0.14498435  0.00455023  0.62198080  1
  In  In56  1  0.16286838  0.31912205  0.12712953  1
  In  In57  1  0.16482380  0.33907397  0.61267344  1
  In  In58  1  0.15169003  0.66487394  0.12247214  1
  In  In59  1  0.17567229  0.65626642  0.63491674  1
  In  In60  1  0.49311430  -0.00923834  0.13244751  1
  In  In61  1  0.51837347  -0.00394250  0.62328121  1
  In  In62  1  0.50535311  0.35074122  0.12363492  1
  In  In63  1  0.48243492  0.33261756  0.61969692  1
  In  In64  1  0.51097179  0.65871552  0.12298299  1
  In  In65  1  0.49949206  0.66424457  0.62000286  1
  In  In66  1  0.84779087  0.01083938  0.11338219  1
  In  In67  1  0.83788182  0.00835392  0.63001002  1
  In  In68  1  0.83410557  0.33932964  0.12456583  1
  In  In69  1  0.84460613  0.33125276  0.63158053  1
  In  In70  1  0.84028908  0.67416071  0.11153493  1
  In  In71  1  0.83810761  0.64967747  0.65090339  1
  In  In72  1  0.50306675  0.82580349  0.00012930  1
  In  In73  1  0.50421599  0.16889165  -0.00448253  1
  In  In74  1  0.66920518  0.66178748  0.24672937  1
  In  In75  1  0.50257091  0.16599499  0.50090235  1
  In  In76  1  0.66928615  0.33301090  0.74483480  1
  In  In77  1  0.16916781  0.83149497  0.50442535  1
  In  In78  1  0.32341286  0.66699329  0.26243224  1
  In  In79  1  0.83387170  0.49436500  0.51071638  1
  In  In80  1  0.15651096  0.16628439  0.00249663  1
  In  In81  1  0.82967870  0.83757185  0.50966217  1
  In  In82  1  0.66833829  0.00160003  0.24626018  1
  In  In83  1  0.33478439  0.00044931  0.74458235  1
  In  In84  1  0.32963197  0.32743641  0.25674222  1
  In  In85  1  0.16225347  0.50455511  -0.00422335  1
  Cu  Cu86  1  0.66886388  0.66691317  0.50704665  1
  Cu  Cu87  1  0.84316432  0.83268398  0.24095668  1
  Cu  Cu88  1  0.16583198  0.18329118  0.73846797  1
  Cu  Cu89  1  0.16952842  0.49548225  0.25672870  1
  Cu  Cu90  1  0.16734271  0.83761976  0.75043080  1
  Cu  Cu91  1  0.34016249  0.34078796  -0.00789426  1
  Cu  Cu92  1  0.66941037  0.66492795  -0.00571049  1
  Cu  Cu93  1  0.49928223  0.17106183  0.25576585  1
  Cu  Cu94  1  -0.00037052  0.33154828  -0.00042005  1
  Cu  Cu95  1  -0.00768191  0.33265686  0.50058281  1
  Cu  Cu96  1  0.83326183  0.83544241  0.75146567  1
  Cu  Cu97  1  0.50199267  0.82391155  0.74553370  1
  Cu  Cu98  1  0.67189536  0.33577882  -0.00339946  1
  Cu  Cu99  1  0.15728912  0.15709621  0.25452533  1
  Cu  Cu100  1  0.32641330  -0.00001407  0.00715540  1
  Cu  Cu101  1  0.15963423  0.83236263  0.25149687  1
  Cu  Cu102  1  0.83916381  0.49730217  0.25197437  1
  Cu  Cu103  1  0.17183434  0.49867648  0.74639976  1
  Cu  Cu104  1  0.50050219  0.16574190  0.74155436  1
  Cu  Cu105  1  0.67236000  0.00413376  -0.00555637  1
  Cu  Cu106  1  0.00202886  0.66974412  0.50382500  1
  Cu  Cu107  1  -0.00441094  0.00258856  -0.00347979  1
  Cu  Cu108  1  0.48986930  0.83733495  0.25853244  1
  Cu  Cu109  1  0.67605912  -0.00229322  0.49978780  1
  Cu  Cu110  1  0.33240475  0.66417437  -0.00479345  1
  Cu  Cu111  1  -0.00179100  0.66728912  -0.00721086  1
  Cu  Cu112  1  0.50329767  0.50130483  0.25574012  1
  Cu  Cu113  1  0.33682281  -0.00444490  0.50553043  1
  Cu  Cu114  1  0.48746660  0.50123777  0.74404942  1
  Se  Se115  1  0.06683066  0.08255633  0.06544871  1
  Se  Se116  1  0.09695273  0.09702025  0.54628463  1
  Se  Se117  1  0.08149628  0.40979366  0.05991970  1
  Se  Se118  1  0.07042402  0.42410424  0.55208757  1
  Se  Se119  1  0.08295403  0.74804600  0.04809519  1
  Se  Se120  1  0.07700397  0.74815895  0.56733890  1
  Se  Se121  1  0.41161818  0.08095260  0.06016027  1
  Se  Se122  1  0.41324923  0.07920185  0.56644872  1
  Se  Se123  1  0.42457682  0.42056886  0.04601203  1
  Se  Se124  1  0.41588391  0.41831659  0.54706843  1
  Se  Se125  1  0.40780918  0.74181856  0.06390418  1
  Se  Se126  1  0.43083268  0.75864360  0.55040728  1
  Se  Se127  1  0.75500100  0.08756549  0.04775705  1
  Se  Se128  1  0.75539304  0.08184049  0.55381244  1
  Se  Se129  1  0.75483812  0.41999959  0.05016940  1
  Se  Se130  1  0.74020980  0.40469661  0.56513105  1
  Se  Se131  1  0.74797988  0.75299510  0.04689741  1
  Se  Se132  1  0.75688166  0.73347728  0.56902066  1
  Se  Se133  1  0.26188361  0.25889582  0.05232554  1
  Se  Se134  1  0.25231240  0.26081958  0.54269567  1
  Se  Se135  1  0.25817479  0.58541312  0.06166372  1
  Se  Se136  1  0.24017708  0.59113338  0.55112801  1
  Se  Se137  1  0.24133310  0.91559525  0.05538869  1
  Se  Se138  1  0.25622078  0.92089097  0.56928886  1
  Se  Se139  1  0.59043176  0.25660705  0.05899141  1
  Se  Se140  1  0.58986236  0.25197828  0.56444868  1
  Se  Se141  1  0.58678332  0.58229573  0.04969500  1
  Se  Se142  1  0.58898372  0.57809061  0.55688350  1
  Se  Se143  1  0.58888082  0.92879084  0.05625503  1
  Se  Se144  1  0.59208196  0.91335920  0.55001655  1
  Se  Se145  1  0.91936735  0.25077850  0.05893802  1
  Se  Se146  1  0.91210125  0.24940169  0.55503814  1
  Se  Se147  1  0.92061911  0.58105707  0.04928033  1
  Se  Se148  1  0.92156796  0.59150150  0.56516358  1
  Se  Se149  1  0.91542763  0.91326173  0.04812178  1
  Se  Se150  1  0.92892983  0.92660525  0.55783429  1
  Se  Se151  1  0.07686762  0.24883130  0.44857328  1
  Se  Se152  1  0.07274244  0.25145328  0.93616513  1
  Se  Se153  1  0.07880408  0.58488169  0.44713293  1
  Se  Se154  1  0.07248072  0.58443078  0.93097672  1
  Se  Se155  1  0.07480405  0.91765438  0.44649323  1
  Se  Se156  1  0.08204866  0.91965998  0.94682322  1
  Se  Se157  1  0.41148390  0.24740046  0.43607049  1
  Se  Se158  1  0.41091950  0.25331732  0.93252792  1
  Se  Se159  1  0.41295843  0.58629867  0.46344096  1
  Se  Se160  1  0.41912044  0.58241198  0.94577180  1
  Se  Se161  1  0.42145172  0.91770541  0.44986811  1
  Se  Se162  1  0.40755141  0.92097256  0.94637334  1
  Se  Se163  1  0.74985936  0.26243697  0.44746514  1
  Se  Se164  1  0.75530745  0.24655717  0.95037916  1
  Se  Se165  1  0.74880581  0.59019783  0.44367001  1
  Se  Se166  1  0.75291452  0.58227821  0.94200992  1
  Se  Se167  1  0.75288123  0.92100312  0.43400230  1
  Se  Se168  1  0.75285461  0.91329875  0.94713840  1
  Se  Se169  1  0.25003204  0.07395411  0.45118598  1
  Se  Se170  1  0.25412622  0.07928024  0.94264990  1
  Se  Se171  1  0.24507915  0.40403164  0.45978459  1
  Se  Se172  1  0.25078747  0.41311018  0.93543299  1
  Se  Se173  1  0.26197163  0.74186425  0.44696027  1
  Se  Se174  1  0.24787522  0.74891343  0.94721586  1
  Se  Se175  1  0.59445143  0.07793904  0.43810838  1
  Se  Se176  1  0.58870296  0.07780508  0.93308893  1
  Se  Se177  1  0.57383582  0.42119904  0.45455951  1
  Se  Se178  1  0.58187410  0.41704737  0.94820042  1
  Se  Se179  1  0.58792984  0.74984173  0.45193382  1
  Se  Se180  1  0.58956398  0.74576871  0.93217311  1
  Se  Se181  1  0.90671527  0.08610390  0.44885719  1
  Se  Se182  1  0.91966430  0.08794132  0.93787765  1
  Se  Se183  1  0.91533578  0.41440233  0.43842957  1
  Se  Se184  1  0.92125866  0.42095868  0.94692121  1
  Se  Se185  1  0.92022631  0.74743006  0.44470036  1
  Se  Se186  1  0.91273078  0.75256966  0.94371305  1
  Se  Se187  1  0.23840483  0.23937136  0.31480544  1
  Se  Se188  1  0.25228360  0.25933274  0.79440338  1
  Se  Se189  1  0.25038749  0.56487652  0.32248365  1
  Se  Se190  1  0.25116495  0.58408591  0.80196764  1
  Se  Se191  1  0.24392711  0.91328367  0.30641069  1
  Se  Se192  1  0.24904954  0.91668559  0.81253386  1
  Se  Se193  1  0.58094997  0.26006488  0.30171376  1
  Se  Se194  1  0.57834571  0.24174626  0.80908037  1
  Se  Se195  1  0.58268589  0.58089340  0.31599939  1
  Se  Se196  1  0.57438872  0.57670025  0.80189968  1
  Se  Se197  1  0.58002423  0.91371925  0.31241256  1
  Se  Se198  1  0.58314979  0.91263695  0.79616599  1
  Se  Se199  1  0.92613461  0.25276009  0.30392663  1
  Se  Se200  1  0.92858865  0.27156495  0.80148013  1
  Se  Se201  1  0.92358110  0.58456026  0.30032840  1
  Se  Se202  1  0.92514311  0.59692598  0.80190394  1
  Se  Se203  1  0.91997489  0.91172109  0.30252800  1
  Se  Se204  1  0.91883775  0.91805382  0.80496418  1
  Se  Se205  1  0.07598802  0.07757476  0.31110562  1
  Se  Se206  1  0.09495200  0.09319971  0.79671926  1
  Se  Se207  1  0.08233203  0.41123429  0.30423077  1
  Se  Se208  1  0.08345748  0.41522511  0.79562719  1
  Se  Se209  1  0.08519441  0.74080810  0.30426736  1
  Se  Se210  1  0.08590794  0.75588355  0.80666185  1
  Se  Se211  1  0.41396739  0.08255660  0.29892840  1
  Se  Se212  1  0.42537070  0.08762462  0.80898182  1
  Se  Se213  1  0.41539880  0.42602901  0.31271419  1
  Se  Se214  1  0.41108497  0.41378639  0.79978142  1
  Se  Se215  1  0.42169973  0.75118948  0.32028169  1
  Se  Se216  1  0.41220463  0.74833976  0.79851913  1
  Se  Se217  1  0.74811018  0.09516654  0.30792496  1
  Se  Se218  1  0.74388273  0.06816375  0.80355097  1
  Se  Se219  1  0.74867236  0.42185841  0.30418868  1
  Se  Se220  1  0.74813035  0.41122761  0.81910515  1
  Se  Se221  1  0.76281962  0.75603234  0.30340212  1
  Se  Se222  1  0.74876603  0.74861614  0.80107243  1
  Se  Se223  1  0.24407105  0.07914522  0.19901346  1
  Se  Se224  1  0.24592456  0.09186979  0.68514842  1
  Se  Se225  1  0.24620975  0.42141063  0.18987266  1
  Se  Se226  1  0.24835261  0.42029538  0.68367757  1
  Se  Se227  1  0.24361567  0.75342473  0.19115629  1
  Se  Se228  1  0.25026683  0.74984719  0.70201081  1
  Se  Se229  1  0.57532652  0.09511803  0.18741973  1
  Se  Se230  1  0.58750259  0.07954547  0.69852467  1
  Se  Se231  1  0.58580390  0.42318041  0.19855900  1
  Se  Se232  1  0.57236774  0.41937117  0.68736846  1
  Se  Se233  1  0.57032171  0.75985407  0.19692783  1
  Se  Se234  1  0.58547698  0.74231462  0.69224041  1
  Se  Se235  1  0.90776032  0.07114570  0.20193028  1
  Se  Se236  1  0.93168020  0.08251009  0.69466626  1
  Se  Se237  1  0.92226827  0.41787173  0.19499958  1
  Se  Se238  1  0.89094976  0.44191164  0.69456529  1
  Se  Se239  1  0.92114580  0.74572495  0.18701618  1
  Se  Se240  1  0.91985257  0.75046358  0.70392593  1
  Se  Se241  1  0.08280901  0.24853933  0.20136677  1
  Se  Se242  1  0.08047324  0.25956722  0.68342449  1
  Se  Se243  1  0.09022111  0.57937560  0.19905078  1
  Se  Se244  1  0.08170419  0.58622534  0.70219020  1
  Se  Se245  1  0.07737253  0.91327181  0.19557394  1
  Se  Se246  1  0.08289003  0.92248416  0.70129314  1
  Se  Se247  1  0.42147236  0.24801601  0.18730601  1
  Se  Se248  1  0.41298132  0.25153117  0.69709052  1
  Se  Se249  1  0.42191441  0.58254790  0.19779130  1
  Se  Se250  1  0.40967092  0.58497937  0.68722567  1
  Se  Se251  1  0.40749367  0.91958595  0.20474385  1
  Se  Se252  1  0.42304990  0.90835132  0.68572191  1
  Se  Se253  1  0.75034198  0.26066903  0.19558456  1
  Se  Se254  1  0.76337927  0.23567504  0.69702627  1
  Se  Se255  1  0.76134744  0.57688634  0.18625250  1
  Se  Se256  1  0.74388830  0.57547631  0.71397550  1
  Se  Se257  1  0.75437051  0.90900687  0.18577847  1
  Se  Se258  1  0.75453826  0.91567629  0.69130346  1
