# generated using pymatgen
data_In86Cu29Se144
_symmetry_space_group_name_H-M   'P 1'
_cell_length_a   17.57783403
_cell_length_b   17.57857311
_cell_length_c   23.43870488
_cell_angle_alpha   90.02938924
_cell_angle_beta   89.98098673
_cell_angle_gamma   89.99078102
_symmetry_Int_Tables_number   1
_chemical_formula_structural   In86Cu29Se144
_chemical_formula_sum   'In86 Cu29 Se144'
_cell_volume   7242.39993565
_cell_formula_units_Z   1
loop_
 _symmetry_equiv_pos_site_id
 _symmetry_equiv_pos_as_xyz
  1  'x, y, z'
loop_
 _atom_site_type_symbol
 _atom_site_label
 _atom_site_symmetry_multiplicity
 _atom_site_fract_x
 _atom_site_fract_y
 _atom_site_fract_z
 _atom_site_occupancy
  In  In0  1  0.00099060  0.17163453  0.11168800  1
  In  In1  1  -0.02035036  0.18394966  0.65303727  1
  In  In2  1  -0.00422877  0.49625447  0.12215772  1
  In  In3  1  -0.00170834  0.49562302  0.61497921  1
  In  In4  1  0.00668500  0.84043368  0.11186402  1
  In  In5  1  0.01271773  0.82963073  0.63019944  1
  In  In6  1  0.33905298  0.17890160  0.11352337  1
  In  In7  1  0.31673916  0.16834279  0.63180968  1
  In  In8  1  0.33083476  0.49395051  0.12635173  1
  In  In9  1  0.33760645  0.50747683  0.62198379  1
  In  In10  1  0.32603436  0.82513618  0.12180461  1
  In  In11  1  0.33316292  0.83528046  0.62594719  1
  In  In12  1  0.68227341  0.18795308  0.11272543  1
  In  In13  1  0.68205866  0.18200448  0.63008836  1
  In  In14  1  0.66353702  0.50229488  0.12660238  1
  In  In15  1  0.66513824  0.48284010  0.63166491  1
  In  In16  1  0.66032321  0.82866829  0.11932226  1
  In  In17  1  0.66212888  0.83524442  0.62481688  1
  In  In18  1  0.15664740  -0.00444156  0.37803124  1
  In  In19  1  0.16328834  -0.00042239  0.88095633  1
  In  In20  1  0.18023134  0.35789531  0.34855211  1
  In  In21  1  0.15224573  0.34547327  0.88430162  1
  In  In22  1  0.17224829  0.66041759  0.37512926  1
  In  In23  1  0.16923460  0.66482568  0.88350746  1
  In  In24  1  0.48077510  -0.00942804  0.37527000  1
  In  In25  1  0.49163171  0.00663352  0.87816650  1
  In  In26  1  0.50900373  0.34888702  0.36045219  1
  In  In27  1  0.50482896  0.33180826  0.88120556  1
  In  In28  1  0.50598318  0.66945631  0.36941523  1
  In  In29  1  0.50263802  0.66524704  0.88505305  1
  In  In30  1  0.83655610  0.00584666  0.37399983  1
  In  In31  1  0.84242470  0.00154179  0.88485530  1
  In  In32  1  0.85612516  0.35085640  0.35259214  1
  In  In33  1  0.83248767  0.33324068  0.87508160  1
  In  In34  1  0.81258553  0.65767354  0.37027508  1
  In  In35  1  0.83906021  0.65772235  0.88088335  1
  In  In36  1  -0.01020337  0.18752856  0.37264604  1
  In  In37  1  -0.00082624  0.17317665  0.88274347  1
  In  In38  1  0.00446731  0.49449694  0.37881514  1
  In  In39  1  -0.00053763  0.49266025  0.87561776  1
  In  In40  1  0.00335221  0.84681811  0.37953656  1
  In  In41  1  -0.01085838  0.85016600  0.89771204  1
  In  In42  1  0.32161874  0.17084841  0.36891119  1
  In  In43  1  0.34031466  0.15542780  0.88186181  1
  In  In44  1  0.32719177  0.50142490  0.35885175  1
  In  In45  1  0.33624130  0.49640985  0.88509595  1
  In  In46  1  0.34182975  0.82113096  0.37925577  1
  In  In47  1  0.32121034  0.84192507  0.88452736  1
  In  In48  1  0.66731178  0.17317584  0.36899809  1
  In  In49  1  0.66006294  0.17843702  0.88279893  1
  In  In50  1  0.67562640  0.50883770  0.36985875  1
  In  In51  1  0.67324472  0.48783732  0.88110828  1
  In  In52  1  0.65548689  0.81071263  0.37310264  1
  In  In53  1  0.66771719  0.83274875  0.88528442  1
  In  In54  1  0.15655451  0.00927848  0.10593055  1
  In  In55  1  0.16921679  -0.00163185  0.63625486  1
  In  In56  1  0.16592968  0.33681847  0.11986243  1
  In  In57  1  0.15893570  0.33169040  0.62250428  1
  In  In58  1  0.17265813  0.66271247  0.12796448  1
  In  In59  1  0.16989574  0.66992150  0.61586249  1
  In  In60  1  0.49734052  0.00013799  0.11415218  1
  In  In61  1  0.50229662  -0.01498972  0.63047322  1
  In  In62  1  0.49890977  0.33719767  0.12149176  1
  In  In63  1  0.51938881  0.34535416  0.62939298  1
  In  In64  1  0.50054347  0.66689251  0.12598307  1
  In  In65  1  0.49151430  0.66529399  0.62324177  1
  In  In66  1  0.84426804  0.00567839  0.10399377  1
  In  In67  1  0.83358233  0.01241017  0.63402238  1
  In  In68  1  0.82753352  0.33549787  0.12609181  1
  In  In69  1  0.82280220  0.34794840  0.64886644  1
  In  In70  1  0.82484092  0.65761355  0.11822325  1
  In  In71  1  0.84470342  0.66305248  0.62256743  1
  In  In72  1  0.49464061  0.15583299  0.49429244  1
  In  In73  1  0.33421470  0.32360165  0.75862866  1
  In  In74  1  0.83638426  0.82554958  0.50047651  1
  In  In75  1  0.66685059  0.65893864  0.74930358  1
  In  In76  1  0.50596313  0.50753252  0.49865130  1
  In  In77  1  0.67012129  0.00471883  0.24291616  1
  In  In78  1  0.16070240  0.16178302  0.50206189  1
  In  In79  1  0.67008942  0.00848462  0.76122292  1
  In  In80  1  0.33163172  0.00489354  0.23981626  1
  In  In81  1  0.00228032  0.66609687  0.24109217  1
  In  In82  1  0.33525464  0.66474186  0.74407962  1
  In  In83  1  0.00299164  0.00900270  0.23719041  1
  In  In84  1  0.83705173  0.16790251  0.50383337  1
  In  In85  1  0.00387548  0.66185451  0.75930430  1
  Cu  Cu86  1  0.00306588  0.33767872  0.49782173  1
  Cu  Cu87  1  0.66585019  0.33959176  0.00261291  1
  Cu  Cu88  1  0.83743230  0.83827082  0.76135865  1
  Cu  Cu89  1  0.16352726  0.15979839  0.75923959  1
  Cu  Cu90  1  0.32774763  0.33215833  0.00061039  1
  Cu  Cu91  1  0.33605304  0.34107204  0.48593635  1
  Cu  Cu92  1  0.00211796  0.66377169  0.49643231  1
  Cu  Cu93  1  0.49691547  0.50051331  0.24141520  1
  Cu  Cu94  1  0.66350051  0.00386872  -0.00277955  1
  Cu  Cu95  1  0.50532287  0.17555735  0.24056222  1
  Cu  Cu96  1  0.50666091  0.82460350  0.24878602  1
  Cu  Cu97  1  0.48723751  0.83554823  0.75526015  1
  Cu  Cu98  1  0.15892734  0.17635295  0.24110228  1
  Cu  Cu99  1  0.83029975  0.83350386  0.24366323  1
  Cu  Cu100  1  0.17626610  0.82964567  0.24994344  1
  Cu  Cu101  1  0.16125059  0.84261476  0.76006684  1
  Cu  Cu102  1  0.66067354  -0.01369973  0.49882514  1
  Cu  Cu103  1  0.00342341  0.66264495  0.00248782  1
  Cu  Cu104  1  0.33503205  -0.00028169  -0.00136848  1
  Cu  Cu105  1  0.01062853  -0.00303412  0.50954050  1
  Cu  Cu106  1  0.16879993  0.49815203  0.74871154  1
  Cu  Cu107  1  0.32657819  0.66508835  0.49836805  1
  Cu  Cu108  1  -0.00714057  0.33882916  0.00109951  1
  Cu  Cu109  1  0.33308803  -0.01349235  0.50701916  1
  Cu  Cu110  1  0.33861115  0.66274686  0.00710243  1
  Cu  Cu111  1  0.82719736  0.50241154  0.24370626  1
  Cu  Cu112  1  0.49912090  0.16330947  0.75391125  1
  Cu  Cu113  1  0.67811133  0.33030057  0.50325953  1
  Cu  Cu114  1  0.66568723  0.66558267  0.00248457  1
  Se  Se115  1  0.05211860  0.06727247  0.04157888  1
  Se  Se116  1  0.07335849  0.08697091  0.57310899  1
  Se  Se117  1  0.08175081  0.42031215  0.05142840  1
  Se  Se118  1  0.09146705  0.41860819  0.54918028  1
  Se  Se119  1  0.08896556  0.74186693  0.05721295  1
  Se  Se120  1  0.07915166  0.75031992  0.55152127  1
  Se  Se121  1  0.41808616  0.08798652  0.04842797  1
  Se  Se122  1  0.40663347  0.07721621  0.56498203  1
  Se  Se123  1  0.41279339  0.41614970  0.05220255  1
  Se  Se124  1  0.41760705  0.40737968  0.55594999  1
  Se  Se125  1  0.42034945  0.75274410  0.05584954  1
  Se  Se126  1  0.40794099  0.74560570  0.55649006  1
  Se  Se127  1  0.74917776  0.08924455  0.04631116  1
  Se  Se128  1  0.73708465  0.07391674  0.55716891  1
  Se  Se129  1  0.74839390  0.42251117  0.05681510  1
  Se  Se130  1  0.75607084  0.41084568  0.56189287  1
  Se  Se131  1  0.75097337  0.75153368  0.05230448  1
  Se  Se132  1  0.74278597  0.74115085  0.56088038  1
  Se  Se133  1  0.24030145  0.24630928  0.04861446  1
  Se  Se134  1  0.26111329  0.25900351  0.55062699  1
  Se  Se135  1  0.25048050  0.57998928  0.05625266  1
  Se  Se136  1  0.24847572  0.57720715  0.55209210  1
  Se  Se137  1  0.25288334  0.91959932  0.05565764  1
  Se  Se138  1  0.24133453  0.91418907  0.56140835  1
  Se  Se139  1  0.57827889  0.25230938  0.05039105  1
  Se  Se140  1  0.58847143  0.24904186  0.55439224  1
  Se  Se141  1  0.58145115  0.58359687  0.05556629  1
  Se  Se142  1  0.59514129  0.58745088  0.56552281  1
  Se  Se143  1  0.58330242  0.91611014  0.05013667  1
  Se  Se144  1  0.57555064  0.90792522  0.55312736  1
  Se  Se145  1  0.90764706  0.25540619  0.05241129  1
  Se  Se146  1  0.92696244  0.25758588  0.56234775  1
  Se  Se147  1  0.91584702  0.58061565  0.05300483  1
  Se  Se148  1  0.91681991  0.58210429  0.54834358  1
  Se  Se149  1  0.91119002  0.90339177  0.04430910  1
  Se  Se150  1  0.91782000  0.92238033  0.56431996  1
  Se  Se151  1  0.08688211  0.25948633  0.43789138  1
  Se  Se152  1  0.08250466  0.25429175  0.95424588  1
  Se  Se153  1  0.08637445  0.58110861  0.44368152  1
  Se  Se154  1  0.08081059  0.57900567  0.94387178  1
  Se  Se155  1  0.09011593  0.91194814  0.45477266  1
  Se  Se156  1  0.11015030  0.89358483  0.94841360  1
  Se  Se157  1  0.41698728  0.25626941  0.43145391  1
  Se  Se158  1  0.41351426  0.25192431  0.94572949  1
  Se  Se159  1  0.40750265  0.58565534  0.43759881  1
  Se  Se160  1  0.42054922  0.57973923  0.95127219  1
  Se  Se161  1  0.41731532  0.90724396  0.45196730  1
  Se  Se162  1  0.41993256  0.91486004  0.94719191  1
  Se  Se163  1  0.75379252  0.25530366  0.43744488  1
  Se  Se164  1  0.74969435  0.25526866  0.94968206  1
  Se  Se165  1  0.74428068  0.58348034  0.44899895  1
  Se  Se166  1  0.74763433  0.58253051  0.94696844  1
  Se  Se167  1  0.74795223  0.91553620  0.43658377  1
  Se  Se168  1  0.75089659  0.91971250  0.94817944  1
  Se  Se169  1  0.25958570  0.07143129  0.44362398  1
  Se  Se170  1  0.24758942  0.08403231  0.95011198  1
  Se  Se171  1  0.24983823  0.42112158  0.43408772  1
  Se  Se172  1  0.24536536  0.42079370  0.95046520  1
  Se  Se173  1  0.24520900  0.75101539  0.44500347  1
  Se  Se174  1  0.25498196  0.74363086  0.95110022  1
  Se  Se175  1  0.59009319  0.06886759  0.43372117  1
  Se  Se176  1  0.57817411  0.08660459  0.94524237  1
  Se  Se177  1  0.59328634  0.40871720  0.44324006  1
  Se  Se178  1  0.57813590  0.42116567  0.95110761  1
  Se  Se179  1  0.57625829  0.74384959  0.44887143  1
  Se  Se180  1  0.58193780  0.75228303  0.95157695  1
  Se  Se181  1  0.93392338  0.07696746  0.44479932  1
  Se  Se182  1  0.92939269  0.07997963  0.95388941  1
  Se  Se183  1  0.91246267  0.41317890  0.44339766  1
  Se  Se184  1  0.90965348  0.42214849  0.94655933  1
  Se  Se185  1  0.92207045  0.73984156  0.43233728  1
  Se  Se186  1  0.91552678  0.74333467  0.95077570  1
  Se  Se187  1  0.25206037  0.25085359  0.29308325  1
  Se  Se188  1  0.24015008  0.24398081  0.82110278  1
  Se  Se189  1  0.24311790  0.58968520  0.29640070  1
  Se  Se190  1  0.24850004  0.57661830  0.80866608  1
  Se  Se191  1  0.24948243  0.91695663  0.31010946  1
  Se  Se192  1  0.25190484  0.92262325  0.80796967  1
  Se  Se193  1  0.58778696  0.25381282  0.29895729  1
  Se  Se194  1  0.57862869  0.24900133  0.80608524  1
  Se  Se195  1  0.57918294  0.57745028  0.30281747  1
  Se  Se196  1  0.57956656  0.57680205  0.81424971  1
  Se  Se197  1  0.57826931  0.91517438  0.30764695  1
  Se  Se198  1  0.57784154  0.90923604  0.81126822  1
  Se  Se199  1  0.90909188  0.24031944  0.29214981  1
  Se  Se200  1  0.93518494  0.26671983  0.81218515  1
  Se  Se201  1  0.91175037  0.58061335  0.30588158  1
  Se  Se202  1  0.90439336  0.56917179  0.80431383  1
  Se  Se203  1  0.91280416  0.91450935  0.30146490  1
  Se  Se204  1  0.92219510  0.91847502  0.81291684  1
  Se  Se205  1  0.08879601  0.09353626  0.30780151  1
  Se  Se206  1  0.07858335  0.08287423  0.81412562  1
  Se  Se207  1  0.05568740  0.40113761  0.30254294  1
  Se  Se208  1  0.08400429  0.41794445  0.80198572  1
  Se  Se209  1  0.08327819  0.76168948  0.30739398  1
  Se  Se210  1  0.08619815  0.75746417  0.81811358  1
  Se  Se211  1  0.42484166  0.09474195  0.30287282  1
  Se  Se212  1  0.41295876  0.08074337  0.80197715  1
  Se  Se213  1  0.41269191  0.41539827  0.29465783  1
  Se  Se214  1  0.42138489  0.42182514  0.81019828  1
  Se  Se215  1  0.41653026  0.74784037  0.30166444  1
  Se  Se216  1  0.41421853  0.75053901  0.81503852  1
  Se  Se217  1  0.76327323  0.09334504  0.30250596  1
  Se  Se218  1  0.75912102  0.09562380  0.81970092  1
  Se  Se219  1  0.74557609  0.41826761  0.29932863  1
  Se  Se220  1  0.74261065  0.40876837  0.80507197  1
  Se  Se221  1  0.74906343  0.75212985  0.29912691  1
  Se  Se222  1  0.75401420  0.75248340  0.81203661  1
  Se  Se223  1  0.23760161  0.09153489  0.18147666  1
  Se  Se224  1  0.25125279  0.08222026  0.70564060  1
  Se  Se225  1  0.25517375  0.40265558  0.19322436  1
  Se  Se226  1  0.25277689  0.41865461  0.69054565  1
  Se  Se227  1  0.25692364  0.74409847  0.19875679  1
  Se  Se228  1  0.23520556  0.75846253  0.69652858  1
  Se  Se229  1  0.58025115  0.09079420  0.18144502  1
  Se  Se230  1  0.58313513  0.09015881  0.68899865  1
  Se  Se231  1  0.58251754  0.41489185  0.19349063  1
  Se  Se232  1  0.59466292  0.40813017  0.71034385  1
  Se  Se233  1  0.59115541  0.74532808  0.19508201  1
  Se  Se234  1  0.56999946  0.75632669  0.69633541  1
  Se  Se235  1  0.90539374  0.09314512  0.18371481  1
  Se  Se236  1  0.91742879  0.07513901  0.70871429  1
  Se  Se237  1  0.91310044  0.41938219  0.19408362  1
  Se  Se238  1  0.94095476  0.41046014  0.69269334  1
  Se  Se239  1  0.91367869  0.75895805  0.18239490  1
  Se  Se240  1  0.91195032  0.75610476  0.69819072  1
  Se  Se241  1  0.07518846  0.25350850  0.18563034  1
  Se  Se242  1  0.09465809  0.25044749  0.70065979  1
  Se  Se243  1  0.09293561  0.56698936  0.19371418  1
  Se  Se244  1  0.09254854  0.58295705  0.68929155  1
  Se  Se245  1  0.09883030  0.91221711  0.18818338  1
  Se  Se246  1  0.07702283  0.92005990  0.70230004  1
  Se  Se247  1  0.41400773  0.25299434  0.19094674  1
  Se  Se248  1  0.42690790  0.24528955  0.68712115  1
  Se  Se249  1  0.41290492  0.58467144  0.19168741  1
  Se  Se250  1  0.43293961  0.56782291  0.69754430  1
  Se  Se251  1  0.42681453  0.90875302  0.19023973  1
  Se  Se252  1  0.40789827  0.91881819  0.69971584  1
  Se  Se253  1  0.74292014  0.25666689  0.19684441  1
  Se  Se254  1  0.77013320  0.23466504  0.70616762  1
  Se  Se255  1  0.74417095  0.59037333  0.19610548  1
  Se  Se256  1  0.76250321  0.57571094  0.69063186  1
  Se  Se257  1  0.75988682  0.91800450  0.18080363  1
  Se  Se258  1  0.75247292  0.90928383  0.69770280  1
