# generated using pymatgen
data_In86Cu29Se144
_symmetry_space_group_name_H-M   'P 1'
_cell_length_a   17.61775542
_cell_length_b   17.61397917
_cell_length_c   23.46933604
_cell_angle_alpha   90.03351878
_cell_angle_beta   90.02806474
_cell_angle_gamma   90.01865282
_symmetry_Int_Tables_number   1
_chemical_formula_structural   In86Cu29Se144
_chemical_formula_sum   'In86 Cu29 Se144'
_cell_volume   7282.97315037
_cell_formula_units_Z   1
loop_
 _symmetry_equiv_pos_site_id
 _symmetry_equiv_pos_as_xyz
  1  'x, y, z'
loop_
 _atom_site_type_symbol
 _atom_site_label
 _atom_site_symmetry_multiplicity
 _atom_site_fract_x
 _atom_site_fract_y
 _atom_site_fract_z
 _atom_site_occupancy
  In  In0  1  -0.00072760  0.16940130  0.11500727  1
  In  In1  1  0.00402208  0.15562710  0.63217600  1
  In  In2  1  -0.00415408  0.50751602  0.12032007  1
  In  In3  1  0.01562531  0.51615426  0.60445547  1
  In  In4  1  -0.00211615  0.83680090  0.12263245  1
  In  In5  1  -0.00619582  0.83879512  0.62931625  1
  In  In6  1  0.34346984  0.17481346  0.11814478  1
  In  In7  1  0.33646229  0.17113311  0.62143054  1
  In  In8  1  0.34502720  0.49098174  0.14842111  1
  In  In9  1  0.33665626  0.50173129  0.61486943  1
  In  In10  1  0.34903942  0.81719755  0.13044263  1
  In  In11  1  0.33037932  0.81762432  0.62456019  1
  In  In12  1  0.66789480  0.17395567  0.12032149  1
  In  In13  1  0.66912835  0.18392975  0.62733779  1
  In  In14  1  0.66429149  0.49977493  0.13092429  1
  In  In15  1  0.66304729  0.49984693  0.61356910  1
  In  In16  1  0.65918277  0.82239610  0.11687622  1
  In  In17  1  0.66329299  0.81971108  0.61082434  1
  In  In18  1  0.17410894  0.01086872  0.37776233  1
  In  In19  1  0.15752319  0.01425638  0.87002905  1
  In  In20  1  0.16776027  0.33543384  0.38308383  1
  In  In21  1  0.15974640  0.32424663  0.87524990  1
  In  In22  1  0.17728083  0.61625390  0.39243450  1
  In  In23  1  0.16963659  0.66936095  0.86656770  1
  In  In24  1  0.50470449  -0.00117876  0.37800556  1
  In  In25  1  0.50048982  0.00017123  0.88363599  1
  In  In26  1  0.49669330  0.33680748  0.36915276  1
  In  In27  1  0.50209461  0.33198117  0.88082842  1
  In  In28  1  0.50519173  0.66011308  0.36565839  1
  In  In29  1  0.49264396  0.66738693  0.88447939  1
  In  In30  1  0.82295914  -0.00730140  0.37620052  1
  In  In31  1  0.84304422  -0.00620277  0.87662043  1
  In  In32  1  0.81332910  0.39942704  0.39805693  1
  In  In33  1  0.81931449  0.35024657  0.88096892  1
  In  In34  1  0.83655510  0.65808384  0.38238690  1
  In  In35  1  0.83671653  0.65979694  0.87845372  1
  In  In36  1  -0.00028130  0.18937616  0.38349983  1
  In  In37  1  0.00439449  0.15769756  0.87728266  1
  In  In38  1  -0.00198230  0.49347453  0.40030533  1
  In  In39  1  -0.01049282  0.50228948  0.87318154  1
  In  In40  1  -0.00402299  0.81239522  0.38492132  1
  In  In41  1  -0.00747158  0.82563415  0.86452642  1
  In  In42  1  0.32310028  0.18531627  0.38078134  1
  In  In43  1  0.32998172  0.17028242  0.88472550  1
  In  In44  1  0.33957432  0.50049030  0.36352234  1
  In  In45  1  0.33541527  0.51081989  0.87579306  1
  In  In46  1  0.35811522  0.82170738  0.37961696  1
  In  In47  1  0.34071330  0.82604329  0.87987736  1
  In  In48  1  0.65399759  0.16831816  0.37408277  1
  In  In49  1  0.65621718  0.18217899  0.88271486  1
  In  In50  1  0.65658140  0.49648418  0.35979425  1
  In  In51  1  0.66548348  0.49591009  0.87722681  1
  In  In52  1  0.68326041  0.80752076  0.39234534  1
  In  In53  1  0.66558300  0.83346182  0.88193252  1
  In  In54  1  0.15681301  -0.00004855  0.12281333  1
  In  In55  1  0.15787251  -0.00014205  0.62958286  1
  In  In56  1  0.18359061  0.33374717  0.12994762  1
  In  In57  1  0.15766223  0.33697919  0.60764373  1
  In  In58  1  0.17900468  0.65992545  0.13297111  1
  In  In59  1  0.17713771  0.66254002  0.62777091  1
  In  In60  1  0.49838764  -0.00096290  0.11539609  1
  In  In61  1  0.50046536  0.00064752  0.62121677  1
  In  In62  1  0.50380625  0.34193419  0.13396455  1
  In  In63  1  0.50681096  0.34258370  0.61684376  1
  In  In64  1  0.50412266  0.66497932  0.12829816  1
  In  In65  1  0.49354251  0.65353547  0.60791705  1
  In  In66  1  0.82685638  -0.00393966  0.11702418  1
  In  In67  1  0.84287815  0.00016132  0.62965830  1
  In  In68  1  0.82488827  0.32788518  0.12009952  1
  In  In69  1  0.82582205  0.33664916  0.62949562  1
  In  In70  1  0.82239752  0.65417234  0.11525810  1
  In  In71  1  0.84550222  0.67670374  0.60030053  1
  In  In72  1  0.33215072  0.00452190  0.24854074  1
  In  In73  1  -0.00398860  -0.00216402  0.24552592  1
  In  In74  1  0.16988525  0.83908622  0.50050970  1
  In  In75  1  0.66332697  -0.00378487  0.24028567  1
  In  In76  1  0.17380315  0.49712423  0.00798628  1
  In  In77  1  0.33020636  -0.00116022  0.75848691  1
  In  In78  1  0.66778999  0.66321493  0.74085956  1
  In  In79  1  0.32992449  0.33777902  0.75468382  1
  In  In80  1  0.83275489  0.17042876  0.50481140  1
  In  In81  1  -0.00153557  0.33773672  0.26384440  1
  In  In82  1  0.00539600  0.66657864  0.25549475  1
  In  In83  1  0.16931117  0.83211797  -0.00269137  1
  In  In84  1  -0.00251842  0.33424228  0.74670246  1
  In  In85  1  0.67188925  -0.00037136  0.75845518  1
  Cu  Cu86  1  0.82839253  0.17586152  0.24607765  1
  Cu  Cu87  1  0.49195379  0.17652699  0.25071477  1
  Cu  Cu88  1  0.34342401  0.34121757  0.49415246  1
  Cu  Cu89  1  0.33703615  0.33470868  0.00775374  1
  Cu  Cu90  1  0.66383047  -0.00365708  0.49987932  1
  Cu  Cu91  1  0.66016534  0.34248882  0.00594043  1
  Cu  Cu92  1  0.16182301  0.82928119  0.74666168  1
  Cu  Cu93  1  0.83215904  0.82846679  0.74474857  1
  Cu  Cu94  1  0.50772893  0.17534594  0.75343764  1
  Cu  Cu95  1  0.16572667  0.50550661  0.74221612  1
  Cu  Cu96  1  0.17870256  0.82443229  0.25820585  1
  Cu  Cu97  1  0.51419657  0.82764744  0.25414290  1
  Cu  Cu98  1  0.65852881  0.32853325  0.49479258  1
  Cu  Cu99  1  -0.00403779  0.00089528  -0.00054324  1
  Cu  Cu100  1  0.33765188  0.01051959  0.49885471  1
  Cu  Cu101  1  0.83060769  0.81739092  0.25627052  1
  Cu  Cu102  1  0.83169224  0.49920225  0.24903319  1
  Cu  Cu103  1  0.83297533  0.17448134  0.75190982  1
  Cu  Cu104  1  0.32928743  -0.00304252  -0.00173030  1
  Cu  Cu105  1  0.66702831  0.66567436  0.00043125  1
  Cu  Cu106  1  0.00002840  0.66772180  -0.00363458  1
  Cu  Cu107  1  0.50227217  0.50684249  0.73809950  1
  Cu  Cu108  1  -0.00200919  0.00277181  0.50608208  1
  Cu  Cu109  1  0.83628201  0.50683475  0.74885249  1
  Cu  Cu110  1  0.16344805  0.17142347  0.25348153  1
  Cu  Cu111  1  0.33853816  0.66242414  0.49488828  1
  Cu  Cu112  1  -0.00411847  0.33068650  -0.00572726  1
  Cu  Cu113  1  0.67102064  0.00858031  -0.00290707  1
  Cu  Cu114  1  0.49071007  0.82198063  0.75154493  1
  Se  Se115  1  0.08313838  0.08201378  0.05084213  1
  Se  Se116  1  0.08494475  0.08364753  0.55609701  1
  Se  Se117  1  0.07639399  0.40452577  0.06084381  1
  Se  Se118  1  0.09804786  0.43289043  0.53883422  1
  Se  Se119  1  0.08237017  0.73858321  0.06140626  1
  Se  Se120  1  0.08493862  0.75240356  0.56393190  1
  Se  Se121  1  0.41389523  0.08225182  0.05005793  1
  Se  Se122  1  0.42200889  0.08918852  0.55530276  1
  Se  Se123  1  0.41247097  0.41895355  0.06533513  1
  Se  Se124  1  0.42626790  0.42538182  0.54795110  1
  Se  Se125  1  0.43320243  0.75513050  0.05654074  1
  Se  Se126  1  0.41410547  0.75244671  0.54896306  1
  Se  Se127  1  0.75198247  0.09005135  0.05366007  1
  Se  Se128  1  0.74166087  0.07675490  0.56388703  1
  Se  Se129  1  0.74826136  0.42275789  0.05789447  1
  Se  Se130  1  0.74498350  0.40488635  0.55215986  1
  Se  Se131  1  0.75399022  0.75183657  0.04953717  1
  Se  Se132  1  0.73450902  0.73290201  0.54163904  1
  Se  Se133  1  0.24746682  0.24917892  0.05329116  1
  Se  Se134  1  0.26220920  0.26094480  0.55356858  1
  Se  Se135  1  0.26743386  0.58223369  0.06535004  1
  Se  Se136  1  0.24967426  0.58606932  0.54962533  1
  Se  Se137  1  0.25761487  0.91700576  0.06477980  1
  Se  Se138  1  0.26117527  0.92826689  0.56206730  1
  Se  Se139  1  0.57732152  0.25734975  0.05914590  1
  Se  Se140  1  0.58076441  0.24544272  0.55243349  1
  Se  Se141  1  0.58782743  0.58361352  0.05807130  1
  Se  Se142  1  0.59987114  0.59759022  0.54604587  1
  Se  Se143  1  0.59126969  0.92251549  0.05264325  1
  Se  Se144  1  0.57948883  0.91490883  0.55380790  1
  Se  Se145  1  0.91179106  0.25048861  0.05086694  1
  Se  Se146  1  0.92445502  0.25335313  0.56808333  1
  Se  Se147  1  0.91597639  0.58213541  0.04722933  1
  Se  Se148  1  0.89503856  0.55593941  0.55078582  1
  Se  Se149  1  0.91612848  0.91421236  0.05253179  1
  Se  Se150  1  0.91391170  0.91770048  0.55531952  1
  Se  Se151  1  0.10188055  0.23788489  0.45085363  1
  Se  Se152  1  0.08232744  0.24556581  0.94710083  1
  Se  Se153  1  0.05287381  0.61533213  0.44658108  1
  Se  Se154  1  0.08503271  0.58532646  0.94136483  1
  Se  Se155  1  0.07477265  0.92609811  0.43900892  1
  Se  Se156  1  0.07596856  0.91921569  0.93838961  1
  Se  Se157  1  0.42392365  0.25096932  0.44449871  1
  Se  Se158  1  0.41671618  0.25189857  0.94918430  1
  Se  Se159  1  0.41935866  0.58208194  0.43676772  1
  Se  Se160  1  0.42402428  0.57022157  0.94925220  1
  Se  Se161  1  0.41632897  0.92280698  0.44673913  1
  Se  Se162  1  0.41577156  0.91438442  0.94785780  1
  Se  Se163  1  0.74807111  0.25398829  0.43677582  1
  Se  Se164  1  0.74444312  0.26098603  0.94968127  1
  Se  Se165  1  0.76888207  0.54064730  0.43103118  1
  Se  Se166  1  0.74762583  0.58219254  0.94405764  1
  Se  Se167  1  0.75180756  0.91374897  0.45115575  1
  Se  Se168  1  0.75038873  0.92069399  0.94406102  1
  Se  Se169  1  0.25014509  0.09150951  0.44903803  1
  Se  Se170  1  0.24577929  0.07855410  0.94476982  1
  Se  Se171  1  0.25897365  0.42365621  0.44086080  1
  Se  Se172  1  0.25608909  0.40593554  0.93985966  1
  Se  Se173  1  0.25208046  0.74350900  0.43793968  1
  Se  Se174  1  0.25773711  0.73311223  0.94679572  1
  Se  Se175  1  0.58462360  0.08312083  0.44751315  1
  Se  Se176  1  0.58109010  0.08875407  0.94791301  1
  Se  Se177  1  0.58337529  0.41673432  0.43768689  1
  Se  Se178  1  0.57808196  0.42221501  0.94803865  1
  Se  Se179  1  0.55728862  0.76511706  0.43463829  1
  Se  Se180  1  0.58289781  0.74959727  0.94756546  1
  Se  Se181  1  0.91904715  0.07814740  0.43986634  1
  Se  Se182  1  0.91351911  0.08547895  0.94634161  1
  Se  Se183  1  0.94292556  0.36897299  0.44235635  1
  Se  Se184  1  0.91629136  0.42182832  0.94683750  1
  Se  Se185  1  0.90237851  0.75077590  0.45346972  1
  Se  Se186  1  0.91812518  0.75136260  0.94257398  1
  Se  Se187  1  0.24326815  0.25728288  0.30523415  1
  Se  Se188  1  0.24217777  0.23741215  0.80581587  1
  Se  Se189  1  0.25364448  0.59292965  0.30285124  1
  Se  Se190  1  0.25076869  0.58035565  0.80159435  1
  Se  Se191  1  0.25330326  0.91157389  0.31541744  1
  Se  Se192  1  0.23877327  0.90445533  0.81461519  1
  Se  Se193  1  0.58423186  0.25252287  0.30110153  1
  Se  Se194  1  0.58694176  0.26249157  0.80523168  1
  Se  Se195  1  0.56060779  0.56192637  0.28954659  1
  Se  Se196  1  0.57744706  0.58217510  0.80640991  1
  Se  Se197  1  0.59195711  0.90951031  0.31365773  1
  Se  Se198  1  0.57114845  0.90646692  0.80802502  1
  Se  Se199  1  0.90028687  0.24919632  0.31423265  1
  Se  Se200  1  0.90994924  0.25464885  0.81550009  1
  Se  Se201  1  0.91884520  0.56916489  0.31143973  1
  Se  Se202  1  0.91908158  0.59002723  0.80173854  1
  Se  Se203  1  0.91234463  0.90369590  0.30980670  1
  Se  Se204  1  0.91234061  0.91503332  0.79845047  1
  Se  Se205  1  0.08067465  0.08969006  0.30890439  1
  Se  Se206  1  0.07540266  0.08583004  0.79770686  1
  Se  Se207  1  0.08644458  0.43313760  0.31812203  1
  Se  Se208  1  0.09160344  0.42562388  0.80722584  1
  Se  Se209  1  0.09757794  0.74876041  0.31862849  1
  Se  Se210  1  0.07914907  0.74346247  0.79936080  1
  Se  Se211  1  0.41879633  0.09220843  0.31214268  1
  Se  Se212  1  0.42587559  0.09470883  0.81116069  1
  Se  Se213  1  0.39673789  0.39378201  0.30023100  1
  Se  Se214  1  0.42711209  0.42842214  0.80532477  1
  Se  Se215  1  0.42001985  0.74678413  0.29780023  1
  Se  Se216  1  0.41171050  0.74009184  0.80719812  1
  Se  Se217  1  0.75312034  0.08632732  0.30391266  1
  Se  Se218  1  0.75519965  0.09617921  0.81624314  1
  Se  Se219  1  0.75006485  0.41006817  0.29891029  1
  Se  Se220  1  0.75003928  0.42613568  0.80138130  1
  Se  Se221  1  0.75052105  0.73412616  0.31056669  1
  Se  Se222  1  0.75121526  0.75429602  0.80752585  1
  Se  Se223  1  0.23950377  0.09240985  0.18923503  1
  Se  Se224  1  0.24918893  0.08886229  0.69278362  1
  Se  Se225  1  0.23266027  0.42967923  0.20197367  1
  Se  Se226  1  0.24402583  0.42022015  0.68575251  1
  Se  Se227  1  0.25867478  0.74662888  0.19963020  1
  Se  Se228  1  0.25236468  0.74710513  0.70078229  1
  Se  Se229  1  0.56896234  0.09243492  0.19014072  1
  Se  Se230  1  0.58205762  0.08762463  0.69532542  1
  Se  Se231  1  0.57592756  0.43157798  0.20486418  1
  Se  Se232  1  0.58679759  0.42144145  0.68954751  1
  Se  Se233  1  0.59398014  0.74626686  0.19691687  1
  Se  Se234  1  0.57090672  0.75178002  0.68618778  1
  Se  Se235  1  0.90620728  0.09194814  0.18869206  1
  Se  Se236  1  0.91311670  0.08609889  0.70237897  1
  Se  Se237  1  0.91407661  0.41938544  0.19020815  1
  Se  Se238  1  0.91817324  0.43037595  0.68628426  1
  Se  Se239  1  0.91341959  0.74828778  0.18986025  1
  Se  Se240  1  0.90885102  0.74429647  0.68729710  1
  Se  Se241  1  0.07976579  0.24794953  0.19266595  1
  Se  Se242  1  0.09560629  0.25092308  0.68966524  1
  Se  Se243  1  0.08882817  0.57125411  0.19418064  1
  Se  Se244  1  0.07947401  0.58538895  0.68986397  1
  Se  Se245  1  0.09585769  0.90110524  0.19765612  1
  Se  Se246  1  0.07929965  0.91733436  0.69900536  1
  Se  Se247  1  0.40884507  0.25641400  0.19528906  1
  Se  Se248  1  0.42486844  0.25240492  0.69339151  1
  Se  Se249  1  0.43663592  0.57944565  0.20492733  1
  Se  Se250  1  0.41456304  0.58548501  0.68691938  1
  Se  Se251  1  0.43247551  0.91349886  0.19760624  1
  Se  Se252  1  0.41820224  0.91210815  0.69344094  1
  Se  Se253  1  0.74189325  0.25581779  0.19478442  1
  Se  Se254  1  0.74712420  0.25756774  0.70287365  1
  Se  Se255  1  0.75202149  0.58617328  0.19695898  1
  Se  Se256  1  0.76004577  0.58012503  0.68110354  1
  Se  Se257  1  0.76014741  0.90140516  0.19113732  1
  Se  Se258  1  0.74654534  0.90736724  0.68803666  1
