# generated using pymatgen
data_In86Cu29Se144
_symmetry_space_group_name_H-M   'P 1'
_cell_length_a   17.56674359
_cell_length_b   17.56655835
_cell_length_c   23.41966827
_cell_angle_alpha   89.96444152
_cell_angle_beta   89.99911914
_cell_angle_gamma   89.99334027
_symmetry_Int_Tables_number   1
_chemical_formula_structural   In86Cu29Se144
_chemical_formula_sum   'In86 Cu29 Se144'
_cell_volume   7227.00903259
_cell_formula_units_Z   1
loop_
 _symmetry_equiv_pos_site_id
 _symmetry_equiv_pos_as_xyz
  1  'x, y, z'
loop_
 _atom_site_type_symbol
 _atom_site_label
 _atom_site_symmetry_multiplicity
 _atom_site_fract_x
 _atom_site_fract_y
 _atom_site_fract_z
 _atom_site_occupancy
  In  In0  1  -0.00742826  0.17746722  0.11303858  1
  In  In1  1  -0.02050815  0.17498307  0.64576380  1
  In  In2  1  0.00341394  0.50462343  0.11947929  1
  In  In3  1  0.00027235  0.50908860  0.63254703  1
  In  In4  1  -0.00426746  0.81410452  0.12419157  1
  In  In5  1  -0.02483841  0.84631481  0.64889547  1
  In  In6  1  0.35368989  0.16774726  0.11822270  1
  In  In7  1  0.34564717  0.17735524  0.62331111  1
  In  In8  1  0.33575569  0.49163286  0.13031658  1
  In  In9  1  0.32947814  0.49280571  0.62536418  1
  In  In10  1  0.31971915  0.83004215  0.11667996  1
  In  In11  1  0.33937418  0.81828487  0.62045973  1
  In  In12  1  0.65971727  0.16363740  0.11510689  1
  In  In13  1  0.66655943  0.18379008  0.64797618  1
  In  In14  1  0.66319865  0.49726254  0.11126796  1
  In  In15  1  0.66404449  0.49578464  0.62629325  1
  In  In16  1  0.68047247  0.83992347  0.12638180  1
  In  In17  1  0.66889018  0.83092672  0.62802058  1
  In  In18  1  0.16103198  -0.00992818  0.37865261  1
  In  In19  1  0.15261423  -0.00409018  0.87755846  1
  In  In20  1  0.18422088  0.33557845  0.37582304  1
  In  In21  1  0.16369401  0.33669933  0.85705390  1
  In  In22  1  0.15730562  0.65994323  0.37128303  1
  In  In23  1  0.16959814  0.67568668  0.87963483  1
  In  In24  1  0.51428525  -0.00523990  0.38351163  1
  In  In25  1  0.51639671  0.00053860  0.87548096  1
  In  In26  1  0.49038009  0.34274135  0.38807399  1
  In  In27  1  0.49903272  0.33812381  0.87013362  1
  In  In28  1  0.49800370  0.67069264  0.37776279  1
  In  In29  1  0.50374891  0.64639461  0.87072734  1
  In  In30  1  0.81489964  0.00665432  0.37728877  1
  In  In31  1  0.85005609  0.01922275  0.84676022  1
  In  In32  1  0.84378704  0.34416407  0.38052185  1
  In  In33  1  0.83389889  0.33802249  0.87152514  1
  In  In34  1  0.84271110  0.66451189  0.38466285  1
  In  In35  1  0.81976993  0.66127685  0.85833179  1
  In  In36  1  -0.00646564  0.17243791  0.38043876  1
  In  In37  1  -0.00680274  0.16822248  0.86608367  1
  In  In38  1  -0.00533137  0.51798776  0.38867793  1
  In  In39  1  -0.01812170  0.48081507  0.85927034  1
  In  In40  1  0.01047620  0.81977694  0.38359526  1
  In  In41  1  -0.00301402  0.83614162  0.86747635  1
  In  In42  1  0.33763427  0.18172223  0.37522294  1
  In  In43  1  0.33358057  0.18054363  0.87827576  1
  In  In44  1  0.33196495  0.49896150  0.37742876  1
  In  In45  1  0.34755990  0.50303850  0.87473752  1
  In  In46  1  0.35107580  0.83289518  0.37339407  1
  In  In47  1  0.32797634  0.81493769  0.88607847  1
  In  In48  1  0.66730671  0.15107840  0.37717734  1
  In  In49  1  0.67050181  0.16885254  0.87111683  1
  In  In50  1  0.66663258  0.50424010  0.39041890  1
  In  In51  1  0.66388560  0.50124466  0.86585461  1
  In  In52  1  0.65874652  0.84266781  0.38388296  1
  In  In53  1  0.68401511  0.84439201  0.85207553  1
  In  In54  1  0.18662301  -0.00548533  0.11190531  1
  In  In55  1  0.15031057  -0.00699443  0.62585967  1
  In  In56  1  0.16860209  0.34821998  0.12455571  1
  In  In57  1  0.15249811  0.36561500  0.65099412  1
  In  In58  1  0.15857378  0.66353646  0.12688615  1
  In  In59  1  0.16229659  0.64898285  0.62836565  1
  In  In60  1  0.50004184  0.01442684  0.12019322  1
  In  In61  1  0.51010194  0.00815983  0.62130763  1
  In  In62  1  0.49651617  0.32658482  0.11701161  1
  In  In63  1  0.50266535  0.33512328  0.63028960  1
  In  In64  1  0.50023439  0.64885238  0.12210570  1
  In  In65  1  0.50600802  0.66870654  0.61820296  1
  In  In66  1  0.82096949  -0.00181663  0.12334992  1
  In  In67  1  0.83119229  -0.00413548  0.64251368  1
  In  In68  1  0.83712537  0.33302875  0.10027022  1
  In  In69  1  0.80890584  0.34270443  0.64459422  1
  In  In70  1  0.84047983  0.67126197  0.12234589  1
  In  In71  1  0.83244915  0.66817946  0.63005551  1
  In  In72  1  0.66629027  0.67048911  0.25255994  1
  In  In73  1  0.16843478  0.82191610  0.50590002  1
  In  In74  1  0.17089614  0.17220464  0.49919533  1
  In  In75  1  0.33211489  0.65792853  0.74728730  1
  In  In76  1  0.32984924  0.00315186  0.75082654  1
  In  In77  1  0.16531173  0.16699932  -0.01075028  1
  In  In78  1  0.83455192  0.83546465  -0.00551830  1
  In  In79  1  0.66294153  0.32966373  0.25047167  1
  In  In80  1  0.15957697  0.49751240  -0.00609407  1
  In  In81  1  0.00193076  -0.00793374  0.25018788  1
  In  In82  1  0.82225835  0.17499823  0.51366891  1
  In  In83  1  0.50564714  0.83161761  -0.00857367  1
  In  In84  1  0.34071765  -0.00149734  0.24633911  1
  In  In85  1  0.00212351  0.34568635  0.24761110  1
  Cu  Cu86  1  0.66452791  0.32974928  0.51122703  1
  Cu  Cu87  1  0.34079395  0.66065473  0.50001311  1
  Cu  Cu88  1  0.83609059  0.83477282  0.25258561  1
  Cu  Cu89  1  0.67460779  0.66383483  0.50769230  1
  Cu  Cu90  1  0.50374492  0.83305875  0.25286220  1
  Cu  Cu91  1  -0.00449981  0.65956428  -0.00281136  1
  Cu  Cu92  1  0.34361301  -0.00071715  0.50155152  1
  Cu  Cu93  1  0.33320085  0.33444151  0.50591932  1
  Cu  Cu94  1  0.16736677  0.16253965  0.75086998  1
  Cu  Cu95  1  -0.00272953  0.67168704  0.51007066  1
  Cu  Cu96  1  -0.01260794  0.00273162  0.51904168  1
  Cu  Cu97  1  0.00166686  0.35068967  0.51217284  1
  Cu  Cu98  1  0.17075040  0.16940181  0.25091418  1
  Cu  Cu99  1  0.49232233  0.49404644  0.25320434  1
  Cu  Cu100  1  0.33718952  0.33487146  -0.00134054  1
  Cu  Cu101  1  0.67264359  0.00789354  -0.00642611  1
  Cu  Cu102  1  0.66627059  0.33862906  -0.01189754  1
  Cu  Cu103  1  -0.00215748  -0.00168211  -0.01101238  1
  Cu  Cu104  1  0.66298005  0.66325540  -0.01453281  1
  Cu  Cu105  1  0.82565135  0.16633125  0.24354013  1
  Cu  Cu106  1  0.66771898  -0.00292797  0.50743673  1
  Cu  Cu107  1  0.16839245  0.50406026  0.25018710  1
  Cu  Cu108  1  0.15993803  0.83599832  0.75298157  1
  Cu  Cu109  1  0.50508843  0.16828830  0.24592871  1
  Cu  Cu110  1  0.83248908  0.50546799  0.25191496  1
  Cu  Cu111  1  0.82956025  0.49950996  0.74603687  1
  Cu  Cu112  1  0.49871929  0.83033793  0.74597882  1
  Cu  Cu113  1  0.49931111  0.17416979  0.75048021  1
  Cu  Cu114  1  0.16566469  0.82359863  0.24496606  1
  Se  Se115  1  0.07841556  0.07509017  0.05449882  1
  Se  Se116  1  0.07240188  0.09319882  0.56398603  1
  Se  Se117  1  0.06959936  0.40154467  0.05154669  1
  Se  Se118  1  0.09083974  0.42912123  0.56282969  1
  Se  Se119  1  0.07878209  0.74142449  0.05178259  1
  Se  Se120  1  0.07442243  0.75187535  0.57415413  1
  Se  Se121  1  0.41221621  0.07550161  0.04630307  1
  Se  Se122  1  0.41948271  0.08747651  0.55519218  1
  Se  Se123  1  0.41661567  0.41967739  0.05442024  1
  Se  Se124  1  0.42025422  0.41572892  0.55842184  1
  Se  Se125  1  0.42101203  0.74582500  0.05791918  1
  Se  Se126  1  0.42363198  0.75041355  0.54648976  1
  Se  Se127  1  0.75512925  0.08713941  0.05134644  1
  Se  Se128  1  0.73956187  0.07942398  0.57168133  1
  Se  Se129  1  0.75065176  0.42340112  0.04190421  1
  Se  Se130  1  0.75310894  0.41363207  0.55736376  1
  Se  Se131  1  0.73950093  0.74158404  0.05175754  1
  Se  Se132  1  0.75463803  0.75204234  0.55752273  1
  Se  Se133  1  0.25230441  0.25544758  0.05747326  1
  Se  Se134  1  0.24561479  0.26275137  0.56707168  1
  Se  Se135  1  0.24848620  0.57804139  0.06073112  1
  Se  Se136  1  0.25488410  0.58501014  0.55674458  1
  Se  Se137  1  0.25504289  0.91138065  0.03929390  1
  Se  Se138  1  0.25721355  0.92426166  0.56098449  1
  Se  Se139  1  0.58716106  0.25597640  0.04824455  1
  Se  Se140  1  0.58634646  0.24313151  0.56469405  1
  Se  Se141  1  0.58176465  0.58333605  0.04413287  1
  Se  Se142  1  0.58597790  0.57833672  0.55302602  1
  Se  Se143  1  0.59574411  0.92258181  0.05471143  1
  Se  Se144  1  0.58240070  0.91120205  0.55738564  1
  Se  Se145  1  0.91067660  0.23946573  0.03659399  1
  Se  Se146  1  0.91946919  0.26460659  0.56616650  1
  Se  Se147  1  0.91118514  0.58080147  0.05315788  1
  Se  Se148  1  0.91543645  0.58356837  0.55973312  1
  Se  Se149  1  0.92518659  0.92208832  0.06001449  1
  Se  Se150  1  0.90518752  0.91494059  0.56555664  1
  Se  Se151  1  0.07281911  0.26737752  0.44526717  1
  Se  Se152  1  0.07804586  0.26078254  0.93312748  1
  Se  Se153  1  0.08651250  0.59389256  0.45540264  1
  Se  Se154  1  0.06890048  0.58167351  0.93139268  1
  Se  Se155  1  0.07211047  0.92588275  0.45628229  1
  Se  Se156  1  0.07867097  0.90528098  0.94550943  1
  Se  Se157  1  0.41647364  0.24734875  0.45448698  1
  Se  Se158  1  0.42337613  0.25376888  0.94603433  1
  Se  Se159  1  0.42190954  0.57860857  0.44355841  1
  Se  Se160  1  0.40470187  0.60221395  0.94388165  1
  Se  Se161  1  0.42320618  0.91349460  0.44762054  1
  Se  Se162  1  0.41292745  0.92231764  0.93526657  1
  Se  Se163  1  0.74187088  0.25903676  0.43889894  1
  Se  Se164  1  0.75127020  0.25236501  0.94080390  1
  Se  Se165  1  0.75949626  0.58125165  0.45281759  1
  Se  Se166  1  0.75146508  0.58153339  0.93630687  1
  Se  Se167  1  0.75176698  0.91789500  0.45115073  1
  Se  Se168  1  0.75000446  0.92597666  0.93387993  1
  Se  Se169  1  0.25852461  0.07380668  0.43966073  1
  Se  Se170  1  0.25735145  0.07345744  0.93638473  1
  Se  Se171  1  0.24989894  0.41897944  0.45132590  1
  Se  Se172  1  0.25456778  0.40790380  0.93638070  1
  Se  Se173  1  0.25937495  0.74341649  0.43856636  1
  Se  Se174  1  0.24658005  0.74254949  0.95847692  1
  Se  Se175  1  0.58593502  0.08442663  0.45441036  1
  Se  Se176  1  0.58465442  0.09159720  0.94539885  1
  Se  Se177  1  0.58500817  0.41487742  0.45365256  1
  Se  Se178  1  0.58079863  0.42365576  0.93908188  1
  Se  Se179  1  0.59165330  0.74101220  0.44588777  1
  Se  Se180  1  0.59616552  0.75199084  0.92428685  1
  Se  Se181  1  0.91479204  0.08361063  0.45082833  1
  Se  Se182  1  0.91467050  0.07906079  0.93546183  1
  Se  Se183  1  0.91502334  0.42642432  0.45364109  1
  Se  Se184  1  0.91723522  0.41607882  0.94351906  1
  Se  Se185  1  0.91738525  0.75568166  0.45377545  1
  Se  Se186  1  0.91471587  0.73828435  0.93513675  1
  Se  Se187  1  0.25567410  0.25363013  0.30037614  1
  Se  Se188  1  0.25325567  0.24600615  0.80026873  1
  Se  Se189  1  0.25116447  0.58407386  0.30741441  1
  Se  Se190  1  0.24225307  0.57661831  0.81248646  1
  Se  Se191  1  0.24388241  0.90815151  0.30504496  1
  Se  Se192  1  0.24763424  0.90673763  0.81260340  1
  Se  Se193  1  0.57625505  0.24467402  0.31598736  1
  Se  Se194  1  0.58557907  0.25424997  0.80380836  1
  Se  Se195  1  0.58066394  0.57190588  0.30934115  1
  Se  Se196  1  0.59370612  0.59330980  0.79548133  1
  Se  Se197  1  0.58522563  0.91800692  0.30489812  1
  Se  Se198  1  0.57845961  0.91877706  0.79679247  1
  Se  Se199  1  0.90662368  0.24653304  0.30418001  1
  Se  Se200  1  0.90572938  0.24749603  0.79863803  1
  Se  Se201  1  0.91580390  0.58405479  0.30811991  1
  Se  Se202  1  0.91641720  0.58407986  0.79646076  1
  Se  Se203  1  0.91312622  0.91311755  0.31905449  1
  Se  Se204  1  0.89929238  0.89706910  0.79967192  1
  Se  Se205  1  0.08919892  0.09214092  0.31025017  1
  Se  Se206  1  0.08420790  0.08146383  0.80491171  1
  Se  Se207  1  0.08723206  0.42674157  0.31663002  1
  Se  Se208  1  0.08140910  0.41894711  0.79108565  1
  Se  Se209  1  0.07910442  0.74801822  0.30207415  1
  Se  Se210  1  0.08395902  0.74634388  0.80629472  1
  Se  Se211  1  0.42586714  0.08791638  0.31130294  1
  Se  Se212  1  0.42196240  0.09000540  0.81080393  1
  Se  Se213  1  0.41287483  0.41023683  0.30848857  1
  Se  Se214  1  0.41776715  0.42168847  0.80085170  1
  Se  Se215  1  0.41974227  0.74591681  0.30046683  1
  Se  Se216  1  0.41846494  0.75330796  0.80821947  1
  Se  Se217  1  0.74468809  0.08237060  0.29775640  1
  Se  Se218  1  0.72538354  0.06550841  0.80256068  1
  Se  Se219  1  0.75263684  0.42414004  0.31040516  1
  Se  Se220  1  0.74807208  0.41466551  0.80040614  1
  Se  Se221  1  0.75558210  0.75603772  0.31584458  1
  Se  Se222  1  0.75601200  0.75310145  0.78642761  1
  Se  Se223  1  0.24770165  0.09012097  0.18785389  1
  Se  Se224  1  0.24248848  0.08735458  0.68421345  1
  Se  Se225  1  0.24921795  0.41473577  0.20145964  1
  Se  Se226  1  0.27155556  0.40934360  0.70622673  1
  Se  Se227  1  0.25158896  0.74433400  0.19101330  1
  Se  Se228  1  0.24078137  0.75753916  0.69208759  1
  Se  Se229  1  0.58715041  0.08425585  0.19307349  1
  Se  Se230  1  0.57939521  0.08439587  0.70012331  1
  Se  Se231  1  0.57778822  0.42339849  0.18960727  1
  Se  Se232  1  0.60851099  0.39291468  0.69497824  1
  Se  Se233  1  0.57979618  0.75677405  0.18597786  1
  Se  Se234  1  0.58147443  0.74583197  0.69393117  1
  Se  Se235  1  0.91613399  0.08892641  0.18912722  1
  Se  Se236  1  0.92855220  0.06564933  0.70744960  1
  Se  Se237  1  0.90254130  0.42222540  0.18565847  1
  Se  Se238  1  0.91751597  0.41637863  0.69584112  1
  Se  Se239  1  0.91361029  0.74617092  0.20096172  1
  Se  Se240  1  0.92776258  0.72969996  0.70277090  1
  Se  Se241  1  0.08751592  0.24516609  0.18896343  1
  Se  Se242  1  0.08551394  0.24950517  0.69895926  1
  Se  Se243  1  0.07773764  0.57941155  0.19686582  1
  Se  Se244  1  0.09390323  0.57290246  0.70577819  1
  Se  Se245  1  0.09370758  0.91085165  0.18350392  1
  Se  Se246  1  0.07654052  0.92489960  0.70586431  1
  Se  Se247  1  0.41980084  0.25132021  0.19473682  1
  Se  Se248  1  0.41337753  0.25673246  0.70041417  1
  Se  Se249  1  0.41598888  0.58172904  0.19769885  1
  Se  Se250  1  0.42773075  0.57656060  0.68794044  1
  Se  Se251  1  0.42621512  0.90732721  0.18367799  1
  Se  Se252  1  0.41686713  0.91143961  0.68810323  1
  Se  Se253  1  0.75533579  0.25274689  0.18216965  1
  Se  Se254  1  0.78777456  0.22115470  0.70588959  1
  Se  Se255  1  0.74982698  0.57885009  0.18811993  1
  Se  Se256  1  0.74475985  0.58257645  0.69388472  1
  Se  Se257  1  0.75232894  0.91946667  0.20205948  1
  Se  Se258  1  0.73626145  0.91759078  0.70242321  1
