# generated using pymatgen
data_In86Cu29Se144
_symmetry_space_group_name_H-M   'P 1'
_cell_length_a   17.57871981
_cell_length_b   17.57839561
_cell_length_c   23.43970954
_cell_angle_alpha   89.99903042
_cell_angle_beta   89.99836826
_cell_angle_gamma   89.99515681
_symmetry_Int_Tables_number   1
_chemical_formula_structural   In86Cu29Se144
_chemical_formula_sum   'In86 Cu29 Se144'
_cell_volume   7243.00361743
_cell_formula_units_Z   1
loop_
 _symmetry_equiv_pos_site_id
 _symmetry_equiv_pos_as_xyz
  1  'x, y, z'
loop_
 _atom_site_type_symbol
 _atom_site_label
 _atom_site_symmetry_multiplicity
 _atom_site_fract_x
 _atom_site_fract_y
 _atom_site_fract_z
 _atom_site_occupancy
  In  In0  1  -0.00140742  0.16395870  0.12112380  1
  In  In1  1  -0.00437288  0.17268349  0.62286153  1
  In  In2  1  0.00002591  0.48590160  0.12815471  1
  In  In3  1  0.00972023  0.50297682  0.61604830  1
  In  In4  1  -0.00035942  0.85481475  0.12382998  1
  In  In5  1  -0.01860533  0.82137559  0.61608105  1
  In  In6  1  0.33369907  0.16197060  0.12374193  1
  In  In7  1  0.34886964  0.15039519  0.63342276  1
  In  In8  1  0.32584757  0.51190608  0.12054866  1
  In  In9  1  0.31667946  0.49972368  0.62590958  1
  In  In10  1  0.35139491  0.84011004  0.11805129  1
  In  In11  1  0.34014163  0.84521130  0.62589172  1
  In  In12  1  0.65285492  0.15020720  0.11370580  1
  In  In13  1  0.66185961  0.17764179  0.63175898  1
  In  In14  1  0.67985850  0.50213546  0.12634073  1
  In  In15  1  0.67980587  0.49031993  0.63936579  1
  In  In16  1  0.66920279  0.83961374  0.12267116  1
  In  In17  1  0.68653282  0.82033386  0.65764557  1
  In  In18  1  0.15711940  -0.00245497  0.36933461  1
  In  In19  1  0.18093281  0.00327191  0.87566364  1
  In  In20  1  0.15824947  0.34164229  0.37998469  1
  In  In21  1  0.17578118  0.32282002  0.88253907  1
  In  In22  1  0.16613411  0.66633413  0.38423633  1
  In  In23  1  0.14817815  0.66675157  0.87266381  1
  In  In24  1  0.50961445  0.01217936  0.36294080  1
  In  In25  1  0.50647787  -0.00424203  0.87568747  1
  In  In26  1  0.48922845  0.32542533  0.37837790  1
  In  In27  1  0.49785305  0.32222234  0.87031016  1
  In  In28  1  0.50906928  0.66543583  0.37425313  1
  In  In29  1  0.51760863  0.67364990  0.87031842  1
  In  In30  1  0.82298128  -0.00243786  0.36680248  1
  In  In31  1  0.82406951  0.00629754  0.87907205  1
  In  In32  1  0.84907486  0.33061994  0.37764483  1
  In  In33  1  0.82081495  0.32551332  0.86482885  1
  In  In34  1  0.82626759  0.67692759  0.38254040  1
  In  In35  1  0.84417247  0.67914993  0.85741277  1
  In  In36  1  -0.00993913  0.16811601  0.36053819  1
  In  In37  1  -0.00223316  0.17047907  0.88392400  1
  In  In38  1  0.00261364  0.48813919  0.38719265  1
  In  In39  1  -0.00661927  0.51141574  0.87174496  1
  In  In40  1  -0.00643351  0.84056445  0.38181682  1
  In  In41  1  -0.00301369  0.82088740  0.87140793  1
  In  In42  1  0.34536712  0.16664742  0.37605886  1
  In  In43  1  0.34005517  0.16418532  0.87948890  1
  In  In44  1  0.32259989  0.48691280  0.37967202  1
  In  In45  1  0.33396184  0.48344410  0.87252582  1
  In  In46  1  0.32274392  0.83737104  0.37921592  1
  In  In47  1  0.33348311  0.85270660  0.87105631  1
  In  In48  1  0.66731811  0.15230212  0.37528873  1
  In  In49  1  0.66685669  0.15595904  0.87166572  1
  In  In50  1  0.66855683  0.52015944  0.37883125  1
  In  In51  1  0.68529788  0.50530369  0.85804231  1
  In  In52  1  0.67324693  0.84003178  0.37127857  1
  In  In53  1  0.67109271  0.83608791  0.87570209  1
  In  In54  1  0.15247215  0.01557091  0.13220400  1
  In  In55  1  0.18297880  -0.00222774  0.62628662  1
  In  In56  1  0.15915190  0.32293880  0.11813741  1
  In  In57  1  0.16243642  0.34591260  0.62572077  1
  In  In58  1  0.17418066  0.66510952  0.11868044  1
  In  In59  1  0.15144088  0.65950909  0.61811898  1
  In  In60  1  0.50684964  0.00297180  0.12596394  1
  In  In61  1  0.49853452  -0.00548812  0.63243951  1
  In  In62  1  0.51038390  0.32050975  0.12289143  1
  In  In63  1  0.50837659  0.31863283  0.63211911  1
  In  In64  1  0.50394672  0.68505786  0.11992510  1
  In  In65  1  0.52310322  0.67120100  0.63470903  1
  In  In66  1  0.83365956  0.00219283  0.11906976  1
  In  In67  1  0.82733819  -0.01472257  0.63327222  1
  In  In68  1  0.84777248  0.33418072  0.12584552  1
  In  In69  1  0.82118323  0.32974026  0.62333356  1
  In  In70  1  0.81925929  0.67029590  0.12551952  1
  In  In71  1  0.83352672  0.66799129  0.63394360  1
  In  In72  1  0.16473521  0.83504170  -0.00110357  1
  In  In73  1  -0.00386436  0.67215656  0.25908785  1
  In  In74  1  0.33998670  0.67512073  0.24913249  1
  In  In75  1  0.49480175  0.49907733  0.49984106  1
  In  In76  1  -0.00468663  0.33662159  0.74997864  1
  In  In77  1  0.33011181  0.33024299  0.24503535  1
  In  In78  1  0.16555658  0.16884859  0.49896952  1
  In  In79  1  -0.00250095  -0.00294737  0.74934788  1
  In  In80  1  0.50203313  0.49390932  -0.00960037  1
  In  In81  1  0.83091961  0.16490907  0.49976727  1
  In  In82  1  0.67669786  0.32193560  0.25202912  1
  In  In83  1  0.33503859  0.66640870  0.74408817  1
  In  In84  1  0.50368936  0.83688882  0.51010461  1
  In  In85  1  0.83521008  0.49446894  -0.00576532  1
  Cu  Cu86  1  -0.00362011  0.66922301  0.49954565  1
  Cu  Cu87  1  0.15831732  0.49895604  0.25512139  1
  Cu  Cu88  1  0.16446472  0.49828128  0.74700126  1
  Cu  Cu89  1  0.33087918  0.32628120  0.50325230  1
  Cu  Cu90  1  0.33075376  0.66509582  -0.00451385  1
  Cu  Cu91  1  0.33872849  -0.00083484  0.50325329  1
  Cu  Cu92  1  0.50188760  0.48906782  0.75070341  1
  Cu  Cu93  1  0.33392876  0.33274496  -0.00031553  1
  Cu  Cu94  1  0.66608463  -0.00583906  0.50012554  1
  Cu  Cu95  1  0.83360362  0.50121275  0.25138186  1
  Cu  Cu96  1  0.66542124  0.67310630  -0.00218704  1
  Cu  Cu97  1  0.67648991  0.67191297  0.51066101  1
  Cu  Cu98  1  0.32719379  0.66769260  0.50574407  1
  Cu  Cu99  1  0.49770527  0.16454221  0.75515735  1
  Cu  Cu100  1  0.66544844  0.32136729  -0.00861209  1
  Cu  Cu101  1  0.00730786  0.33221504  0.00150198  1
  Cu  Cu102  1  0.51027203  0.50429534  0.25215618  1
  Cu  Cu103  1  -0.00788880  0.66293599  -0.00468068  1
  Cu  Cu104  1  0.33694317  0.00315630  0.00053162  1
  Cu  Cu105  1  0.51001774  0.84132245  0.24370953  1
  Cu  Cu106  1  0.17329506  0.84437162  0.25051784  1
  Cu  Cu107  1  0.17720284  0.16754043  0.75491032  1
  Cu  Cu108  1  0.16402469  0.17081895  0.24501332  1
  Cu  Cu109  1  0.66459012  0.33660401  0.50680506  1
  Cu  Cu110  1  0.83092375  0.83941664  0.24909839  1
  Cu  Cu111  1  0.16041589  0.83025131  0.74879657  1
  Cu  Cu112  1  -0.00386209  0.00224176  0.00090735  1
  Cu  Cu113  1  0.66405544  -0.00444570  -0.00156286  1
  Cu  Cu114  1  0.00003850  -0.00545598  0.49923572  1
  Se  Se115  1  0.08525524  0.08523577  0.04932477  1
  Se  Se116  1  0.07760988  0.07455018  0.56086013  1
  Se  Se117  1  0.08627357  0.42107171  0.05332752  1
  Se  Se118  1  0.08236721  0.41000001  0.54894478  1
  Se  Se119  1  0.07090634  0.74442693  0.05873890  1
  Se  Se120  1  0.08159870  0.75468364  0.55103830  1
  Se  Se121  1  0.42091666  0.08389300  0.05573618  1
  Se  Se122  1  0.42534105  0.07762926  0.55604741  1
  Se  Se123  1  0.41374892  0.41271789  0.06195722  1
  Se  Se124  1  0.41066392  0.40893266  0.56393975  1
  Se  Se125  1  0.41591791  0.74912645  0.04537250  1
  Se  Se126  1  0.41512594  0.73694113  0.56497180  1
  Se  Se127  1  0.75005264  0.08169722  0.04788607  1
  Se  Se128  1  0.74358039  0.07672701  0.56251391  1
  Se  Se129  1  0.74220415  0.40371991  0.05394798  1
  Se  Se130  1  0.74822650  0.42214685  0.55502598  1
  Se  Se131  1  0.75055153  0.75390882  0.05180683  1
  Se  Se132  1  0.74967514  0.75996561  0.56789879  1
  Se  Se133  1  0.25379464  0.24828749  0.05524356  1
  Se  Se134  1  0.25563694  0.24638735  0.56792717  1
  Se  Se135  1  0.24479608  0.58167973  0.04429358  1
  Se  Se136  1  0.24261144  0.57939390  0.55195616  1
  Se  Se137  1  0.25053295  0.92545834  0.06117152  1
  Se  Se138  1  0.25318384  0.91364483  0.55137830  1
  Se  Se139  1  0.57836001  0.24372628  0.04499504  1
  Se  Se140  1  0.58254792  0.24685769  0.55270246  1
  Se  Se141  1  0.58915310  0.58432045  0.05632731  1
  Se  Se142  1  0.59051802  0.58339290  0.55893555  1
  Se  Se143  1  0.57928339  0.91466345  0.05382266  1
  Se  Se144  1  0.60062679  0.91497122  0.57039674  1
  Se  Se145  1  0.91846558  0.25149847  0.05168640  1
  Se  Se146  1  0.92266289  0.26185907  0.55243659  1
  Se  Se147  1  0.91904939  0.58496450  0.06302956  1
  Se  Se148  1  0.91603701  0.59114956  0.55985006  1
  Se  Se149  1  0.91246617  0.91354112  0.04752286  1
  Se  Se150  1  0.90883329  0.92128462  0.55384767  1
  Se  Se151  1  0.06807905  0.24949885  0.43947132  1
  Se  Se152  1  0.08921940  0.24454240  0.95064542  1
  Se  Se153  1  0.08133911  0.58340535  0.44896738  1
  Se  Se154  1  0.07953039  0.58025532  0.94663332  1
  Se  Se155  1  0.08879185  0.91596739  0.44675259  1
  Se  Se156  1  0.07524968  0.92347615  0.93638580  1
  Se  Se157  1  0.41787496  0.24450352  0.45362188  1
  Se  Se158  1  0.42070594  0.25139619  0.94836121  1
  Se  Se159  1  0.40443740  0.59247180  0.43865218  1
  Se  Se160  1  0.41261800  0.58896076  0.93297671  1
  Se  Se161  1  0.42012273  0.92088525  0.44072514  1
  Se  Se162  1  0.41728026  0.91780959  0.94687268  1
  Se  Se163  1  0.73991163  0.25706319  0.44046378  1
  Se  Se164  1  0.75315864  0.24121024  0.93978017  1
  Se  Se165  1  0.75374934  0.58677357  0.45362610  1
  Se  Se166  1  0.74611312  0.59010608  0.94029108  1
  Se  Se167  1  0.75308166  0.91746157  0.44477294  1
  Se  Se168  1  0.75306751  0.91417333  0.94855761  1
  Se  Se169  1  0.25626743  0.07657052  0.44163866  1
  Se  Se170  1  0.25104026  0.08636252  0.94962412  1
  Se  Se171  1  0.24558388  0.41119821  0.45386629  1
  Se  Se172  1  0.25029893  0.41802000  0.94906433  1
  Se  Se173  1  0.24857977  0.75246987  0.45014865  1
  Se  Se174  1  0.25215443  0.74678696  0.93403852  1
  Se  Se175  1  0.58269993  0.07696391  0.44711781  1
  Se  Se176  1  0.58264611  0.08314225  0.94617637  1
  Se  Se177  1  0.58801796  0.41228868  0.43847082  1
  Se  Se178  1  0.59911010  0.41316194  0.93070241  1
  Se  Se179  1  0.59249056  0.74553388  0.44733787  1
  Se  Se180  1  0.58154294  0.75723886  0.94687836  1
  Se  Se181  1  0.92261883  0.07713910  0.43884107  1
  Se  Se182  1  0.91253063  0.08477020  0.94706264  1
  Se  Se183  1  0.89912748  0.42674437  0.45020855  1
  Se  Se184  1  0.92443594  0.40259785  0.93510236  1
  Se  Se185  1  0.91300112  0.75628573  0.44980162  1
  Se  Se186  1  0.91070136  0.74679905  0.94282582  1
  Se  Se187  1  0.24038557  0.24753495  0.31210187  1
  Se  Se188  1  0.25867584  0.25025832  0.80898230  1
  Se  Se189  1  0.24670768  0.58003968  0.30738855  1
  Se  Se190  1  0.24468786  0.57942805  0.80872017  1
  Se  Se191  1  0.25642597  0.92435921  0.30543206  1
  Se  Se192  1  0.24293498  0.91708756  0.79831113  1
  Se  Se193  1  0.57489897  0.24295658  0.31009159  1
  Se  Se194  1  0.58802072  0.24621710  0.80391286  1
  Se  Se195  1  0.59078489  0.59240794  0.30077217  1
  Se  Se196  1  0.58080545  0.57837085  0.80127339  1
  Se  Se197  1  0.59275288  0.92165148  0.30135897  1
  Se  Se198  1  0.60217734  0.93065540  0.80573691  1
  Se  Se199  1  0.89298613  0.24080682  0.29813993  1
  Se  Se200  1  0.91292095  0.23436493  0.80392605  1
  Se  Se201  1  0.91063348  0.57807174  0.31687463  1
  Se  Se202  1  0.90694154  0.57275733  0.79791622  1
  Se  Se203  1  0.91770105  0.91579784  0.30553146  1
  Se  Se204  1  0.90794149  0.91112833  0.81063334  1
  Se  Se205  1  0.08283054  0.08620634  0.30054158  1
  Se  Se206  1  0.08822153  0.08979599  0.81015113  1
  Se  Se207  1  0.07567657  0.41507571  0.30626644  1
  Se  Se208  1  0.09077701  0.41801319  0.81316532  1
  Se  Se209  1  0.09590130  0.76074139  0.31077950  1
  Se  Se210  1  0.07587668  0.74450225  0.79632133  1
  Se  Se211  1  0.40745460  0.07998018  0.30230078  1
  Se  Se212  1  0.41734922  0.07881487  0.80937058  1
  Se  Se213  1  0.42271814  0.42590402  0.30623081  1
  Se  Se214  1  0.41593633  0.40778211  0.80171996  1
  Se  Se215  1  0.42996523  0.76543800  0.31019122  1
  Se  Se216  1  0.41686375  0.75481729  0.80991244  1
  Se  Se217  1  0.76152159  0.09937839  0.30218106  1
  Se  Se218  1  0.74208081  0.06858129  0.79931686  1
  Se  Se219  1  0.75135296  0.42431944  0.31372820  1
  Se  Se220  1  0.76255572  0.41779936  0.79249971  1
  Se  Se221  1  0.75289275  0.75151379  0.30394597  1
  Se  Se222  1  0.72974107  0.73644296  0.80548603  1
  Se  Se223  1  0.25073319  0.08632307  0.19655515  1
  Se  Se224  1  0.25433099  0.07881110  0.70121061  1
  Se  Se225  1  0.24030706  0.42640845  0.19004082  1
  Se  Se226  1  0.25049786  0.41229853  0.70038900  1
  Se  Se227  1  0.24647773  0.76197413  0.18764964  1
  Se  Se228  1  0.24064386  0.75304272  0.68483975  1
  Se  Se229  1  0.58568652  0.08496645  0.19709932  1
  Se  Se230  1  0.57853119  0.08833908  0.69454189  1
  Se  Se231  1  0.58354962  0.41924597  0.19167726  1
  Se  Se232  1  0.58788429  0.40628287  0.69904444  1
  Se  Se233  1  0.58948419  0.75148274  0.19373299  1
  Se  Se234  1  0.55858730  0.77834616  0.70256364  1
  Se  Se235  1  0.93455359  0.06347317  0.18591212  1
  Se  Se236  1  0.90964837  0.09061868  0.69007122  1
  Se  Se237  1  0.91748707  0.41548749  0.20258766  1
  Se  Se238  1  0.91416587  0.42220129  0.68305999  1
  Se  Se239  1  0.91360936  0.75818630  0.18994880  1
  Se  Se240  1  0.91118312  0.76072146  0.69933303  1
  Se  Se241  1  0.07781608  0.25190447  0.19277698  1
  Se  Se242  1  0.09231962  0.24204770  0.69415460  1
  Se  Se243  1  0.08700214  0.58601738  0.19325749  1
  Se  Se244  1  0.08047039  0.58129772  0.69556851  1
  Se  Se245  1  0.08188285  0.92122155  0.20028834  1
  Se  Se246  1  0.08481655  0.91102537  0.68439811  1
  Se  Se247  1  0.42795776  0.24077083  0.19558311  1
  Se  Se248  1  0.41437600  0.24887142  0.70032323  1
  Se  Se249  1  0.42781242  0.57997455  0.18866672  1
  Se  Se250  1  0.42718378  0.57134622  0.68703566  1
  Se  Se251  1  0.41865895  0.91962325  0.19477018  1
  Se  Se252  1  0.41466432  0.91534208  0.70244423  1
  Se  Se253  1  0.75055587  0.24246413  0.17690560  1
  Se  Se254  1  0.75782179  0.24554388  0.69827307  1
  Se  Se255  1  0.75027207  0.58566251  0.20051779  1
  Se  Se256  1  0.72483006  0.60683962  0.69540055  1
  Se  Se257  1  0.75106719  0.92185386  0.19204566  1
  Se  Se258  1  0.73333539  0.94125686  0.71322679  1
