# generated using pymatgen
data_In86Cu29Se144
_symmetry_space_group_name_H-M   'P 1'
_cell_length_a   17.57789665
_cell_length_b   17.57586419
_cell_length_c   23.43071517
_cell_angle_alpha   90.00432461
_cell_angle_beta   90.00380763
_cell_angle_gamma   90.00533604
_symmetry_Int_Tables_number   1
_chemical_formula_structural   In86Cu29Se144
_chemical_formula_sum   'In86 Cu29 Se144'
_cell_volume   7238.84263133
_cell_formula_units_Z   1
loop_
 _symmetry_equiv_pos_site_id
 _symmetry_equiv_pos_as_xyz
  1  'x, y, z'
loop_
 _atom_site_type_symbol
 _atom_site_label
 _atom_site_symmetry_multiplicity
 _atom_site_fract_x
 _atom_site_fract_y
 _atom_site_fract_z
 _atom_site_occupancy
  In  In0  1  0.00541284  0.17700774  0.11377601  1
  In  In1  1  0.00521822  0.17742211  0.62550967  1
  In  In2  1  0.00227504  0.50186097  0.12266489  1
  In  In3  1  0.00060559  0.49858343  0.62507739  1
  In  In4  1  -0.01181236  0.82660539  0.12589054  1
  In  In5  1  -0.01936748  0.83442039  0.62066107  1
  In  In6  1  0.32506924  0.18289749  0.12697712  1
  In  In7  1  0.32428132  0.16824655  0.64267186  1
  In  In8  1  0.32115476  0.49238028  0.11762929  1
  In  In9  1  0.33021069  0.49922234  0.62586529  1
  In  In10  1  0.34080253  0.81918571  0.11700982  1
  In  In11  1  0.33025608  0.83384113  0.63160553  1
  In  In12  1  0.66972445  0.16673898  0.12456863  1
  In  In13  1  0.67013833  0.16613907  0.63226151  1
  In  In14  1  0.67333172  0.49021643  0.12950830  1
  In  In15  1  0.67020643  0.49418199  0.62887485  1
  In  In16  1  0.65692536  0.83200764  0.12195463  1
  In  In17  1  0.67569062  0.82023997  0.63021121  1
  In  In18  1  0.16638347  0.00793448  0.37690897  1
  In  In19  1  0.18262105  0.00835885  0.86850553  1
  In  In20  1  0.18623981  0.33560816  0.37330774  1
  In  In21  1  0.17019514  0.34108311  0.87605123  1
  In  In22  1  0.15523753  0.66378677  0.37631378  1
  In  In23  1  0.15313244  0.65056336  0.86580540  1
  In  In24  1  0.49517384  -0.00303409  0.38222084  1
  In  In25  1  0.49483536  -0.00820250  0.86836273  1
  In  In26  1  0.51544224  0.33890523  0.36558275  1
  In  In27  1  0.49145423  0.33699436  0.85937157  1
  In  In28  1  0.49611771  0.65114869  0.37743190  1
  In  In29  1  0.50782605  0.66412501  0.86403184  1
  In  In30  1  0.83842784  -0.00074239  0.39490103  1
  In  In31  1  0.83713702  0.01929086  0.87224058  1
  In  In32  1  0.82399536  0.34421173  0.38637414  1
  In  In33  1  0.83720105  0.33514936  0.87389435  1
  In  In34  1  0.82990050  0.66383433  0.37882127  1
  In  In35  1  0.82538021  0.65535754  0.86711266  1
  In  In36  1  -0.00666822  0.16135471  0.37857223  1
  In  In37  1  -0.00522467  0.18185203  0.88002446  1
  In  In38  1  -0.00863590  0.50937681  0.38373988  1
  In  In39  1  -0.00041150  0.49858442  0.87445395  1
  In  In40  1  0.00144400  0.81775218  0.37728177  1
  In  In41  1  0.00532399  0.82630091  0.87080294  1
  In  In42  1  0.32842237  0.17856714  0.37149766  1
  In  In43  1  0.32746535  0.17256593  0.86953215  1
  In  In44  1  0.34771000  0.49183882  0.38716101  1
  In  In45  1  0.31743167  0.47465120  0.85376060  1
  In  In46  1  0.34541660  0.83225311  0.38238440  1
  In  In47  1  0.34373523  0.84059656  0.87036268  1
  In  In48  1  0.67116842  0.18264311  0.37703636  1
  In  In49  1  0.67806879  0.18151848  0.86562120  1
  In  In50  1  0.66420548  0.50071287  0.37779281  1
  In  In51  1  0.67232055  0.50695059  0.86357710  1
  In  In52  1  0.67948193  0.83581133  0.37745081  1
  In  In53  1  0.65538351  0.82360802  0.86596952  1
  In  In54  1  0.15754773  0.00717188  0.12006279  1
  In  In55  1  0.17177406  0.01303024  0.63046359  1
  In  In56  1  0.17334394  0.33403351  0.12002883  1
  In  In57  1  0.15250482  0.33381907  0.63810442  1
  In  In58  1  0.16502324  0.65034310  0.12243371  1
  In  In59  1  0.17747119  0.65503625  0.63329847  1
  In  In60  1  0.51131308  -0.00435113  0.11658513  1
  In  In61  1  0.49269054  0.00913922  0.63325302  1
  In  In62  1  0.49668144  0.33333839  0.13271383  1
  In  In63  1  0.48807501  0.35225664  0.64070376  1
  In  In64  1  0.50047315  0.67395726  0.11958051  1
  In  In65  1  0.51709993  0.63931581  0.64465855  1
  In  In66  1  0.82370431  0.00686135  0.12203999  1
  In  In67  1  0.82744411  -0.01032312  0.61465492  1
  In  In68  1  0.82504781  0.32830653  0.12008804  1
  In  In69  1  0.83445990  0.33494008  0.62638644  1
  In  In70  1  0.83693949  0.65284406  0.13241897  1
  In  In71  1  0.83465713  0.66225688  0.62467389  1
  In  In72  1  0.50162532  0.82649316  0.50557034  1
  In  In73  1  0.33208457  0.65539492  0.24292607  1
  In  In74  1  0.17366812  0.83616821  -0.00782543  1
  In  In75  1  0.50153321  0.17301118  0.50998803  1
  In  In76  1  0.16353576  0.17165780  0.50153767  1
  In  In77  1  -0.00139794  0.00305832  0.25897057  1
  In  In78  1  0.00080749  0.33685055  0.24631397  1
  In  In79  1  0.49667008  0.49906809  -0.00989661  1
  In  In80  1  0.66941516  0.00292517  0.24830347  1
  In  In81  1  0.33635766  0.00274933  0.25596523  1
  In  In82  1  -0.00114812  -0.00216162  0.74690709  1
  In  In83  1  0.82898600  0.83645900  0.00093149  1
  In  In84  1  0.15990814  0.83423175  0.50077098  1
  In  In85  1  0.49852506  0.16836028  -0.01158631  1
  Cu  Cu86  1  0.16126093  0.83018683  0.25403498  1
  Cu  Cu87  1  0.50460224  0.82848159  0.24461444  1
  Cu  Cu88  1  0.50007786  0.83674272  0.74598541  1
  Cu  Cu89  1  0.82529614  0.83064054  0.74503050  1
  Cu  Cu90  1  0.67000319  0.66059328  0.50694640  1
  Cu  Cu91  1  0.33526719  0.33599902  0.50443315  1
  Cu  Cu92  1  0.16171782  0.49665977  0.74863144  1
  Cu  Cu93  1  0.16482420  0.82681967  0.75154059  1
  Cu  Cu94  1  0.83203455  0.17020061  0.24910715  1
  Cu  Cu95  1  -0.00050584  0.33833181  0.50537234  1
  Cu  Cu96  1  0.50486312  0.49600359  0.25326448  1
  Cu  Cu97  1  0.00145971  0.34070976  -0.00182431  1
  Cu  Cu98  1  0.66541844  0.00094320  0.50810627  1
  Cu  Cu99  1  -0.00205635  0.66186754  0.50243605  1
  Cu  Cu100  1  0.66915828  0.00228144  -0.00377497  1
  Cu  Cu101  1  0.16584452  0.49792837  0.24813840  1
  Cu  Cu102  1  0.33880782  0.00523706  -0.00725609  1
  Cu  Cu103  1  0.00242555  0.01333058  -0.00633739  1
  Cu  Cu104  1  0.67049030  0.33547206  -0.00408004  1
  Cu  Cu105  1  0.82532161  0.50064358  0.25951491  1
  Cu  Cu106  1  0.84064970  0.49665227  0.74700056  1
  Cu  Cu107  1  0.33818647  0.66483169  -0.00878530  1
  Cu  Cu108  1  0.66601358  0.34115546  0.50345115  1
  Cu  Cu109  1  0.50191340  0.16435589  0.75315231  1
  Cu  Cu110  1  0.83195089  0.16990148  0.74849697  1
  Cu  Cu111  1  0.66657298  0.66205335  -0.00934503  1
  Cu  Cu112  1  0.33401596  0.66268865  0.50957052  1
  Cu  Cu113  1  0.83482464  0.81901690  0.25365768  1
  Cu  Cu114  1  -0.00077517  0.66214172  -0.00142927  1
  Se  Se115  1  0.08938893  0.09229817  0.04693751  1
  Se  Se116  1  0.07573294  0.07515737  0.55719367  1
  Se  Se117  1  0.08544348  0.41869111  0.05633748  1
  Se  Se118  1  0.08848286  0.41449010  0.55837011  1
  Se  Se119  1  0.07953336  0.74876813  0.05484868  1
  Se  Se120  1  0.07938603  0.74084476  0.56403266  1
  Se  Se121  1  0.41526062  0.08224943  0.05879231  1
  Se  Se122  1  0.40210323  0.08644954  0.56296289  1
  Se  Se123  1  0.41354926  0.40729704  0.05470930  1
  Se  Se124  1  0.41924763  0.41979579  0.55672079  1
  Se  Se125  1  0.42243304  0.74832943  0.04279894  1
  Se  Se126  1  0.41638441  0.73953390  0.56935885  1
  Se  Se127  1  0.74820708  0.08836666  0.05010642  1
  Se  Se128  1  0.74755753  0.08969548  0.55667135  1
  Se  Se129  1  0.75083506  0.41968028  0.05134498  1
  Se  Se130  1  0.75504701  0.42011765  0.55562059  1
  Se  Se131  1  0.74422062  0.73873656  0.05809005  1
  Se  Se132  1  0.75426772  0.74859615  0.55373336  1
  Se  Se133  1  0.24601120  0.24621214  0.04921935  1
  Se  Se134  1  0.25487277  0.25644524  0.56394206  1
  Se  Se135  1  0.25406880  0.58723838  0.04862323  1
  Se  Se136  1  0.24430502  0.57759087  0.55361438  1
  Se  Se137  1  0.26080293  0.92513668  0.05832897  1
  Se  Se138  1  0.25193167  0.92324718  0.55903019  1
  Se  Se139  1  0.58603918  0.25674687  0.05470634  1
  Se  Se140  1  0.58673872  0.26601966  0.56902114  1
  Se  Se141  1  0.58832617  0.58304259  0.05547381  1
  Se  Se142  1  0.58496986  0.57763342  0.55847911  1
  Se  Se143  1  0.58745405  0.91300082  0.04517287  1
  Se  Se144  1  0.58470428  0.92142564  0.56692092  1
  Se  Se145  1  0.91564096  0.25594089  0.05054798  1
  Se  Se146  1  0.91791726  0.25168874  0.55590912  1
  Se  Se147  1  0.91515491  0.58252632  0.05472859  1
  Se  Se148  1  0.91488121  0.57770120  0.55506898  1
  Se  Se149  1  0.92646745  0.93036995  0.05587405  1
  Se  Se150  1  0.91838837  0.91913921  0.54564087  1
  Se  Se151  1  0.07745805  0.26355826  0.43789981  1
  Se  Se152  1  0.08620083  0.25713025  0.94620297  1
  Se  Se153  1  0.08682942  0.58085476  0.45148337  1
  Se  Se154  1  0.08381230  0.57924578  0.94703616  1
  Se  Se155  1  0.07228282  0.92613330  0.43908681  1
  Se  Se156  1  0.07823106  0.92776834  0.93592436  1
  Se  Se157  1  0.41623226  0.25879296  0.44247549  1
  Se  Se158  1  0.40941213  0.26596027  0.93859435  1
  Se  Se159  1  0.42141834  0.58229435  0.45626759  1
  Se  Se160  1  0.40793975  0.58304120  0.92659634  1
  Se  Se161  1  0.40615028  0.92705462  0.45635313  1
  Se  Se162  1  0.42144996  0.91576483  0.94701754  1
  Se  Se163  1  0.74906975  0.25192887  0.45434512  1
  Se  Se164  1  0.75470080  0.25008838  0.94481241  1
  Se  Se165  1  0.75008953  0.57870450  0.44797925  1
  Se  Se166  1  0.75124668  0.57665464  0.94314015  1
  Se  Se167  1  0.74699280  0.91453139  0.45510237  1
  Se  Se168  1  0.74630757  0.92177794  0.93315336  1
  Se  Se169  1  0.26104931  0.08168666  0.44398984  1
  Se  Se170  1  0.25280601  0.08878296  0.94463692  1
  Se  Se171  1  0.25007546  0.41835730  0.45110250  1
  Se  Se172  1  0.24926151  0.42988925  0.94363356  1
  Se  Se173  1  0.25798685  0.74089528  0.44399966  1
  Se  Se174  1  0.25305175  0.74087456  0.93045353  1
  Se  Se175  1  0.58878943  0.08030841  0.44501846  1
  Se  Se176  1  0.59291640  0.08034529  0.93161584  1
  Se  Se177  1  0.57933778  0.41687558  0.44632533  1
  Se  Se178  1  0.58970517  0.40876902  0.93273744  1
  Se  Se179  1  0.59146083  0.74013715  0.44201865  1
  Se  Se180  1  0.58073702  0.74529203  0.94175997  1
  Se  Se181  1  0.91468297  0.09421210  0.45455518  1
  Se  Se182  1  0.91178711  0.09511963  0.94788835  1
  Se  Se183  1  0.91486820  0.42083143  0.45166369  1
  Se  Se184  1  0.91457424  0.42029226  0.94527742  1
  Se  Se185  1  0.91544819  0.74641249  0.44846061  1
  Se  Se186  1  0.91860310  0.74485594  0.94134607  1
  Se  Se187  1  0.25162359  0.25320423  0.29784775  1
  Se  Se188  1  0.25996672  0.26912127  0.80483230  1
  Se  Se189  1  0.24775510  0.57428170  0.31259998  1
  Se  Se190  1  0.24762524  0.58298163  0.79762505  1
  Se  Se191  1  0.24439640  0.90453219  0.31366059  1
  Se  Se192  1  0.24879595  0.91165458  0.80264723  1
  Se  Se193  1  0.58494336  0.24120098  0.30183446  1
  Se  Se194  1  0.58505774  0.25432221  0.79942945  1
  Se  Se195  1  0.58345185  0.58415784  0.30509069  1
  Se  Se196  1  0.58556954  0.58111331  0.79432760  1
  Se  Se197  1  0.57634703  0.91062395  0.30905450  1
  Se  Se198  1  0.58594975  0.91955831  0.79910779  1
  Se  Se199  1  0.90974988  0.25117211  0.31076230  1
  Se  Se200  1  0.91709818  0.25137415  0.80172827  1
  Se  Se201  1  0.91424619  0.58346707  0.30736553  1
  Se  Se202  1  0.92059257  0.58302331  0.80229060  1
  Se  Se203  1  0.90564104  0.90933547  0.31317067  1
  Se  Se204  1  0.90550626  0.90879429  0.80904935  1
  Se  Se205  1  0.09445367  0.10035056  0.30600343  1
  Se  Se206  1  0.07964525  0.08758025  0.81211433  1
  Se  Se207  1  0.08512631  0.42397341  0.31325617  1
  Se  Se208  1  0.07938422  0.41421631  0.80456391  1
  Se  Se209  1  0.07872759  0.74223852  0.30157845  1
  Se  Se210  1  0.07669679  0.74312497  0.79831910  1
  Se  Se211  1  0.43006725  0.09261104  0.31173103  1
  Se  Se212  1  0.41468887  0.08467945  0.80654159  1
  Se  Se213  1  0.41589263  0.41784295  0.30616333  1
  Se  Se214  1  0.43610654  0.44023154  0.79310166  1
  Se  Se215  1  0.42010360  0.75135502  0.30439780  1
  Se  Se216  1  0.41987556  0.75279083  0.80199240  1
  Se  Se217  1  0.76222844  0.08364536  0.31283176  1
  Se  Se218  1  0.74832371  0.08352127  0.79876532  1
  Se  Se219  1  0.74401055  0.41229552  0.30850120  1
  Se  Se220  1  0.75583963  0.41552820  0.80222782  1
  Se  Se221  1  0.74488366  0.74419330  0.30683796  1
  Se  Se222  1  0.74687921  0.74521090  0.80157292  1
  Se  Se223  1  0.24322414  0.08305590  0.19260040  1
  Se  Se224  1  0.24811486  0.07824718  0.70895992  1
  Se  Se225  1  0.24947559  0.41564981  0.19514629  1
  Se  Se226  1  0.24891339  0.41463753  0.69655236  1
  Se  Se227  1  0.24117140  0.75550758  0.18901945  1
  Se  Se228  1  0.25245289  0.74680912  0.69980531  1
  Se  Se229  1  0.57266298  0.08864473  0.19185140  1
  Se  Se230  1  0.58543394  0.08240398  0.69907703  1
  Se  Se231  1  0.58638991  0.41226865  0.19778330  1
  Se  Se232  1  0.58410367  0.42474876  0.70369616  1
  Se  Se233  1  0.58684101  0.74352707  0.19395033  1
  Se  Se234  1  0.58533055  0.74877351  0.69911320  1
  Se  Se235  1  0.91366404  0.09052351  0.18971282  1
  Se  Se236  1  0.90798312  0.08604748  0.68647032  1
  Se  Se237  1  0.90314261  0.42493015  0.19219242  1
  Se  Se238  1  0.92390916  0.41106336  0.69565681  1
  Se  Se239  1  0.91993917  0.74101915  0.19835661  1
  Se  Se240  1  0.91411745  0.74961816  0.69548780  1
  Se  Se241  1  0.09053413  0.24319245  0.19180137  1
  Se  Se242  1  0.09546023  0.22800742  0.70168329  1
  Se  Se243  1  0.08130551  0.58194378  0.19715273  1
  Se  Se244  1  0.07935165  0.58317885  0.69652069  1
  Se  Se245  1  0.08462615  0.91083077  0.19225621  1
  Se  Se246  1  0.08825842  0.90584164  0.68649323  1
  Se  Se247  1  0.41672451  0.24580112  0.19701282  1
  Se  Se248  1  0.41769483  0.25030629  0.70209970  1
  Se  Se249  1  0.42686601  0.56887894  0.18419367  1
  Se  Se250  1  0.39651380  0.59425895  0.69543762  1
  Se  Se251  1  0.42140944  0.90977739  0.18843102  1
  Se  Se252  1  0.41193296  0.92054230  0.69826903  1
  Se  Se253  1  0.74749666  0.25065571  0.19544309  1
  Se  Se254  1  0.74892905  0.25666303  0.69763704  1
  Se  Se255  1  0.74389622  0.58182562  0.20005412  1
  Se  Se256  1  0.75464150  0.58083603  0.69585382  1
  Se  Se257  1  0.76005948  0.90422750  0.19184767  1
  Se  Se258  1  0.74817813  0.92040188  0.69291502  1
