# generated using pymatgen
data_In86Cu29Se144
_symmetry_space_group_name_H-M   'P 1'
_cell_length_a   17.58220114
_cell_length_b   17.58960880
_cell_length_c   23.44702162
_cell_angle_alpha   89.99812603
_cell_angle_beta   89.99132639
_cell_angle_gamma   89.98993992
_symmetry_Int_Tables_number   1
_chemical_formula_structural   In86Cu29Se144
_chemical_formula_sum   'In86 Cu29 Se144'
_cell_volume   7251.32043062
_cell_formula_units_Z   1
loop_
 _symmetry_equiv_pos_site_id
 _symmetry_equiv_pos_as_xyz
  1  'x, y, z'
loop_
 _atom_site_type_symbol
 _atom_site_label
 _atom_site_symmetry_multiplicity
 _atom_site_fract_x
 _atom_site_fract_y
 _atom_site_fract_z
 _atom_site_occupancy
  In  In0  1  -0.00187407  0.16961477  0.13365267  1
  In  In1  1  -0.01073631  0.16738502  0.63227587  1
  In  In2  1  -0.03010224  0.52779581  0.15591579  1
  In  In3  1  -0.02387995  0.48723189  0.62078407  1
  In  In4  1  -0.00847063  0.83924839  0.11830597  1
  In  In5  1  -0.00648101  0.85125464  0.62764175  1
  In  In6  1  0.33740338  0.17417953  0.12726093  1
  In  In7  1  0.33767201  0.16741238  0.62950503  1
  In  In8  1  0.32488821  0.49360102  0.12491503  1
  In  In9  1  0.33685687  0.49669830  0.63192405  1
  In  In10  1  0.33501826  0.82825315  0.11230533  1
  In  In11  1  0.32932109  0.83816676  0.63823416  1
  In  In12  1  0.67317324  0.15933547  0.13672290  1
  In  In13  1  0.66068860  0.16180253  0.61711676  1
  In  In14  1  0.68641343  0.49007983  0.14025014  1
  In  In15  1  0.68423080  0.50482004  0.62682965  1
  In  In16  1  0.66780649  0.83212508  0.12410718  1
  In  In17  1  0.67637005  0.82331273  0.62929574  1
  In  In18  1  0.15510958  0.01046250  0.37772344  1
  In  In19  1  0.14772341  -0.01423543  0.86055909  1
  In  In20  1  0.16965377  0.33075632  0.37342177  1
  In  In21  1  0.14916818  0.31540627  0.85439408  1
  In  In22  1  0.15367314  0.68023751  0.37621994  1
  In  In23  1  0.17563291  0.66956118  0.87508723  1
  In  In24  1  0.51274951  -0.00056441  0.37873846  1
  In  In25  1  0.49731066  -0.00728794  0.86982245  1
  In  In26  1  0.50213908  0.32683641  0.37632839  1
  In  In27  1  0.49348019  0.34099162  0.87599549  1
  In  In28  1  0.50977649  0.65171857  0.37695530  1
  In  In29  1  0.51230563  0.67683270  0.86976133  1
  In  In30  1  0.83704448  0.00400784  0.38057363  1
  In  In31  1  0.82912352  -0.00738199  0.86123700  1
  In  In32  1  0.83078352  0.32934088  0.37298950  1
  In  In33  1  0.84065445  0.33441043  0.87662623  1
  In  In34  1  0.83601661  0.66816794  0.36897283  1
  In  In35  1  0.83241373  0.67156900  0.88036217  1
  In  In36  1  -0.01680301  0.14722590  0.36923833  1
  In  In37  1  -0.02042387  0.15230300  0.84150858  1
  In  In38  1  -0.02957385  0.47753083  0.34910886  1
  In  In39  1  -0.00639365  0.48983056  0.87614495  1
  In  In40  1  -0.00833247  0.82868050  0.36642788  1
  In  In41  1  -0.01249794  0.84817326  0.89540242  1
  In  In42  1  0.33498340  0.18314779  0.38576383  1
  In  In43  1  0.31252774  0.15177560  0.84729802  1
  In  In44  1  0.34489101  0.49106630  0.37813833  1
  In  In45  1  0.31877338  0.48847766  0.86287833  1
  In  In46  1  0.32684433  0.83651186  0.37565377  1
  In  In47  1  0.33633675  0.83491900  0.87518183  1
  In  In48  1  0.66771912  0.16600451  0.37972392  1
  In  In49  1  0.68681316  0.15187391  0.86431583  1
  In  In50  1  0.69114675  0.51249555  0.35614543  1
  In  In51  1  0.66411842  0.51181982  0.87646418  1
  In  In52  1  0.68519694  0.85566742  0.36024829  1
  In  In53  1  0.67029718  0.83246330  0.87703166  1
  In  In54  1  0.15719659  -0.01108739  0.11423173  1
  In  In55  1  0.15953479  0.02191562  0.64678336  1
  In  In56  1  0.16199804  0.34051680  0.13387816  1
  In  In57  1  0.16377321  0.32087551  0.63515949  1
  In  In58  1  0.15705405  0.67166422  0.12207224  1
  In  In59  1  0.16244458  0.67842171  0.63141467  1
  In  In60  1  0.51061475  -0.00393519  0.12388463  1
  In  In61  1  0.49352978  0.00838535  0.63254116  1
  In  In62  1  0.49775429  0.33590132  0.13208377  1
  In  In63  1  0.50370646  0.32179608  0.61698558  1
  In  In64  1  0.50383615  0.67713307  0.12140106  1
  In  In65  1  0.50340415  0.66435482  0.63551216  1
  In  In66  1  0.84335409  -0.01192833  0.13086453  1
  In  In67  1  0.83563698  -0.00599256  0.62548251  1
  In  In68  1  0.83059095  0.33939099  0.13833708  1
  In  In69  1  0.83937597  0.34107140  0.62081338  1
  In  In70  1  0.82785303  0.67126505  0.12818370  1
  In  In71  1  0.82375044  0.65825834  0.61966384  1
  In  In72  1  0.16108760  0.16541254  -0.01189435  1
  In  In73  1  0.16010130  0.83816596  0.50292573  1
  In  In74  1  0.33054608  0.00670333  0.24676241  1
  In  In75  1  0.15607792  0.49936384  0.49324132  1
  In  In76  1  0.66105494  0.33505426  0.74635189  1
  In  In77  1  0.15928162  0.50187651  0.00172557  1
  In  In78  1  0.51493445  0.49035255  0.50503642  1
  In  In79  1  0.33931699  0.66012829  0.24979198  1
  In  In80  1  0.15559088  0.16781946  0.51238163  1
  In  In81  1  0.49888121  0.16487200  -0.00302577  1
  In  In82  1  0.50028568  0.51299353  -0.00020093  1
  In  In83  1  0.50807192  0.83477073  0.50034334  1
  In  In84  1  0.83839473  0.15996370  -0.00847921  1
  In  In85  1  0.00041598  0.66553081  0.75716643  1
  Cu  Cu86  1  0.67030848  -0.00767293  -0.00147073  1
  Cu  Cu87  1  0.50626539  0.16867557  0.74452821  1
  Cu  Cu88  1  0.67198897  0.00303059  0.50115591  1
  Cu  Cu89  1  0.15525610  0.83534875  0.24319466  1
  Cu  Cu90  1  0.16313628  0.16794780  0.25586397  1
  Cu  Cu91  1  -0.00474399  0.66943132  0.00874972  1
  Cu  Cu92  1  0.83481764  0.82986843  0.75297558  1
  Cu  Cu93  1  0.49898988  0.16936623  0.25203007  1
  Cu  Cu94  1  0.15833964  0.50090515  0.74744143  1
  Cu  Cu95  1  -0.00430621  0.32953082  0.49578821  1
  Cu  Cu96  1  -0.01213417  0.66641668  0.49536286  1
  Cu  Cu97  1  -0.00418408  0.33794707  0.00231391  1
  Cu  Cu98  1  0.67829950  0.33575612  0.49595817  1
  Cu  Cu99  1  0.32558013  0.33080418  -0.00616870  1
  Cu  Cu100  1  0.67086025  0.33308660  0.01087941  1
  Cu  Cu101  1  0.67742121  0.67367548  0.49407209  1
  Cu  Cu102  1  0.83144559  0.83539210  0.24652859  1
  Cu  Cu103  1  0.50676366  0.83073554  0.24910998  1
  Cu  Cu104  1  0.50576384  0.83597009  0.75240136  1
  Cu  Cu105  1  0.17241337  0.82848564  0.75443114  1
  Cu  Cu106  1  0.33432939  0.66349173  0.51283188  1
  Cu  Cu107  1  0.34016269  0.66957217  -0.00978974  1
  Cu  Cu108  1  0.33517344  -0.00897049  -0.00673754  1
  Cu  Cu109  1  0.17718602  0.49696732  0.25270549  1
  Cu  Cu110  1  0.33122865  0.00343148  0.51271929  1
  Cu  Cu111  1  0.67633673  0.66876752  0.00227115  1
  Cu  Cu112  1  0.82975513  0.16647486  0.25549887  1
  Cu  Cu113  1  0.49631852  0.50440126  0.75149897  1
  Cu  Cu114  1  0.50616720  0.49215167  0.25443987  1
  Se  Se115  1  0.07116174  0.08518209  0.05483475  1
  Se  Se116  1  0.07011694  0.06804410  0.56355785  1
  Se  Se117  1  0.07195712  0.41708212  0.06493273  1
  Se  Se118  1  0.07747431  0.40486648  0.55875933  1
  Se  Se119  1  0.08317791  0.75600695  0.05234289  1
  Se  Se120  1  0.06798113  0.74258774  0.55795328  1
  Se  Se121  1  0.40702770  0.07356609  0.05844041  1
  Se  Se122  1  0.42028985  0.08869985  0.55682380  1
  Se  Se123  1  0.40899444  0.40898521  0.05281826  1
  Se  Se124  1  0.40872856  0.41063865  0.55627967  1
  Se  Se125  1  0.42409987  0.74939130  0.04612564  1
  Se  Se126  1  0.41387309  0.75035251  0.56519864  1
  Se  Se127  1  0.74609271  0.07821244  0.05803019  1
  Se  Se128  1  0.75591983  0.08243074  0.55614526  1
  Se  Se129  1  0.75639175  0.41500249  0.06008998  1
  Se  Se130  1  0.75450182  0.42299614  0.55151411  1
  Se  Se131  1  0.75547453  0.75634257  0.05411491  1
  Se  Se132  1  0.75693974  0.75528214  0.55109693  1
  Se  Se133  1  0.24787813  0.25421414  0.05740986  1
  Se  Se134  1  0.25624482  0.25824525  0.55873070  1
  Se  Se135  1  0.26056574  0.59337292  0.05461020  1
  Se  Se136  1  0.24351415  0.58575071  0.56267128  1
  Se  Se137  1  0.24928547  0.91355543  0.04914757  1
  Se  Se138  1  0.24568732  0.92589997  0.56876582  1
  Se  Se139  1  0.58741793  0.25021605  0.06352590  1
  Se  Se140  1  0.59036600  0.25250166  0.54511962  1
  Se  Se141  1  0.59836676  0.58488557  0.06450350  1
  Se  Se142  1  0.59405163  0.59796470  0.55688154  1
  Se  Se143  1  0.58317766  0.91267688  0.05178079  1
  Se  Se144  1  0.59116447  0.92405764  0.56413692  1
  Se  Se145  1  0.91580098  0.25300351  0.05974843  1
  Se  Se146  1  0.91789884  0.24846364  0.55584767  1
  Se  Se147  1  0.91589023  0.58350326  0.06253780  1
  Se  Se148  1  0.91054174  0.57947313  0.55043264  1
  Se  Se149  1  0.91386246  0.92447895  0.04858127  1
  Se  Se150  1  0.90447982  0.90425867  0.55208162  1
  Se  Se151  1  0.07665768  0.24871447  0.43786133  1
  Se  Se152  1  0.06519459  0.25692503  0.93652051  1
  Se  Se153  1  0.06597890  0.58679561  0.43391513  1
  Se  Se154  1  0.07161136  0.59413101  0.94012613  1
  Se  Se155  1  0.06967299  0.92199770  0.44109838  1
  Se  Se156  1  0.09193030  0.92263878  0.94927948  1
  Se  Se157  1  0.42513661  0.25390752  0.45289299  1
  Se  Se158  1  0.40550607  0.24886484  0.93656071  1
  Se  Se159  1  0.41454033  0.58690904  0.45129345  1
  Se  Se160  1  0.40773953  0.58206154  0.92867064  1
  Se  Se161  1  0.40516617  0.92401093  0.44663053  1
  Se  Se162  1  0.42595674  0.91187762  0.94520435  1
  Se  Se163  1  0.75734146  0.24538515  0.44667376  1
  Se  Se164  1  0.73830357  0.25363358  0.94103000  1
  Se  Se165  1  0.75383806  0.58466448  0.44017698  1
  Se  Se166  1  0.75263925  0.58081801  0.94799126  1
  Se  Se167  1  0.75044436  0.91658174  0.44679737  1
  Se  Se168  1  0.75747382  0.91851192  0.94155616  1
  Se  Se169  1  0.25175343  0.07986727  0.44776340  1
  Se  Se170  1  0.25863040  0.07611125  0.93555030  1
  Se  Se171  1  0.25791367  0.40859693  0.44656159  1
  Se  Se172  1  0.23884608  0.40726617  0.93781547  1
  Se  Se173  1  0.25703041  0.74135928  0.44865675  1
  Se  Se174  1  0.25058534  0.75438184  0.94555906  1
  Se  Se175  1  0.58268093  0.08403974  0.45105127  1
  Se  Se176  1  0.59546397  0.07843596  0.93856153  1
  Se  Se177  1  0.60223507  0.41845475  0.43254004  1
  Se  Se178  1  0.58940983  0.40979702  0.94768800  1
  Se  Se179  1  0.59404646  0.75000363  0.43422808  1
  Se  Se180  1  0.58904378  0.74715057  0.94787609  1
  Se  Se181  1  0.91685111  0.08385244  0.45316464  1
  Se  Se182  1  0.92874078  0.07483596  0.92933538  1
  Se  Se183  1  0.91697162  0.41549472  0.44077944  1
  Se  Se184  1  0.90940510  0.42063584  0.95150776  1
  Se  Se185  1  0.91204071  0.75450071  0.44144524  1
  Se  Se186  1  0.91090951  0.75046648  0.95379581  1
  Se  Se187  1  0.25311268  0.24557739  0.30637747  1
  Se  Se188  1  0.27281013  0.27862926  0.80337965  1
  Se  Se189  1  0.24831899  0.58029916  0.31799676  1
  Se  Se190  1  0.24194731  0.58334259  0.80025729  1
  Se  Se191  1  0.23707623  0.91266441  0.30584108  1
  Se  Se192  1  0.25469213  0.91728322  0.80414747  1
  Se  Se193  1  0.58601877  0.24714475  0.30700134  1
  Se  Se194  1  0.57937966  0.24266343  0.81480781  1
  Se  Se195  1  0.58628413  0.58601512  0.29795356  1
  Se  Se196  1  0.58455756  0.58441052  0.80139144  1
  Se  Se197  1  0.58129909  0.92392961  0.29945191  1
  Se  Se198  1  0.59151312  0.91734239  0.80572528  1
  Se  Se199  1  0.91937784  0.24801667  0.30469412  1
  Se  Se200  1  0.90505598  0.26046964  0.79580616  1
  Se  Se201  1  0.92685998  0.59789629  0.29761837  1
  Se  Se202  1  0.90519928  0.57495483  0.80953578  1
  Se  Se203  1  0.91048698  0.91979048  0.30405566  1
  Se  Se204  1  0.92567066  0.90681533  0.80456036  1
  Se  Se205  1  0.07861174  0.07819178  0.29939972  1
  Se  Se206  1  0.11435533  0.11238693  0.81077267  1
  Se  Se207  1  0.09130955  0.41590078  0.30421530  1
  Se  Se208  1  0.07362263  0.41901284  0.80011628  1
  Se  Se209  1  0.07843881  0.74839528  0.29717876  1
  Se  Se210  1  0.08363420  0.76063406  0.81665822  1
  Se  Se211  1  0.41891985  0.08805416  0.31396633  1
  Se  Se212  1  0.42659009  0.08406958  0.80026875  1
  Se  Se213  1  0.41999057  0.41140358  0.30583198  1
  Se  Se214  1  0.41670010  0.41453724  0.79996279  1
  Se  Se215  1  0.42528340  0.75522448  0.31298378  1
  Se  Se216  1  0.41942649  0.75254300  0.80497186  1
  Se  Se217  1  0.74918680  0.08162014  0.31037769  1
  Se  Se218  1  0.77249938  0.09110275  0.79006723  1
  Se  Se219  1  0.76263599  0.41418528  0.29700099  1
  Se  Se220  1  0.74677705  0.42091882  0.81117974  1
  Se  Se221  1  0.74843783  0.74995663  0.30014629  1
  Se  Se222  1  0.75145344  0.74786444  0.80687318  1
  Se  Se223  1  0.23598047  0.09091579  0.18542918  1
  Se  Se224  1  0.26976306  0.08048402  0.70260551  1
  Se  Se225  1  0.25894480  0.41114124  0.20091442  1
  Se  Se226  1  0.24376158  0.41800640  0.69433251  1
  Se  Se227  1  0.24947168  0.75642256  0.19241589  1
  Se  Se228  1  0.25378802  0.74332137  0.70231413  1
  Se  Se229  1  0.57669510  0.08196987  0.19812121  1
  Se  Se230  1  0.59081789  0.08260373  0.69590592  1
  Se  Se231  1  0.58810257  0.41005546  0.19852732  1
  Se  Se232  1  0.57371487  0.42777536  0.68384303  1
  Se  Se233  1  0.58711250  0.74645557  0.19552658  1
  Se  Se234  1  0.58660716  0.74996150  0.69924184  1
  Se  Se235  1  0.91148756  0.08569540  0.19745367  1
  Se  Se236  1  0.92252485  0.06845640  0.69740605  1
  Se  Se237  1  0.93756465  0.39892896  0.19968504  1
  Se  Se238  1  0.90969540  0.41550218  0.70129882  1
  Se  Se239  1  0.91749384  0.75605628  0.19227452  1
  Se  Se240  1  0.91408295  0.75035979  0.69032824  1
  Se  Se241  1  0.08307054  0.25214744  0.19994617  1
  Se  Se242  1  0.08355055  0.23721164  0.70031641  1
  Se  Se243  1  0.09888237  0.58004909  0.19560078  1
  Se  Se244  1  0.07803853  0.57586228  0.68482400  1
  Se  Se245  1  0.07585105  0.92156992  0.19050359  1
  Se  Se246  1  0.08953453  0.91154828  0.69930556  1
  Se  Se247  1  0.41433669  0.25243308  0.20000288  1
  Se  Se248  1  0.42321700  0.25539402  0.69467132  1
  Se  Se249  1  0.42873884  0.57005720  0.18734614  1
  Se  Se250  1  0.41013635  0.58778055  0.69948786  1
  Se  Se251  1  0.41769378  0.90611986  0.19085488  1
  Se  Se252  1  0.41924311  0.91873246  0.70122950  1
  Se  Se253  1  0.74670564  0.25085537  0.20224944  1
  Se  Se254  1  0.74817601  0.24991870  0.68312468  1
  Se  Se255  1  0.76363822  0.58097949  0.20260554  1
  Se  Se256  1  0.74629263  0.59321458  0.69966657  1
  Se  Se257  1  0.74472820  0.91865523  0.19517501  1
  Se  Se258  1  0.75186680  0.91245756  0.69767255  1
