# generated using pymatgen
data_In86Cu29Se144
_symmetry_space_group_name_H-M   'P 1'
_cell_length_a   17.57991825
_cell_length_b   17.57717077
_cell_length_c   23.43185424
_cell_angle_alpha   90.01558709
_cell_angle_beta   90.01010570
_cell_angle_gamma   89.99726403
_symmetry_Int_Tables_number   1
_chemical_formula_structural   In86Cu29Se144
_chemical_formula_sum   'In86 Cu29 Se144'
_cell_volume   7240.56500713
_cell_formula_units_Z   1
loop_
 _symmetry_equiv_pos_site_id
 _symmetry_equiv_pos_as_xyz
  1  'x, y, z'
loop_
 _atom_site_type_symbol
 _atom_site_label
 _atom_site_symmetry_multiplicity
 _atom_site_fract_x
 _atom_site_fract_y
 _atom_site_fract_z
 _atom_site_occupancy
  In  In0  1  0.00506024  0.16629522  0.13236553  1
  In  In1  1  0.00320900  0.17546923  0.62397671  1
  In  In2  1  0.00025460  0.50024473  0.12783737  1
  In  In3  1  -0.00171407  0.50266159  0.63082393  1
  In  In4  1  -0.00767662  0.83792292  0.13039146  1
  In  In5  1  -0.01311053  0.83906619  0.63385909  1
  In  In6  1  0.34063357  0.17215175  0.12784405  1
  In  In7  1  0.32492521  0.17052707  0.63240382  1
  In  In8  1  0.34984226  0.51509937  0.10541465  1
  In  In9  1  0.32013612  0.48920034  0.61870408  1
  In  In10  1  0.31561509  0.83037697  0.12608868  1
  In  In11  1  0.34749792  0.83839105  0.62359057  1
  In  In12  1  0.66750037  0.15397375  0.13036713  1
  In  In13  1  0.66595861  0.15380929  0.60676897  1
  In  In14  1  0.68107831  0.51973425  0.11225344  1
  In  In15  1  0.67767203  0.51415811  0.61933245  1
  In  In16  1  0.65643558  0.82084318  0.12751482  1
  In  In17  1  0.66000098  0.83038531  0.61444090  1
  In  In18  1  0.16802038  0.01404692  0.38101014  1
  In  In19  1  0.16138273  -0.01022336  0.85695802  1
  In  In20  1  0.15643301  0.34109249  0.38433790  1
  In  In21  1  0.18043098  0.35515303  0.84251312  1
  In  In22  1  0.15525080  0.65361716  0.37162611  1
  In  In23  1  0.16009156  0.66513905  0.87733272  1
  In  In24  1  0.51668020  -0.01754754  0.40855783  1
  In  In25  1  0.50000448  0.01489157  0.86947029  1
  In  In26  1  0.50471827  0.32971685  0.38895544  1
  In  In27  1  0.49849336  0.35565063  0.87096419  1
  In  In28  1  0.50143012  0.66314307  0.37518384  1
  In  In29  1  0.49858673  0.64894809  0.87469157  1
  In  In30  1  0.84571465  -0.01138020  0.38764459  1
  In  In31  1  0.85399207  -0.00345368  0.86943691  1
  In  In32  1  0.84579249  0.32311777  0.38374685  1
  In  In33  1  0.85177103  0.34584888  0.86542271  1
  In  In34  1  0.83336967  0.66348664  0.37743466  1
  In  In35  1  0.82233328  0.66426053  0.85798180  1
  In  In36  1  0.00503319  0.16636545  0.37937983  1
  In  In37  1  0.01377113  0.17088434  0.85956163  1
  In  In38  1  0.00084102  0.49800316  0.37760386  1
  In  In39  1  -0.00181876  0.50009405  0.87752434  1
  In  In40  1  -0.01032615  0.82255295  0.37369313  1
  In  In41  1  -0.00520926  0.83440623  0.86182024  1
  In  In42  1  0.33661989  0.16083982  0.38821831  1
  In  In43  1  0.31156860  0.16380202  0.84917932  1
  In  In44  1  0.32935464  0.50315951  0.38005209  1
  In  In45  1  0.33670544  0.50206516  0.87363935  1
  In  In46  1  0.34233374  0.83036134  0.37799366  1
  In  In47  1  0.32278540  0.82497349  0.86987254  1
  In  In48  1  0.67642085  0.15227604  0.40101838  1
  In  In49  1  0.66460784  0.16668961  0.86909860  1
  In  In50  1  0.66047735  0.50676363  0.37947277  1
  In  In51  1  0.66202247  0.51622457  0.88108929  1
  In  In52  1  0.67897372  0.82320979  0.38779173  1
  In  In53  1  0.67716926  0.81309719  0.87141123  1
  In  In54  1  0.16140128  -0.00802429  0.12494603  1
  In  In55  1  0.14695101  0.02309827  0.64335086  1
  In  In56  1  0.15593979  0.33794178  0.12793505  1
  In  In57  1  0.16504100  0.33839914  0.63384714  1
  In  In58  1  0.17292017  0.65823332  0.13315855  1
  In  In59  1  0.15560737  0.64520464  0.62262346  1
  In  In60  1  0.50102464  0.01046353  0.12962749  1
  In  In61  1  0.49688596  -0.00660874  0.61818627  1
  In  In62  1  0.48369267  0.34176593  0.12811290  1
  In  In63  1  0.48665605  0.32676012  0.61881166  1
  In  In64  1  0.50605370  0.65784221  0.13561543  1
  In  In65  1  0.50700053  0.67720332  0.61848275  1
  In  In66  1  0.84256352  0.00471556  0.12629225  1
  In  In67  1  0.84023209  0.00665767  0.60928591  1
  In  In68  1  0.83501329  0.34925891  0.12527611  1
  In  In69  1  0.84335646  0.34076604  0.61814522  1
  In  In70  1  0.83661994  0.66352089  0.13189491  1
  In  In71  1  0.83556466  0.66692123  0.62672526  1
  In  In72  1  0.49762028  0.19179398  -0.00320847  1
  In  In73  1  0.68185172  -0.01507992  0.27496510  1
  In  In74  1  0.66780714  -0.00564234  0.73486685  1
  In  In75  1  0.33443448  0.66478257  0.74909684  1
  In  In76  1  0.83815978  0.82917629  0.00336855  1
  In  In77  1  0.33087558  -0.00438837  0.25240944  1
  In  In78  1  0.84108082  0.18090299  -0.02095848  1
  In  In79  1  0.16040339  0.17435620  -0.00348697  1
  In  In80  1  0.15890254  0.82597131  -0.01339469  1
  In  In81  1  0.66836976  0.33583004  0.73865619  1
  In  In82  1  0.17088932  0.83317007  0.50663381  1
  In  In83  1  0.66943306  0.33757102  0.25282987  1
  In  In84  1  0.32512285  0.33827788  0.25529644  1
  In  In85  1  0.49650465  0.82435762  0.00146882  1
  Cu  Cu86  1  0.51302319  0.83491065  0.74415892  1
  Cu  Cu87  1  0.49721397  0.82052374  0.25426492  1
  Cu  Cu88  1  0.16530080  0.49822908  0.25210229  1
  Cu  Cu89  1  0.83949305  0.49972862  0.25105095  1
  Cu  Cu90  1  0.00631519  -0.00027182  0.50619451  1
  Cu  Cu91  1  0.32696964  0.00701001  0.51018978  1
  Cu  Cu92  1  -0.00112848  0.34033784  -0.00207400  1
  Cu  Cu93  1  -0.00788764  0.66172975  0.50132586  1
  Cu  Cu94  1  0.15947309  0.16804814  0.25634039  1
  Cu  Cu95  1  0.82930847  0.83196249  0.25646310  1
  Cu  Cu96  1  0.50539778  0.15865902  0.27116203  1
  Cu  Cu97  1  0.49952549  0.50333535  0.74557259  1
  Cu  Cu98  1  0.66987880  0.34073748  0.50496771  1
  Cu  Cu99  1  0.66322157  0.34606800  0.00054903  1
  Cu  Cu100  1  0.17431105  0.83043216  0.74282512  1
  Cu  Cu101  1  0.83252436  0.15880906  0.73815946  1
  Cu  Cu102  1  0.66904093  0.66129849  0.50053302  1
  Cu  Cu103  1  0.33675685  0.66349560  0.50180708  1
  Cu  Cu104  1  0.48835494  0.17235206  0.74500484  1
  Cu  Cu105  1  0.83487960  0.50284165  0.74627783  1
  Cu  Cu106  1  0.33244427  0.00342142  -0.01143634  1
  Cu  Cu107  1  0.84678026  0.17065272  0.25472879  1
  Cu  Cu108  1  0.32779521  0.33752837  -0.01238144  1
  Cu  Cu109  1  0.32777336  0.33487134  0.50469375  1
  Cu  Cu110  1  0.67765319  -0.00083928  -0.00004313  1
  Cu  Cu111  1  0.00144107  0.66324585  0.00191094  1
  Cu  Cu112  1  0.15714942  0.83101661  0.25093573  1
  Cu  Cu113  1  0.50065945  0.50307590  0.25086701  1
  Cu  Cu114  1  0.00326132  0.33339938  0.50515776  1
  Se  Se115  1  0.07697771  0.07810017  0.05642146  1
  Se  Se116  1  0.08666095  0.08826128  0.55534642  1
  Se  Se117  1  0.08276991  0.41931227  0.05462775  1
  Se  Se118  1  0.08171648  0.41734462  0.56162458  1
  Se  Se119  1  0.07726563  0.74777919  0.06242483  1
  Se  Se120  1  0.07499279  0.74325128  0.56032204  1
  Se  Se121  1  0.41271583  0.08219567  0.05151583  1
  Se  Se122  1  0.41217212  0.08978778  0.56228634  1
  Se  Se123  1  0.41823508  0.41083092  0.04407872  1
  Se  Se124  1  0.41670579  0.42139854  0.55086220  1
  Se  Se125  1  0.40763330  0.74362829  0.06679885  1
  Se  Se126  1  0.41756043  0.75381203  0.54956239  1
  Se  Se127  1  0.75710407  0.08791095  0.05213289  1
  Se  Se128  1  0.74590357  0.07187324  0.53939835  1
  Se  Se129  1  0.75576745  0.42176103  0.05025809  1
  Se  Se130  1  0.75610137  0.42368553  0.55390059  1
  Se  Se131  1  0.74234730  0.74011558  0.05789578  1
  Se  Se132  1  0.75173784  0.74545680  0.55398454  1
  Se  Se133  1  0.25969765  0.25874924  0.05765545  1
  Se  Se134  1  0.24595601  0.25485390  0.56198567  1
  Se  Se135  1  0.23613528  0.57669298  0.05511515  1
  Se  Se136  1  0.24757358  0.58205700  0.55000035  1
  Se  Se137  1  0.25243637  0.92340099  0.04848314  1
  Se  Se138  1  0.24612337  0.92818668  0.57132259  1
  Se  Se139  1  0.59433768  0.26074977  0.06682525  1
  Se  Se140  1  0.58482913  0.25550895  0.55445775  1
  Se  Se141  1  0.56992955  0.57871219  0.05681056  1
  Se  Se142  1  0.58037780  0.58218686  0.55269684  1
  Se  Se143  1  0.58945380  0.92560635  0.05886486  1
  Se  Se144  1  0.58316693  0.92051124  0.54816700  1
  Se  Se145  1  0.92222120  0.25520867  0.05801711  1
  Se  Se146  1  0.91480692  0.24650991  0.55113662  1
  Se  Se147  1  0.91749833  0.58528075  0.05943816  1
  Se  Se148  1  0.91306455  0.57678392  0.55717939  1
  Se  Se149  1  0.92945272  0.93011368  0.05281682  1
  Se  Se150  1  0.92077337  0.90868697  0.54927043  1
  Se  Se151  1  0.08574704  0.24784434  0.45166197  1
  Se  Se152  1  0.07937365  0.26546555  0.93401720  1
  Se  Se153  1  0.08100630  0.58125958  0.45013266  1
  Se  Se154  1  0.08354828  0.58046807  0.94743229  1
  Se  Se155  1  0.08016863  0.91702943  0.44135232  1
  Se  Se156  1  0.07298044  0.92556866  0.93561516  1
  Se  Se157  1  0.41371008  0.25186198  0.45335570  1
  Se  Se158  1  0.40255101  0.25439657  0.92399185  1
  Se  Se159  1  0.41957610  0.58116718  0.44602326  1
  Se  Se160  1  0.41169657  0.58344425  0.94645282  1
  Se  Se161  1  0.40198909  0.91549786  0.45667685  1
  Se  Se162  1  0.41458904  0.92029218  0.93431443  1
  Se  Se163  1  0.75423131  0.25416565  0.45459720  1
  Se  Se164  1  0.73622626  0.27013748  0.93112716  1
  Se  Se165  1  0.75339597  0.57879444  0.44727809  1
  Se  Se166  1  0.75635109  0.59456959  0.94088404  1
  Se  Se167  1  0.72945224  0.93884341  0.44333183  1
  Se  Se168  1  0.75105976  0.92065619  0.93629854  1
  Se  Se169  1  0.24380269  0.08920626  0.45654268  1
  Se  Se170  1  0.24693098  0.08035023  0.93259781  1
  Se  Se171  1  0.24843809  0.41911145  0.44833077  1
  Se  Se172  1  0.24261178  0.41492654  0.93253928  1
  Se  Se173  1  0.25103655  0.74026967  0.44114033  1
  Se  Se174  1  0.26349603  0.73339008  0.94592869  1
  Se  Se175  1  0.55499349  0.10937214  0.45241843  1
  Se  Se176  1  0.58988832  0.08335398  0.94783486  1
  Se  Se177  1  0.58449468  0.42162077  0.45107078  1
  Se  Se178  1  0.57908040  0.42643948  0.94597641  1
  Se  Se179  1  0.58303806  0.74421098  0.44731681  1
  Se  Se180  1  0.58998240  0.73789248  0.94327516  1
  Se  Se181  1  0.92381034  0.08281727  0.44966149  1
  Se  Se182  1  0.93646546  0.08227604  0.93768079  1
  Se  Se183  1  0.92061697  0.41613478  0.44946788  1
  Se  Se184  1  0.90924054  0.42237802  0.94890928  1
  Se  Se185  1  0.91132010  0.74970952  0.44954312  1
  Se  Se186  1  0.92659644  0.74535243  0.93902595  1
  Se  Se187  1  0.24609775  0.24094191  0.31664961  1
  Se  Se188  1  0.22005252  0.23634322  0.78335163  1
  Se  Se189  1  0.25014468  0.57976558  0.30554566  1
  Se  Se190  1  0.23994520  0.57829372  0.80522682  1
  Se  Se191  1  0.23891913  0.90790899  0.31417413  1
  Se  Se192  1  0.25935485  0.91291702  0.79597226  1
  Se  Se193  1  0.59198203  0.24310581  0.32017266  1
  Se  Se194  1  0.57327171  0.24931754  0.80410311  1
  Se  Se195  1  0.58620481  0.58395342  0.30305772  1
  Se  Se196  1  0.58475624  0.58281842  0.79950672  1
  Se  Se197  1  0.57057183  0.90397854  0.31896690  1
  Se  Se198  1  0.58584926  0.91486205  0.81175319  1
  Se  Se199  1  0.92814387  0.25412467  0.30766630  1
  Se  Se200  1  0.90551390  0.23899368  0.80191944  1
  Se  Se201  1  0.91906698  0.58310193  0.30844406  1
  Se  Se202  1  0.92025347  0.58239526  0.80320867  1
  Se  Se203  1  0.91470228  0.91633200  0.30641159  1
  Se  Se204  1  0.91538090  0.91644791  0.79224538  1
  Se  Se205  1  0.08080199  0.07812404  0.30642628  1
  Se  Se206  1  0.07967871  0.07512794  0.79297999  1
  Se  Se207  1  0.08353807  0.41516709  0.30583451  1
  Se  Se208  1  0.04834435  0.39464795  0.80856792  1
  Se  Se209  1  0.07848658  0.74588769  0.30639661  1
  Se  Se210  1  0.09446863  0.75450722  0.80512177  1
  Se  Se211  1  0.42228093  0.07174105  0.32099497  1
  Se  Se212  1  0.41288022  0.08055604  0.79675073  1
  Se  Se213  1  0.42790456  0.41707565  0.31276212  1
  Se  Se214  1  0.41263834  0.42197549  0.79684945  1
  Se  Se215  1  0.41012464  0.74139957  0.30632413  1
  Se  Se216  1  0.43049731  0.75601108  0.80682981  1
  Se  Se217  1  0.76546824  0.09451730  0.31837168  1
  Se  Se218  1  0.75333409  0.08409367  0.80307534  1
  Se  Se219  1  0.76118403  0.42078064  0.31525825  1
  Se  Se220  1  0.74786823  0.42533106  0.80614876  1
  Se  Se221  1  0.74777288  0.74777446  0.30843576  1
  Se  Se222  1  0.76540051  0.76839806  0.79262363  1
  Se  Se223  1  0.24259660  0.09304980  0.19211054  1
  Se  Se224  1  0.26499324  0.06756214  0.69868553  1
  Se  Se225  1  0.24966149  0.42763576  0.18669603  1
  Se  Se226  1  0.24913613  0.42360259  0.70054991  1
  Se  Se227  1  0.24667409  0.75058298  0.20209713  1
  Se  Se228  1  0.24895196  0.74968707  0.68065020  1
  Se  Se229  1  0.58618082  0.07838250  0.21025984  1
  Se  Se230  1  0.57522885  0.09511039  0.68810333  1
  Se  Se231  1  0.57964781  0.42272320  0.18898666  1
  Se  Se232  1  0.57680623  0.42494440  0.68116008  1
  Se  Se233  1  0.58816437  0.74206956  0.20459930  1
  Se  Se234  1  0.59216523  0.74774498  0.69310990  1
  Se  Se235  1  0.92171745  0.08083801  0.19931378  1
  Se  Se236  1  0.91893325  0.08046626  0.68507814  1
  Se  Se237  1  0.92131407  0.41361928  0.19969974  1
  Se  Se238  1  0.91485028  0.41255382  0.69796091  1
  Se  Se239  1  0.91411920  0.75284233  0.19875930  1
  Se  Se240  1  0.93877312  0.72556121  0.69345633  1
  Se  Se241  1  0.08250473  0.25391798  0.20042594  1
  Se  Se242  1  0.09220833  0.24059374  0.69908589  1
  Se  Se243  1  0.08083483  0.58267172  0.19894183  1
  Se  Se244  1  0.08478285  0.57688310  0.70252085  1
  Se  Se245  1  0.07955380  0.91942726  0.19789366  1
  Se  Se246  1  0.08259481  0.91234762  0.69802006  1
  Se  Se247  1  0.42885567  0.23992416  0.20595081  1
  Se  Se248  1  0.40685371  0.26268690  0.69859734  1
  Se  Se249  1  0.40940008  0.57685927  0.19598221  1
  Se  Se250  1  0.41996412  0.58084290  0.68201301  1
  Se  Se251  1  0.42574931  0.90681901  0.19092458  1
  Se  Se252  1  0.42421254  0.91823569  0.69769086  1
  Se  Se253  1  0.75921820  0.24055845  0.19284840  1
  Se  Se254  1  0.75171908  0.23882143  0.67947005  1
  Se  Se255  1  0.75115171  0.57925498  0.19880320  1
  Se  Se256  1  0.74828679  0.58801253  0.69872459  1
  Se  Se257  1  0.75255070  0.91093506  0.18950853  1
  Se  Se258  1  0.76100827  0.91020604  0.67786974  1
