# generated using pymatgen
data_In86Cu29Se144
_symmetry_space_group_name_H-M   'P 1'
_cell_length_a   17.57431930
_cell_length_b   17.57622712
_cell_length_c   23.42227655
_cell_angle_alpha   90.03027981
_cell_angle_beta   90.00580058
_cell_angle_gamma   90.00709609
_symmetry_Int_Tables_number   1
_chemical_formula_structural   In86Cu29Se144
_chemical_formula_sum   'In86 Cu29 Se144'
_cell_volume   7234.91122936
_cell_formula_units_Z   1
loop_
 _symmetry_equiv_pos_site_id
 _symmetry_equiv_pos_as_xyz
  1  'x, y, z'
loop_
 _atom_site_type_symbol
 _atom_site_label
 _atom_site_symmetry_multiplicity
 _atom_site_fract_x
 _atom_site_fract_y
 _atom_site_fract_z
 _atom_site_occupancy
  In  In0  1  0.01275112  0.15640091  0.12596381  1
  In  In1  1  0.00285261  0.17737364  0.62736754  1
  In  In2  1  0.00241005  0.50462731  0.12988295  1
  In  In3  1  -0.01461834  0.49172645  0.62328860  1
  In  In4  1  -0.00481395  0.83449479  0.11872562  1
  In  In5  1  0.00638913  0.83156396  0.62736588  1
  In  In6  1  0.34037996  0.16560070  0.11264700  1
  In  In7  1  0.33128366  0.16658911  0.63400760  1
  In  In8  1  0.31626885  0.50523911  0.13783318  1
  In  In9  1  0.33728528  0.49752992  0.63528437  1
  In  In10  1  0.32291983  0.83319708  0.10641502  1
  In  In11  1  0.33576809  0.83238281  0.64117974  1
  In  In12  1  0.65430750  0.17726855  0.12393513  1
  In  In13  1  0.67676946  0.16374510  0.62226369  1
  In  In14  1  0.67856036  0.48887256  0.12497510  1
  In  In15  1  0.66132098  0.50510033  0.63505686  1
  In  In16  1  0.66851234  0.83088950  0.12558253  1
  In  In17  1  0.65660007  0.83645551  0.62897977  1
  In  In18  1  0.16284936  0.01183618  0.37001195  1
  In  In19  1  0.19950465  -0.02296951  0.91229239  1
  In  In20  1  0.17122400  0.33729653  0.35388791  1
  In  In21  1  0.16712270  0.33627466  0.88174639  1
  In  In22  1  0.16745722  0.66287875  0.35100137  1
  In  In23  1  0.17358928  0.65950449  0.88519018  1
  In  In24  1  0.49958965  -0.01353178  0.37265862  1
  In  In25  1  0.47177004  0.02168490  0.90643304  1
  In  In26  1  0.50141910  0.32766756  0.36827713  1
  In  In27  1  0.49752354  0.32885292  0.87343394  1
  In  In28  1  0.49812146  0.66841695  0.36323466  1
  In  In29  1  0.50772654  0.67318060  0.87567105  1
  In  In30  1  0.83927001  0.01079593  0.36003345  1
  In  In31  1  0.82725792  -0.00645259  0.88157517  1
  In  In32  1  0.83328636  0.32822572  0.36539410  1
  In  In33  1  0.84166510  0.33680706  0.87564363  1
  In  In34  1  0.82796126  0.66191338  0.36550081  1
  In  In35  1  0.82393179  0.67155614  0.88623891  1
  In  In36  1  -0.00423215  0.16172647  0.35993864  1
  In  In37  1  0.00583829  0.17635428  0.87845947  1
  In  In38  1  0.00127636  0.49454116  0.34945986  1
  In  In39  1  0.00842640  0.49149135  0.88739201  1
  In  In40  1  0.00203539  0.83474632  0.35837628  1
  In  In41  1  0.00691711  0.83830445  0.89660387  1
  In  In42  1  0.32472158  0.16689034  0.37626828  1
  In  In43  1  0.33022763  0.17168831  0.88347226  1
  In  In44  1  0.32963930  0.49711064  0.35978874  1
  In  In45  1  0.32374523  0.49033276  0.87234206  1
  In  In46  1  0.34068994  0.82824066  0.37210705  1
  In  In47  1  0.33882002  0.82837870  0.88296675  1
  In  In48  1  0.68198250  0.18143677  0.36453787  1
  In  In49  1  0.65699148  0.16695035  0.87787077  1
  In  In50  1  0.66643262  0.50308850  0.36626570  1
  In  In51  1  0.67134611  0.50116341  0.87626798  1
  In  In52  1  0.66027632  0.83215825  0.36116637  1
  In  In53  1  0.66550454  0.82874299  0.88317898  1
  In  In54  1  0.14872247  -0.01285973  0.09594940  1
  In  In55  1  0.16930949  0.01000882  0.63271100  1
  In  In56  1  0.16755239  0.33770817  0.12902875  1
  In  In57  1  0.16700437  0.32415496  0.63822857  1
  In  In58  1  0.16321419  0.66591471  0.12700054  1
  In  In59  1  0.17476950  0.67647017  0.62996394  1
  In  In60  1  0.49936753  0.01106589  0.11142924  1
  In  In61  1  0.49609606  -0.00875712  0.62799752  1
  In  In62  1  0.50593938  0.32402987  0.12359409  1
  In  In63  1  0.49529368  0.33861999  0.63396124  1
  In  In64  1  0.49109646  0.67577609  0.12895078  1
  In  In65  1  0.50022578  0.66847630  0.63839155  1
  In  In66  1  0.84531351  -0.01447252  0.12875831  1
  In  In67  1  0.81545440  0.00662368  0.62319255  1
  In  In68  1  0.82282371  0.34767077  0.12441956  1
  In  In69  1  0.84120945  0.32943281  0.63008682  1
  In  In70  1  0.83448875  0.66609822  0.12580442  1
  In  In71  1  0.82902055  0.65691805  0.62608082  1
  In  In72  1  0.16733144  0.49634349  0.48985459  1
  In  In73  1  0.17031486  0.83528418  0.50491201  1
  In  In74  1  0.82602189  0.49040183  0.48376569  1
  In  In75  1  0.65780486  -0.00120968  0.75348860  1
  In  In76  1  0.00634170  0.00941678  0.76270798  1
  In  In77  1  0.32959890  0.00073859  0.24185850  1
  In  In78  1  0.50144920  0.16589013  0.50098256  1
  In  In79  1  0.16675379  0.17169130  0.49884291  1
  In  In80  1  0.00616031  0.65528529  0.75706816  1
  In  In81  1  0.83702355  0.16005170  0.00294387  1
  In  In82  1  0.49928591  0.83277235  0.49704675  1
  In  In83  1  0.49716022  0.49761224  -0.00101943  1
  In  In84  1  0.82792588  0.83772948  0.50352748  1
  In  In85  1  0.50029534  0.50220726  0.50771098  1
  Cu  Cu86  1  0.49926420  0.50217368  0.75892730  1
  Cu  Cu87  1  0.83511062  0.17177636  0.75006975  1
  Cu  Cu88  1  0.17478843  0.83401734  0.76499022  1
  Cu  Cu89  1  0.67144318  -0.00718633  0.00513089  1
  Cu  Cu90  1  0.83211308  0.49735087  0.75321475  1
  Cu  Cu91  1  0.49898554  0.83774722  0.76151209  1
  Cu  Cu92  1  0.83314501  0.82277178  0.76075881  1
  Cu  Cu93  1  0.50237958  0.49636351  0.24175141  1
  Cu  Cu94  1  0.49912948  0.83578229  0.24284578  1
  Cu  Cu95  1  0.66990650  0.66144758  0.00543026  1
  Cu  Cu96  1  0.67139337  0.33536281  0.49777802  1
  Cu  Cu97  1  -0.00021608  0.33736353  0.00570657  1
  Cu  Cu98  1  0.16342881  0.49635953  0.75781731  1
  Cu  Cu99  1  0.83206274  0.50360459  0.24535232  1
  Cu  Cu100  1  -0.00539691  0.66238720  0.48494252  1
  Cu  Cu101  1  0.83197481  0.16921586  0.23779950  1
  Cu  Cu102  1  0.67501659  0.01159890  0.48927820  1
  Cu  Cu103  1  0.17329046  0.16525851  0.76262180  1
  Cu  Cu104  1  0.00343787  0.32767030  0.49841484  1
  Cu  Cu105  1  0.32742372  0.66431010  0.00536367  1
  Cu  Cu106  1  -0.00123863  0.66351180  0.00740197  1
  Cu  Cu107  1  0.49301560  0.16795238  0.75897414  1
  Cu  Cu108  1  0.32866504  0.34006390  0.00328274  1
  Cu  Cu109  1  -0.00807793  0.00591097  0.48891856  1
  Cu  Cu110  1  0.16737259  0.16247290  0.23998157  1
  Cu  Cu111  1  0.50010263  0.16512570  0.24409616  1
  Cu  Cu112  1  0.16744459  0.83937924  0.23366066  1
  Cu  Cu113  1  0.83366159  0.83189725  0.24489699  1
  Cu  Cu114  1  0.33422581  0.66450880  0.49679442  1
  Se  Se115  1  0.08726579  0.10018319  0.04163515  1
  Se  Se116  1  0.07462451  0.07634524  0.55664396  1
  Se  Se117  1  0.08378798  0.42011776  0.05930918  1
  Se  Se118  1  0.08081392  0.40901775  0.55862867  1
  Se  Se119  1  0.08459135  0.74916874  0.05539784  1
  Se  Se120  1  0.07275401  0.73529322  0.55353561  1
  Se  Se121  1  0.41142821  0.07933383  0.03943027  1
  Se  Se122  1  0.41026302  0.07702579  0.56053833  1
  Se  Se123  1  0.40744879  0.41751043  0.06662951  1
  Se  Se124  1  0.40525589  0.40885697  0.55772156  1
  Se  Se125  1  0.41864614  0.74811659  0.04914792  1
  Se  Se126  1  0.40923878  0.74453254  0.56122993  1
  Se  Se127  1  0.74619725  0.07640109  0.06665682  1
  Se  Se128  1  0.75667472  0.09237739  0.54512591  1
  Se  Se129  1  0.74529564  0.41364965  0.04470308  1
  Se  Se130  1  0.74579531  0.41542430  0.56275031  1
  Se  Se131  1  0.75255900  0.74947220  0.05580476  1
  Se  Se132  1  0.73919303  0.74526677  0.56084078  1
  Se  Se133  1  0.24776750  0.25513129  0.05633517  1
  Se  Se134  1  0.25667824  0.25824005  0.56026276  1
  Se  Se135  1  0.24556765  0.57948791  0.05750208  1
  Se  Se136  1  0.25311098  0.58589887  0.55834754  1
  Se  Se137  1  0.26319091  0.93333436  0.03980475  1
  Se  Se138  1  0.25897470  0.92180482  0.56709089  1
  Se  Se139  1  0.56863536  0.23858482  0.04670992  1
  Se  Se140  1  0.58889960  0.26125696  0.56043452  1
  Se  Se141  1  0.58338920  0.58525430  0.06423124  1
  Se  Se142  1  0.58958606  0.59822424  0.56182466  1
  Se  Se143  1  0.58364068  0.91254330  0.05611887  1
  Se  Se144  1  0.59474556  0.93186038  0.55127987  1
  Se  Se145  1  0.91975819  0.25439615  0.06545035  1
  Se  Se146  1  0.91837900  0.25002134  0.55443497  1
  Se  Se147  1  0.91451041  0.57875645  0.05753664  1
  Se  Se148  1  0.91691877  0.58468050  0.54770076  1
  Se  Se149  1  0.91425221  0.91603328  0.04782701  1
  Se  Se150  1  0.92517004  0.92761931  0.56130259  1
  Se  Se151  1  0.08170054  0.25594617  0.43074684  1
  Se  Se152  1  0.08284104  0.25558613  0.95212216  1
  Se  Se153  1  0.07863871  0.58670886  0.42744867  1
  Se  Se154  1  0.08442286  0.58306716  0.95244835  1
  Se  Se155  1  0.07709069  0.92052214  0.43863305  1
  Se  Se156  1  0.08267968  0.92218053  0.96561287  1
  Se  Se157  1  0.41022706  0.25623069  0.44255780  1
  Se  Se158  1  0.41481458  0.25944222  0.94945960  1
  Se  Se159  1  0.41321971  0.58490094  0.43753557  1
  Se  Se160  1  0.40696562  0.58843733  0.93923599  1
  Se  Se161  1  0.40135945  0.92563547  0.44617430  1
  Se  Se162  1  0.43379600  0.89588446  0.95232111  1
  Se  Se163  1  0.75545479  0.25512126  0.44351264  1
  Se  Se164  1  0.74993479  0.25007814  0.94165632  1
  Se  Se165  1  0.73655408  0.59520743  0.44176339  1
  Se  Se166  1  0.75070067  0.57698934  0.95201083  1
  Se  Se167  1  0.74700161  0.92127273  0.43167603  1
  Se  Se168  1  0.75288703  0.90882582  0.95150186  1
  Se  Se169  1  0.25635179  0.07032100  0.44686636  1
  Se  Se170  1  0.24263676  0.10295321  0.95744166  1
  Se  Se171  1  0.25845699  0.40477539  0.43415180  1
  Se  Se172  1  0.24503645  0.42445624  0.95174380  1
  Se  Se173  1  0.24885971  0.74066614  0.43773630  1
  Se  Se174  1  0.24648512  0.75234017  0.95179904  1
  Se  Se175  1  0.58714636  0.08405266  0.43158793  1
  Se  Se176  1  0.59224419  0.08115346  0.95283047  1
  Se  Se177  1  0.58791088  0.41419148  0.44088494  1
  Se  Se178  1  0.58984638  0.40762871  0.94298391  1
  Se  Se179  1  0.58822100  0.74336350  0.43791726  1
  Se  Se180  1  0.58501661  0.74456551  0.95349845  1
  Se  Se181  1  0.91313090  0.09087001  0.43656080  1
  Se  Se182  1  0.92687108  0.07325497  0.94001691  1
  Se  Se183  1  0.93351693  0.41105990  0.43283196  1
  Se  Se184  1  0.91322885  0.41716186  0.95242217  1
  Se  Se185  1  0.91770666  0.75423469  0.43523215  1
  Se  Se186  1  0.91681486  0.74737946  0.95201378  1
  Se  Se187  1  0.25345026  0.23915595  0.29757441  1
  Se  Se188  1  0.25255825  0.25616422  0.81171814  1
  Se  Se189  1  0.26621574  0.59191018  0.29227403  1
  Se  Se190  1  0.24595794  0.58403334  0.80623185  1
  Se  Se191  1  0.24166621  0.90914606  0.30695956  1
  Se  Se192  1  0.25438374  0.91992438  0.81860711  1
  Se  Se193  1  0.58402979  0.24920031  0.29840405  1
  Se  Se194  1  0.58561581  0.24979833  0.80372436  1
  Se  Se195  1  0.58193380  0.58301305  0.29816113  1
  Se  Se196  1  0.58636518  0.58398348  0.80875884  1
  Se  Se197  1  0.58098565  0.92170350  0.29534075  1
  Se  Se198  1  0.57433015  0.92039020  0.82295239  1
  Se  Se199  1  0.91680248  0.25117837  0.29402492  1
  Se  Se200  1  0.92012570  0.24898683  0.80591174  1
  Se  Se201  1  0.91670617  0.59072027  0.29518007  1
  Se  Se202  1  0.91058256  0.57586064  0.81765051  1
  Se  Se203  1  0.91784340  0.92029442  0.29472443  1
  Se  Se204  1  0.91635572  0.90640086  0.81341699  1
  Se  Se205  1  0.08321024  0.07900898  0.29355216  1
  Se  Se206  1  0.10243893  0.08220247  0.82619858  1
  Se  Se207  1  0.09594484  0.42346115  0.28648773  1
  Se  Se208  1  0.07955729  0.41364786  0.80930397  1
  Se  Se209  1  0.08484779  0.75452024  0.29006435  1
  Se  Se210  1  0.08462983  0.75611458  0.81766232  1
  Se  Se211  1  0.42097436  0.08692844  0.30754398  1
  Se  Se212  1  0.41540002  0.08476241  0.81589169  1
  Se  Se213  1  0.42231082  0.41312460  0.30031090  1
  Se  Se214  1  0.41541736  0.41486317  0.80633864  1
  Se  Se215  1  0.41427152  0.75264179  0.29636192  1
  Se  Se216  1  0.41567889  0.74735988  0.80781960  1
  Se  Se217  1  0.74771540  0.08734654  0.29412898  1
  Se  Se218  1  0.75669942  0.08803461  0.80870820  1
  Se  Se219  1  0.75153377  0.41891210  0.30209243  1
  Se  Se220  1  0.75082852  0.41336126  0.80768590  1
  Se  Se221  1  0.74837431  0.74848489  0.29837401  1
  Se  Se222  1  0.74362948  0.74494962  0.80990884  1
  Se  Se223  1  0.24122544  0.08145573  0.17632406  1
  Se  Se224  1  0.25290501  0.08192724  0.70475131  1
  Se  Se225  1  0.25722691  0.40331392  0.20308857  1
  Se  Se226  1  0.24776176  0.41645984  0.69949916  1
  Se  Se227  1  0.25543228  0.75639160  0.18604328  1
  Se  Se228  1  0.25147514  0.74776488  0.70731242  1
  Se  Se229  1  0.57951853  0.08072169  0.18921367  1
  Se  Se230  1  0.57285931  0.09467481  0.69099984  1
  Se  Se231  1  0.58605572  0.41133480  0.19095846  1
  Se  Se232  1  0.58061216  0.41931030  0.70088942  1
  Se  Se233  1  0.58482835  0.74903611  0.19600175  1
  Se  Se234  1  0.58258282  0.75764677  0.70303527  1
  Se  Se235  1  0.91921194  0.08255073  0.19266689  1
  Se  Se236  1  0.91022574  0.08385062  0.69204383  1
  Se  Se237  1  0.91469364  0.41727385  0.19437892  1
  Se  Se238  1  0.91881945  0.41451059  0.70154924  1
  Se  Se239  1  0.91970852  0.75054090  0.19240580  1
  Se  Se240  1  0.91494936  0.75007381  0.69496084  1
  Se  Se241  1  0.08138655  0.25064691  0.19496495  1
  Se  Se242  1  0.08440896  0.24116440  0.70598346  1
  Se  Se243  1  0.08683568  0.58405521  0.19918682  1
  Se  Se244  1  0.09074047  0.57112672  0.68556322  1
  Se  Se245  1  0.08341069  0.92348371  0.18288837  1
  Se  Se246  1  0.09229770  0.90917143  0.70099657  1
  Se  Se247  1  0.41437086  0.24414007  0.18979288  1
  Se  Se248  1  0.41457488  0.25132426  0.69980020  1
  Se  Se249  1  0.41680281  0.58354295  0.19565099  1
  Se  Se250  1  0.41517447  0.58466784  0.70284365  1
  Se  Se251  1  0.41871850  0.91273137  0.18075981  1
  Se  Se252  1  0.41832469  0.92129764  0.70522888  1
  Se  Se253  1  0.74552146  0.25417780  0.19009939  1
  Se  Se254  1  0.74914609  0.24929162  0.69410730  1
  Se  Se255  1  0.74571826  0.58503059  0.19336376  1
  Se  Se256  1  0.75039383  0.58522227  0.70153609  1
  Se  Se257  1  0.74827201  0.91704296  0.19570125  1
  Se  Se258  1  0.75858246  0.90746786  0.69810397  1
