# generated using pymatgen
data_In86Cu29Se144
_symmetry_space_group_name_H-M   'P 1'
_cell_length_a   17.58267388
_cell_length_b   17.57753543
_cell_length_c   23.44799325
_cell_angle_alpha   90.01672877
_cell_angle_beta   90.01303399
_cell_angle_gamma   89.99321128
_symmetry_Int_Tables_number   1
_chemical_formula_structural   In86Cu29Se144
_chemical_formula_sum   'In86 Cu29 Se144'
_cell_volume   7246.83796248
_cell_formula_units_Z   1
loop_
 _symmetry_equiv_pos_site_id
 _symmetry_equiv_pos_as_xyz
  1  'x, y, z'
loop_
 _atom_site_type_symbol
 _atom_site_label
 _atom_site_symmetry_multiplicity
 _atom_site_fract_x
 _atom_site_fract_y
 _atom_site_fract_z
 _atom_site_occupancy
  In  In0  1  0.01363181  0.17067971  0.12389141  1
  In  In1  1  0.01018507  0.18657880  0.62265816  1
  In  In2  1  -0.00197068  0.49807424  0.12849170  1
  In  In3  1  -0.00323742  0.49754544  0.62479984  1
  In  In4  1  -0.01822252  0.83085552  0.12218918  1
  In  In5  1  -0.00208794  0.81590718  0.62739755  1
  In  In6  1  0.34580406  0.17621614  0.11564112  1
  In  In7  1  0.29016548  0.17736421  0.63627476  1
  In  In8  1  0.31214157  0.49778501  0.12087246  1
  In  In9  1  0.32840315  0.50394720  0.62110542  1
  In  In10  1  0.33768112  0.83248384  0.12358874  1
  In  In11  1  0.33060710  0.84716238  0.62986643  1
  In  In12  1  0.65850203  0.18103799  0.12643790  1
  In  In13  1  0.66953679  0.16382987  0.62925777  1
  In  In14  1  0.68159557  0.49151976  0.12301493  1
  In  In15  1  0.68058974  0.48241596  0.64018621  1
  In  In16  1  0.68118274  0.82110291  0.13045892  1
  In  In17  1  0.66536965  0.83489910  0.63529963  1
  In  In18  1  0.16658940  0.00286497  0.38465291  1
  In  In19  1  0.18030519  0.00866464  0.86860006  1
  In  In20  1  0.16496403  0.33724249  0.37668634  1
  In  In21  1  0.16308483  0.34170710  0.88159991  1
  In  In22  1  0.15373406  0.67260299  0.37815203  1
  In  In23  1  0.15297130  0.66577782  0.87457169  1
  In  In24  1  0.50354958  -0.00829883  0.37166478  1
  In  In25  1  0.50564233  0.00378161  0.87280044  1
  In  In26  1  0.50140413  0.33336284  0.36437321  1
  In  In27  1  0.49554678  0.32191032  0.87281420  1
  In  In28  1  0.50643912  0.65467927  0.36937862  1
  In  In29  1  0.52431679  0.65082876  0.87813336  1
  In  In30  1  0.83512980  0.01606781  0.37477382  1
  In  In31  1  0.81662510  0.00554293  0.87512688  1
  In  In32  1  0.83661025  0.33360375  0.37319951  1
  In  In33  1  0.84181843  0.34302208  0.87083628  1
  In  In34  1  0.82627132  0.65356979  0.37012598  1
  In  In35  1  0.82918927  0.65642072  0.88137921  1
  In  In36  1  -0.00986993  0.17355090  0.38208487  1
  In  In37  1  0.00369878  0.18634510  0.87270365  1
  In  In38  1  -0.00160293  0.49762956  0.37445291  1
  In  In39  1  -0.00175572  0.49932619  0.87731174  1
  In  In40  1  0.00983665  0.83391487  0.37618602  1
  In  In41  1  -0.00269437  0.81124161  0.87299856  1
  In  In42  1  0.31846897  0.17651549  0.38124522  1
  In  In43  1  0.33657699  0.15840898  0.88719562  1
  In  In44  1  0.32785027  0.48367694  0.37336040  1
  In  In45  1  0.33470995  0.49064242  0.88214976  1
  In  In46  1  0.32731956  0.82591773  0.37607514  1
  In  In47  1  0.32616492  0.83622890  0.87232755  1
  In  In48  1  0.67692435  0.18096854  0.36536057  1
  In  In49  1  0.65980835  0.16363724  0.86948756  1
  In  In50  1  0.67516619  0.50440868  0.36767403  1
  In  In51  1  0.67526390  0.50384904  0.86841570  1
  In  In52  1  0.66452914  0.83072030  0.36761747  1
  In  In53  1  0.67231103  0.83485460  0.87721121  1
  In  In54  1  0.16687610  0.00832689  0.11732405  1
  In  In55  1  0.17315829  0.01393778  0.62357293  1
  In  In56  1  0.16417270  0.33540837  0.13104222  1
  In  In57  1  0.15795839  0.32310522  0.61194687  1
  In  In58  1  0.16460407  0.64173707  0.12180585  1
  In  In59  1  0.15265406  0.65250337  0.61780318  1
  In  In60  1  0.50472706  0.02393117  0.11536601  1
  In  In61  1  0.49792013  -0.00241689  0.63394353  1
  In  In62  1  0.51283916  0.32154733  0.12696954  1
  In  In63  1  0.50628282  0.34063488  0.63014995  1
  In  In64  1  0.50909381  0.67359359  0.12246882  1
  In  In65  1  0.50250103  0.67311335  0.63113807  1
  In  In66  1  0.83436306  -0.01706383  0.11967278  1
  In  In67  1  0.82094186  0.00487241  0.62807461  1
  In  In68  1  0.82129390  0.34999345  0.12723492  1
  In  In69  1  0.83375389  0.33622173  0.62348604  1
  In  In70  1  0.83299428  0.66447446  0.12489959  1
  In  In71  1  0.84407963  0.65658145  0.63207666  1
  In  In72  1  0.33635094  0.66767046  0.75283641  1
  In  In73  1  0.49393109  0.83453650  0.50406066  1
  In  In74  1  0.33722114  0.00799858  0.24944082  1
  In  In75  1  0.50199532  0.83438258  -0.00542521  1
  In  In76  1  0.33803633  0.66415419  0.24577708  1
  In  In77  1  0.33430827  0.33060404  0.75104855  1
  In  In78  1  0.83631893  0.83422754  0.50495431  1
  In  In79  1  -0.00366233  0.00018431  0.24926164  1
  In  In80  1  0.49585240  0.16404049  0.50046249  1
  In  In81  1  0.50440916  0.49449158  0.00024929  1
  In  In82  1  0.16272841  0.83294622  -0.00555506  1
  In  In83  1  -0.00075960  0.00227674  0.75150152  1
  In  In84  1  0.83275091  0.17069075  -0.00316740  1
  In  In85  1  0.49663287  0.50154985  0.50071084  1
  Cu  Cu86  1  0.50819378  0.83174824  0.75633588  1
  Cu  Cu87  1  0.50685450  0.49614540  0.24445750  1
  Cu  Cu88  1  0.31736679  0.66696255  0.49836111  1
  Cu  Cu89  1  0.49939969  0.16226244  0.75054675  1
  Cu  Cu90  1  0.15853214  0.49514299  0.75017998  1
  Cu  Cu91  1  0.83100039  0.17483750  0.75089200  1
  Cu  Cu92  1  0.00469127  0.00472606  0.50336443  1
  Cu  Cu93  1  0.66466785  -0.00021198  -0.00175987  1
  Cu  Cu94  1  0.51169865  0.83822504  0.24461721  1
  Cu  Cu95  1  0.00347432  0.00000607  -0.00340243  1
  Cu  Cu96  1  0.16122484  0.49700706  0.25226057  1
  Cu  Cu97  1  0.67007715  0.66125459  0.50061616  1
  Cu  Cu98  1  0.16613563  0.17586097  0.25353045  1
  Cu  Cu99  1  -0.00330248  0.33778301  0.49723457  1
  Cu  Cu100  1  0.67225297  0.00877403  0.49969019  1
  Cu  Cu101  1  0.16123502  0.83103456  0.24973425  1
  Cu  Cu102  1  0.16498131  0.83132621  0.75059876  1
  Cu  Cu103  1  0.50200416  0.17037855  0.24633872  1
  Cu  Cu104  1  0.00330092  0.33979747  0.00240467  1
  Cu  Cu105  1  -0.00314777  0.65818566  0.00049766  1
  Cu  Cu106  1  0.32394031  0.00721606  0.50825846  1
  Cu  Cu107  1  0.83719998  0.49789994  0.24966504  1
  Cu  Cu108  1  0.32682060  0.33156089  0.00303654  1
  Cu  Cu109  1  0.67489292  0.33524796  0.49726211  1
  Cu  Cu110  1  0.82843807  0.82900451  0.75397722  1
  Cu  Cu111  1  0.83839067  0.50114182  0.75178314  1
  Cu  Cu112  1  0.82937114  0.82561450  0.24774001  1
  Cu  Cu113  1  -0.00094476  0.65998023  0.50051332  1
  Cu  Cu114  1  0.83135664  0.16821800  0.24857095  1
  Se  Se115  1  0.08268650  0.08645623  0.04834715  1
  Se  Se116  1  0.08447053  0.09123865  0.55675339  1
  Se  Se117  1  0.08685343  0.42027469  0.05945193  1
  Se  Se118  1  0.08011532  0.41973285  0.55249916  1
  Se  Se119  1  0.07737608  0.74340198  0.05977440  1
  Se  Se120  1  0.08062667  0.74859142  0.55112331  1
  Se  Se121  1  0.40401989  0.07624374  0.04795595  1
  Se  Se122  1  0.40947172  0.08114508  0.56728098  1
  Se  Se123  1  0.41185202  0.40981779  0.06349237  1
  Se  Se124  1  0.41007466  0.40620408  0.55819289  1
  Se  Se125  1  0.40977986  0.74069199  0.05369712  1
  Se  Se126  1  0.40151526  0.74104924  0.56045191  1
  Se  Se127  1  0.74653618  0.07944784  0.05989700  1
  Se  Se128  1  0.75297842  0.09103421  0.55373220  1
  Se  Se129  1  0.75150742  0.41500672  0.04432421  1
  Se  Se130  1  0.74999477  0.42164203  0.55448512  1
  Se  Se131  1  0.76548686  0.75921194  0.05522358  1
  Se  Se132  1  0.74387740  0.74476724  0.56320156  1
  Se  Se133  1  0.24281431  0.25113487  0.05897770  1
  Se  Se134  1  0.25967862  0.25618797  0.54867426  1
  Se  Se135  1  0.25723974  0.59080570  0.04727952  1
  Se  Se136  1  0.24218147  0.57612974  0.54992609  1
  Se  Se137  1  0.25701181  0.92028408  0.05505618  1
  Se  Se138  1  0.24429253  0.91583460  0.55682540  1
  Se  Se139  1  0.57538454  0.24080753  0.04797546  1
  Se  Se140  1  0.58991960  0.25792764  0.55586543  1
  Se  Se141  1  0.59472648  0.58691984  0.05788695  1
  Se  Se142  1  0.58722982  0.58690828  0.56311143  1
  Se  Se143  1  0.58967136  0.91811249  0.06235438  1
  Se  Se144  1  0.59210427  0.92506057  0.55760687  1
  Se  Se145  1  0.92106334  0.25716389  0.06099855  1
  Se  Se146  1  0.91588338  0.25344495  0.55324162  1
  Se  Se147  1  0.91499213  0.57759717  0.05750302  1
  Se  Se148  1  0.91296497  0.58000265  0.55367157  1
  Se  Se149  1  0.91836316  0.91451166  0.04429628  1
  Se  Se150  1  0.92532876  0.92566840  0.56576519  1
  Se  Se151  1  0.08149989  0.25225797  0.44567804  1
  Se  Se152  1  0.08441321  0.25276245  0.95060155  1
  Se  Se153  1  0.08289827  0.57915827  0.44503816  1
  Se  Se154  1  0.08470379  0.57963209  0.94786269  1
  Se  Se155  1  0.08211553  0.91733659  0.44934368  1
  Se  Se156  1  0.07589875  0.92062982  0.92987041  1
  Se  Se157  1  0.41491182  0.26230770  0.44124102  1
  Se  Se158  1  0.41491917  0.25336491  0.94972827  1
  Se  Se159  1  0.40548702  0.59367658  0.43884647  1
  Se  Se160  1  0.41569884  0.59073853  0.94206531  1
  Se  Se161  1  0.40294998  0.92834491  0.44425037  1
  Se  Se162  1  0.40792413  0.92431142  0.94019409  1
  Se  Se163  1  0.75468230  0.24828343  0.44416759  1
  Se  Se164  1  0.74594167  0.25601063  0.93395154  1
  Se  Se165  1  0.75030710  0.57778415  0.44664991  1
  Se  Se166  1  0.75718050  0.56302079  0.94880019  1
  Se  Se167  1  0.74510556  0.91948514  0.44069086  1
  Se  Se168  1  0.75201115  0.91733918  0.94914687  1
  Se  Se169  1  0.24471251  0.09046717  0.45181827  1
  Se  Se170  1  0.24096329  0.08275289  0.95037302  1
  Se  Se171  1  0.24710949  0.41724351  0.44807175  1
  Se  Se172  1  0.24704679  0.42067409  0.95303643  1
  Se  Se173  1  0.23999551  0.75586109  0.44600495  1
  Se  Se174  1  0.25529881  0.73952067  0.93970146  1
  Se  Se175  1  0.58951828  0.08146888  0.43694623  1
  Se  Se176  1  0.58391269  0.08503560  0.94566798  1
  Se  Se177  1  0.58881242  0.41302254  0.43885370  1
  Se  Se178  1  0.58761120  0.40895984  0.93441235  1
  Se  Se179  1  0.58651455  0.74225840  0.44421955  1
  Se  Se180  1  0.59991732  0.73917169  0.94937968  1
  Se  Se181  1  0.91585721  0.08321910  0.45136819  1
  Se  Se182  1  0.92409824  0.08124915  0.93497281  1
  Se  Se183  1  0.91186132  0.42003991  0.44445300  1
  Se  Se184  1  0.91649521  0.41779339  0.94864911  1
  Se  Se185  1  0.91898918  0.74334670  0.44025402  1
  Se  Se186  1  0.91475887  0.74417220  0.94845719  1
  Se  Se187  1  0.25209599  0.25785850  0.30472447  1
  Se  Se188  1  0.24989013  0.24773285  0.81823070  1
  Se  Se189  1  0.24475936  0.58247718  0.30922680  1
  Se  Se190  1  0.24418179  0.57313503  0.80934818  1
  Se  Se191  1  0.24255365  0.91352182  0.30625234  1
  Se  Se192  1  0.25005659  0.91561674  0.79903533  1
  Se  Se193  1  0.58796004  0.25544572  0.29685113  1
  Se  Se194  1  0.58103232  0.25022861  0.79965740  1
  Se  Se195  1  0.58844550  0.58235816  0.29703139  1
  Se  Se196  1  0.58773127  0.57888923  0.79785284  1
  Se  Se197  1  0.59061773  0.92296330  0.29995195  1
  Se  Se198  1  0.59039838  0.91796278  0.80809535  1
  Se  Se199  1  0.91754307  0.24697781  0.30334462  1
  Se  Se200  1  0.91912474  0.25657871  0.79965192  1
  Se  Se201  1  0.91962888  0.58292270  0.30297188  1
  Se  Se202  1  0.91810475  0.58488753  0.80825325  1
  Se  Se203  1  0.90648882  0.90863057  0.31058057  1
  Se  Se204  1  0.90981187  0.91191015  0.81287443  1
  Se  Se205  1  0.08817514  0.08778105  0.31014704  1
  Se  Se206  1  0.08947209  0.09652584  0.80526962  1
  Se  Se207  1  0.07889268  0.41263906  0.30519671  1
  Se  Se208  1  0.07915548  0.41319218  0.80732501  1
  Se  Se209  1  0.07751346  0.74863622  0.30122448  1
  Se  Se210  1  0.08128509  0.74365446  0.79723314  1
  Se  Se211  1  0.42369015  0.09710169  0.31383718  1
  Se  Se212  1  0.41559742  0.08621248  0.80892932  1
  Se  Se213  1  0.41861960  0.42115171  0.29988021  1
  Se  Se214  1  0.42359895  0.42557284  0.80700735  1
  Se  Se215  1  0.42814483  0.76071003  0.30600511  1
  Se  Se216  1  0.42931849  0.75105363  0.81703466  1
  Se  Se217  1  0.74913520  0.08246185  0.30063425  1
  Se  Se218  1  0.74783088  0.08642672  0.79920545  1
  Se  Se219  1  0.75234750  0.41337981  0.30247844  1
  Se  Se220  1  0.75266839  0.41463085  0.79983421  1
  Se  Se221  1  0.74696399  0.74368936  0.30402669  1
  Se  Se222  1  0.75065491  0.74487856  0.81103433  1
  Se  Se223  1  0.24352306  0.09451847  0.19113703  1
  Se  Se224  1  0.26095166  0.06685895  0.70297010  1
  Se  Se225  1  0.24977409  0.41745367  0.20072215  1
  Se  Se226  1  0.24319563  0.41991022  0.69019744  1
  Se  Se227  1  0.24166152  0.75343010  0.18822248  1
  Se  Se228  1  0.24290299  0.74825685  0.68811807  1
  Se  Se229  1  0.58548123  0.08633248  0.19469479  1
  Se  Se230  1  0.58607075  0.08071613  0.69705603  1
  Se  Se231  1  0.59065541  0.41418073  0.19080313  1
  Se  Se232  1  0.58056115  0.41697182  0.70350394  1
  Se  Se233  1  0.58938899  0.74498148  0.19773691  1
  Se  Se234  1  0.58787778  0.74638103  0.70230935  1
  Se  Se235  1  0.90936738  0.08854546  0.18526503  1
  Se  Se236  1  0.91278988  0.09429652  0.68973665  1
  Se  Se237  1  0.91851902  0.41147467  0.19740048  1
  Se  Se238  1  0.91700501  0.41500985  0.69550303  1
  Se  Se239  1  0.91785872  0.74560715  0.19744877  1
  Se  Se240  1  0.91528736  0.74765772  0.70239698  1
  Se  Se241  1  0.07812892  0.25405581  0.20082758  1
  Se  Se242  1  0.09980276  0.24955712  0.69584435  1
  Se  Se243  1  0.08016586  0.58298530  0.19969194  1
  Se  Se244  1  0.07807640  0.58190520  0.69656342  1
  Se  Se245  1  0.08781727  0.91335735  0.18603704  1
  Se  Se246  1  0.08578157  0.91142569  0.68840378  1
  Se  Se247  1  0.41534774  0.25229071  0.19490810  1
  Se  Se248  1  0.41905440  0.23823288  0.68596552  1
  Se  Se249  1  0.42429652  0.57374132  0.18330248  1
  Se  Se250  1  0.42204232  0.57362957  0.69279181  1
  Se  Se251  1  0.42756343  0.91743879  0.18818898  1
  Se  Se252  1  0.42065981  0.91077820  0.70303201  1
  Se  Se253  1  0.75074437  0.25315913  0.19384238  1
  Se  Se254  1  0.74787593  0.25539369  0.69355012  1
  Se  Se255  1  0.75268322  0.58002400  0.19519385  1
  Se  Se256  1  0.75146796  0.58521357  0.69993848  1
  Se  Se257  1  0.75226155  0.91785801  0.19750780  1
  Se  Se258  1  0.75113107  0.91810083  0.70068718  1
