# generated using pymatgen
data_In86Cu29Se144
_symmetry_space_group_name_H-M   'P 1'
_cell_length_a   17.58443938
_cell_length_b   17.58988382
_cell_length_c   23.44571969
_cell_angle_alpha   90.00506784
_cell_angle_beta   90.01453783
_cell_angle_gamma   90.02388420
_symmetry_Int_Tables_number   1
_chemical_formula_structural   In86Cu29Se144
_chemical_formula_sum   'In86 Cu29 Se144'
_cell_volume   7251.95353735
_cell_formula_units_Z   1
loop_
 _symmetry_equiv_pos_site_id
 _symmetry_equiv_pos_as_xyz
  1  'x, y, z'
loop_
 _atom_site_type_symbol
 _atom_site_label
 _atom_site_symmetry_multiplicity
 _atom_site_fract_x
 _atom_site_fract_y
 _atom_site_fract_z
 _atom_site_occupancy
  In  In0  1  -0.01090225  0.15787122  0.12573163  1
  In  In1  1  0.01442847  0.15747627  0.62983130  1
  In  In2  1  0.00729745  0.49415782  0.11960350  1
  In  In3  1  -0.01357913  0.49543833  0.62319851  1
  In  In4  1  -0.00626905  0.84759869  0.12463408  1
  In  In5  1  0.00294341  0.85229137  0.61771238  1
  In  In6  1  0.34167978  0.15724226  0.13388380  1
  In  In7  1  0.33052861  0.16882258  0.61989239  1
  In  In8  1  0.32700657  0.50301424  0.13744439  1
  In  In9  1  0.34199531  0.49325936  0.62319554  1
  In  In10  1  0.34151451  0.82633935  0.13471465  1
  In  In11  1  0.34413720  0.83099017  0.62914772  1
  In  In12  1  0.65530545  0.17519873  0.13397686  1
  In  In13  1  0.66550285  0.17687816  0.62304550  1
  In  In14  1  0.65632107  0.49999667  0.13093560  1
  In  In15  1  0.65214460  0.48839823  0.61488280  1
  In  In16  1  0.67726787  0.84132620  0.11614330  1
  In  In17  1  0.66095423  0.83400542  0.61065905  1
  In  In18  1  0.17099076  0.00537549  0.36938638  1
  In  In19  1  0.16907137  -0.00344035  0.86940404  1
  In  In20  1  0.16583037  0.32343484  0.37753751  1
  In  In21  1  0.17456946  0.33976094  0.86716099  1
  In  In22  1  0.19107988  0.66252512  0.37178673  1
  In  In23  1  0.16801311  0.65290528  0.87666892  1
  In  In24  1  0.49540348  0.00782764  0.37927826  1
  In  In25  1  0.49956943  0.00413955  0.88131813  1
  In  In26  1  0.49611608  0.32697566  0.37963720  1
  In  In27  1  0.49118044  0.32752712  0.86452200  1
  In  In28  1  0.48284414  0.66930272  0.38615552  1
  In  In29  1  0.50176460  0.68336176  0.87387085  1
  In  In30  1  0.82409262  -0.00359145  0.37078807  1
  In  In31  1  0.83679721  -0.00959568  0.87356166  1
  In  In32  1  0.83068757  0.34406499  0.37985737  1
  In  In33  1  0.82862594  0.32725849  0.86343457  1
  In  In34  1  0.82320043  0.67201628  0.38103335  1
  In  In35  1  0.83710793  0.67262869  0.87725495  1
  In  In36  1  0.01248930  0.16360572  0.37918748  1
  In  In37  1  -0.00235384  0.16315471  0.86589116  1
  In  In38  1  0.00102401  0.48660618  0.38154756  1
  In  In39  1  0.01376740  0.50609987  0.87435495  1
  In  In40  1  -0.01519371  0.83892733  0.37752775  1
  In  In41  1  -0.00672834  0.83750795  0.87452286  1
  In  In42  1  0.33482368  0.16923133  0.37845792  1
  In  In43  1  0.34017017  0.16940221  0.87026030  1
  In  In44  1  0.33888136  0.50364855  0.37136301  1
  In  In45  1  0.32849953  0.49192146  0.86562342  1
  In  In46  1  0.33699079  0.83888632  0.37181121  1
  In  In47  1  0.34457775  0.84454097  0.86570792  1
  In  In48  1  0.64621746  0.14796058  0.37042590  1
  In  In49  1  0.65108285  0.16415439  0.87422702  1
  In  In50  1  0.66897604  0.49139678  0.37663074  1
  In  In51  1  0.67178395  0.49496669  0.87288354  1
  In  In52  1  0.64650311  0.86097521  0.39488116  1
  In  In53  1  0.66204892  0.83364935  0.88941967  1
  In  In54  1  0.16233232  0.00306684  0.13404523  1
  In  In55  1  0.15860908  0.01468584  0.62710422  1
  In  In56  1  0.17371263  0.34642612  0.12387909  1
  In  In57  1  0.18665863  0.31456950  0.63283253  1
  In  In58  1  0.18224119  0.66246955  0.12715918  1
  In  In59  1  0.17757574  0.67175056  0.62823694  1
  In  In60  1  0.49892906  0.00099498  0.12889856  1
  In  In61  1  0.49239991  -0.01275783  0.60988072  1
  In  In62  1  0.49996046  0.32877890  0.13373807  1
  In  In63  1  0.49265732  0.33429031  0.61908240  1
  In  In64  1  0.49197973  0.66834964  0.12414293  1
  In  In65  1  0.48811757  0.66192559  0.61039380  1
  In  In66  1  0.83693550  -0.01118377  0.13334312  1
  In  In67  1  0.84705430  0.00406385  0.61839337  1
  In  In68  1  0.83179167  0.32300415  0.12807534  1
  In  In69  1  0.82124048  0.33901739  0.62990453  1
  In  In70  1  0.82075647  0.68725829  0.12366311  1
  In  In71  1  0.83186487  0.66456435  0.61745995  1
  In  In72  1  0.66186772  0.66824728  0.24891964  1
  In  In73  1  0.82857099  0.16263424  -0.00579039  1
  In  In74  1  0.82906349  0.16760816  0.49997622  1
  In  In75  1  0.16922898  0.83620167  0.49429421  1
  In  In76  1  0.66323050  0.66639320  0.75210718  1
  In  In77  1  0.17195477  0.49407580  0.50220917  1
  In  In78  1  0.17094672  0.83091893  0.00166099  1
  In  In79  1  0.00637507  0.32602512  0.25749683  1
  In  In80  1  0.16861580  0.16282544  0.00776379  1
  In  In81  1  0.83494391  0.50712476  -0.00626258  1
  In  In82  1  0.00880645  0.66710366  0.25011608  1
  In  In83  1  0.00272876  0.67114789  0.75554032  1
  In  In84  1  0.66772525  0.00471991  0.74828801  1
  In  In85  1  0.49758228  0.50745106  0.00670364  1
  Cu  Cu86  1  0.66122144  0.33227496  0.49972761  1
  Cu  Cu87  1  0.33686300  0.33522804  -0.00845572  1
  Cu  Cu88  1  0.49804667  0.83495262  0.74607912  1
  Cu  Cu89  1  0.83902347  0.16847974  0.74238080  1
  Cu  Cu90  1  0.49550560  0.16759066  0.74610759  1
  Cu  Cu91  1  0.16668456  0.49771699  0.74830107  1
  Cu  Cu92  1  0.49663497  0.49696142  0.73900058  1
  Cu  Cu93  1  0.33984428  -0.00278609  0.00309649  1
  Cu  Cu94  1  0.00108926  0.66163591  0.49920434  1
  Cu  Cu95  1  0.32611213  0.00338224  0.49748608  1
  Cu  Cu96  1  0.16940124  0.16674407  0.25263510  1
  Cu  Cu97  1  0.00982560  0.33554787  -0.00610224  1
  Cu  Cu98  1  0.82634434  0.49239083  0.74563257  1
  Cu  Cu99  1  0.82672307  0.16337785  0.25059761  1
  Cu  Cu100  1  0.82328851  0.84199577  0.25601246  1
  Cu  Cu101  1  0.49474827  0.16673502  0.25623845  1
  Cu  Cu102  1  0.33478458  0.66481528  0.00227629  1
  Cu  Cu103  1  -0.00047182  0.32858998  0.50549216  1
  Cu  Cu104  1  0.17128383  0.16720946  0.75040620  1
  Cu  Cu105  1  0.00203763  0.67031183  -0.00258829  1
  Cu  Cu106  1  0.17479918  0.84084068  0.74444362  1
  Cu  Cu107  1  0.16820297  0.83413074  0.25136550  1
  Cu  Cu108  1  0.83779062  0.83946393  0.74661523  1
  Cu  Cu109  1  0.66355376  0.00653356  0.00488204  1
  Cu  Cu110  1  0.50030702  0.83924570  0.25758646  1
  Cu  Cu111  1  0.65792757  0.33881472  0.00704986  1
  Cu  Cu112  1  0.49998117  0.49428379  0.25404376  1
  Cu  Cu113  1  0.83798404  0.49878032  0.25611365  1
  Cu  Cu114  1  0.66974890  0.66051489  0.49457750  1
  Se  Se115  1  0.07108570  0.06992968  0.05689291  1
  Se  Se116  1  0.07333733  0.07606050  0.55021900  1
  Se  Se117  1  0.09052703  0.41786126  0.04866255  1
  Se  Se118  1  0.08211380  0.40818658  0.56539109  1
  Se  Se119  1  0.07933116  0.74392267  0.06507902  1
  Se  Se120  1  0.07953836  0.74277119  0.55898245  1
  Se  Se121  1  0.41857930  0.08481947  0.05667811  1
  Se  Se122  1  0.41297188  0.08375608  0.55084329  1
  Se  Se123  1  0.40993044  0.41178649  0.06139315  1
  Se  Se124  1  0.42786279  0.42948831  0.54827147  1
  Se  Se125  1  0.41336224  0.75267500  0.05433765  1
  Se  Se126  1  0.43001940  0.77178227  0.55198551  1
  Se  Se127  1  0.74490917  0.08467647  0.06613180  1
  Se  Se128  1  0.74031115  0.07598286  0.55924360  1
  Se  Se129  1  0.74813008  0.41557514  0.05987527  1
  Se  Se130  1  0.74961609  0.41407449  0.55098082  1
  Se  Se131  1  0.74947779  0.75451773  0.04469812  1
  Se  Se132  1  0.74859917  0.74596151  0.55012989  1
  Se  Se133  1  0.26308577  0.25573115  0.05934676  1
  Se  Se134  1  0.24654073  0.24664091  0.54851836  1
  Se  Se135  1  0.25633749  0.57792778  0.05551932  1
  Se  Se136  1  0.25917933  0.59185942  0.55674062  1
  Se  Se137  1  0.25579357  0.92273942  0.06431880  1
  Se  Se138  1  0.25187945  0.92216280  0.56246734  1
  Se  Se139  1  0.57791836  0.25172943  0.05814819  1
  Se  Se140  1  0.57849605  0.24844639  0.55216650  1
  Se  Se141  1  0.59646437  0.59698604  0.05902024  1
  Se  Se142  1  0.58266711  0.58297284  0.54915413  1
  Se  Se143  1  0.58061348  0.92067985  0.05662842  1
  Se  Se144  1  0.59124018  0.92516919  0.54284816  1
  Se  Se145  1  0.92524646  0.25773729  0.05237610  1
  Se  Se146  1  0.91725273  0.25164111  0.56629038  1
  Se  Se147  1  0.92066214  0.59378836  0.06198936  1
  Se  Se148  1  0.91496837  0.57954547  0.55060168  1
  Se  Se149  1  0.90591386  0.91478738  0.05384671  1
  Se  Se150  1  0.90374978  0.90585554  0.54855910  1
  Se  Se151  1  0.08397988  0.24912570  0.45152790  1
  Se  Se152  1  0.08495801  0.24827681  0.93742053  1
  Se  Se153  1  0.08573635  0.58918584  0.43858169  1
  Se  Se154  1  0.08623122  0.58164792  0.95219696  1
  Se  Se155  1  0.07619657  0.92596250  0.43988458  1
  Se  Se156  1  0.08091596  0.92192730  0.94367861  1
  Se  Se157  1  0.43046040  0.23200195  0.44890647  1
  Se  Se158  1  0.42047082  0.24940356  0.94291211  1
  Se  Se159  1  0.41849661  0.56878902  0.45083225  1
  Se  Se160  1  0.41109426  0.58719105  0.93639646  1
  Se  Se161  1  0.41106260  0.91986598  0.44574233  1
  Se  Se162  1  0.41876032  0.91338753  0.94655359  1
  Se  Se163  1  0.73820829  0.25197070  0.43665583  1
  Se  Se164  1  0.73769243  0.26162262  0.94240659  1
  Se  Se165  1  0.75379295  0.57390049  0.44485756  1
  Se  Se166  1  0.73648497  0.59615693  0.94089903  1
  Se  Se167  1  0.77008378  0.90183555  0.44544642  1
  Se  Se168  1  0.74670302  0.92728888  0.94693559  1
  Se  Se169  1  0.24377438  0.08641766  0.44407535  1
  Se  Se170  1  0.25731190  0.07609341  0.94343711  1
  Se  Se171  1  0.25886133  0.40674951  0.44076400  1
  Se  Se172  1  0.25021194  0.41862930  0.94283466  1
  Se  Se173  1  0.26638437  0.74231240  0.44728916  1
  Se  Se174  1  0.25928068  0.74535619  0.93754930  1
  Se  Se175  1  0.58880553  0.07112371  0.45256498  1
  Se  Se176  1  0.57963950  0.08869214  0.95137557  1
  Se  Se177  1  0.58028976  0.41638760  0.44499511  1
  Se  Se178  1  0.58089913  0.41493328  0.94179049  1
  Se  Se179  1  0.58436400  0.74465914  0.44431668  1
  Se  Se180  1  0.57644134  0.75083152  0.95223959  1
  Se  Se181  1  0.91776870  0.07893510  0.43950562  1
  Se  Se182  1  0.92657547  0.07525602  0.94217544  1
  Se  Se183  1  0.91689180  0.41400997  0.45386577  1
  Se  Se184  1  0.92100688  0.40914030  0.93574070  1
  Se  Se185  1  0.91799059  0.74535183  0.44631975  1
  Se  Se186  1  0.91816544  0.75356074  0.94662742  1
  Se  Se187  1  0.25078715  0.24950747  0.30622465  1
  Se  Se188  1  0.25567221  0.25118136  0.80285963  1
  Se  Se189  1  0.25320186  0.57658246  0.29847401  1
  Se  Se190  1  0.24887495  0.58416049  0.80045169  1
  Se  Se191  1  0.25203394  0.91870239  0.30295490  1
  Se  Se192  1  0.25728407  0.92443672  0.79921253  1
  Se  Se193  1  0.58192601  0.25014078  0.30651630  1
  Se  Se194  1  0.58299135  0.24824283  0.79958903  1
  Se  Se195  1  0.57638656  0.58043406  0.31300366  1
  Se  Se196  1  0.57054557  0.57295961  0.80866306  1
  Se  Se197  1  0.58169240  0.92514852  0.30883870  1
  Se  Se198  1  0.58246146  0.90958805  0.80875746  1
  Se  Se199  1  0.90782510  0.24111183  0.31398076  1
  Se  Se200  1  0.92088500  0.25193515  0.79878594  1
  Se  Se201  1  0.91736378  0.58009630  0.31349893  1
  Se  Se202  1  0.90528698  0.57419996  0.80692930  1
  Se  Se203  1  0.91711630  0.92181264  0.30161261  1
  Se  Se204  1  0.92255089  0.92076199  0.79927564  1
  Se  Se205  1  0.08057602  0.08409938  0.30126718  1
  Se  Se206  1  0.08717454  0.08183684  0.80255377  1
  Se  Se207  1  0.09537684  0.42506374  0.30792980  1
  Se  Se208  1  0.08088796  0.41786056  0.80227915  1
  Se  Se209  1  0.09178734  0.75679985  0.31645215  1
  Se  Se210  1  0.09814381  0.76187731  0.81126024  1
  Se  Se211  1  0.40996898  0.08159983  0.30650773  1
  Se  Se212  1  0.42235865  0.08074053  0.80540040  1
  Se  Se213  1  0.41774693  0.41085523  0.30731557  1
  Se  Se214  1  0.41415201  0.41469130  0.79640821  1
  Se  Se215  1  0.41822554  0.74923876  0.30581198  1
  Se  Se216  1  0.41646107  0.74891611  0.79879855  1
  Se  Se217  1  0.74270016  0.07993286  0.30276826  1
  Se  Se218  1  0.75975098  0.09402871  0.81028152  1
  Se  Se219  1  0.75091061  0.41427010  0.30254242  1
  Se  Se220  1  0.74103968  0.41140191  0.79928235  1
  Se  Se221  1  0.74264642  0.76024207  0.31329419  1
  Se  Se222  1  0.75521734  0.76267115  0.80780877  1
  Se  Se223  1  0.25101324  0.08002420  0.20016943  1
  Se  Se224  1  0.25281635  0.08563279  0.69377145  1
  Se  Se225  1  0.25602030  0.40642944  0.20131987  1
  Se  Se226  1  0.25286670  0.41952616  0.69321539  1
  Se  Se227  1  0.25105017  0.74755250  0.20062912  1
  Se  Se228  1  0.25726088  0.75162958  0.69832132  1
  Se  Se229  1  0.57866706  0.08511333  0.20008428  1
  Se  Se230  1  0.57443443  0.08581915  0.68597726  1
  Se  Se231  1  0.58546301  0.41337938  0.20081580  1
  Se  Se232  1  0.58161978  0.41056032  0.69191450  1
  Se  Se233  1  0.57598987  0.76235602  0.19007972  1
  Se  Se234  1  0.57866303  0.75403527  0.68690902  1
  Se  Se235  1  0.91394608  0.08126219  0.20006083  1
  Se  Se236  1  0.92066734  0.07932077  0.69540603  1
  Se  Se237  1  0.91634303  0.41914848  0.19343907  1
  Se  Se238  1  0.91672386  0.41182751  0.69761861  1
  Se  Se239  1  0.90703756  0.75814860  0.19933132  1
  Se  Se240  1  0.91505770  0.75373377  0.68859494  1
  Se  Se241  1  0.08919028  0.24130889  0.18625363  1
  Se  Se242  1  0.08520228  0.25070285  0.69824305  1
  Se  Se243  1  0.09319682  0.57111980  0.19245617  1
  Se  Se244  1  0.08512759  0.57951209  0.68923928  1
  Se  Se245  1  0.08079241  0.91375293  0.19857190  1
  Se  Se246  1  0.08439384  0.91906972  0.69454077  1
  Se  Se247  1  0.41246296  0.25087430  0.20164631  1
  Se  Se248  1  0.41388045  0.25080067  0.69083052  1
  Se  Se249  1  0.42436821  0.58173208  0.19716773  1
  Se  Se250  1  0.41710461  0.58763828  0.69045299  1
  Se  Se251  1  0.41581606  0.91935518  0.19988188  1
  Se  Se252  1  0.42002144  0.92520401  0.69514069  1
  Se  Se253  1  0.74760713  0.25335420  0.20032560  1
  Se  Se254  1  0.74594869  0.24905324  0.69850204  1
  Se  Se255  1  0.76186414  0.57900584  0.19190234  1
  Se  Se256  1  0.74864799  0.57668608  0.68790879  1
  Se  Se257  1  0.73869468  0.91935436  0.19853441  1
  Se  Se258  1  0.75180062  0.91170697  0.68604063  1
