# generated using pymatgen
data_In86Cu29Se144
_symmetry_space_group_name_H-M   'P 1'
_cell_length_a   17.58589882
_cell_length_b   17.58555229
_cell_length_c   23.44348596
_cell_angle_alpha   90.00221017
_cell_angle_beta   90.00810837
_cell_angle_gamma   89.99978681
_symmetry_Int_Tables_number   1
_chemical_formula_structural   In86Cu29Se144
_chemical_formula_sum   'In86 Cu29 Se144'
_cell_volume   7250.07948692
_cell_formula_units_Z   1
loop_
 _symmetry_equiv_pos_site_id
 _symmetry_equiv_pos_as_xyz
  1  'x, y, z'
loop_
 _atom_site_type_symbol
 _atom_site_label
 _atom_site_symmetry_multiplicity
 _atom_site_fract_x
 _atom_site_fract_y
 _atom_site_fract_z
 _atom_site_occupancy
  In  In0  1  -0.00419514  0.16907443  0.13204815  1
  In  In1  1  -0.00619787  0.15956420  0.61395200  1
  In  In2  1  -0.00639123  0.50031508  0.13908120  1
  In  In3  1  0.00608878  0.50837199  0.60822056  1
  In  In4  1  0.00066381  0.83301708  0.13046199  1
  In  In5  1  0.00285829  0.82718095  0.62834752  1
  In  In6  1  0.34509064  0.16020535  0.12663464  1
  In  In7  1  0.33350979  0.16157869  0.62456345  1
  In  In8  1  0.32272761  0.50038445  0.13460435  1
  In  In9  1  0.33160970  0.49934075  0.61485622  1
  In  In10  1  0.33928004  0.84002735  0.11596008  1
  In  In11  1  0.34505589  0.84548491  0.61806048  1
  In  In12  1  0.65175711  0.15906070  0.11630442  1
  In  In13  1  0.66121453  0.15720662  0.61732633  1
  In  In14  1  0.67791543  0.49950771  0.13217442  1
  In  In15  1  0.66152383  0.49419296  0.61075770  1
  In  In16  1  0.66596606  0.83699458  0.12948218  1
  In  In17  1  0.67107853  0.84692705  0.62649504  1
  In  In18  1  0.16046791  0.01107125  0.38494597  1
  In  In19  1  0.15212751  -0.01619611  0.86410117  1
  In  In20  1  0.16326777  0.32910608  0.38087956  1
  In  In21  1  0.16565064  0.33551491  0.87331167  1
  In  In22  1  0.15755760  0.67986430  0.38112140  1
  In  In23  1  0.17332812  0.68519909  0.86938647  1
  In  In24  1  0.50934996  -0.00894522  0.38202634  1
  In  In25  1  0.50099376  0.00240250  0.86889770  1
  In  In26  1  0.49028817  0.33539417  0.37815745  1
  In  In27  1  0.49605466  0.32728707  0.87589125  1
  In  In28  1  0.51832118  0.66203180  0.38942765  1
  In  In29  1  0.51067754  0.67979393  0.87435388  1
  In  In30  1  0.84089955  0.00725429  0.36719007  1
  In  In31  1  0.84443652  0.00809677  0.87122280  1
  In  In32  1  0.85049133  0.32316821  0.39008734  1
  In  In33  1  0.82220495  0.31676793  0.87436279  1
  In  In34  1  0.82475586  0.65609423  0.37115362  1
  In  In35  1  0.83789041  0.65841167  0.87224569  1
  In  In36  1  0.00162166  0.16575537  0.37680780  1
  In  In37  1  -0.00594739  0.14727607  0.87551976  1
  In  In38  1  -0.00238091  0.49981181  0.38033447  1
  In  In39  1  -0.00898484  0.50633015  0.87139232  1
  In  In40  1  0.00835111  0.84284281  0.36735513  1
  In  In41  1  0.01087618  0.84233051  0.86979181  1
  In  In42  1  0.32421416  0.17510672  0.38194795  1
  In  In43  1  0.35140705  0.15736361  0.87488970  1
  In  In44  1  0.34273617  0.49023440  0.38087241  1
  In  In45  1  0.32941878  0.48846400  0.87028114  1
  In  In46  1  0.33730778  0.83363899  0.38466969  1
  In  In47  1  0.32714928  0.84640813  0.87661684  1
  In  In48  1  0.67660547  0.15697839  0.37922523  1
  In  In49  1  0.67983562  0.16030031  0.88321124  1
  In  In50  1  0.66542124  0.50774183  0.38507185  1
  In  In51  1  0.66627213  0.50412342  0.87188450  1
  In  In52  1  0.66180654  0.82877974  0.36992176  1
  In  In53  1  0.64479236  0.83319017  0.88323839  1
  In  In54  1  0.16520664  -0.00871144  0.12395189  1
  In  In55  1  0.16746336  -0.00247496  0.62305321  1
  In  In56  1  0.15994138  0.33575491  0.14038332  1
  In  In57  1  0.15638502  0.33063668  0.60550760  1
  In  In58  1  0.15678768  0.67210894  0.13042237  1
  In  In59  1  0.15840686  0.66184726  0.61288325  1
  In  In60  1  0.50503298  0.00537762  0.11857406  1
  In  In61  1  0.50632950  0.00629208  0.62960566  1
  In  In62  1  0.50156607  0.31617389  0.13079809  1
  In  In63  1  0.50034861  0.33070334  0.61839789  1
  In  In64  1  0.50457290  0.68011477  0.12409103  1
  In  In65  1  0.49759788  0.65795058  0.61456989  1
  In  In66  1  0.82959000  0.00457222  0.13052505  1
  In  In67  1  0.82454693  0.00600262  0.63037391  1
  In  In68  1  0.84036567  0.33545976  0.12906539  1
  In  In69  1  0.83757034  0.32535720  0.60361879  1
  In  In70  1  0.83311103  0.66648450  0.13719126  1
  In  In71  1  0.83837854  0.67718462  0.62158661  1
  In  In72  1  0.17119582  0.16317211  0.00203632  1
  In  In73  1  0.32901366  0.66833134  0.73594686  1
  In  In74  1  0.67046020  0.33129760  0.25545169  1
  In  In75  1  0.33042126  0.00308659  0.24890388  1
  In  In76  1  -0.00087385  0.33395659  0.73003219  1
  In  In77  1  0.33473115  0.32885783  0.73910651  1
  In  In78  1  0.66789949  0.67212878  0.75128553  1
  In  In79  1  0.49823661  0.50105529  -0.00305890  1
  In  In80  1  0.33418711  0.66540956  0.25938784  1
  In  In81  1  0.83186016  0.49643719  0.00567769  1
  In  In82  1  0.83135646  0.83335764  0.00852732  1
  In  In83  1  0.15991278  0.50949981  0.01434851  1
  In  In84  1  0.82571383  0.83068640  0.49910892  1
  In  In85  1  0.66649849  0.32797276  0.74652944  1
  Cu  Cu86  1  0.83734178  0.50765561  0.74404808  1
  Cu  Cu87  1  0.83683813  0.83136013  0.25167641  1
  Cu  Cu88  1  0.33797552  0.67816223  -0.00558701  1
  Cu  Cu89  1  0.15866085  0.17013859  0.26058131  1
  Cu  Cu90  1  -0.00483852  0.67106502  0.49706161  1
  Cu  Cu91  1  0.00631445  0.67577225  0.00213046  1
  Cu  Cu92  1  0.33535197  0.33185511  0.00355262  1
  Cu  Cu93  1  0.83574170  0.49764380  0.25978867  1
  Cu  Cu94  1  0.50252897  0.50338403  0.26160231  1
  Cu  Cu95  1  0.16268749  0.49440645  0.25884837  1
  Cu  Cu96  1  0.83535207  0.83862707  0.75103066  1
  Cu  Cu97  1  0.16606463  0.83578268  0.25147676  1
  Cu  Cu98  1  0.17393089  0.15701635  0.74823472  1
  Cu  Cu99  1  0.83284625  0.16432695  0.25336798  1
  Cu  Cu100  1  0.49748990  0.83756144  0.74813111  1
  Cu  Cu101  1  0.83610938  0.16367271  0.74671801  1
  Cu  Cu102  1  -0.00162727  -0.00369628  0.49743214  1
  Cu  Cu103  1  0.33779999  0.00197665  0.50398232  1
  Cu  Cu104  1  0.66440104  0.33134614  0.49289840  1
  Cu  Cu105  1  0.33820468  -0.00039075  -0.00498232  1
  Cu  Cu106  1  0.49819474  0.16081196  0.24929084  1
  Cu  Cu107  1  0.16050841  0.83629157  0.74606243  1
  Cu  Cu108  1  0.15764237  0.50583125  0.73823327  1
  Cu  Cu109  1  -0.00787119  0.32309197  0.00377007  1
  Cu  Cu110  1  0.51136725  0.83401186  0.25340699  1
  Cu  Cu111  1  0.33620792  0.32809552  0.49992919  1
  Cu  Cu112  1  0.66724019  0.00405852  0.50318916  1
  Cu  Cu113  1  0.66338521  -0.00608319  -0.00022214  1
  Cu  Cu114  1  0.32822756  0.66454043  0.49752852  1
  Se  Se115  1  0.07620593  0.07962161  0.05981571  1
  Se  Se116  1  0.08457018  0.07743471  0.55145857  1
  Se  Se117  1  0.06907763  0.40841558  0.06279942  1
  Se  Se118  1  0.08101750  0.42035932  0.54127885  1
  Se  Se119  1  0.08730289  0.75746616  0.05725726  1
  Se  Se120  1  0.07892356  0.75551895  0.54958476  1
  Se  Se121  1  0.41826051  0.08520613  0.04979163  1
  Se  Se122  1  0.42283264  0.08454750  0.55681087  1
  Se  Se123  1  0.40979734  0.41628695  0.06446101  1
  Se  Se124  1  0.41833062  0.41532995  0.55121746  1
  Se  Se125  1  0.42315720  0.75485719  0.05070903  1
  Se  Se126  1  0.41190987  0.74556575  0.55320993  1
  Se  Se127  1  0.74489753  0.07591248  0.05623803  1
  Se  Se128  1  0.75830722  0.08580158  0.55122453  1
  Se  Se129  1  0.73903295  0.40324079  0.05924491  1
  Se  Se130  1  0.74966857  0.41444258  0.54511497  1
  Se  Se131  1  0.74420089  0.73641946  0.06289301  1
  Se  Se132  1  0.73236015  0.74277451  0.55773548  1
  Se  Se133  1  0.25182047  0.25865237  0.06618215  1
  Se  Se134  1  0.25371645  0.24469525  0.55359060  1
  Se  Se135  1  0.26274713  0.60114283  0.06121420  1
  Se  Se136  1  0.24475541  0.57842179  0.54791817  1
  Se  Se137  1  0.25262436  0.92197971  0.05131667  1
  Se  Se138  1  0.24991402  0.91624534  0.55181873  1
  Se  Se139  1  0.57707698  0.25272478  0.05191271  1
  Se  Se140  1  0.58515925  0.24901026  0.55164882  1
  Se  Se141  1  0.58901264  0.58222133  0.06253241  1
  Se  Se142  1  0.58054227  0.58003500  0.54627567  1
  Se  Se143  1  0.58274606  0.91089692  0.05551586  1
  Se  Se144  1  0.58432865  0.92076153  0.55657980  1
  Se  Se145  1  0.91047735  0.24409587  0.05907085  1
  Se  Se146  1  0.94140604  0.26104588  0.54427758  1
  Se  Se147  1  0.92676495  0.59103737  0.06049032  1
  Se  Se148  1  0.90897155  0.59040354  0.54951502  1
  Se  Se149  1  0.92367367  0.92571193  0.06092625  1
  Se  Se150  1  0.91631424  0.91956855  0.56023468  1
  Se  Se151  1  0.09092431  0.23596449  0.44743099  1
  Se  Se152  1  0.07771668  0.25416496  0.94088333  1
  Se  Se153  1  0.08212386  0.58746395  0.44674981  1
  Se  Se154  1  0.08060796  0.59166827  0.93951045  1
  Se  Se155  1  0.08423253  0.91309136  0.44671898  1
  Se  Se156  1  0.08255437  0.91843321  0.94658444  1
  Se  Se157  1  0.42138012  0.24380344  0.44872558  1
  Se  Se158  1  0.41473575  0.24975925  0.94787586  1
  Se  Se159  1  0.41689680  0.58437918  0.44600680  1
  Se  Se160  1  0.40554789  0.58988948  0.93356578  1
  Se  Se161  1  0.42041306  0.91694136  0.45126291  1
  Se  Se162  1  0.42314417  0.91697018  0.94182249  1
  Se  Se163  1  0.75223349  0.24421459  0.44856692  1
  Se  Se164  1  0.74778169  0.25290414  0.95315132  1
  Se  Se165  1  0.74490824  0.59567677  0.45106246  1
  Se  Se166  1  0.74410966  0.58998930  0.94484798  1
  Se  Se167  1  0.74565688  0.92693202  0.43787760  1
  Se  Se168  1  0.74784858  0.91830705  0.93901861  1
  Se  Se169  1  0.25254828  0.08414968  0.45127583  1
  Se  Se170  1  0.25217818  0.07496176  0.93484381  1
  Se  Se171  1  0.25293034  0.41227572  0.44669697  1
  Se  Se172  1  0.24894218  0.41421147  0.95071544  1
  Se  Se173  1  0.24734278  0.75452512  0.44932876  1
  Se  Se174  1  0.24792425  0.75872821  0.94566964  1
  Se  Se175  1  0.58325484  0.08571765  0.44777874  1
  Se  Se176  1  0.58463416  0.07853469  0.94280496  1
  Se  Se177  1  0.57879037  0.41605419  0.44391470  1
  Se  Se178  1  0.59174599  0.41051551  0.93965431  1
  Se  Se179  1  0.57325021  0.77335580  0.44740801  1
  Se  Se180  1  0.58728937  0.73863917  0.95489648  1
  Se  Se181  1  0.91539853  0.08099875  0.44493353  1
  Se  Se182  1  0.90542590  0.09074607  0.95029864  1
  Se  Se183  1  0.90825972  0.42947787  0.45129141  1
  Se  Se184  1  0.92141040  0.40866852  0.94007297  1
  Se  Se185  1  0.91925264  0.75163443  0.43414658  1
  Se  Se186  1  0.92035454  0.74716986  0.94084661  1
  Se  Se187  1  0.24867288  0.25233734  0.30672729  1
  Se  Se188  1  0.24669156  0.24440678  0.80834308  1
  Se  Se189  1  0.24228709  0.57717198  0.31792158  1
  Se  Se190  1  0.24165958  0.57612319  0.80295449  1
  Se  Se191  1  0.24640320  0.91312543  0.31306867  1
  Se  Se192  1  0.25000433  0.91556935  0.79790354  1
  Se  Se193  1  0.57741594  0.24041161  0.31206141  1
  Se  Se194  1  0.58328414  0.24039825  0.81171370  1
  Se  Se195  1  0.58829716  0.58679460  0.30922633  1
  Se  Se196  1  0.57166229  0.57732988  0.80373831  1
  Se  Se197  1  0.58970262  0.92524305  0.30292039  1
  Se  Se198  1  0.58575043  0.91373567  0.80274126  1
  Se  Se199  1  0.91478694  0.24765174  0.30782032  1
  Se  Se200  1  0.91797090  0.24863437  0.80264368  1
  Se  Se201  1  0.92188064  0.58476949  0.30644911  1
  Se  Se202  1  0.92115701  0.58921930  0.79660356  1
  Se  Se203  1  0.91994030  0.91954809  0.29982966  1
  Se  Se204  1  0.92165974  0.92053882  0.80304873  1
  Se  Se205  1  0.07975477  0.07710029  0.30649369  1
  Se  Se206  1  0.08142506  0.08350510  0.80095812  1
  Se  Se207  1  0.07899079  0.41277790  0.31215384  1
  Se  Se208  1  0.08455606  0.42220518  0.80198612  1
  Se  Se209  1  0.08286151  0.74801865  0.30043016  1
  Se  Se210  1  0.08054394  0.74891092  0.79902058  1
  Se  Se211  1  0.41895991  0.08553555  0.31457240  1
  Se  Se212  1  0.41583091  0.07866417  0.79791413  1
  Se  Se213  1  0.41534043  0.41436534  0.30208869  1
  Se  Se214  1  0.42501967  0.42022258  0.80204047  1
  Se  Se215  1  0.42827842  0.75615882  0.31344512  1
  Se  Se216  1  0.41587512  0.75367288  0.80485461  1
  Se  Se217  1  0.74515271  0.07944512  0.30026073  1
  Se  Se218  1  0.75337713  0.08552396  0.80451168  1
  Se  Se219  1  0.75612181  0.41707015  0.32001878  1
  Se  Se220  1  0.76163164  0.42390887  0.80483522  1
  Se  Se221  1  0.75089246  0.74959715  0.30426006  1
  Se  Se222  1  0.75526585  0.76081643  0.81473619  1
  Se  Se223  1  0.23669601  0.09535029  0.19222667  1
  Se  Se224  1  0.25508481  0.07562574  0.69359080  1
  Se  Se225  1  0.24999966  0.41529412  0.20523332  1
  Se  Se226  1  0.23709203  0.41891650  0.68413208  1
  Se  Se227  1  0.25331872  0.75986668  0.19298573  1
  Se  Se228  1  0.23881593  0.76026846  0.68056869  1
  Se  Se229  1  0.58234822  0.08038450  0.19512109  1
  Se  Se230  1  0.60155795  0.07717103  0.69658459  1
  Se  Se231  1  0.57629045  0.42129184  0.19560579  1
  Se  Se232  1  0.57854009  0.42205582  0.68993434  1
  Se  Se233  1  0.58933893  0.74674463  0.19917932  1
  Se  Se234  1  0.57395806  0.75394990  0.68781653  1
  Se  Se235  1  0.91741363  0.08110872  0.20007437  1
  Se  Se236  1  0.92161102  0.08349906  0.69249538  1
  Se  Se237  1  0.91546958  0.41151421  0.20543666  1
  Se  Se238  1  0.90530440  0.42626199  0.67773509  1
  Se  Se239  1  0.92252766  0.74729265  0.20003279  1
  Se  Se240  1  0.91362114  0.75116800  0.69804444  1
  Se  Se241  1  0.07475207  0.25163723  0.20371260  1
  Se  Se242  1  0.09680445  0.23811319  0.68556037  1
  Se  Se243  1  0.08844021  0.58017830  0.19961176  1
  Se  Se244  1  0.07448283  0.58883396  0.68723155  1
  Se  Se245  1  0.08344606  0.91957378  0.19832608  1
  Se  Se246  1  0.07811826  0.92134226  0.69327363  1
  Se  Se247  1  0.41180674  0.24678283  0.20167516  1
  Se  Se248  1  0.43342249  0.23701123  0.69289109  1
  Se  Se249  1  0.42600776  0.58086090  0.19408094  1
  Se  Se250  1  0.42235018  0.57042992  0.69003725  1
  Se  Se251  1  0.42553987  0.91108733  0.19395932  1
  Se  Se252  1  0.41637374  0.92231150  0.69540503  1
  Se  Se253  1  0.75089295  0.24024175  0.19001789  1
  Se  Se254  1  0.76232909  0.24694889  0.68467654  1
  Se  Se255  1  0.75200548  0.58035463  0.20484155  1
  Se  Se256  1  0.74866360  0.58003205  0.68559418  1
  Se  Se257  1  0.75259590  0.91434187  0.19773614  1
  Se  Se258  1  0.74817576  0.92104903  0.70198036  1
