# generated using pymatgen
data_In86Cu29Se144
_symmetry_space_group_name_H-M   'P 1'
_cell_length_a   17.57669292
_cell_length_b   17.57723663
_cell_length_c   23.44143048
_cell_angle_alpha   90.00267526
_cell_angle_beta   90.02342267
_cell_angle_gamma   90.01190977
_symmetry_Int_Tables_number   1
_chemical_formula_structural   In86Cu29Se144
_chemical_formula_sum   'In86 Cu29 Se144'
_cell_volume   7242.22192439
_cell_formula_units_Z   1
loop_
 _symmetry_equiv_pos_site_id
 _symmetry_equiv_pos_as_xyz
  1  'x, y, z'
loop_
 _atom_site_type_symbol
 _atom_site_label
 _atom_site_symmetry_multiplicity
 _atom_site_fract_x
 _atom_site_fract_y
 _atom_site_fract_z
 _atom_site_occupancy
  In  In0  1  -0.03166298  0.18427637  0.14861097  1
  In  In1  1  -0.01441666  0.16369329  0.62851441  1
  In  In2  1  -0.00757338  0.50333757  0.12144531  1
  In  In3  1  0.01966417  0.49179281  0.62378004  1
  In  In4  1  -0.00679694  0.84069446  0.13168782  1
  In  In5  1  0.00018407  0.82607396  0.62716499  1
  In  In6  1  0.34058677  0.15661898  0.11707573  1
  In  In7  1  0.33700058  0.16341162  0.63191123  1
  In  In8  1  0.33153109  0.49092383  0.11434885  1
  In  In9  1  0.33159665  0.50181558  0.63102687  1
  In  In10  1  0.32881999  0.83676220  0.12374388  1
  In  In11  1  0.31639692  0.84458396  0.63192778  1
  In  In12  1  0.67473061  0.17116718  0.12724160  1
  In  In13  1  0.68200925  0.17328441  0.62705661  1
  In  In14  1  0.66976670  0.50099943  0.12259980  1
  In  In15  1  0.65458012  0.50308597  0.62500341  1
  In  In16  1  0.67805560  0.81135483  0.13954967  1
  In  In17  1  0.67598034  0.83020254  0.62010384  1
  In  In18  1  0.15372557  0.00042941  0.37864766  1
  In  In19  1  0.15405557  -0.00790436  0.86360262  1
  In  In20  1  0.15776124  0.34772318  0.38090806  1
  In  In21  1  0.17801577  0.33893983  0.87162218  1
  In  In22  1  0.16130324  0.67124450  0.38483111  1
  In  In23  1  0.15255439  0.65451630  0.86942985  1
  In  In24  1  0.51591860  -0.00941242  0.37235904  1
  In  In25  1  0.50539169  0.01065869  0.87466583  1
  In  In26  1  0.51274624  0.33171450  0.37437338  1
  In  In27  1  0.50286679  0.33492457  0.87661349  1
  In  In28  1  0.49722549  0.66182578  0.37319929  1
  In  In29  1  0.48721312  0.66412678  0.87243127  1
  In  In30  1  0.82638377  -0.00846253  0.36649116  1
  In  In31  1  0.84873559  -0.00707982  0.88803235  1
  In  In32  1  0.83700943  0.34153983  0.36010112  1
  In  In33  1  0.82223982  0.34557528  0.88207555  1
  In  In34  1  0.84528670  0.67671721  0.36834770  1
  In  In35  1  0.84331710  0.66626782  0.88279567  1
  In  In36  1  -0.01307367  0.16065844  0.36075338  1
  In  In37  1  0.00212489  0.15661547  0.87726410  1
  In  In38  1  -0.00076305  0.50627027  0.37110100  1
  In  In39  1  -0.01838040  0.52513854  0.89602094  1
  In  In40  1  0.00135801  0.82757961  0.37861522  1
  In  In41  1  -0.02268458  0.81920143  0.85744561  1
  In  In42  1  0.33277783  0.16653562  0.37691881  1
  In  In43  1  0.34006938  0.17685790  0.86457871  1
  In  In44  1  0.33038110  0.50876058  0.38663674  1
  In  In45  1  0.33389117  0.49927701  0.87656246  1
  In  In46  1  0.33265856  0.82388797  0.38339715  1
  In  In47  1  0.32392762  0.82714972  0.86076875  1
  In  In48  1  0.68276214  0.17480406  0.35345456  1
  In  In49  1  0.65839631  0.17588504  0.88451608  1
  In  In50  1  0.65839998  0.49713983  0.36731449  1
  In  In51  1  0.68386328  0.48628016  0.88253435  1
  In  In52  1  0.67778937  0.84584712  0.36170168  1
  In  In53  1  0.67642280  0.84120528  0.87945045  1
  In  In54  1  0.15844689  -0.00824010  0.12461795  1
  In  In55  1  0.17601355  -0.01403170  0.62468498  1
  In  In56  1  0.14970277  0.33149830  0.12485384  1
  In  In57  1  0.16457147  0.35565522  0.62411655  1
  In  In58  1  0.16099080  0.65075289  0.11979418  1
  In  In59  1  0.16496879  0.66663881  0.62775142  1
  In  In60  1  0.50349609  0.01392644  0.11922954  1
  In  In61  1  0.49354399  -0.00709347  0.62548100  1
  In  In62  1  0.51524866  0.34349194  0.11650091  1
  In  In63  1  0.48969644  0.34125978  0.63429294  1
  In  In64  1  0.51317130  0.66100015  0.12478777  1
  In  In65  1  0.50380855  0.64933089  0.62744150  1
  In  In66  1  0.83351201  0.00016547  0.12710634  1
  In  In67  1  0.84563861  -0.00710014  0.62950552  1
  In  In68  1  0.82829548  0.33489596  0.12509540  1
  In  In69  1  0.83346511  0.32564794  0.63092198  1
  In  In70  1  0.83752850  0.66379537  0.12102039  1
  In  In71  1  0.83742123  0.68057997  0.62872852  1
  In  In72  1  0.49700272  0.82733648  0.49983898  1
  In  In73  1  0.66657841  0.00490567  0.74825065  1
  In  In74  1  0.83739569  0.50435837  0.49464030  1
  In  In75  1  0.33509347  0.33148482  0.25391475  1
  In  In76  1  0.83508585  0.16961325  0.49389068  1
  In  In77  1  0.33428854  0.66886185  0.25822471  1
  In  In78  1  0.00273619  0.33903435  0.75193650  1
  In  In79  1  0.67293600  0.66006437  0.75728509  1
  In  In80  1  0.50275678  0.16830821  0.50260948  1
  In  In81  1  0.16327099  0.16548709  0.49744410  1
  In  In82  1  0.50587465  0.83474785  0.00102011  1
  In  In83  1  0.33555911  -0.00034444  0.25041244  1
  In  In84  1  0.16616714  0.16581787  -0.00154530  1
  In  In85  1  0.15744786  0.82967783  -0.00197122  1
  Cu  Cu86  1  0.66755142  0.32920794  0.00271560  1
  Cu  Cu87  1  -0.00141407  0.33675197  0.00728955  1
  Cu  Cu88  1  0.33237388  0.34304032  0.50856425  1
  Cu  Cu89  1  0.33963970  0.33140404  -0.00756029  1
  Cu  Cu90  1  0.16958640  0.50453413  0.75287600  1
  Cu  Cu91  1  0.16077510  0.82465289  0.25503684  1
  Cu  Cu92  1  0.16425059  0.83544085  0.74511182  1
  Cu  Cu93  1  0.66306249  0.34374642  0.49659611  1
  Cu  Cu94  1  0.33728622  0.00558796  -0.01204604  1
  Cu  Cu95  1  0.67411644  0.00108017  0.00411859  1
  Cu  Cu96  1  0.49766738  0.49099577  0.75246135  1
  Cu  Cu97  1  0.50168771  0.50246998  0.24717262  1
  Cu  Cu98  1  0.82645171  0.16908196  0.75855012  1
  Cu  Cu99  1  0.83877000  0.82895245  0.24861450  1
  Cu  Cu100  1  0.66966842  0.66399422  0.00511793  1
  Cu  Cu101  1  0.50787153  0.17131142  0.24402964  1
  Cu  Cu102  1  0.33052478  0.66356327  0.50862920  1
  Cu  Cu103  1  0.82936783  0.50479505  0.24296469  1
  Cu  Cu104  1  0.49604122  0.82848799  0.74543320  1
  Cu  Cu105  1  -0.00581102  0.00633318  0.00744887  1
  Cu  Cu106  1  0.15353586  0.49726645  0.24898898  1
  Cu  Cu107  1  0.49882625  0.17164639  0.75590937  1
  Cu  Cu108  1  0.66893750  0.66809639  0.49979640  1
  Cu  Cu109  1  0.67244073  0.00053805  0.48822453  1
  Cu  Cu110  1  0.15653394  0.16625290  0.24966056  1
  Cu  Cu111  1  0.00140392  -0.01263077  0.50251236  1
  Cu  Cu112  1  0.33357411  0.66044627  -0.00341245  1
  Cu  Cu113  1  0.00615227  0.66594436  0.50059009  1
  Cu  Cu114  1  0.16510070  0.16334352  0.74792988  1
  Se  Se115  1  0.07598864  0.08781260  0.06535343  1
  Se  Se116  1  0.07305312  0.07775547  0.56102773  1
  Se  Se117  1  0.08497471  0.42230609  0.05427053  1
  Se  Se118  1  0.08037127  0.40992948  0.54483402  1
  Se  Se119  1  0.07166106  0.74397086  0.06156604  1
  Se  Se120  1  0.08675003  0.75038831  0.55603924  1
  Se  Se121  1  0.42148769  0.08464628  0.04270470  1
  Se  Se122  1  0.40866357  0.07544598  0.55444042  1
  Se  Se123  1  0.42178764  0.41470257  0.04869395  1
  Se  Se124  1  0.41948974  0.42381348  0.55943913  1
  Se  Se125  1  0.40923795  0.74327641  0.05819657  1
  Se  Se126  1  0.41275118  0.74407236  0.56810581  1
  Se  Se127  1  0.75565315  0.08618497  0.05703546  1
  Se  Se128  1  0.74862659  0.07539487  0.55675247  1
  Se  Se129  1  0.75028098  0.41712089  0.05278034  1
  Se  Se130  1  0.74925387  0.41397920  0.55904135  1
  Se  Se131  1  0.75084660  0.75173919  0.05499318  1
  Se  Se132  1  0.75560485  0.74882282  0.55048691  1
  Se  Se133  1  0.25756070  0.25826234  0.05896942  1
  Se  Se134  1  0.25376428  0.25348340  0.56167744  1
  Se  Se135  1  0.24915443  0.57877355  0.05007753  1
  Se  Se136  1  0.24651820  0.57893072  0.55990356  1
  Se  Se137  1  0.25700231  0.92810180  0.05002175  1
  Se  Se138  1  0.25338633  0.91434525  0.54842650  1
  Se  Se139  1  0.58475234  0.24297954  0.05458136  1
  Se  Se140  1  0.59198585  0.26017545  0.56134637  1
  Se  Se141  1  0.58206173  0.57817091  0.05057975  1
  Se  Se142  1  0.58390509  0.58311670  0.54838917  1
  Se  Se143  1  0.59573422  0.91786401  0.06423714  1
  Se  Se144  1  0.59262440  0.92612901  0.55403541  1
  Se  Se145  1  0.91639218  0.24992128  0.05797138  1
  Se  Se146  1  0.92462822  0.26026688  0.55444372  1
  Se  Se147  1  0.90644725  0.57493522  0.04898652  1
  Se  Se148  1  0.92420387  0.58779583  0.56172859  1
  Se  Se149  1  0.91454615  0.91472867  0.05602585  1
  Se  Se150  1  0.91447657  0.90848049  0.55607943  1
  Se  Se151  1  0.06974728  0.24600364  0.43467042  1
  Se  Se152  1  0.07790247  0.26125235  0.94069631  1
  Se  Se153  1  0.08275891  0.57644420  0.44707162  1
  Se  Se154  1  0.09061170  0.58611178  0.95386973  1
  Se  Se155  1  0.08764126  0.90837147  0.44878734  1
  Se  Se156  1  0.07188582  0.92761554  0.94387601  1
  Se  Se157  1  0.40858580  0.26265058  0.44452530  1
  Se  Se158  1  0.42055263  0.24383000  0.94259753  1
  Se  Se159  1  0.41893936  0.59047919  0.45098473  1
  Se  Se160  1  0.42126592  0.57847763  0.94724714  1
  Se  Se161  1  0.41518255  0.92734892  0.44132896  1
  Se  Se162  1  0.41148452  0.91362198  0.93366401  1
  Se  Se163  1  0.74304567  0.26266947  0.43704175  1
  Se  Se164  1  0.75426611  0.24846120  0.94952637  1
  Se  Se165  1  0.74516612  0.59037226  0.43435063  1
  Se  Se166  1  0.75256350  0.58528630  0.94707664  1
  Se  Se167  1  0.75516598  0.91045876  0.44326538  1
  Se  Se168  1  0.75628568  0.91503723  0.95295567  1
  Se  Se169  1  0.25839144  0.07284706  0.44298978  1
  Se  Se170  1  0.24941688  0.07927068  0.93039189  1
  Se  Se171  1  0.24833561  0.41875384  0.44982457  1
  Se  Se172  1  0.25097099  0.41690738  0.94774481  1
  Se  Se173  1  0.24974966  0.74785869  0.45363074  1
  Se  Se174  1  0.25421443  0.74415680  0.93968893  1
  Se  Se175  1  0.59670769  0.09060476  0.43512333  1
  Se  Se176  1  0.58601534  0.07933937  0.95080113  1
  Se  Se177  1  0.57781469  0.42507117  0.44505981  1
  Se  Se178  1  0.58671649  0.41454308  0.94714430  1
  Se  Se179  1  0.59212283  0.74943740  0.43658203  1
  Se  Se180  1  0.59104596  0.74069812  0.93876744  1
  Se  Se181  1  0.92293142  0.07014108  0.44128941  1
  Se  Se182  1  0.91536994  0.09374096  0.95341732  1
  Se  Se183  1  0.92197794  0.40681321  0.43883971  1
  Se  Se184  1  0.91453967  0.41653098  0.95151544  1
  Se  Se185  1  0.91742222  0.74670685  0.44931822  1
  Se  Se186  1  0.91810123  0.76131653  0.94663366  1
  Se  Se187  1  0.23743028  0.24350863  0.31147616  1
  Se  Se188  1  0.24602514  0.25069544  0.79914816  1
  Se  Se189  1  0.23885456  0.57409495  0.30933366  1
  Se  Se190  1  0.25457308  0.58624473  0.80704025  1
  Se  Se191  1  0.24544176  0.90736074  0.31092124  1
  Se  Se192  1  0.24888667  0.92118465  0.79702686  1
  Se  Se193  1  0.58667012  0.25952961  0.29676216  1
  Se  Se194  1  0.58657657  0.25209089  0.80626907  1
  Se  Se195  1  0.58176329  0.58921975  0.30037238  1
  Se  Se196  1  0.57871248  0.57122277  0.81384229  1
  Se  Se197  1  0.58871446  0.92226886  0.29467812  1
  Se  Se198  1  0.57692921  0.90722602  0.80694408  1
  Se  Se199  1  0.89889069  0.23912170  0.29623650  1
  Se  Se200  1  0.91364564  0.24888508  0.81385016  1
  Se  Se201  1  0.91518446  0.58282007  0.30017209  1
  Se  Se202  1  0.91586463  0.58355176  0.80908298  1
  Se  Se203  1  0.92111240  0.90905579  0.30710183  1
  Se  Se204  1  0.92312515  0.93528029  0.80430077  1
  Se  Se205  1  0.08071541  0.07605530  0.30188975  1
  Se  Se206  1  0.07630434  0.08431419  0.79849884  1
  Se  Se207  1  0.07472850  0.41196230  0.30372627  1
  Se  Se208  1  0.08497547  0.43018763  0.81519650  1
  Se  Se209  1  0.08023308  0.73984504  0.30803400  1
  Se  Se210  1  0.08577271  0.75226774  0.80256428  1
  Se  Se211  1  0.42820027  0.09450274  0.30801313  1
  Se  Se212  1  0.41797005  0.07976607  0.80244397  1
  Se  Se213  1  0.42023398  0.42848859  0.31231792  1
  Se  Se214  1  0.41276486  0.41113385  0.80775442  1
  Se  Se215  1  0.42715031  0.76671966  0.30732057  1
  Se  Se216  1  0.41379998  0.74417434  0.79786306  1
  Se  Se217  1  0.75381735  0.07611302  0.29512333  1
  Se  Se218  1  0.75031823  0.08515573  0.81872635  1
  Se  Se219  1  0.74577072  0.42183516  0.29788971  1
  Se  Se220  1  0.75405533  0.41778892  0.80136139  1
  Se  Se221  1  0.75082456  0.74628312  0.30041912  1
  Se  Se222  1  0.75925935  0.75898103  0.80960520  1
  Se  Se223  1  0.24259141  0.09165007  0.19014501  1
  Se  Se224  1  0.24788648  0.07986102  0.69374402  1
  Se  Se225  1  0.24305516  0.42004103  0.19319598  1
  Se  Se226  1  0.25031424  0.41645569  0.70115365  1
  Se  Se227  1  0.24201488  0.75150462  0.19104445  1
  Se  Se228  1  0.24968388  0.74695610  0.69800249  1
  Se  Se229  1  0.58740743  0.08382240  0.19290262  1
  Se  Se230  1  0.57486675  0.09601658  0.68704399  1
  Se  Se231  1  0.58575879  0.41931414  0.19469263  1
  Se  Se232  1  0.58673139  0.41496482  0.69800085  1
  Se  Se233  1  0.56956724  0.75110852  0.19833761  1
  Se  Se234  1  0.58404121  0.75211449  0.69016912  1
  Se  Se235  1  0.93877691  0.05579393  0.19401314  1
  Se  Se236  1  0.90794733  0.08668915  0.70202305  1
  Se  Se237  1  0.91433080  0.41934291  0.19260731  1
  Se  Se238  1  0.91256729  0.42606022  0.68960483  1
  Se  Se239  1  0.91912907  0.74368009  0.19464353  1
  Se  Se240  1  0.91910933  0.75131841  0.70171543  1
  Se  Se241  1  0.07681114  0.25701677  0.20184133  1
  Se  Se242  1  0.08837501  0.24707742  0.68652337  1
  Se  Se243  1  0.07664943  0.58381455  0.19455085  1
  Se  Se244  1  0.08287661  0.58179401  0.69739218  1
  Se  Se245  1  0.08591973  0.91423378  0.20056119  1
  Se  Se246  1  0.08049389  0.91906762  0.69239310  1
  Se  Se247  1  0.42123283  0.24740423  0.18616418  1
  Se  Se248  1  0.41289570  0.25121620  0.70027299  1
  Se  Se249  1  0.41268942  0.57569325  0.18981163  1
  Se  Se250  1  0.41838464  0.58094507  0.70129451  1
  Se  Se251  1  0.42424523  0.91426290  0.18692306  1
  Se  Se252  1  0.41367054  0.91788016  0.69770408  1
  Se  Se253  1  0.76143096  0.24443290  0.19797232  1
  Se  Se254  1  0.74735909  0.25488724  0.70435894  1
  Se  Se255  1  0.74611832  0.58986121  0.19125325  1
  Se  Se256  1  0.75638255  0.57715309  0.68798943  1
  Se  Se257  1  0.75369787  0.91250679  0.19682343  1
  Se  Se258  1  0.75602612  0.90702204  0.69672270  1
