# generated using pymatgen
data_In86Cu29Se144
_symmetry_space_group_name_H-M   'P 1'
_cell_length_a   17.59578363
_cell_length_b   17.59347353
_cell_length_c   23.45649489
_cell_angle_alpha   89.99511554
_cell_angle_beta   90.00298851
_cell_angle_gamma   89.99712670
_symmetry_Int_Tables_number   1
_chemical_formula_structural   In86Cu29Se144
_chemical_formula_sum   'In86 Cu29 Se144'
_cell_volume   7261.44944426
_cell_formula_units_Z   1
loop_
 _symmetry_equiv_pos_site_id
 _symmetry_equiv_pos_as_xyz
  1  'x, y, z'
loop_
 _atom_site_type_symbol
 _atom_site_label
 _atom_site_symmetry_multiplicity
 _atom_site_fract_x
 _atom_site_fract_y
 _atom_site_fract_z
 _atom_site_occupancy
  In  In0  1  -0.00038059  0.16989763  0.11845354  1
  In  In1  1  -0.01401979  0.16716692  0.62891477  1
  In  In2  1  -0.00833320  0.49115455  0.13369752  1
  In  In3  1  0.01295225  0.49499154  0.62398956  1
  In  In4  1  -0.01152656  0.84816340  0.13067551  1
  In  In5  1  -0.00422226  0.83539648  0.63347589  1
  In  In6  1  0.34373494  0.17318366  0.12050914  1
  In  In7  1  0.34997214  0.18716528  0.63003508  1
  In  In8  1  0.32516998  0.50727788  0.12874304  1
  In  In9  1  0.32892275  0.49451091  0.62362566  1
  In  In10  1  0.34097497  0.82051541  0.12750073  1
  In  In11  1  0.33888539  0.83949943  0.62817115  1
  In  In12  1  0.66888289  0.16799197  0.11848887  1
  In  In13  1  0.67181163  0.16646745  0.62836924  1
  In  In14  1  0.69015812  0.48539098  0.14762922  1
  In  In15  1  0.65691610  0.49545893  0.61662614  1
  In  In16  1  0.66723960  0.83310332  0.12072247  1
  In  In17  1  0.67328263  0.82707127  0.62427849  1
  In  In18  1  0.15572891  0.01213730  0.36952976  1
  In  In19  1  0.16263304  0.01583170  0.87998958  1
  In  In20  1  0.17802294  0.34403870  0.36624673  1
  In  In21  1  0.16918933  0.32864773  0.88472515  1
  In  In22  1  0.15844429  0.65278596  0.36813214  1
  In  In23  1  0.14566536  0.66908764  0.87925730  1
  In  In24  1  0.50673512  -0.01050622  0.37134111  1
  In  In25  1  0.50819463  0.00289624  0.89336149  1
  In  In26  1  0.52034343  0.35205292  0.35920247  1
  In  In27  1  0.49165261  0.32487237  0.85961116  1
  In  In28  1  0.49194446  0.65896272  0.36482015  1
  In  In29  1  0.51400672  0.66331143  0.87871141  1
  In  In30  1  0.83888672  0.00822980  0.36488267  1
  In  In31  1  0.83469738  -0.00796423  0.88787535  1
  In  In32  1  0.81700146  0.32199558  0.36033060  1
  In  In33  1  0.82156472  0.34921376  0.88166297  1
  In  In34  1  0.82026932  0.64264370  0.34218567  1
  In  In35  1  0.83945093  0.65671944  0.88719811  1
  In  In36  1  -0.01368609  0.16011410  0.36457445  1
  In  In37  1  0.00676603  0.16273559  0.87998564  1
  In  In38  1  0.00621499  0.50329076  0.36635668  1
  In  In39  1  -0.01230266  0.51461250  0.88403123  1
  In  In40  1  -0.01264216  0.82541569  0.36231351  1
  In  In41  1  -0.01531781  0.82222486  0.87565573  1
  In  In42  1  0.32241237  0.17428855  0.37246568  1
  In  In43  1  0.33185941  0.17559467  0.88331396  1
  In  In44  1  0.33451023  0.49797825  0.37261517  1
  In  In45  1  0.33547586  0.47872558  0.87452809  1
  In  In46  1  0.34858239  0.82812603  0.37175607  1
  In  In47  1  0.33683527  0.84410997  0.88060111  1
  In  In48  1  0.68012375  0.17696291  0.36427025  1
  In  In49  1  0.65773536  0.18365624  0.89113888  1
  In  In50  1  0.66913390  0.48761928  0.36154077  1
  In  In51  1  0.67395311  0.49222708  0.87049891  1
  In  In52  1  0.66171476  0.83626648  0.36217369  1
  In  In53  1  0.66721571  0.83295200  0.89749112  1
  In  In54  1  0.15368161  0.00429160  0.12617672  1
  In  In55  1  0.16504739  -0.00783250  0.63221998  1
  In  In56  1  0.16625917  0.33253863  0.12269157  1
  In  In57  1  0.16555007  0.34839162  0.62356143  1
  In  In58  1  0.17579372  0.65864000  0.12877438  1
  In  In59  1  0.16680029  0.65094516  0.62248229  1
  In  In60  1  0.52053155  0.01408521  0.10666887  1
  In  In61  1  0.51616781  0.00633070  0.63092139  1
  In  In62  1  0.51112568  0.32605298  0.13173910  1
  In  In63  1  0.49186940  0.34310312  0.64491953  1
  In  In64  1  0.50208999  0.66852034  0.12779659  1
  In  In65  1  0.51711281  0.64270775  0.62674657  1
  In  In66  1  0.82603543  0.00676698  0.11292986  1
  In  In67  1  0.82549448  0.01410814  0.62966527  1
  In  In68  1  0.83723388  0.33428815  0.12503280  1
  In  In69  1  0.84317289  0.32482139  0.62127590  1
  In  In70  1  0.83425817  0.66240425  0.13260319  1
  In  In71  1  0.83303746  0.67632074  0.62215564  1
  In  In72  1  0.66613876  0.01033327  0.76149566  1
  In  In73  1  0.83088591  0.49662687  0.48895573  1
  In  In74  1  0.16696579  0.83395916  0.00743255  1
  In  In75  1  0.50412560  0.50164692  0.00368910  1
  In  In76  1  0.67346059  0.66190876  0.75259749  1
  In  In77  1  0.33388268  -0.00152184  0.25257884  1
  In  In78  1  0.83511121  0.82589357  0.49756927  1
  In  In79  1  0.32733720  0.01179537  0.76674792  1
  In  In80  1  0.49962885  0.81676126  0.50157808  1
  In  In81  1  0.50480170  0.17218234  0.50111524  1
  In  In82  1  0.15706095  0.17099842  0.50042897  1
  In  In83  1  -0.00079729  0.33743039  0.75254896  1
  In  In84  1  0.32189302  0.66703979  0.74762247  1
  In  In85  1  0.15603575  0.82206326  0.48279671  1
  Cu  Cu86  1  0.83197120  0.16186348  0.23854869  1
  Cu  Cu87  1  0.67201607  0.65964315  0.00836687  1
  Cu  Cu88  1  0.83564065  0.84248442  0.23974489  1
  Cu  Cu89  1  0.50269630  0.16613150  0.24252936  1
  Cu  Cu90  1  0.00128760  0.00286358  0.00171360  1
  Cu  Cu91  1  0.16598646  0.83075644  0.24448990  1
  Cu  Cu92  1  0.50591803  0.83930375  0.24201866  1
  Cu  Cu93  1  0.83425407  0.83335443  0.75907376  1
  Cu  Cu94  1  0.15874602  0.17158870  0.24630350  1
  Cu  Cu95  1  0.34299893  0.33923894  0.49661771  1
  Cu  Cu96  1  0.16910861  0.49490058  0.24766590  1
  Cu  Cu97  1  0.33828629  0.65130600  0.49819253  1
  Cu  Cu98  1  0.16959585  0.17045579  0.75696451  1
  Cu  Cu99  1  0.67505786  0.00374898  0.49732547  1
  Cu  Cu100  1  -0.00259250  0.33518539  0.00158777  1
  Cu  Cu101  1  -0.00361237  0.66206993  0.00840536  1
  Cu  Cu102  1  0.33780387  0.00324604  0.00164080  1
  Cu  Cu103  1  0.16194550  0.50241136  0.75081641  1
  Cu  Cu104  1  0.14758236  0.83448053  0.75224227  1
  Cu  Cu105  1  0.49456393  0.50183669  0.24692643  1
  Cu  Cu106  1  0.00142488  0.65855657  0.49371350  1
  Cu  Cu107  1  0.49852421  0.83454022  0.75563340  1
  Cu  Cu108  1  0.32819243  -0.00085441  0.50847902  1
  Cu  Cu109  1  0.66847848  0.34083649  0.00542748  1
  Cu  Cu110  1  -0.00277550  0.33098420  0.49427971  1
  Cu  Cu111  1  0.83909912  0.16339235  0.75513934  1
  Cu  Cu112  1  0.33144486  0.66230949  0.00371937  1
  Cu  Cu113  1  0.33701148  0.33349479  0.00141995  1
  Cu  Cu114  1  -0.01354346  0.00783424  0.49587725  1
  Se  Se115  1  0.08772119  0.08662823  0.04992606  1
  Se  Se116  1  0.07537625  0.07230496  0.56010641  1
  Se  Se117  1  0.07705707  0.41715878  0.05954417  1
  Se  Se118  1  0.08169183  0.41367025  0.54703523  1
  Se  Se119  1  0.07619768  0.74642810  0.06737171  1
  Se  Se120  1  0.07283043  0.74429094  0.55756458  1
  Se  Se121  1  0.42192698  0.09222160  0.04830871  1
  Se  Se122  1  0.41298528  0.07742056  0.56421374  1
  Se  Se123  1  0.41504674  0.41234323  0.06476773  1
  Se  Se124  1  0.42099954  0.41310155  0.56129550  1
  Se  Se125  1  0.41817206  0.74372829  0.05303338  1
  Se  Se126  1  0.40755807  0.73288343  0.56582356  1
  Se  Se127  1  0.73024610  0.07426627  0.04414745  1
  Se  Se128  1  0.75086470  0.08897395  0.55340156  1
  Se  Se129  1  0.75226111  0.42297631  0.05883513  1
  Se  Se130  1  0.75069938  0.40654994  0.55485968  1
  Se  Se131  1  0.75540948  0.74465965  0.05888365  1
  Se  Se132  1  0.73352856  0.73555868  0.54824819  1
  Se  Se133  1  0.25233320  0.24993975  0.05422185  1
  Se  Se134  1  0.25917470  0.25705865  0.55552878  1
  Se  Se135  1  0.24521267  0.57822145  0.05090680  1
  Se  Se136  1  0.24766940  0.57545877  0.55095503  1
  Se  Se137  1  0.25948935  0.92523298  0.06574987  1
  Se  Se138  1  0.24495944  0.91050155  0.55478887  1
  Se  Se139  1  0.58208592  0.25361702  0.05188509  1
  Se  Se140  1  0.58257250  0.25833121  0.56906108  1
  Se  Se141  1  0.59675003  0.57742095  0.06985199  1
  Se  Se142  1  0.58507561  0.58093293  0.54376597  1
  Se  Se143  1  0.56246800  0.89275080  0.05560694  1
  Se  Se144  1  0.59243193  0.92113487  0.55525889  1
  Se  Se145  1  0.91179445  0.25039308  0.05156083  1
  Se  Se146  1  0.92070674  0.24362348  0.54832207  1
  Se  Se147  1  0.91433010  0.57800480  0.06223493  1
  Se  Se148  1  0.92009249  0.58402768  0.55742444  1
  Se  Se149  1  0.91615944  0.91776610  0.05064097  1
  Se  Se150  1  0.91598815  0.92391771  0.55982855  1
  Se  Se151  1  0.07727017  0.25414005  0.43014819  1
  Se  Se152  1  0.08230884  0.24890076  0.95098057  1
  Se  Se153  1  0.08686498  0.57429644  0.44509209  1
  Se  Se154  1  0.08226557  0.58271204  0.95426893  1
  Se  Se155  1  0.06541945  0.92558928  0.43633418  1
  Se  Se156  1  0.07932483  0.91694495  0.94099767  1
  Se  Se157  1  0.41625954  0.25626928  0.43569690  1
  Se  Se158  1  0.42470513  0.25752239  0.94536204  1
  Se  Se159  1  0.42372415  0.57660228  0.44159264  1
  Se  Se160  1  0.40978953  0.58560723  0.93889483  1
  Se  Se161  1  0.41210252  0.92252666  0.44799517  1
  Se  Se162  1  0.41969879  0.91400954  0.95345678  1
  Se  Se163  1  0.74112464  0.26002689  0.44179551  1
  Se  Se164  1  0.75534370  0.25769751  0.95343888  1
  Se  Se165  1  0.74450033  0.59005478  0.43030828  1
  Se  Se166  1  0.74313569  0.57627245  0.94586285  1
  Se  Se167  1  0.74828799  0.91938969  0.43687758  1
  Se  Se168  1  0.75661415  0.91154789  0.95935556  1
  Se  Se169  1  0.25299840  0.07549537  0.44467760  1
  Se  Se170  1  0.25186998  0.08568793  0.94971783  1
  Se  Se171  1  0.25242465  0.41613574  0.44477899  1
  Se  Se172  1  0.25083779  0.41697465  0.95149945  1
  Se  Se173  1  0.26335635  0.73674368  0.43763101  1
  Se  Se174  1  0.25379493  0.74440054  0.94125694  1
  Se  Se175  1  0.59010874  0.07961284  0.43775717  1
  Se  Se176  1  0.60781911  0.07274456  0.95429927  1
  Se  Se177  1  0.59538694  0.41312608  0.43987172  1
  Se  Se178  1  0.58456090  0.41013063  0.93992430  1
  Se  Se179  1  0.58830733  0.74301784  0.43253355  1
  Se  Se180  1  0.58220126  0.73994221  0.95618149  1
  Se  Se181  1  0.90579115  0.09127871  0.44268591  1
  Se  Se182  1  0.91843623  0.08552703  0.94828054  1
  Se  Se183  1  0.92097703  0.40730414  0.42949154  1
  Se  Se184  1  0.91426159  0.42122816  0.94946110  1
  Se  Se185  1  0.91678379  0.73342291  0.43430118  1
  Se  Se186  1  0.91448801  0.74749842  0.95522506  1
  Se  Se187  1  0.24945375  0.25037478  0.29686799  1
  Se  Se188  1  0.25088728  0.25403875  0.80986801  1
  Se  Se189  1  0.25172376  0.58005975  0.30194520  1
  Se  Se190  1  0.24030394  0.58000671  0.81555606  1
  Se  Se191  1  0.24157300  0.90772950  0.31314137  1
  Se  Se192  1  0.23373703  0.90832827  0.81228952  1
  Se  Se193  1  0.58651039  0.24903611  0.29710301  1
  Se  Se194  1  0.60597151  0.26283324  0.80772362  1
  Se  Se195  1  0.58295185  0.57993605  0.30092566  1
  Se  Se196  1  0.57473128  0.57178712  0.80423762  1
  Se  Se197  1  0.58742911  0.92602492  0.29309305  1
  Se  Se198  1  0.58098675  0.90849972  0.81712075  1
  Se  Se199  1  0.91118694  0.24690763  0.29513380  1
  Se  Se200  1  0.91360801  0.24877268  0.81536473  1
  Se  Se201  1  0.94027227  0.59447086  0.29441678  1
  Se  Se202  1  0.90887711  0.58419524  0.80729847  1
  Se  Se203  1  0.91960252  0.92273129  0.29710148  1
  Se  Se204  1  0.91510827  0.92040881  0.81024569  1
  Se  Se205  1  0.07636985  0.08347491  0.29531546  1
  Se  Se206  1  0.08307487  0.08474282  0.80281183  1
  Se  Se207  1  0.08256493  0.41175728  0.29885533  1
  Se  Se208  1  0.08629205  0.42409901  0.81677492  1
  Se  Se209  1  0.08728729  0.75000843  0.30379918  1
  Se  Se210  1  0.07040524  0.74516401  0.80399210  1
  Se  Se211  1  0.42494481  0.09239632  0.31116483  1
  Se  Se212  1  0.43041762  0.09060317  0.82029924  1
  Se  Se213  1  0.41239173  0.41475955  0.30010985  1
  Se  Se214  1  0.41707536  0.41984699  0.79674634  1
  Se  Se215  1  0.42126289  0.75412341  0.29513379  1
  Se  Se216  1  0.41802276  0.75184615  0.81187335  1
  Se  Se217  1  0.74843927  0.08157152  0.29639655  1
  Se  Se218  1  0.75894430  0.09372537  0.82116771  1
  Se  Se219  1  0.77653511  0.43556064  0.29484060  1
  Se  Se220  1  0.75374763  0.41573117  0.79864830  1
  Se  Se221  1  0.75488138  0.76107118  0.29768652  1
  Se  Se222  1  0.74983601  0.75719482  0.81824587  1
  Se  Se223  1  0.24644054  0.08924986  0.19148846  1
  Se  Se224  1  0.24872125  0.09338644  0.69010473  1
  Se  Se225  1  0.25170949  0.41207354  0.19350080  1
  Se  Se226  1  0.24643027  0.41916529  0.69872519  1
  Se  Se227  1  0.25326027  0.74784586  0.19728045  1
  Se  Se228  1  0.23403171  0.76447470  0.68879992  1
  Se  Se229  1  0.58646609  0.08379419  0.19004908  1
  Se  Se230  1  0.57432907  0.10200396  0.70404139  1
  Se  Se231  1  0.58310421  0.41425086  0.20262180  1
  Se  Se232  1  0.59801667  0.41725390  0.69764653  1
  Se  Se233  1  0.58829395  0.75016651  0.19453502  1
  Se  Se234  1  0.57526459  0.75528141  0.69341103  1
  Se  Se235  1  0.91598392  0.08095201  0.18373953  1
  Se  Se236  1  0.91861313  0.07778377  0.70148789  1
  Se  Se237  1  0.89236102  0.42785238  0.20293313  1
  Se  Se238  1  0.91211189  0.42519621  0.68948517  1
  Se  Se239  1  0.92108970  0.75090094  0.19693386  1
  Se  Se240  1  0.91032947  0.75099416  0.69793503  1
  Se  Se241  1  0.07688526  0.25352504  0.19112466  1
  Se  Se242  1  0.09092827  0.24625470  0.68953083  1
  Se  Se243  1  0.08655491  0.57733333  0.19311805  1
  Se  Se244  1  0.07992680  0.58584691  0.69681945  1
  Se  Se245  1  0.08300551  0.91996864  0.19871649  1
  Se  Se246  1  0.07222455  0.92531754  0.70086038  1
  Se  Se247  1  0.41519418  0.25161903  0.19749733  1
  Se  Se248  1  0.41760529  0.25116537  0.71184115  1
  Se  Se249  1  0.41406016  0.58747397  0.19449833  1
  Se  Se250  1  0.41829185  0.57818806  0.69532245  1
  Se  Se251  1  0.42351307  0.92199623  0.18470777  1
  Se  Se252  1  0.42216574  0.92295281  0.69999539  1
  Se  Se253  1  0.74808319  0.24965834  0.18972096  1
  Se  Se254  1  0.76346139  0.24390528  0.69329902  1
  Se  Se255  1  0.73957585  0.60075522  0.20482224  1
  Se  Se256  1  0.75539460  0.57873793  0.68363315  1
  Se  Se257  1  0.74968204  0.92196955  0.18652172  1
  Se  Se258  1  0.75146433  0.91184497  0.69830207  1
