# generated using pymatgen
data_In86Cu29Se144
_symmetry_space_group_name_H-M   'P 1'
_cell_length_a   17.59802172
_cell_length_b   17.60005345
_cell_length_c   23.44973231
_cell_angle_alpha   89.99322401
_cell_angle_beta   90.01235882
_cell_angle_gamma   89.98278461
_symmetry_Int_Tables_number   1
_chemical_formula_structural   In86Cu29Se144
_chemical_formula_sum   'In86 Cu29 Se144'
_cell_volume   7262.99412304
_cell_formula_units_Z   1
loop_
 _symmetry_equiv_pos_site_id
 _symmetry_equiv_pos_as_xyz
  1  'x, y, z'
loop_
 _atom_site_type_symbol
 _atom_site_label
 _atom_site_symmetry_multiplicity
 _atom_site_fract_x
 _atom_site_fract_y
 _atom_site_fract_z
 _atom_site_occupancy
  In  In0  1  -0.00170879  0.16689860  0.13385882  1
  In  In1  1  0.00072371  0.17179613  0.63034265  1
  In  In2  1  0.00631808  0.50053977  0.12559532  1
  In  In3  1  0.00224419  0.50179031  0.62815327  1
  In  In4  1  -0.00367896  0.83896585  0.13367865  1
  In  In5  1  -0.00132147  0.83066502  0.61937076  1
  In  In6  1  0.33993736  0.16490860  0.12064242  1
  In  In7  1  0.33385791  0.15980745  0.63382818  1
  In  In8  1  0.33342502  0.49327719  0.11029440  1
  In  In9  1  0.31367441  0.50898352  0.64152500  1
  In  In10  1  0.32959380  0.83923931  0.12245660  1
  In  In11  1  0.33210631  0.83839174  0.62415398  1
  In  In12  1  0.68907597  0.15224493  0.15567334  1
  In  In13  1  0.66549860  0.16843096  0.61153842  1
  In  In14  1  0.66162751  0.50443854  0.13368436  1
  In  In15  1  0.67842982  0.50564927  0.61846920  1
  In  In16  1  0.66852488  0.82270897  0.14441614  1
  In  In17  1  0.65858493  0.82636259  0.61654584  1
  In  In18  1  0.15245100  0.00272170  0.37860478  1
  In  In19  1  0.15986693  -0.00635538  0.86169720  1
  In  In20  1  0.15672024  0.34667915  0.38601203  1
  In  In21  1  0.19493524  0.37034099  0.82925938  1
  In  In22  1  0.15951061  0.67634932  0.38883354  1
  In  In23  1  0.16420436  0.65719970  0.86072964  1
  In  In24  1  0.52111081  -0.01569510  0.38881242  1
  In  In25  1  0.49405701  0.00800042  0.87292033  1
  In  In26  1  0.49885377  0.31759364  0.38506331  1
  In  In27  1  0.50166362  0.34461038  0.87589020  1
  In  In28  1  0.50995938  0.67457526  0.37457887  1
  In  In29  1  0.48324221  0.64992168  0.85424339  1
  In  In30  1  0.82937278  -0.00337590  0.37690222  1
  In  In31  1  0.83591672  0.00163108  0.87284853  1
  In  In32  1  0.83680624  0.33614462  0.37356012  1
  In  In33  1  0.84103457  0.32429156  0.87383511  1
  In  In34  1  0.83735553  0.66393575  0.38189682  1
  In  In35  1  0.83619021  0.67042543  0.86618945  1
  In  In36  1  -0.02439452  0.15214319  0.35560946  1
  In  In37  1  0.01648702  0.17737360  0.85699359  1
  In  In38  1  -0.00006918  0.49806328  0.37735641  1
  In  In39  1  0.01588292  0.51813101  0.85784642  1
  In  In40  1  0.00011578  0.82786751  0.38060007  1
  In  In41  1  0.00155705  0.84025694  0.86228636  1
  In  In42  1  0.34647280  0.17702363  0.38771352  1
  In  In43  1  0.31512651  0.15975295  0.85008550  1
  In  In44  1  0.32177386  0.48950804  0.38769936  1
  In  In45  1  0.33863262  0.50239330  0.86597095  1
  In  In46  1  0.33394586  0.83375362  0.38938691  1
  In  In47  1  0.33185708  0.81809923  0.85225165  1
  In  In48  1  0.67352235  0.16250394  0.37338361  1
  In  In49  1  0.66775586  0.15999847  0.87879964  1
  In  In50  1  0.67499725  0.51672390  0.37065558  1
  In  In51  1  0.65376698  0.49320541  0.87840971  1
  In  In52  1  0.66840472  0.83437065  0.37767144  1
  In  In53  1  0.67107726  0.82931294  0.87391787  1
  In  In54  1  0.16284261  -0.00294052  0.12523342  1
  In  In55  1  0.17499024  -0.00499785  0.63094149  1
  In  In56  1  0.15587831  0.34206280  0.12367644  1
  In  In57  1  0.15524251  0.34416530  0.63924539  1
  In  In58  1  0.17429214  0.65531593  0.12203969  1
  In  In59  1  0.15901217  0.66089341  0.62630420  1
  In  In60  1  0.50087219  0.00757089  0.12947646  1
  In  In61  1  0.48584436  -0.00872198  0.61643713  1
  In  In62  1  0.49592267  0.34053895  0.12580747  1
  In  In63  1  0.49316683  0.32257389  0.61892899  1
  In  In64  1  0.51019446  0.65768918  0.12697431  1
  In  In65  1  0.48591695  0.69224201  0.64303546  1
  In  In66  1  0.83966087  -0.00781115  0.13864593  1
  In  In67  1  0.84143452  0.00695282  0.61129103  1
  In  In68  1  0.84308841  0.32525002  0.14572572  1
  In  In69  1  0.84421642  0.34333275  0.60864078  1
  In  In70  1  0.83358521  0.66784708  0.13632640  1
  In  In71  1  0.83372307  0.66717659  0.62265330  1
  In  In72  1  0.16465440  0.17653825  0.50836816  1
  In  In73  1  0.49820354  0.18617455  -0.00073314  1
  In  In74  1  0.33391306  0.66573663  0.25471012  1
  In  In75  1  0.15731854  0.82566191  -0.01830712  1
  In  In76  1  0.49865152  0.82444651  -0.00129617  1
  In  In77  1  0.16128272  0.17484409  -0.00283962  1
  In  In78  1  0.83422072  0.49724473  0.00401794  1
  In  In79  1  0.49930520  0.50820086  0.50492314  1
  In  In80  1  0.66627417  -0.00627391  0.74567600  1
  In  In81  1  0.33247151  0.33190450  0.25554271  1
  In  In82  1  0.83924274  0.16712345  0.00315461  1
  In  In83  1  0.83451485  0.83164068  0.01438020  1
  In  In84  1  0.67035529  0.33465662  0.75274086  1
  In  In85  1  0.33352321  0.00067033  0.24837013  1
  Cu  Cu86  1  0.00455016  0.67023135  -0.00691695  1
  Cu  Cu87  1  0.66546425  0.67096871  0.49969405  1
  Cu  Cu88  1  0.83839784  0.50057816  0.74144394  1
  Cu  Cu89  1  0.50603643  0.49511804  0.74710754  1
  Cu  Cu90  1  0.32924811  -0.00597938  -0.01166153  1
  Cu  Cu91  1  0.65824346  0.65418382  0.00127600  1
  Cu  Cu92  1  0.33593918  0.00724861  0.50737272  1
  Cu  Cu93  1  0.66468152  0.33411960  0.01354639  1
  Cu  Cu94  1  0.83605046  0.50409264  0.25432624  1
  Cu  Cu95  1  0.66744523  0.00592629  0.49697406  1
  Cu  Cu96  1  0.16194819  0.50621141  0.25174827  1
  Cu  Cu97  1  0.83647577  0.83115524  0.74338600  1
  Cu  Cu98  1  0.49747841  0.16380268  0.74467748  1
  Cu  Cu99  1  0.83724131  0.82784176  0.26084334  1
  Cu  Cu100  1  0.66860718  0.33429757  0.49344449  1
  Cu  Cu101  1  0.00823444  0.34327350  -0.00253675  1
  Cu  Cu102  1  0.33331964  0.66713327  0.51146787  1
  Cu  Cu103  1  0.66660936  -0.00639298  0.01063382  1
  Cu  Cu104  1  -0.00120174  0.32835254  0.49917580  1
  Cu  Cu105  1  0.00080319  0.65843943  0.50315793  1
  Cu  Cu106  1  0.16042989  0.83417646  0.25622075  1
  Cu  Cu107  1  0.00094049  -0.00534135  0.49532711  1
  Cu  Cu108  1  0.83584852  0.17088212  0.73693685  1
  Cu  Cu109  1  0.50620556  0.15785297  0.25930189  1
  Cu  Cu110  1  0.16224637  0.17290928  0.25618545  1
  Cu  Cu111  1  0.16293419  0.82900721  0.74114673  1
  Cu  Cu112  1  0.50109837  0.49632405  0.25256163  1
  Cu  Cu113  1  0.32763105  0.33732062  -0.01449777  1
  Cu  Cu114  1  0.33776617  0.65372458  -0.00749191  1
  Se  Se115  1  0.07634506  0.08158366  0.05797320  1
  Se  Se116  1  0.07836689  0.07402683  0.55974834  1
  Se  Se117  1  0.08975678  0.42896368  0.04954892  1
  Se  Se118  1  0.07837322  0.41001418  0.55843764  1
  Se  Se119  1  0.07858428  0.74869890  0.06038607  1
  Se  Se120  1  0.08395078  0.74559177  0.55317483  1
  Se  Se121  1  0.41187451  0.07230104  0.04807888  1
  Se  Se122  1  0.41830544  0.09554393  0.55506646  1
  Se  Se123  1  0.41688656  0.40696315  0.04571468  1
  Se  Se124  1  0.40859126  0.42726459  0.56880125  1
  Se  Se125  1  0.40480580  0.73634336  0.05994534  1
  Se  Se126  1  0.42006534  0.75466871  0.55636544  1
  Se  Se127  1  0.74734072  0.07755384  0.06518487  1
  Se  Se128  1  0.75431746  0.08994136  0.54601916  1
  Se  Se129  1  0.75241279  0.40824972  0.07015522  1
  Se  Se130  1  0.74924753  0.42017687  0.54618232  1
  Se  Se131  1  0.73565238  0.73629393  0.06150811  1
  Se  Se132  1  0.75314118  0.75140361  0.55211028  1
  Se  Se133  1  0.25991073  0.26085745  0.05735571  1
  Se  Se134  1  0.25157896  0.25960149  0.57223018  1
  Se  Se135  1  0.24764910  0.57795592  0.04592840  1
  Se  Se136  1  0.24816241  0.57974406  0.55739851  1
  Se  Se137  1  0.24693626  0.91828368  0.04808384  1
  Se  Se138  1  0.24912664  0.91975029  0.55274536  1
  Se  Se139  1  0.59385094  0.24439625  0.07246381  1
  Se  Se140  1  0.58211685  0.25469978  0.54654831  1
  Se  Se141  1  0.57812531  0.56996168  0.05432808  1
  Se  Se142  1  0.58352795  0.60055553  0.56568078  1
  Se  Se143  1  0.58564681  0.91246898  0.06566579  1
  Se  Se144  1  0.58574253  0.92306580  0.55255396  1
  Se  Se145  1  0.92779233  0.26532275  0.05939204  1
  Se  Se146  1  0.91940542  0.24003205  0.55236944  1
  Se  Se147  1  0.92209038  0.59817098  0.05730788  1
  Se  Se148  1  0.91567901  0.57756337  0.55695566  1
  Se  Se149  1  0.92862970  0.93198487  0.05799372  1
  Se  Se150  1  0.91558466  0.91108653  0.54752798  1
  Se  Se151  1  0.06997739  0.24245130  0.43659016  1
  Se  Se152  1  0.08322664  0.26580281  0.93332907  1
  Se  Se153  1  0.08578896  0.57657853  0.44897359  1
  Se  Se154  1  0.08728687  0.58694800  0.94037807  1
  Se  Se155  1  0.08880569  0.90962886  0.44902613  1
  Se  Se156  1  0.06733479  0.92998538  0.94024923  1
  Se  Se157  1  0.40301244  0.27083987  0.45937061  1
  Se  Se158  1  0.40108570  0.24916067  0.92747026  1
  Se  Se159  1  0.40788210  0.59534336  0.43987965  1
  Se  Se160  1  0.42552316  0.57639602  0.93961970  1
  Se  Se161  1  0.41745194  0.92154746  0.45270222  1
  Se  Se162  1  0.40873045  0.91022333  0.93361302  1
  Se  Se163  1  0.75287434  0.25143817  0.44134880  1
  Se  Se164  1  0.74015371  0.25882584  0.94719282  1
  Se  Se165  1  0.74990992  0.58346485  0.45146745  1
  Se  Se166  1  0.74777103  0.58749236  0.93971308  1
  Se  Se167  1  0.74986313  0.91549731  0.44907963  1
  Se  Se168  1  0.74724382  0.92136173  0.94690672  1
  Se  Se169  1  0.25280122  0.08166872  0.44354357  1
  Se  Se170  1  0.24878892  0.07990380  0.93528632  1
  Se  Se171  1  0.24813043  0.40751445  0.45805494  1
  Se  Se172  1  0.24664903  0.41749593  0.92822706  1
  Se  Se173  1  0.25045952  0.75140593  0.45587100  1
  Se  Se174  1  0.26180317  0.73962541  0.93490818  1
  Se  Se175  1  0.58271708  0.09300089  0.44712919  1
  Se  Se176  1  0.58711825  0.07453476  0.95082296  1
  Se  Se177  1  0.58623077  0.42185797  0.43866190  1
  Se  Se178  1  0.58329538  0.41090692  0.95381117  1
  Se  Se179  1  0.58047778  0.75567111  0.44919768  1
  Se  Se180  1  0.58642073  0.73640942  0.93723990  1
  Se  Se181  1  0.91905851  0.08080236  0.44282984  1
  Se  Se182  1  0.92498661  0.09011788  0.93400443  1
  Se  Se183  1  0.91723080  0.41608618  0.44762892  1
  Se  Se184  1  0.92305656  0.41804047  0.93725397  1
  Se  Se185  1  0.91919469  0.74625613  0.45169233  1
  Se  Se186  1  0.92059005  0.75266972  0.94059325  1
  Se  Se187  1  0.24357191  0.24519553  0.31817375  1
  Se  Se188  1  0.22198450  0.23461382  0.78740830  1
  Se  Se189  1  0.24373851  0.57804486  0.31511866  1
  Se  Se190  1  0.26929443  0.59810124  0.79942269  1
  Se  Se191  1  0.24628627  0.91241836  0.31266863  1
  Se  Se192  1  0.24701425  0.91204639  0.79628580  1
  Se  Se193  1  0.58156141  0.24930767  0.31050234  1
  Se  Se194  1  0.57762488  0.23811419  0.80949529  1
  Se  Se195  1  0.57933682  0.58687294  0.30279364  1
  Se  Se196  1  0.59160562  0.57607595  0.80077153  1
  Se  Se197  1  0.58794346  0.91775884  0.30712177  1
  Se  Se198  1  0.57662163  0.91206354  0.81118354  1
  Se  Se199  1  0.92936990  0.27012505  0.30203540  1
  Se  Se200  1  0.91404617  0.25082821  0.79686010  1
  Se  Se201  1  0.91994819  0.58510472  0.30907152  1
  Se  Se202  1  0.91620367  0.58961144  0.79652960  1
  Se  Se203  1  0.92057846  0.91341198  0.31148261  1
  Se  Se204  1  0.90917795  0.92022322  0.79960095  1
  Se  Se205  1  0.08265240  0.07904662  0.30059121  1
  Se  Se206  1  0.06560837  0.06514262  0.79784151  1
  Se  Se207  1  0.08517004  0.41739645  0.30558825  1
  Se  Se208  1  0.05336222  0.39656778  0.80559868  1
  Se  Se209  1  0.08349368  0.74563345  0.30911779  1
  Se  Se210  1  0.08061714  0.74925778  0.79958084  1
  Se  Se211  1  0.41736565  0.08395176  0.31658940  1
  Se  Se212  1  0.41533300  0.07759266  0.79660028  1
  Se  Se213  1  0.42183769  0.42227508  0.31568049  1
  Se  Se214  1  0.42173126  0.41145736  0.79914502  1
  Se  Se215  1  0.41843951  0.76267450  0.31036732  1
  Se  Se216  1  0.43359103  0.75678897  0.78980021  1
  Se  Se217  1  0.75597622  0.08214547  0.30451977  1
  Se  Se218  1  0.75658208  0.09541620  0.80197300  1
  Se  Se219  1  0.75086518  0.42276138  0.30694698  1
  Se  Se220  1  0.76219775  0.42695005  0.81134091  1
  Se  Se221  1  0.75195347  0.74538340  0.31262102  1
  Se  Se222  1  0.75144299  0.75450775  0.80086576  1
  Se  Se223  1  0.24178793  0.09783842  0.19110035  1
  Se  Se224  1  0.25239947  0.07753902  0.70099635  1
  Se  Se225  1  0.24726447  0.42658580  0.19338454  1
  Se  Se226  1  0.24057427  0.41955689  0.71265042  1
  Se  Se227  1  0.24198568  0.75912394  0.19346110  1
  Se  Se228  1  0.24879133  0.74852544  0.68860287  1
  Se  Se229  1  0.58494584  0.07174672  0.20567421  1
  Se  Se230  1  0.58158195  0.08742831  0.68600184  1
  Se  Se231  1  0.58095090  0.41195541  0.19827382  1
  Se  Se232  1  0.58412910  0.41637737  0.68427442  1
  Se  Se233  1  0.57356844  0.74203124  0.20061123  1
  Se  Se234  1  0.59684540  0.75239848  0.69937462  1
  Se  Se235  1  0.90687662  0.09362779  0.19905369  1
  Se  Se236  1  0.91509996  0.07906688  0.69085019  1
  Se  Se237  1  0.92295092  0.42676072  0.19845641  1
  Se  Se238  1  0.91555622  0.40990613  0.69134054  1
  Se  Se239  1  0.91997314  0.75038085  0.20070768  1
  Se  Se240  1  0.91967406  0.74729996  0.69179117  1
  Se  Se241  1  0.08717640  0.25410837  0.19478284  1
  Se  Se242  1  0.09723483  0.23422892  0.70019564  1
  Se  Se243  1  0.08500434  0.58992668  0.19429933  1
  Se  Se244  1  0.09103203  0.57212993  0.69909211  1
  Se  Se245  1  0.08488689  0.92112455  0.19881375  1
  Se  Se246  1  0.07904099  0.91402501  0.69082509  1
  Se  Se247  1  0.42512279  0.23683126  0.19732791  1
  Se  Se248  1  0.41595551  0.25396914  0.69792348  1
  Se  Se249  1  0.41351401  0.56824371  0.19168158  1
  Se  Se250  1  0.42125153  0.58014328  0.69714431  1
  Se  Se251  1  0.42464317  0.90533178  0.19276442  1
  Se  Se252  1  0.41648884  0.91783965  0.69404802  1
  Se  Se253  1  0.74352841  0.26358394  0.21043111  1
  Se  Se254  1  0.75270519  0.25197625  0.68266140  1
  Se  Se255  1  0.74853339  0.58423748  0.20079729  1
  Se  Se256  1  0.75091941  0.58401663  0.69425576  1
  Se  Se257  1  0.75415722  0.91044603  0.20449175  1
  Se  Se258  1  0.75898420  0.91370678  0.68228133  1
