# generated using pymatgen
data_In86Cu29Se144
_symmetry_space_group_name_H-M   'P 1'
_cell_length_a   17.58852359
_cell_length_b   17.59373556
_cell_length_c   23.45049507
_cell_angle_alpha   90.00148476
_cell_angle_beta   90.00254255
_cell_angle_gamma   90.00552622
_symmetry_Int_Tables_number   1
_chemical_formula_structural   In86Cu29Se144
_chemical_formula_sum   'In86 Cu29 Se144'
_cell_volume   7256.70483725
_cell_formula_units_Z   1
loop_
 _symmetry_equiv_pos_site_id
 _symmetry_equiv_pos_as_xyz
  1  'x, y, z'
loop_
 _atom_site_type_symbol
 _atom_site_label
 _atom_site_symmetry_multiplicity
 _atom_site_fract_x
 _atom_site_fract_y
 _atom_site_fract_z
 _atom_site_occupancy
  In  In0  1  0.00393567  0.16607218  0.12701521  1
  In  In1  1  0.00393065  0.15515075  0.63238405  1
  In  In2  1  0.01829029  0.48030002  0.13979080  1
  In  In3  1  -0.00797953  0.50838826  0.62758520  1
  In  In4  1  0.01081569  0.82385484  0.13280450  1
  In  In5  1  0.00029764  0.83410822  0.62701751  1
  In  In6  1  0.31796543  0.17533001  0.12827185  1
  In  In7  1  0.33635767  0.18478443  0.62353083  1
  In  In8  1  0.32101438  0.51197448  0.13433291  1
  In  In9  1  0.33076016  0.50157587  0.63312430  1
  In  In10  1  0.32842486  0.83828959  0.12804851  1
  In  In11  1  0.32776691  0.82351557  0.62305995  1
  In  In12  1  0.66175668  0.16926385  0.13261715  1
  In  In13  1  0.67472900  0.17113187  0.62729621  1
  In  In14  1  0.65628531  0.49623158  0.13301718  1
  In  In15  1  0.67525405  0.48951095  0.62172416  1
  In  In16  1  0.66045661  0.84606541  0.13132061  1
  In  In17  1  0.66323653  0.82900977  0.61404425  1
  In  In18  1  0.17682084  0.00889888  0.36705247  1
  In  In19  1  0.15779726  0.01095176  0.88587641  1
  In  In20  1  0.16191092  0.33156189  0.36966016  1
  In  In21  1  0.16278012  0.33015899  0.87803673  1
  In  In22  1  0.16584106  0.66377212  0.36392497  1
  In  In23  1  0.16673494  0.66509035  0.87435756  1
  In  In24  1  0.49139486  -0.01899648  0.36004937  1
  In  In25  1  0.48772220  0.00094270  0.87969807  1
  In  In26  1  0.50334103  0.33918261  0.35898112  1
  In  In27  1  0.50080629  0.33318203  0.86362018  1
  In  In28  1  0.49991208  0.68072186  0.36788700  1
  In  In29  1  0.49133944  0.68003830  0.88080357  1
  In  In30  1  0.82624001  -0.00952171  0.37060361  1
  In  In31  1  0.84218229  -0.01049256  0.87449946  1
  In  In32  1  0.84971886  0.34844918  0.36184297  1
  In  In33  1  0.84025606  0.33346011  0.86173659  1
  In  In34  1  0.85152356  0.66048534  0.39185834  1
  In  In35  1  0.83656734  0.65200370  0.87460529  1
  In  In36  1  0.01130522  0.17498403  0.37212180  1
  In  In37  1  0.01860642  0.18316236  0.85682477  1
  In  In38  1  -0.00263568  0.50505504  0.37075424  1
  In  In39  1  0.00579843  0.50129413  0.86952455  1
  In  In40  1  -0.00916146  0.82591249  0.37055071  1
  In  In41  1  0.01216645  0.84310179  0.86726455  1
  In  In42  1  0.33075465  0.16615971  0.36995619  1
  In  In43  1  0.32134321  0.16354885  0.87673005  1
  In  In44  1  0.34164096  0.50395974  0.35707450  1
  In  In45  1  0.32102867  0.48993981  0.87173996  1
  In  In46  1  0.34150535  0.83436613  0.36051644  1
  In  In47  1  0.33510481  0.82786299  0.88147939  1
  In  In48  1  0.66986463  0.16414122  0.37196440  1
  In  In49  1  0.66350887  0.18012821  0.87048245  1
  In  In50  1  0.68463282  0.50382631  0.37123513  1
  In  In51  1  0.67441099  0.48865706  0.87627114  1
  In  In52  1  0.66138124  0.83865580  0.37751973  1
  In  In53  1  0.65676489  0.82836273  0.87854285  1
  In  In54  1  0.16608169  0.00101621  0.12676515  1
  In  In55  1  0.15324069  0.00003390  0.62302266  1
  In  In56  1  0.16040679  0.33629413  0.11757265  1
  In  In57  1  0.17260936  0.32697259  0.62738758  1
  In  In58  1  0.16270642  0.66697416  0.12288098  1
  In  In59  1  0.16768878  0.66657610  0.63297807  1
  In  In60  1  0.50014637  -0.01432503  0.13734520  1
  In  In61  1  0.50833627  -0.00223857  0.62224550  1
  In  In62  1  0.49627818  0.34238144  0.14243054  1
  In  In63  1  0.50102100  0.33240453  0.63750217  1
  In  In64  1  0.46133035  0.67725417  0.14557281  1
  In  In65  1  0.48709827  0.67081996  0.62315963  1
  In  In66  1  0.83317330  0.00390377  0.13573365  1
  In  In67  1  0.84516369  -0.00164741  0.62142069  1
  In  In68  1  0.84134162  0.33283567  0.13484256  1
  In  In69  1  0.83015297  0.33689340  0.62933406  1
  In  In70  1  0.84070948  0.66570909  0.13176996  1
  In  In71  1  0.84833414  0.67555800  0.60821028  1
  In  In72  1  0.16089324  0.83311633  0.49915371  1
  In  In73  1  0.48873369  0.16451054  0.00516174  1
  In  In74  1  0.67201741  0.00815623  0.74156578  1
  In  In75  1  0.49334872  0.50696958  0.01298731  1
  In  In76  1  0.66930665  0.66074463  0.75351381  1
  In  In77  1  0.83661266  0.16614181  0.50491760  1
  In  In78  1  0.84206024  0.16664478  0.00251450  1
  In  In79  1  0.67112491  0.66408814  0.25471366  1
  In  In80  1  0.50000920  0.16455340  0.50200470  1
  In  In81  1  0.83878825  0.49939846  -0.00209744  1
  In  In82  1  0.83866027  0.83222248  0.00240195  1
  In  In83  1  0.16595273  0.49934699  0.49202997  1
  In  In84  1  0.50390159  0.50256627  0.50132716  1
  In  In85  1  0.33186280  0.00499801  0.75935542  1
  Cu  Cu86  1  0.83479970  0.83338173  0.25313095  1
  Cu  Cu87  1  0.00739215  -0.00057651  0.00316659  1
  Cu  Cu88  1  0.33389882  0.67284822  0.49735741  1
  Cu  Cu89  1  0.84292008  0.82895280  0.74702942  1
  Cu  Cu90  1  0.65977956  -0.01028734  0.49326198  1
  Cu  Cu91  1  0.16618981  0.49464856  0.75261101  1
  Cu  Cu92  1  0.00022479  0.00127465  0.49991669  1
  Cu  Cu93  1  0.65510501  0.67513292  0.00620882  1
  Cu  Cu94  1  0.33290474  -0.00028881  0.48617309  1
  Cu  Cu95  1  0.66887558  0.66865017  0.49170851  1
  Cu  Cu96  1  0.00732665  0.66631670  -0.00212234  1
  Cu  Cu97  1  0.16496559  0.83420529  0.24710084  1
  Cu  Cu98  1  0.66478477  0.33493609  0.00253602  1
  Cu  Cu99  1  0.00303380  0.33589538  0.49411850  1
  Cu  Cu100  1  0.49558837  0.83467754  0.75341147  1
  Cu  Cu101  1  0.65681403  -0.00013936  0.00651339  1
  Cu  Cu102  1  0.16602199  0.82982607  0.75065028  1
  Cu  Cu103  1  0.32578682  0.67017322  0.00574775  1
  Cu  Cu104  1  0.17039733  0.16731232  0.75173505  1
  Cu  Cu105  1  0.67659717  0.33601429  0.49689802  1
  Cu  Cu106  1  0.84011689  0.50050044  0.74693925  1
  Cu  Cu107  1  0.16576887  0.16931026  0.24706180  1
  Cu  Cu108  1  0.33260507  0.33228384  0.49911827  1
  Cu  Cu109  1  0.16459099  0.50168873  0.24697691  1
  Cu  Cu110  1  0.32403860  0.33578597  0.00057382  1
  Cu  Cu111  1  0.49879786  0.50654491  0.74840726  1
  Cu  Cu112  1  0.49761129  0.15632916  0.24964520  1
  Cu  Cu113  1  0.84007877  0.16576632  0.25479125  1
  Cu  Cu114  1  0.32947443  -0.00948262  0.00440437  1
  Se  Se115  1  0.08615491  0.08646907  0.05610499  1
  Se  Se116  1  0.08185623  0.08732165  0.55169176  1
  Se  Se117  1  0.07866691  0.42282316  0.05112646  1
  Se  Se118  1  0.08235004  0.41323993  0.55885419  1
  Se  Se119  1  0.08391564  0.75404821  0.05226659  1
  Se  Se120  1  0.07868958  0.73796305  0.55876234  1
  Se  Se121  1  0.40653600  0.07245154  0.06713353  1
  Se  Se122  1  0.40508600  0.07423050  0.55826420  1
  Se  Se123  1  0.40610361  0.40725340  0.06428042  1
  Se  Se124  1  0.41254607  0.41142896  0.56039292  1
  Se  Se125  1  0.41181662  0.75104381  0.05850413  1
  Se  Se126  1  0.41715648  0.75669878  0.54972895  1
  Se  Se127  1  0.74266234  0.07963841  0.05972525  1
  Se  Se128  1  0.73765345  0.07091696  0.55547660  1
  Se  Se129  1  0.74577421  0.41400323  0.06121040  1
  Se  Se130  1  0.76087902  0.41672959  0.55033023  1
  Se  Se131  1  0.74477662  0.74707615  0.06448757  1
  Se  Se132  1  0.75118658  0.75235696  0.54725743  1
  Se  Se133  1  0.24275679  0.24747084  0.05023571  1
  Se  Se134  1  0.24798433  0.24930643  0.54969663  1
  Se  Se135  1  0.24528625  0.58048248  0.05468661  1
  Se  Se136  1  0.25648394  0.58926807  0.55628701  1
  Se  Se137  1  0.24128315  0.91170010  0.05614859  1
  Se  Se138  1  0.25545377  0.92570366  0.55584666  1
  Se  Se139  1  0.58072378  0.25827425  0.06099642  1
  Se  Se140  1  0.59162593  0.26121147  0.55719862  1
  Se  Se141  1  0.58124039  0.59884389  0.07184725  1
  Se  Se142  1  0.59330908  0.59478248  0.56152852  1
  Se  Se143  1  0.57540943  0.91425474  0.05632467  1
  Se  Se144  1  0.57446970  0.91083869  0.54906780  1
  Se  Se145  1  0.92740058  0.26317675  0.05752303  1
  Se  Se146  1  0.92851750  0.25693316  0.56083753  1
  Se  Se147  1  0.92523813  0.58991281  0.05843418  1
  Se  Se148  1  0.91550486  0.57312272  0.54795300  1
  Se  Se149  1  0.92276834  0.92410497  0.06385060  1
  Se  Se150  1  0.92140213  0.91333725  0.55215723  1
  Se  Se151  1  0.08992696  0.25179470  0.44696979  1
  Se  Se152  1  0.08312909  0.24021534  0.94355568  1
  Se  Se153  1  0.07768855  0.59723074  0.44134272  1
  Se  Se154  1  0.08447021  0.57975668  0.94307668  1
  Se  Se155  1  0.08063081  0.92606647  0.43551891  1
  Se  Se156  1  0.08495375  0.91152398  0.94873645  1
  Se  Se157  1  0.41927383  0.25886836  0.43872421  1
  Se  Se158  1  0.41071186  0.26095267  0.94092608  1
  Se  Se159  1  0.41181827  0.58783902  0.43900667  1
  Se  Se160  1  0.40546657  0.58760901  0.94444437  1
  Se  Se161  1  0.41435339  0.91107904  0.43911714  1
  Se  Se162  1  0.41709622  0.91382224  0.94969848  1
  Se  Se163  1  0.75510529  0.25441665  0.43779979  1
  Se  Se164  1  0.74899499  0.25983362  0.94336270  1
  Se  Se165  1  0.75412806  0.57849062  0.45016726  1
  Se  Se166  1  0.73447185  0.59298043  0.94745658  1
  Se  Se167  1  0.75376584  0.91190881  0.44692608  1
  Se  Se168  1  0.74052032  0.92265253  0.94537066  1
  Se  Se169  1  0.24885578  0.08953162  0.44366469  1
  Se  Se170  1  0.25305585  0.08189203  0.95253787  1
  Se  Se171  1  0.26420553  0.41628588  0.43466610  1
  Se  Se172  1  0.24156056  0.41900266  0.94754161  1
  Se  Se173  1  0.25220554  0.74823126  0.43598889  1
  Se  Se174  1  0.24471281  0.74974188  0.94656226  1
  Se  Se175  1  0.58107200  0.07399771  0.43655681  1
  Se  Se176  1  0.58806065  0.08398743  0.94220588  1
  Se  Se177  1  0.58856798  0.41076349  0.43923566  1
  Se  Se178  1  0.57958733  0.41488391  0.94657557  1
  Se  Se179  1  0.57971945  0.75058828  0.44442302  1
  Se  Se180  1  0.57368928  0.75781983  0.95248565  1
  Se  Se181  1  0.92089231  0.08065992  0.43756542  1
  Se  Se182  1  0.92681042  0.07560257  0.94081937  1
  Se  Se183  1  0.92015714  0.41964974  0.44297398  1
  Se  Se184  1  0.92369346  0.40703202  0.93794308  1
  Se  Se185  1  0.92009690  0.76105171  0.45304630  1
  Se  Se186  1  0.92315112  0.74362997  0.93754211  1
  Se  Se187  1  0.24920299  0.25169698  0.30269404  1
  Se  Se188  1  0.25048627  0.25170028  0.80662534  1
  Se  Se189  1  0.25232741  0.58714803  0.29496698  1
  Se  Se190  1  0.24892613  0.58228891  0.80388003  1
  Se  Se191  1  0.24985986  0.91707584  0.29952662  1
  Se  Se192  1  0.24109865  0.91232178  0.81446851  1
  Se  Se193  1  0.58192058  0.23936313  0.30285677  1
  Se  Se194  1  0.59441704  0.26342204  0.79820839  1
  Se  Se195  1  0.57675740  0.57356375  0.31190392  1
  Se  Se196  1  0.57539767  0.57809890  0.81781010  1
  Se  Se197  1  0.59412465  0.91600384  0.29897013  1
  Se  Se198  1  0.57865756  0.91851456  0.80709358  1
  Se  Se199  1  0.92653172  0.25226707  0.30146575  1
  Se  Se200  1  0.90707281  0.23559636  0.79862917  1
  Se  Se201  1  0.90866647  0.58764091  0.30730774  1
  Se  Se202  1  0.92079303  0.58490695  0.80091848  1
  Se  Se203  1  0.92014806  0.92001494  0.30248534  1
  Se  Se204  1  0.92142583  0.91778031  0.79886783  1
  Se  Se205  1  0.08383253  0.08547178  0.30208515  1
  Se  Se206  1  0.08919101  0.07601618  0.80057943  1
  Se  Se207  1  0.08313631  0.42164374  0.30488384  1
  Se  Se208  1  0.08225782  0.40958618  0.80378398  1
  Se  Se209  1  0.08140652  0.75196740  0.30174142  1
  Se  Se210  1  0.08210656  0.74519455  0.80294349  1
  Se  Se211  1  0.41022177  0.07833404  0.30299451  1
  Se  Se212  1  0.42830910  0.09992197  0.80892383  1
  Se  Se213  1  0.40454821  0.40263089  0.29453137  1
  Se  Se214  1  0.41621906  0.42238308  0.80316228  1
  Se  Se215  1  0.40688130  0.73553641  0.29471147  1
  Se  Se216  1  0.41178591  0.75059436  0.80427139  1
  Se  Se217  1  0.75225118  0.08211458  0.30328529  1
  Se  Se218  1  0.75486562  0.08468052  0.81440664  1
  Se  Se219  1  0.73471114  0.39916951  0.30482875  1
  Se  Se220  1  0.75217924  0.42005594  0.79931115  1
  Se  Se221  1  0.75926724  0.75230345  0.31645261  1
  Se  Se222  1  0.75919292  0.75830829  0.81159123  1
  Se  Se223  1  0.24942627  0.08195788  0.19740665  1
  Se  Se224  1  0.24744926  0.08661962  0.68833359  1
  Se  Se225  1  0.24259218  0.41381162  0.19227606  1
  Se  Se226  1  0.25055272  0.41323617  0.69720305  1
  Se  Se227  1  0.24555777  0.74823958  0.19289753  1
  Se  Se228  1  0.25360816  0.74892545  0.69958968  1
  Se  Se229  1  0.58553087  0.07734651  0.19721507  1
  Se  Se230  1  0.57076886  0.09728944  0.69169164  1
  Se  Se231  1  0.60257146  0.39989767  0.20466664  1
  Se  Se232  1  0.58500051  0.42657206  0.69542541  1
  Se  Se233  1  0.57840850  0.75151568  0.19493569  1
  Se  Se234  1  0.57917354  0.75517485  0.69452360  1
  Se  Se235  1  0.92261804  0.08484284  0.19830271  1
  Se  Se236  1  0.90312148  0.08716559  0.69497629  1
  Se  Se237  1  0.91108282  0.42477913  0.20145190  1
  Se  Se238  1  0.92226663  0.41392161  0.69546880  1
  Se  Se239  1  0.91833727  0.75024587  0.20024667  1
  Se  Se240  1  0.91924128  0.74288066  0.69180251  1
  Se  Se241  1  0.08424415  0.25433470  0.19324221  1
  Se  Se242  1  0.08605661  0.24671442  0.69504030  1
  Se  Se243  1  0.08056917  0.58991032  0.19688275  1
  Se  Se244  1  0.08560766  0.57864125  0.69652400  1
  Se  Se245  1  0.08085384  0.92123529  0.19739807  1
  Se  Se246  1  0.08468429  0.91460917  0.69648824  1
  Se  Se247  1  0.41640755  0.24127935  0.19560765  1
  Se  Se248  1  0.41164228  0.25371890  0.70059496  1
  Se  Se249  1  0.44058949  0.54849139  0.19307476  1
  Se  Se250  1  0.41486348  0.58954113  0.69703371  1
  Se  Se251  1  0.41169319  0.90967187  0.20284802  1
  Se  Se252  1  0.41730891  0.91530943  0.69187485  1
  Se  Se253  1  0.75642435  0.24383127  0.19611698  1
  Se  Se254  1  0.75355584  0.24867912  0.69687837  1
  Se  Se255  1  0.75946978  0.57174898  0.19477115  1
  Se  Se256  1  0.75970220  0.58281586  0.68703664  1
  Se  Se257  1  0.75072543  0.91654902  0.20041773  1
  Se  Se258  1  0.75439265  0.90324810  0.68840956  1
