# generated using pymatgen
data_In86Cu29Se144
_symmetry_space_group_name_H-M   'P 1'
_cell_length_a   17.57488563
_cell_length_b   17.57397515
_cell_length_c   23.42107251
_cell_angle_alpha   90.01025281
_cell_angle_beta   90.01978948
_cell_angle_gamma   90.00055486
_symmetry_Int_Tables_number   1
_chemical_formula_structural   In86Cu29Se144
_chemical_formula_sum   'In86 Cu29 Se144'
_cell_volume   7233.84603498
_cell_formula_units_Z   1
loop_
 _symmetry_equiv_pos_site_id
 _symmetry_equiv_pos_as_xyz
  1  'x, y, z'
loop_
 _atom_site_type_symbol
 _atom_site_label
 _atom_site_symmetry_multiplicity
 _atom_site_fract_x
 _atom_site_fract_y
 _atom_site_fract_z
 _atom_site_occupancy
  In  In0  1  -0.00889721  0.14516536  0.10706343  1
  In  In1  1  0.00218847  0.15125478  0.62983794  1
  In  In2  1  -0.00351964  0.49324467  0.12134599  1
  In  In3  1  -0.00090217  0.50857244  0.61347395  1
  In  In4  1  -0.00096828  0.86490469  0.12529960  1
  In  In5  1  -0.00099881  0.82193140  0.61843270  1
  In  In6  1  0.33434527  0.16768435  0.12488288  1
  In  In7  1  0.34394572  0.16024256  0.62996055  1
  In  In8  1  0.32706740  0.50522141  0.13362035  1
  In  In9  1  0.33035444  0.49286973  0.61992920  1
  In  In10  1  0.34120207  0.82135308  0.13567639  1
  In  In11  1  0.33122967  0.84693871  0.62207561  1
  In  In12  1  0.66775075  0.16366635  0.11886926  1
  In  In13  1  0.66257090  0.17988994  0.62759028  1
  In  In14  1  0.67979838  0.49267245  0.14474941  1
  In  In15  1  0.67706203  0.50431561  0.61766590  1
  In  In16  1  0.66376405  0.83661458  0.11821779  1
  In  In17  1  0.65370266  0.83057427  0.62882972  1
  In  In18  1  0.16169076  -0.01307317  0.35520007  1
  In  In19  1  0.18205453  0.00018627  0.87543208  1
  In  In20  1  0.17712248  0.33977228  0.37176313  1
  In  In21  1  0.17760683  0.32259442  0.88255792  1
  In  In22  1  0.17168333  0.65909265  0.38274905  1
  In  In23  1  0.15315340  0.66954238  0.87824397  1
  In  In24  1  0.50169744  0.00621702  0.36680173  1
  In  In25  1  0.49193125  0.00892500  0.89286129  1
  In  In26  1  0.49943490  0.33272707  0.37287134  1
  In  In27  1  0.48681910  0.33219347  0.87401768  1
  In  In28  1  0.49414901  0.66069536  0.37019669  1
  In  In29  1  0.51868723  0.65513484  0.87355654  1
  In  In30  1  0.83239322  -0.00033818  0.35851924  1
  In  In31  1  0.81808238  0.00754184  0.90467126  1
  In  In32  1  0.82661890  0.34678513  0.36958116  1
  In  In33  1  0.84101376  0.33270821  0.88714606  1
  In  In34  1  0.82255408  0.66069028  0.36627586  1
  In  In35  1  0.82334828  0.67297856  0.88588800  1
  In  In36  1  0.00650103  0.15974034  0.36711836  1
  In  In37  1  -0.00552518  0.16477306  0.89033555  1
  In  In38  1  -0.00451389  0.50855649  0.38726160  1
  In  In39  1  0.00157324  0.50418585  0.88756823  1
  In  In40  1  -0.00387959  0.83815675  0.36922582  1
  In  In41  1  -0.00857730  0.82969963  0.88182924  1
  In  In42  1  0.34008060  0.17771831  0.36243316  1
  In  In43  1  0.33694680  0.16568351  0.87931522  1
  In  In44  1  0.33584848  0.49921306  0.37749675  1
  In  In45  1  0.34055373  0.48194764  0.87382364  1
  In  In46  1  0.31924562  0.81763350  0.35358418  1
  In  In47  1  0.32630161  0.84770197  0.87566081  1
  In  In48  1  0.65688437  0.15755129  0.36329943  1
  In  In49  1  0.66660157  0.16153919  0.89617626  1
  In  In50  1  0.66442416  0.49537638  0.37025018  1
  In  In51  1  0.66185656  0.51605151  0.87482268  1
  In  In52  1  0.66519521  0.83583589  0.36242909  1
  In  In53  1  0.66993682  0.82582932  0.89046275  1
  In  In54  1  0.15911358  0.00353943  0.13575009  1
  In  In55  1  0.18071102  0.00835217  0.61865032  1
  In  In56  1  0.17443367  0.33705609  0.12389637  1
  In  In57  1  0.16982063  0.34720933  0.62474358  1
  In  In58  1  0.18178870  0.67241793  0.12964264  1
  In  In59  1  0.15980735  0.66530314  0.60667693  1
  In  In60  1  0.50403647  0.00007495  0.11826408  1
  In  In61  1  0.48580828  -0.00082826  0.62430120  1
  In  In62  1  0.50886645  0.32465660  0.13069156  1
  In  In63  1  0.49449205  0.32509419  0.61809516  1
  In  In64  1  0.49736426  0.66972819  0.13217226  1
  In  In65  1  0.51647312  0.66348703  0.62681703  1
  In  In66  1  0.82792265  0.00146991  0.11522195  1
  In  In67  1  0.84035543  -0.00392631  0.63088832  1
  In  In68  1  0.82855649  0.32773305  0.12111626  1
  In  In69  1  0.81960647  0.34058340  0.62790418  1
  In  In70  1  0.82174154  0.65619747  0.12516315  1
  In  In71  1  0.83507188  0.65626420  0.62668985  1
  In  In72  1  0.66187056  0.33634369  0.75296164  1
  In  In73  1  -0.00129260  0.32718597  0.24322394  1
  In  In74  1  -0.00263798  0.66615090  0.74444423  1
  In  In75  1  0.65943670  0.00252634  0.77213211  1
  In  In76  1  0.49300052  0.83034434  0.49502777  1
  In  In77  1  0.00495610  0.33428392  0.75622063  1
  In  In78  1  0.33320663  0.66860738  0.74475765  1
  In  In79  1  0.83032117  0.17455037  0.50562386  1
  In  In80  1  0.17606505  0.17200872  0.48628063  1
  In  In81  1  0.83284003  0.82544389  0.48593109  1
  In  In82  1  0.16512278  0.83628646  0.00551705  1
  In  In83  1  -0.00117544  0.67023581  0.25162686  1
  In  In84  1  -0.00139136  -0.00161950  0.76201437  1
  In  In85  1  0.50074409  0.49735733  0.00009707  1
  Cu  Cu86  1  0.49527205  0.50085012  0.25331891  1
  Cu  Cu87  1  0.51009885  0.84206229  0.24482320  1
  Cu  Cu88  1  0.67111668  0.66021891  0.49696643  1
  Cu  Cu89  1  0.81705181  0.83379977  0.76253986  1
  Cu  Cu90  1  0.16820985  0.50173289  0.25441191  1
  Cu  Cu91  1  0.33328091  0.33029852  0.00182730  1
  Cu  Cu92  1  0.66050820  0.33454299  0.49732878  1
  Cu  Cu93  1  0.49789596  0.16132071  0.75470338  1
  Cu  Cu94  1  0.66763027  0.33675593  0.00911665  1
  Cu  Cu95  1  0.00072759  -0.00190140  0.48853413  1
  Cu  Cu96  1  0.16607448  0.84522483  0.74317161  1
  Cu  Cu97  1  0.18003806  0.17117714  0.75248051  1
  Cu  Cu98  1  0.16504506  0.16298916  0.24501951  1
  Cu  Cu99  1  0.66468842  0.66155146  0.00593755  1
  Cu  Cu100  1  0.00702496  0.33858971  0.00458355  1
  Cu  Cu101  1  0.82899063  0.16504203  0.23712610  1
  Cu  Cu102  1  0.33609879  0.33389917  0.49521832  1
  Cu  Cu103  1  0.33111966  0.00250766  0.00517913  1
  Cu  Cu104  1  0.17714964  0.49664814  0.75006381  1
  Cu  Cu105  1  0.33445894  -0.00007204  0.49350993  1
  Cu  Cu106  1  0.83447217  0.83915963  0.24010116  1
  Cu  Cu107  1  -0.00210381  0.66624787  0.00687156  1
  Cu  Cu108  1  0.33534041  0.66501456  0.49385894  1
  Cu  Cu109  1  0.33574850  0.66576991  0.00902269  1
  Cu  Cu110  1  0.83056038  0.50382594  0.75021495  1
  Cu  Cu111  1  0.50031072  0.16969591  0.24200014  1
  Cu  Cu112  1  0.49763339  0.82940799  0.75292784  1
  Cu  Cu113  1  0.66177718  0.01005075  0.49402411  1
  Cu  Cu114  1  -0.00420028  0.33848965  0.50254755  1
  Se  Se115  1  0.09624581  0.07479847  0.05178070  1
  Se  Se116  1  0.08018581  0.08147738  0.54746882  1
  Se  Se117  1  0.09168486  0.42180266  0.05568765  1
  Se  Se118  1  0.08496423  0.41871713  0.55275388  1
  Se  Se119  1  0.07591088  0.74753574  0.06763320  1
  Se  Se120  1  0.08340236  0.75799684  0.54471252  1
  Se  Se121  1  0.41745271  0.08790076  0.05385661  1
  Se  Se122  1  0.41432183  0.08256986  0.55044838  1
  Se  Se123  1  0.41118634  0.41219751  0.06356459  1
  Se  Se124  1  0.41870283  0.41600504  0.55090457  1
  Se  Se125  1  0.42035409  0.75016934  0.05742163  1
  Se  Se126  1  0.41059555  0.74130463  0.56263150  1
  Se  Se127  1  0.76035504  0.09847401  0.04809710  1
  Se  Se128  1  0.74345466  0.07522572  0.56359494  1
  Se  Se129  1  0.74768828  0.42424781  0.05989854  1
  Se  Se130  1  0.75194363  0.41426962  0.54804003  1
  Se  Se131  1  0.75035706  0.74652299  0.05524633  1
  Se  Se132  1  0.74234242  0.74874159  0.55784580  1
  Se  Se133  1  0.24823913  0.24744828  0.05433246  1
  Se  Se134  1  0.25696353  0.25365708  0.55928696  1
  Se  Se135  1  0.24939628  0.58201771  0.05719448  1
  Se  Se136  1  0.25430535  0.58112786  0.55041321  1
  Se  Se137  1  0.25862218  0.91768952  0.06710309  1
  Se  Se138  1  0.24863611  0.91865965  0.54692746  1
  Se  Se139  1  0.57965059  0.24972860  0.05217686  1
  Se  Se140  1  0.58268142  0.24485779  0.54984249  1
  Se  Se141  1  0.58761491  0.57925742  0.06709403  1
  Se  Se142  1  0.58444198  0.58112430  0.55070370  1
  Se  Se143  1  0.58581087  0.92015515  0.04685318  1
  Se  Se144  1  0.58626485  0.92427419  0.55452356  1
  Se  Se145  1  0.92007100  0.25406328  0.05352701  1
  Se  Se146  1  0.92710643  0.25778411  0.56867961  1
  Se  Se147  1  0.91337359  0.58066014  0.05706076  1
  Se  Se148  1  0.91576942  0.59331745  0.54994553  1
  Se  Se149  1  0.91254507  0.91631497  0.04740157  1
  Se  Se150  1  0.91823441  0.92213869  0.55046178  1
  Se  Se151  1  0.07139715  0.26069877  0.43753203  1
  Se  Se152  1  0.08465828  0.25139375  0.94960550  1
  Se  Se153  1  0.09111240  0.57674632  0.45126530  1
  Se  Se154  1  0.08663835  0.58716966  0.95447930  1
  Se  Se155  1  0.08525471  0.91804164  0.43602248  1
  Se  Se156  1  0.08060068  0.92351804  0.93906620  1
  Se  Se157  1  0.41591836  0.24726139  0.44225581  1
  Se  Se158  1  0.42011351  0.24864089  0.94965932  1
  Se  Se159  1  0.42246622  0.58126353  0.44639303  1
  Se  Se160  1  0.40935798  0.58852217  0.94040005  1
  Se  Se161  1  0.40949129  0.91744268  0.43087169  1
  Se  Se162  1  0.40948474  0.91310428  0.95212968  1
  Se  Se163  1  0.74185663  0.25236362  0.43740783  1
  Se  Se164  1  0.75236589  0.25471476  0.95382667  1
  Se  Se165  1  0.75075416  0.57783796  0.44052686  1
  Se  Se166  1  0.74826194  0.57857516  0.95116011  1
  Se  Se167  1  0.74257208  0.92861550  0.43717992  1
  Se  Se168  1  0.74725702  0.90613249  0.96174950  1
  Se  Se169  1  0.25639138  0.07567687  0.42770387  1
  Se  Se170  1  0.25026042  0.08575524  0.94909912  1
  Se  Se171  1  0.24874571  0.41838835  0.44756680  1
  Se  Se172  1  0.25311274  0.41717234  0.94815354  1
  Se  Se173  1  0.25697840  0.75435166  0.44238430  1
  Se  Se174  1  0.25532270  0.74359057  0.94369312  1
  Se  Se175  1  0.57652637  0.08950605  0.44195938  1
  Se  Se176  1  0.59608801  0.06418203  0.95863152  1
  Se  Se177  1  0.57959507  0.41832353  0.44262616  1
  Se  Se178  1  0.59124551  0.40789192  0.93860771  1
  Se  Se179  1  0.59344290  0.74680488  0.43873257  1
  Se  Se180  1  0.57768948  0.74024966  0.95160242  1
  Se  Se181  1  0.91347759  0.08175300  0.43855887  1
  Se  Se182  1  0.92556226  0.07514676  0.95914361  1
  Se  Se183  1  0.91074531  0.41419347  0.44551805  1
  Se  Se184  1  0.91819518  0.42141554  0.95400713  1
  Se  Se185  1  0.92535091  0.73379984  0.43287441  1
  Se  Se186  1  0.91440718  0.74877810  0.95287589  1
  Se  Se187  1  0.24242669  0.25143969  0.29857473  1
  Se  Se188  1  0.26099440  0.25398093  0.80701902  1
  Se  Se189  1  0.25238877  0.58341707  0.30832764  1
  Se  Se190  1  0.24521196  0.58421374  0.81287855  1
  Se  Se191  1  0.26895981  0.93009382  0.29453470  1
  Se  Se192  1  0.25264429  0.92229128  0.79711463  1
  Se  Se193  1  0.58099243  0.25215778  0.30028691  1
  Se  Se194  1  0.58264672  0.23652591  0.81511388  1
  Se  Se195  1  0.58337189  0.58440089  0.30300506  1
  Se  Se196  1  0.57502105  0.56839949  0.79619210  1
  Se  Se197  1  0.59027049  0.92862722  0.29817731  1
  Se  Se198  1  0.56982409  0.90493129  0.82235809  1
  Se  Se199  1  0.90530447  0.23970380  0.30638163  1
  Se  Se200  1  0.91381148  0.24331233  0.81224628  1
  Se  Se201  1  0.91251057  0.56974532  0.30421897  1
  Se  Se202  1  0.91285748  0.58107825  0.81223246  1
  Se  Se203  1  0.92111917  0.91837162  0.29476207  1
  Se  Se204  1  0.89795867  0.91572129  0.81924723  1
  Se  Se205  1  0.07736433  0.07866828  0.29335947  1
  Se  Se206  1  0.09267062  0.09575543  0.81182755  1
  Se  Se207  1  0.07973674  0.42230481  0.30904185  1
  Se  Se208  1  0.09299930  0.42670477  0.81462706  1
  Se  Se209  1  0.09401418  0.75230073  0.31106574  1
  Se  Se210  1  0.08575610  0.76492548  0.80325777  1
  Se  Se211  1  0.41792799  0.08676864  0.29716935  1
  Se  Se212  1  0.41819762  0.07779345  0.81114538  1
  Se  Se213  1  0.41218880  0.41480629  0.30558836  1
  Se  Se214  1  0.42768161  0.42099440  0.79947369  1
  Se  Se215  1  0.43031369  0.75486083  0.29919876  1
  Se  Se216  1  0.41638493  0.75159310  0.81504269  1
  Se  Se217  1  0.74670456  0.08292441  0.29456506  1
  Se  Se218  1  0.75918698  0.09210051  0.82036729  1
  Se  Se219  1  0.74018528  0.41165332  0.29732440  1
  Se  Se220  1  0.75937309  0.42044738  0.81340566  1
  Se  Se221  1  0.75576202  0.75635649  0.29844545  1
  Se  Se222  1  0.73851760  0.74389918  0.81145849  1
  Se  Se223  1  0.25541910  0.08282118  0.19601279  1
  Se  Se224  1  0.25392265  0.08130930  0.69679891  1
  Se  Se225  1  0.24858646  0.41517041  0.20079131  1
  Se  Se226  1  0.25850988  0.41215775  0.69824636  1
  Se  Se227  1  0.25307702  0.74796742  0.20576377  1
  Se  Se228  1  0.23762243  0.75518657  0.68469335  1
  Se  Se229  1  0.58354858  0.08502040  0.18970796  1
  Se  Se230  1  0.58036209  0.08335899  0.69371644  1
  Se  Se231  1  0.57827446  0.41634318  0.20093442  1
  Se  Se232  1  0.58289334  0.41817554  0.68205296  1
  Se  Se233  1  0.58947369  0.75290358  0.19319875  1
  Se  Se234  1  0.58474783  0.74764525  0.70325731  1
  Se  Se235  1  0.91487246  0.08004087  0.18836086  1
  Se  Se236  1  0.90498943  0.09190210  0.70308024  1
  Se  Se237  1  0.90525874  0.42195221  0.19362471  1
  Se  Se238  1  0.91595748  0.42619921  0.69197327  1
  Se  Se239  1  0.91595191  0.75615426  0.18305765  1
  Se  Se240  1  0.90068182  0.76459786  0.69553756  1
  Se  Se241  1  0.08386715  0.23794974  0.18114953  1
  Se  Se242  1  0.09336231  0.24261449  0.69114155  1
  Se  Se243  1  0.08794530  0.57647326  0.19097632  1
  Se  Se244  1  0.09521479  0.57638118  0.69031465  1
  Se  Se245  1  0.09826405  0.90018980  0.20027108  1
  Se  Se246  1  0.07999043  0.92013858  0.68430412  1
  Se  Se247  1  0.41090045  0.25525489  0.19603284  1
  Se  Se248  1  0.42274157  0.24779591  0.69737894  1
  Se  Se249  1  0.41327563  0.58664709  0.19993850  1
  Se  Se250  1  0.42190278  0.57722335  0.68785142  1
  Se  Se251  1  0.42281781  0.92045277  0.19163602  1
  Se  Se252  1  0.41706995  0.91333742  0.69812163  1
  Se  Se253  1  0.74333417  0.25187699  0.19161419  1
  Se  Se254  1  0.75983737  0.24180481  0.70030378  1
  Se  Se255  1  0.74781890  0.59324410  0.20733434  1
  Se  Se256  1  0.74645122  0.58530123  0.69684937  1
  Se  Se257  1  0.74795115  0.92018249  0.18767210  1
  Se  Se258  1  0.74467230  0.91666565  0.69796117  1
