# generated using pymatgen
data_In86Cu29Se144
_symmetry_space_group_name_H-M   'P 1'
_cell_length_a   17.57576687
_cell_length_b   17.57564853
_cell_length_c   23.43838666
_cell_angle_alpha   90.00292148
_cell_angle_beta   90.02476428
_cell_angle_gamma   90.00452745
_symmetry_Int_Tables_number   1
_chemical_formula_structural   In86Cu29Se144
_chemical_formula_sum   'In86 Cu29 Se144'
_cell_volume   7240.24586703
_cell_formula_units_Z   1
loop_
 _symmetry_equiv_pos_site_id
 _symmetry_equiv_pos_as_xyz
  1  'x, y, z'
loop_
 _atom_site_type_symbol
 _atom_site_label
 _atom_site_symmetry_multiplicity
 _atom_site_fract_x
 _atom_site_fract_y
 _atom_site_fract_z
 _atom_site_occupancy
  In  In0  1  -0.00417164  0.17618650  0.12487450  1
  In  In1  1  0.01607478  0.17506351  0.63017722  1
  In  In2  1  0.00564958  0.49642994  0.12472898  1
  In  In3  1  0.00823500  0.49153237  0.63240970  1
  In  In4  1  -0.00072247  0.82386229  0.12121828  1
  In  In5  1  0.00301544  0.81767295  0.62585926  1
  In  In6  1  0.34388340  0.16122050  0.13004218  1
  In  In7  1  0.33519276  0.14769099  0.62760052  1
  In  In8  1  0.32310497  0.49791941  0.12084576  1
  In  In9  1  0.34365082  0.51105559  0.61717289  1
  In  In10  1  0.32926815  0.84626506  0.12958243  1
  In  In11  1  0.33495029  0.82912381  0.62534349  1
  In  In12  1  0.67568840  0.17595278  0.11938125  1
  In  In13  1  0.65164152  0.16912090  0.62432992  1
  In  In14  1  0.65144672  0.49919525  0.12263133  1
  In  In15  1  0.66570268  0.50969472  0.62883495  1
  In  In16  1  0.67096082  0.82695900  0.12372758  1
  In  In17  1  0.66206950  0.83991316  0.63435095  1
  In  In18  1  0.18082675  -0.02123143  0.37457628  1
  In  In19  1  0.16297864  -0.01416844  0.86950637  1
  In  In20  1  0.17499725  0.34065567  0.36812795  1
  In  In21  1  0.16737205  0.35018372  0.87778488  1
  In  In22  1  0.16010907  0.67423375  0.38079453  1
  In  In23  1  0.16678511  0.66879747  0.87092747  1
  In  In24  1  0.49348513  0.00477410  0.38067731  1
  In  In25  1  0.49918782  0.00156008  0.87055885  1
  In  In26  1  0.49808135  0.33420834  0.37490728  1
  In  In27  1  0.50131716  0.33159259  0.88626388  1
  In  In28  1  0.49319521  0.67353688  0.38844742  1
  In  In29  1  0.48814510  0.66355781  0.86884585  1
  In  In30  1  0.83611230  0.00414782  0.37138806  1
  In  In31  1  0.82602806  0.00705124  0.88274411  1
  In  In32  1  0.83697220  0.33471620  0.35441997  1
  In  In33  1  0.83128400  0.32288575  0.87839747  1
  In  In34  1  0.83572288  0.65616204  0.37058144  1
  In  In35  1  0.84471952  0.67924356  0.86584054  1
  In  In36  1  -0.00083302  0.17926101  0.36710711  1
  In  In37  1  -0.01569703  0.16227427  0.87760082  1
  In  In38  1  0.00711916  0.50621047  0.36788353  1
  In  In39  1  0.00863046  0.51963807  0.86270784  1
  In  In40  1  0.02099272  0.83506326  0.36829244  1
  In  In41  1  0.01304221  0.81983837  0.88157379  1
  In  In42  1  0.33989861  0.17544700  0.36832916  1
  In  In43  1  0.34520321  0.16942838  0.87544280  1
  In  In44  1  0.33984712  0.49469543  0.38265455  1
  In  In45  1  0.32379877  0.50542275  0.88365658  1
  In  In46  1  0.32936035  0.84106033  0.37542406  1
  In  In47  1  0.31378111  0.82644307  0.85533487  1
  In  In48  1  0.65284482  0.16188250  0.37199866  1
  In  In49  1  0.66781808  0.16102097  0.88194496  1
  In  In50  1  0.66759309  0.49220826  0.37493588  1
  In  In51  1  0.65191719  0.49774196  0.87358856  1
  In  In52  1  0.66416775  0.82381593  0.37680284  1
  In  In53  1  0.67029411  0.84384303  0.87116911  1
  In  In54  1  0.18084872  -0.00385400  0.12482834  1
  In  In55  1  0.19904635  -0.01087069  0.64239288  1
  In  In56  1  0.15721378  0.34361989  0.13123260  1
  In  In57  1  0.15312881  0.33290626  0.62494877  1
  In  In58  1  0.15990712  0.66020552  0.11799975  1
  In  In59  1  0.17472455  0.66873591  0.62303740  1
  In  In60  1  0.47962319  0.00057170  0.12782475  1
  In  In61  1  0.50093783  -0.00313422  0.62413606  1
  In  In62  1  0.50108855  0.33479484  0.12877790  1
  In  In63  1  0.49810737  0.33052122  0.61354259  1
  In  In64  1  0.50905583  0.66473119  0.12449622  1
  In  In65  1  0.49717934  0.66808889  0.62781922  1
  In  In66  1  0.83089233  -0.00496466  0.11660068  1
  In  In67  1  0.83378267  -0.01495293  0.62897677  1
  In  In68  1  0.83846008  0.32169503  0.13341752  1
  In  In69  1  0.84817146  0.34539880  0.62752380  1
  In  In70  1  0.84146304  0.68518217  0.11938443  1
  In  In71  1  0.83837051  0.65003219  0.64593849  1
  In  In72  1  0.16734322  0.16597981  0.00553424  1
  In  In73  1  -0.00220263  -0.00176649  0.75273304  1
  In  In74  1  0.17225669  0.16388000  0.50671036  1
  In  In75  1  0.00409695  0.00271427  0.24805162  1
  In  In76  1  0.66844849  0.00362077  0.24738798  1
  In  In77  1  0.49456478  0.83246681  0.00165599  1
  In  In78  1  0.32640529  0.33254186  0.75170373  1
  In  In79  1  0.67022282  0.66414285  0.24681206  1
  In  In80  1  0.83070791  0.50034433  0.50278118  1
  In  In81  1  0.83075017  0.49802702  -0.00847897  1
  In  In82  1  0.82845508  0.16556383  0.49267088  1
  In  In83  1  0.67168928  0.33301716  0.75208119  1
  In  In84  1  0.83009354  0.82355187  0.50256319  1
  In  In85  1  0.32963608  0.67037400  0.25662533  1
  Cu  Cu86  1  0.17130277  0.16289097  0.24550523  1
  Cu  Cu87  1  -0.00307565  -0.00639726  -0.00295997  1
  Cu  Cu88  1  0.33015287  0.66641624  -0.00698360  1
  Cu  Cu89  1  0.00367561  0.66836854  -0.00708686  1
  Cu  Cu90  1  0.49323624  0.50091033  0.75026870  1
  Cu  Cu91  1  0.33361713  0.33404633  0.49408352  1
  Cu  Cu92  1  0.00664970  0.66536242  0.49915083  1
  Cu  Cu93  1  0.49958588  0.15718997  0.74961104  1
  Cu  Cu94  1  0.01542827  -0.00242080  0.49798028  1
  Cu  Cu95  1  0.00041045  0.34018386  0.49833542  1
  Cu  Cu96  1  -0.00009390  0.33601663  0.00438358  1
  Cu  Cu97  1  0.34016827  0.33488832  0.00509507  1
  Cu  Cu98  1  0.50108341  0.17250203  0.25136444  1
  Cu  Cu99  1  0.49819802  0.83565900  0.74743440  1
  Cu  Cu100  1  0.33266369  0.66627414  0.50267469  1
  Cu  Cu101  1  0.66027094  -0.00184200  0.50272031  1
  Cu  Cu102  1  0.65715406  0.67085400  0.51095430  1
  Cu  Cu103  1  0.16585288  0.49720959  0.24799291  1
  Cu  Cu104  1  0.82859117  0.16384962  0.75602496  1
  Cu  Cu105  1  0.33815113  -0.00498822  0.50273093  1
  Cu  Cu106  1  0.83799639  0.50041497  0.24361256  1
  Cu  Cu107  1  0.17045673  0.50870935  0.74924312  1
  Cu  Cu108  1  0.49631280  0.49783936  0.25365992  1
  Cu  Cu109  1  0.82926882  0.83446960  0.75494899  1
  Cu  Cu110  1  0.33203988  -0.00489476  -0.00169967  1
  Cu  Cu111  1  0.66065365  0.00352866  -0.00244651  1
  Cu  Cu112  1  0.65944842  0.33141856  0.49470085  1
  Cu  Cu113  1  0.66387259  0.33152770  0.00281659  1
  Cu  Cu114  1  0.66595862  0.66766920  -0.00008286  1
  Se  Se115  1  0.07470874  0.07276432  0.06222321  1
  Se  Se116  1  0.08594242  0.07109512  0.56724379  1
  Se  Se117  1  0.08736602  0.41981487  0.05144391  1
  Se  Se118  1  0.08375993  0.42127129  0.55217393  1
  Se  Se119  1  0.08615416  0.75090743  0.04870829  1
  Se  Se120  1  0.08828460  0.75039834  0.55189387  1
  Se  Se121  1  0.41237992  0.08180771  0.05045200  1
  Se  Se122  1  0.42093462  0.08237672  0.55289279  1
  Se  Se123  1  0.42015933  0.42103150  0.05924012  1
  Se  Se124  1  0.41646598  0.41764599  0.54938820  1
  Se  Se125  1  0.40530523  0.74117684  0.06217445  1
  Se  Se126  1  0.41854437  0.74922653  0.55469432  1
  Se  Se127  1  0.74808064  0.08265368  0.05219064  1
  Se  Se128  1  0.74769808  0.07500501  0.56027369  1
  Se  Se129  1  0.74753579  0.41269816  0.06052469  1
  Se  Se130  1  0.73977043  0.40511751  0.56014972  1
  Se  Se131  1  0.74996739  0.75376685  0.04841417  1
  Se  Se132  1  0.74925755  0.73728590  0.57102388  1
  Se  Se133  1  0.25556284  0.25695508  0.06566103  1
  Se  Se134  1  0.26129761  0.25840765  0.56421015  1
  Se  Se135  1  0.24826470  0.58298999  0.04934862  1
  Se  Se136  1  0.24698643  0.58010876  0.55071695  1
  Se  Se137  1  0.24876027  0.91076499  0.04953568  1
  Se  Se138  1  0.25107541  0.91548738  0.55595898  1
  Se  Se139  1  0.57857530  0.25007044  0.05627354  1
  Se  Se140  1  0.57943190  0.24393641  0.54656682  1
  Se  Se141  1  0.58008522  0.58413371  0.04880494  1
  Se  Se142  1  0.57739780  0.57900461  0.55813109  1
  Se  Se143  1  0.58457766  0.92428165  0.06230086  1
  Se  Se144  1  0.58374996  0.91033583  0.55639127  1
  Se  Se145  1  0.91309531  0.25199771  0.05211882  1
  Se  Se146  1  0.92290215  0.25228902  0.55478565  1
  Se  Se147  1  0.92144778  0.58721214  0.05337543  1
  Se  Se148  1  0.92252935  0.58973827  0.56064260  1
  Se  Se149  1  0.91638250  0.90957421  0.05308086  1
  Se  Se150  1  0.92678892  0.91955288  0.55445810  1
  Se  Se151  1  0.08272853  0.25422033  0.44352372  1
  Se  Se152  1  0.07853661  0.25340715  0.94206727  1
  Se  Se153  1  0.08463813  0.57765160  0.44540985  1
  Se  Se154  1  0.08784049  0.58313066  0.94283573  1
  Se  Se155  1  0.09374322  0.90873625  0.44735736  1
  Se  Se156  1  0.08689199  0.91470491  0.94759426  1
  Se  Se157  1  0.41780299  0.24811009  0.44501676  1
  Se  Se158  1  0.41787871  0.24660499  0.95239678  1
  Se  Se159  1  0.41801337  0.58050613  0.45201717  1
  Se  Se160  1  0.41987118  0.58294046  0.94663334  1
  Se  Se161  1  0.41948067  0.91168390  0.44728449  1
  Se  Se162  1  0.40659088  0.91339485  0.93475096  1
  Se  Se163  1  0.74607580  0.26174767  0.43297137  1
  Se  Se164  1  0.74794340  0.24793172  0.94976806  1
  Se  Se165  1  0.73810433  0.59496291  0.44584967  1
  Se  Se166  1  0.74359501  0.59240996  0.93412071  1
  Se  Se167  1  0.74662397  0.92431613  0.44228224  1
  Se  Se168  1  0.74584511  0.91715611  0.94915849  1
  Se  Se169  1  0.25910500  0.07791769  0.44112395  1
  Se  Se170  1  0.25182500  0.07858741  0.93935336  1
  Se  Se171  1  0.24480287  0.41689527  0.44713349  1
  Se  Se172  1  0.25176945  0.41524381  0.95382545  1
  Se  Se173  1  0.25489341  0.74972916  0.44378659  1
  Se  Se174  1  0.25099525  0.75329704  0.93984187  1
  Se  Se175  1  0.58196686  0.08496882  0.44886027  1
  Se  Se176  1  0.57362567  0.08330266  0.94544614  1
  Se  Se177  1  0.57923085  0.42087189  0.44498897  1
  Se  Se178  1  0.58284533  0.41919501  0.95175073  1
  Se  Se179  1  0.58257691  0.75634245  0.45297002  1
  Se  Se180  1  0.58468930  0.74747251  0.93810606  1
  Se  Se181  1  0.93341050  0.07747474  0.44087584  1
  Se  Se182  1  0.91235887  0.08424648  0.95372869  1
  Se  Se183  1  0.91515800  0.41175614  0.43670278  1
  Se  Se184  1  0.92900567  0.41393625  0.93519511  1
  Se  Se185  1  0.92346534  0.74295985  0.43839793  1
  Se  Se186  1  0.91304023  0.75237525  0.94726531  1
  Se  Se187  1  0.25007521  0.25027043  0.30078858  1
  Se  Se188  1  0.24038260  0.24559843  0.81578810  1
  Se  Se189  1  0.24350437  0.57367200  0.31348154  1
  Se  Se190  1  0.25667928  0.58483931  0.80550270  1
  Se  Se191  1  0.25659060  0.91339321  0.29565413  1
  Se  Se192  1  0.25348338  0.93230275  0.79363251  1
  Se  Se193  1  0.58441376  0.25555870  0.30414865  1
  Se  Se194  1  0.57574855  0.24417308  0.80915318  1
  Se  Se195  1  0.57499760  0.58322544  0.31192421  1
  Se  Se196  1  0.57847902  0.58350191  0.80241223  1
  Se  Se197  1  0.58253932  0.91633720  0.31216591  1
  Se  Se198  1  0.58132251  0.91876874  0.80205346  1
  Se  Se199  1  0.91885457  0.24687584  0.29235073  1
  Se  Se200  1  0.91388213  0.24895964  0.80428835  1
  Se  Se201  1  0.91899212  0.58317198  0.29879861  1
  Se  Se202  1  0.91265500  0.58685783  0.79764578  1
  Se  Se203  1  0.91363241  0.90978445  0.30801179  1
  Se  Se204  1  0.91067486  0.91213060  0.81740085  1
  Se  Se205  1  0.09686430  0.08637871  0.31382945  1
  Se  Se206  1  0.08463787  0.09196076  0.81191991  1
  Se  Se207  1  0.08068334  0.41265852  0.30130480  1
  Se  Se208  1  0.08858022  0.42291349  0.80226991  1
  Se  Se209  1  0.08006919  0.73710014  0.30115916  1
  Se  Se210  1  0.08057056  0.74769496  0.80228683  1
  Se  Se211  1  0.42078135  0.08466398  0.30425251  1
  Se  Se212  1  0.41018636  0.08054956  0.80174093  1
  Se  Se213  1  0.41151117  0.41493292  0.30595602  1
  Se  Se214  1  0.42000826  0.41795585  0.81324484  1
  Se  Se215  1  0.42813940  0.75748285  0.30989734  1
  Se  Se216  1  0.41434996  0.74980537  0.79810282  1
  Se  Se217  1  0.75942042  0.09714432  0.30566869  1
  Se  Se218  1  0.74458523  0.08137333  0.80736211  1
  Se  Se219  1  0.74805555  0.42523254  0.29748734  1
  Se  Se220  1  0.75726998  0.42338204  0.81322579  1
  Se  Se221  1  0.76020637  0.75692882  0.30641232  1
  Se  Se222  1  0.74259283  0.74994091  0.80416012  1
  Se  Se223  1  0.25641082  0.07901258  0.19631955  1
  Se  Se224  1  0.22606432  0.11397964  0.69521313  1
  Se  Se225  1  0.25340755  0.41580025  0.19730337  1
  Se  Se226  1  0.24750358  0.42591971  0.68692394  1
  Se  Se227  1  0.24232625  0.75007566  0.18855070  1
  Se  Se228  1  0.25306856  0.74883053  0.69522948  1
  Se  Se229  1  0.57566455  0.09056705  0.18736518  1
  Se  Se230  1  0.58597834  0.07888088  0.69537123  1
  Se  Se231  1  0.58343735  0.41886737  0.19959312  1
  Se  Se232  1  0.57173654  0.41522983  0.69251100  1
  Se  Se233  1  0.57475373  0.76112267  0.19615817  1
  Se  Se234  1  0.58249734  0.74837265  0.69756525  1
  Se  Se235  1  0.90767556  0.08591156  0.18881615  1
  Se  Se236  1  0.90983235  0.09106210  0.68871472  1
  Se  Se237  1  0.92187560  0.41482683  0.19311774  1
  Se  Se238  1  0.91391399  0.42605755  0.70216235  1
  Se  Se239  1  0.92199138  0.74779255  0.19665823  1
  Se  Se240  1  0.91423924  0.75451359  0.69997386  1
  Se  Se241  1  0.08511426  0.24588947  0.19544665  1
  Se  Se242  1  0.07605858  0.26509108  0.70277441  1
  Se  Se243  1  0.08479237  0.58180096  0.19404967  1
  Se  Se244  1  0.08676777  0.58791304  0.69215695  1
  Se  Se245  1  0.09025343  0.91059592  0.18923009  1
  Se  Se246  1  0.08675979  0.90964994  0.69211602  1
  Se  Se247  1  0.41520266  0.25419618  0.19799455  1
  Se  Se248  1  0.42362842  0.24567732  0.69204273  1
  Se  Se249  1  0.42028037  0.58113666  0.19294952  1
  Se  Se250  1  0.41206424  0.58559240  0.69734724  1
  Se  Se251  1  0.41863068  0.91155769  0.20090938  1
  Se  Se252  1  0.41498277  0.91915921  0.69340923  1
  Se  Se253  1  0.73870114  0.25668111  0.19778383  1
  Se  Se254  1  0.75866298  0.24360498  0.68635354  1
  Se  Se255  1  0.75846982  0.57889365  0.18078237  1
  Se  Se256  1  0.74383089  0.57406181  0.70648132  1
  Se  Se257  1  0.75922579  0.90718890  0.19376168  1
  Se  Se258  1  0.74767630  0.92101088  0.70343204  1
