# generated using pymatgen
data_In86Cu29Se144
_symmetry_space_group_name_H-M   'P 1'
_cell_length_a   17.57520741
_cell_length_b   17.57779460
_cell_length_c   23.43298564
_cell_angle_alpha   89.97950445
_cell_angle_beta   89.97459240
_cell_angle_gamma   89.98903368
_symmetry_Int_Tables_number   1
_chemical_formula_structural   In86Cu29Se144
_chemical_formula_sum   'In86 Cu29 Se144'
_cell_volume   7239.23028910
_cell_formula_units_Z   1
loop_
 _symmetry_equiv_pos_site_id
 _symmetry_equiv_pos_as_xyz
  1  'x, y, z'
loop_
 _atom_site_type_symbol
 _atom_site_label
 _atom_site_symmetry_multiplicity
 _atom_site_fract_x
 _atom_site_fract_y
 _atom_site_fract_z
 _atom_site_occupancy
  In  In0  1  0.00061346  0.17085694  0.14121623  1
  In  In1  1  -0.00620815  0.16265566  0.61313826  1
  In  In2  1  -0.00428665  0.51113125  0.13434423  1
  In  In3  1  0.01367760  0.49930951  0.62120272  1
  In  In4  1  -0.00374610  0.83992764  0.12620941  1
  In  In5  1  0.02152802  0.82116235  0.64257708  1
  In  In6  1  0.31056732  0.16495486  0.13284503  1
  In  In7  1  0.33297521  0.16687587  0.61758613  1
  In  In8  1  0.34069496  0.51102082  0.12447899  1
  In  In9  1  0.33229244  0.50343031  0.62579872  1
  In  In10  1  0.33039971  0.83713843  0.13241828  1
  In  In11  1  0.32931304  0.82999110  0.63109502  1
  In  In12  1  0.67986920  0.17182338  0.13122286  1
  In  In13  1  0.65474767  0.15243516  0.61095144  1
  In  In14  1  0.67396950  0.49262718  0.13637031  1
  In  In15  1  0.65189647  0.50865595  0.62635057  1
  In  In16  1  0.66251756  0.81933168  0.12607458  1
  In  In17  1  0.66341427  0.84784709  0.62904415  1
  In  In18  1  0.16576152  -0.00379805  0.38136256  1
  In  In19  1  0.15789183  -0.00928462  0.84743747  1
  In  In20  1  0.15828927  0.33750660  0.37563137  1
  In  In21  1  0.16990643  0.32590158  0.87214156  1
  In  In22  1  0.17135662  0.66713832  0.37424679  1
  In  In23  1  0.16776291  0.67342088  0.86464755  1
  In  In24  1  0.48905553  0.00850320  0.38799356  1
  In  In25  1  0.48294651  -0.03448407  0.84175957  1
  In  In26  1  0.50382811  0.33215042  0.38209383  1
  In  In27  1  0.48837480  0.33632508  0.87102542  1
  In  In28  1  0.49345764  0.66770012  0.38097201  1
  In  In29  1  0.49393889  0.66647803  0.86968183  1
  In  In30  1  0.85469271  0.00174355  0.37381786  1
  In  In31  1  0.82002834  -0.00970673  0.86686153  1
  In  In32  1  0.83581546  0.32856580  0.37028783  1
  In  In33  1  0.84272700  0.34682298  0.88034345  1
  In  In34  1  0.83424544  0.66552106  0.36892572  1
  In  In35  1  0.84273077  0.66171294  0.88655648  1
  In  In36  1  0.00523001  0.16071149  0.37958047  1
  In  In37  1  0.00839328  0.17007668  0.87542591  1
  In  In38  1  0.02596397  0.51076247  0.35286333  1
  In  In39  1  -0.01064592  0.49721422  0.88178230  1
  In  In40  1  0.01091892  0.84237411  0.37225912  1
  In  In41  1  -0.00200057  0.82627789  0.86881095  1
  In  In42  1  0.34003301  0.15807831  0.38451208  1
  In  In43  1  0.32450692  0.16038256  0.85957812  1
  In  In44  1  0.31465196  0.51646968  0.38204038  1
  In  In45  1  0.34193573  0.50275527  0.85935431  1
  In  In46  1  0.32974693  0.83110317  0.38102345  1
  In  In47  1  0.31698817  0.81973242  0.84387234  1
  In  In48  1  0.65796150  0.17930521  0.38262116  1
  In  In49  1  0.67246099  0.15476289  0.87299550  1
  In  In50  1  0.66372043  0.49640176  0.37226765  1
  In  In51  1  0.67511431  0.50839800  0.87754473  1
  In  In52  1  0.66402482  0.82026775  0.37633935  1
  In  In53  1  0.66299131  0.83800715  0.87169325  1
  In  In54  1  0.16583097  0.00761700  0.14196400  1
  In  In55  1  0.16531622  -0.00187464  0.62559149  1
  In  In56  1  0.14809619  0.33836086  0.14419936  1
  In  In57  1  0.17927654  0.34481970  0.60953298  1
  In  In58  1  0.16821469  0.66389700  0.13823485  1
  In  In59  1  0.17114809  0.66801625  0.62598635  1
  In  In60  1  0.48903635  -0.00919793  0.12934193  1
  In  In61  1  0.49489150  -0.00541578  0.62214454  1
  In  In62  1  0.49917765  0.35165747  0.13346606  1
  In  In63  1  0.49490959  0.33187291  0.61801815  1
  In  In64  1  0.49850803  0.67651198  0.13566759  1
  In  In65  1  0.47824278  0.65067864  0.61757047  1
  In  In66  1  0.84199328  0.00172442  0.12365384  1
  In  In67  1  0.83448287  0.00416829  0.62601705  1
  In  In68  1  0.83223816  0.33692883  0.13325260  1
  In  In69  1  0.84845731  0.33134715  0.62164714  1
  In  In70  1  0.83490432  0.66460035  0.12548961  1
  In  In71  1  0.83871868  0.67900124  0.62525381  1
  In  In72  1  0.83546447  0.84039262  0.49996108  1
  In  In73  1  0.50687884  0.50623142  -0.00773091  1
  In  In74  1  0.16637094  0.50401691  0.01179645  1
  In  In75  1  0.83821464  0.16687328  0.00752424  1
  In  In76  1  0.00441911  0.33230487  0.75340849  1
  In  In77  1  0.65978045  0.67007008  0.75304407  1
  In  In78  1  0.16811372  0.83408025  -0.01033393  1
  In  In79  1  0.83444182  0.49292442  0.49136776  1
  In  In80  1  0.49557449  0.82933897  -0.01025715  1
  In  In81  1  0.16325906  0.16719339  -0.00037215  1
  In  In82  1  0.33651007  0.33602652  0.26166446  1
  In  In83  1  0.66272521  0.00253154  0.25193396  1
  In  In84  1  0.50599928  0.16057050  -0.00231220  1
  In  In85  1  0.66121412  0.32356842  0.73981321  1
  Cu  Cu86  1  0.65133749  0.66854038  0.50216558  1
  Cu  Cu87  1  0.33329701  0.33337666  0.49526107  1
  Cu  Cu88  1  0.32515537  0.33403145  -0.00448949  1
  Cu  Cu89  1  0.83517447  0.50039096  0.25213685  1
  Cu  Cu90  1  0.00275638  0.66766256  0.00354798  1
  Cu  Cu91  1  0.83417238  0.50790066  0.75630501  1
  Cu  Cu92  1  0.32573821  0.66896651  0.50274384  1
  Cu  Cu93  1  0.67176994  0.33268185  0.00883077  1
  Cu  Cu94  1  0.49947618  0.17368156  0.25865447  1
  Cu  Cu95  1  -0.00416162  -0.00053518  0.00137924  1
  Cu  Cu96  1  0.50286276  0.50842029  0.25544778  1
  Cu  Cu97  1  0.83402759  0.16746241  0.25499664  1
  Cu  Cu98  1  0.83092520  0.15986097  0.74578797  1
  Cu  Cu99  1  0.83288450  0.82721039  0.24950938  1
  Cu  Cu100  1  0.00642983  -0.00389400  0.50263196  1
  Cu  Cu101  1  0.16879736  0.83304279  0.25505743  1
  Cu  Cu102  1  0.00675129  0.66522356  0.49837501  1
  Cu  Cu103  1  0.33029249  -0.00637130  0.50565730  1
  Cu  Cu104  1  0.00371260  0.33169693  0.49383569  1
  Cu  Cu105  1  0.66900603  0.00404123  0.50089600  1
  Cu  Cu106  1  0.32736143  0.00097244  -0.00411923  1
  Cu  Cu107  1  0.49967347  0.16251714  0.73737078  1
  Cu  Cu108  1  0.49168189  0.83378437  0.25744979  1
  Cu  Cu109  1  0.67698693  0.65848943  0.00607500  1
  Cu  Cu110  1  0.67048387  0.33758225  0.49918519  1
  Cu  Cu111  1  0.66251554  -0.00946094  -0.01040736  1
  Cu  Cu112  1  0.16664270  0.17347002  0.73894288  1
  Cu  Cu113  1  0.84397156  0.83165638  0.74993545  1
  Cu  Cu114  1  0.16933245  0.50687885  0.74218869  1
  Se  Se115  1  0.07567025  0.07639822  0.06268208  1
  Se  Se116  1  0.08941065  0.08441986  0.55212062  1
  Se  Se117  1  0.07372791  0.41161210  0.06402110  1
  Se  Se118  1  0.08354160  0.42027236  0.54527930  1
  Se  Se119  1  0.08672519  0.74778432  0.06007380  1
  Se  Se120  1  0.08221078  0.74900646  0.55715697  1
  Se  Se121  1  0.40549314  0.07988969  0.05896991  1
  Se  Se122  1  0.41776650  0.08080022  0.55166641  1
  Se  Se123  1  0.41180186  0.41284522  0.05168107  1
  Se  Se124  1  0.41082814  0.41785948  0.55332039  1
  Se  Se125  1  0.41075245  0.74890146  0.05980103  1
  Se  Se126  1  0.41088976  0.75220486  0.55543630  1
  Se  Se127  1  0.73572630  0.07207665  0.05550176  1
  Se  Se128  1  0.75949104  0.08406405  0.55061851  1
  Se  Se129  1  0.75263975  0.41770684  0.06053921  1
  Se  Se130  1  0.74482167  0.41614046  0.56439800  1
  Se  Se131  1  0.75262362  0.75126727  0.05605214  1
  Se  Se132  1  0.74014083  0.74724024  0.55695517  1
  Se  Se133  1  0.24720484  0.26346217  0.06150619  1
  Se  Se134  1  0.24940515  0.24657078  0.54618096  1
  Se  Se135  1  0.26009893  0.60227060  0.05777641  1
  Se  Se136  1  0.24518683  0.58028390  0.55508831  1
  Se  Se137  1  0.24714208  0.92560004  0.05972078  1
  Se  Se138  1  0.24672569  0.91119337  0.55874121  1
  Se  Se139  1  0.58492791  0.25690472  0.06521139  1
  Se  Se140  1  0.58468260  0.25435352  0.55087486  1
  Se  Se141  1  0.58708912  0.58773019  0.06553640  1
  Se  Se142  1  0.57252855  0.57643475  0.54957900  1
  Se  Se143  1  0.58259797  0.91911965  0.05677179  1
  Se  Se144  1  0.58615998  0.91831884  0.55184032  1
  Se  Se145  1  0.92840550  0.25622535  0.06542882  1
  Se  Se146  1  0.91536645  0.25199662  0.54469537  1
  Se  Se147  1  0.91980728  0.58328316  0.05581092  1
  Se  Se148  1  0.91940350  0.58785160  0.55540111  1
  Se  Se149  1  0.91259887  0.91447188  0.05151142  1
  Se  Se150  1  0.92908936  0.91467202  0.56580797  1
  Se  Se151  1  0.08920262  0.24515735  0.44664448  1
  Se  Se152  1  0.07248459  0.26690416  0.94687777  1
  Se  Se153  1  0.08346430  0.58055078  0.44075156  1
  Se  Se154  1  0.08466541  0.59260834  0.94112370  1
  Se  Se155  1  0.08741699  0.90784459  0.45292643  1
  Se  Se156  1  0.07899351  0.93150654  0.93549849  1
  Se  Se157  1  0.42121730  0.24825368  0.44896274  1
  Se  Se158  1  0.40491672  0.24681530  0.94026113  1
  Se  Se159  1  0.40998202  0.58466515  0.44984062  1
  Se  Se160  1  0.40456806  0.59075335  0.94142412  1
  Se  Se161  1  0.41554392  0.91229491  0.45086699  1
  Se  Se162  1  0.40327185  0.92034470  0.93296048  1
  Se  Se163  1  0.75427463  0.25505678  0.44595464  1
  Se  Se164  1  0.74485451  0.25275123  0.94282664  1
  Se  Se165  1  0.74128842  0.59425814  0.44426446  1
  Se  Se166  1  0.75866560  0.57415022  0.95277698  1
  Se  Se167  1  0.74509030  0.92612479  0.43490097  1
  Se  Se168  1  0.75214758  0.90731016  0.94407868  1
  Se  Se169  1  0.25037163  0.07847674  0.45017884  1
  Se  Se170  1  0.24396673  0.07494695  0.93341272  1
  Se  Se171  1  0.24599771  0.41494829  0.44445475  1
  Se  Se172  1  0.25137475  0.42128519  0.93780928  1
  Se  Se173  1  0.24215093  0.75162040  0.44951105  1
  Se  Se174  1  0.26509126  0.74562552  0.93554497  1
  Se  Se175  1  0.58324184  0.08846481  0.44978224  1
  Se  Se176  1  0.57768020  0.06560576  0.93060925  1
  Se  Se177  1  0.58575350  0.42127040  0.44790726  1
  Se  Se178  1  0.59329640  0.40286897  0.93958068  1
  Se  Se179  1  0.57399962  0.75691624  0.44956886  1
  Se  Se180  1  0.59584508  0.73315923  0.94140791  1
  Se  Se181  1  0.91977031  0.08038994  0.45257602  1
  Se  Se182  1  0.91791022  0.07947976  0.93791026  1
  Se  Se183  1  0.93198190  0.41699405  0.43052673  1
  Se  Se184  1  0.91937747  0.41626242  0.95591194  1
  Se  Se185  1  0.92153305  0.74506652  0.44094464  1
  Se  Se186  1  0.92425955  0.75478455  0.94859600  1
  Se  Se187  1  0.24979305  0.24111372  0.31634315  1
  Se  Se188  1  0.24798410  0.25505350  0.79569797  1
  Se  Se189  1  0.24398820  0.58202473  0.30056344  1
  Se  Se190  1  0.25235255  0.58833852  0.79919323  1
  Se  Se191  1  0.25024297  0.91549967  0.31048018  1
  Se  Se192  1  0.26940649  0.93773707  0.79054353  1
  Se  Se193  1  0.58474912  0.25795842  0.30574239  1
  Se  Se194  1  0.57516955  0.23700236  0.80818719  1
  Se  Se195  1  0.58404043  0.59116239  0.31091687  1
  Se  Se196  1  0.57434658  0.56670973  0.80734855  1
  Se  Se197  1  0.57492326  0.91574931  0.31506164  1
  Se  Se198  1  0.59856033  0.90932613  0.79004531  1
  Se  Se199  1  0.92436104  0.24426499  0.30693797  1
  Se  Se200  1  0.90348385  0.24402370  0.80889839  1
  Se  Se201  1  0.91957295  0.58766603  0.30044952  1
  Se  Se202  1  0.92051923  0.58609020  0.80973371  1
  Se  Se203  1  0.91678513  0.91037838  0.30156262  1
  Se  Se204  1  0.92008903  0.91996193  0.80466025  1
  Se  Se205  1  0.06204308  0.05469291  0.31510855  1
  Se  Se206  1  0.07987761  0.09725974  0.79683323  1
  Se  Se207  1  0.08258088  0.40011935  0.29354468  1
  Se  Se208  1  0.09252364  0.42993786  0.81008464  1
  Se  Se209  1  0.08311698  0.74893103  0.30575758  1
  Se  Se210  1  0.10194078  0.77351431  0.80181404  1
  Se  Se211  1  0.42032884  0.08421765  0.30766798  1
  Se  Se212  1  0.41796973  0.08356446  0.79654317  1
  Se  Se213  1  0.42267644  0.43091945  0.31867974  1
  Se  Se214  1  0.40533163  0.40137111  0.79667325  1
  Se  Se215  1  0.41016062  0.74765667  0.30967325  1
  Se  Se216  1  0.44647822  0.77341339  0.80511603  1
  Se  Se217  1  0.75194593  0.08809359  0.31526543  1
  Se  Se218  1  0.74421037  0.07765284  0.79638371  1
  Se  Se219  1  0.75225419  0.41731105  0.30643867  1
  Se  Se220  1  0.75146507  0.41685207  0.80440646  1
  Se  Se221  1  0.74714140  0.74778966  0.30300607  1
  Se  Se222  1  0.76194886  0.75024621  0.81091074  1
  Se  Se223  1  0.26683543  0.06858545  0.20711749  1
  Se  Se224  1  0.25031104  0.08806888  0.68966819  1
  Se  Se225  1  0.25467534  0.42307699  0.19154908  1
  Se  Se226  1  0.24606640  0.41591027  0.69202110  1
  Se  Se227  1  0.25361071  0.75048777  0.20099649  1
  Se  Se228  1  0.24196928  0.75229948  0.70015537  1
  Se  Se229  1  0.57265529  0.09414950  0.18972389  1
  Se  Se230  1  0.58544235  0.07751339  0.68956057  1
  Se  Se231  1  0.58469367  0.41836024  0.20672585  1
  Se  Se232  1  0.56991348  0.42310187  0.69457748  1
  Se  Se233  1  0.58172644  0.75599881  0.20529547  1
  Se  Se234  1  0.57861183  0.74369002  0.67922811  1
  Se  Se235  1  0.91243680  0.08119989  0.19973678  1
  Se  Se236  1  0.92256626  0.08658708  0.69261123  1
  Se  Se237  1  0.91959895  0.41631652  0.20006349  1
  Se  Se238  1  0.91300281  0.42687740  0.69516013  1
  Se  Se239  1  0.91819861  0.74998620  0.19269016  1
  Se  Se240  1  0.92329976  0.74064064  0.70160400  1
  Se  Se241  1  0.12063284  0.21258150  0.19534166  1
  Se  Se242  1  0.08563354  0.25529860  0.67991056  1
  Se  Se243  1  0.09187110  0.57483455  0.20260753  1
  Se  Se244  1  0.07899445  0.58689881  0.69429812  1
  Se  Se245  1  0.08360573  0.91181526  0.19833821  1
  Se  Se246  1  0.07152791  0.93603179  0.69835213  1
  Se  Se247  1  0.41963816  0.24626851  0.19019700  1
  Se  Se248  1  0.41685232  0.24847583  0.68859806  1
  Se  Se249  1  0.41732473  0.58675798  0.19963199  1
  Se  Se250  1  0.41077132  0.58244754  0.69969321  1
  Se  Se251  1  0.41033067  0.91896529  0.20413985  1
  Se  Se252  1  0.41508221  0.91768142  0.69444694  1
  Se  Se253  1  0.75062397  0.25403058  0.20453142  1
  Se  Se254  1  0.75690863  0.23977545  0.68147837  1
  Se  Se255  1  0.75276101  0.58562130  0.19840020  1
  Se  Se256  1  0.75527609  0.58060688  0.69098189  1
  Se  Se257  1  0.75255291  0.91243970  0.19110030  1
  Se  Se258  1  0.76079752  0.91300811  0.69509753  1
