# generated using pymatgen
data_In86Cu29Se144
_symmetry_space_group_name_H-M   'P 1'
_cell_length_a   17.58415402
_cell_length_b   17.59370710
_cell_length_c   23.45354152
_cell_angle_alpha   89.97813642
_cell_angle_beta   89.97401710
_cell_angle_gamma   89.97957428
_symmetry_Int_Tables_number   1
_chemical_formula_structural   In86Cu29Se144
_chemical_formula_sum   'In86 Cu29 Se144'
_cell_volume   7255.83108496
_cell_formula_units_Z   1
loop_
 _symmetry_equiv_pos_site_id
 _symmetry_equiv_pos_as_xyz
  1  'x, y, z'
loop_
 _atom_site_type_symbol
 _atom_site_label
 _atom_site_symmetry_multiplicity
 _atom_site_fract_x
 _atom_site_fract_y
 _atom_site_fract_z
 _atom_site_occupancy
  In  In0  1  -0.01017885  0.15522872  0.12814333  1
  In  In1  1  -0.00088034  0.17443227  0.62113697  1
  In  In2  1  -0.00108465  0.50790893  0.11993834  1
  In  In3  1  0.01407266  0.50572146  0.62287297  1
  In  In4  1  -0.00239240  0.84314552  0.12709914  1
  In  In5  1  -0.01897677  0.80920753  0.60391177  1
  In  In6  1  0.35126025  0.15293240  0.13356389  1
  In  In7  1  0.34837097  0.15546164  0.62117405  1
  In  In8  1  0.33693739  0.49853115  0.12339574  1
  In  In9  1  0.33491446  0.50887011  0.61589853  1
  In  In10  1  0.34733659  0.82730604  0.13904717  1
  In  In11  1  0.33530390  0.83434094  0.61001052  1
  In  In12  1  0.65250594  0.18458586  0.13475382  1
  In  In13  1  0.64287713  0.16154503  0.61758136  1
  In  In14  1  0.66195496  0.50157123  0.12400667  1
  In  In15  1  0.66523895  0.50812702  0.62253433  1
  In  In16  1  0.65696885  0.82697413  0.13650118  1
  In  In17  1  0.66156244  0.82547092  0.62272801  1
  In  In18  1  0.16196236  -0.00727480  0.36380669  1
  In  In19  1  0.17205507  0.00546661  0.87384004  1
  In  In20  1  0.18101969  0.33354422  0.37213329  1
  In  In21  1  0.18777859  0.34685269  0.88153678  1
  In  In22  1  0.17437740  0.65863134  0.38569101  1
  In  In23  1  0.15542092  0.66984947  0.87215800  1
  In  In24  1  0.50763775  -0.00566235  0.36572814  1
  In  In25  1  0.51965456  -0.02162585  0.90871837  1
  In  In26  1  0.50228909  0.33753777  0.37526980  1
  In  In27  1  0.49561770  0.33651026  0.88904388  1
  In  In28  1  0.49668818  0.66632610  0.36632316  1
  In  In29  1  0.51287554  0.66595090  0.87509647  1
  In  In30  1  0.81742171  -0.01695308  0.36526857  1
  In  In31  1  0.80505186  0.00546223  0.87791246  1
  In  In32  1  0.81854773  0.33995793  0.37039956  1
  In  In33  1  0.84289985  0.33764781  0.87829156  1
  In  In34  1  0.83128973  0.68570002  0.38313406  1
  In  In35  1  0.83150679  0.67254285  0.87948201  1
  In  In36  1  0.01680365  0.16357222  0.37181892  1
  In  In37  1  -0.00159879  0.16605763  0.87573029  1
  In  In38  1  0.00529601  0.51897118  0.38130895  1
  In  In39  1  -0.00907819  0.51358953  0.88403232  1
  In  In40  1  -0.00732833  0.83340522  0.38586926  1
  In  In41  1  0.00073533  0.81884417  0.87309067  1
  In  In42  1  0.34689269  0.18007962  0.36158081  1
  In  In43  1  0.34883180  0.15987336  0.88971022  1
  In  In44  1  0.33711992  0.49948401  0.37209978  1
  In  In45  1  0.34120808  0.49100972  0.89326336  1
  In  In46  1  0.34466530  0.82782842  0.36215929  1
  In  In47  1  0.35425484  0.83586460  0.87994007  1
  In  In48  1  0.65752635  0.16015037  0.37006777  1
  In  In49  1  0.65814383  0.14956094  0.87506485  1
  In  In50  1  0.64565003  0.48457645  0.36392201  1
  In  In51  1  0.65137085  0.52480447  0.88380944  1
  In  In52  1  0.65984088  0.83045412  0.36904705  1
  In  In53  1  0.66565427  0.83809210  0.87896225  1
  In  In54  1  0.17183064  -0.00423069  0.13593284  1
  In  In55  1  0.18600946  -0.00667277  0.61780785  1
  In  In56  1  0.17234312  0.34910394  0.12409446  1
  In  In57  1  0.16491823  0.35088500  0.61900332  1
  In  In58  1  0.18166202  0.66199265  0.12956404  1
  In  In59  1  0.15991425  0.66192529  0.61485600  1
  In  In60  1  0.49897917  -0.00216506  0.13067812  1
  In  In61  1  0.49972695  0.00115872  0.61615482  1
  In  In62  1  0.49445986  0.33956569  0.12328409  1
  In  In63  1  0.50737621  0.33321934  0.60850396  1
  In  In64  1  0.50135507  0.66648397  0.12967311  1
  In  In65  1  0.50383685  0.66855089  0.62000987  1
  In  In66  1  0.83499340  -0.01124943  0.12917745  1
  In  In67  1  0.82600746  -0.02390526  0.62032037  1
  In  In68  1  0.82189183  0.33347027  0.12413856  1
  In  In69  1  0.83014626  0.34826533  0.62585286  1
  In  In70  1  0.82156782  0.65787655  0.11827095  1
  In  In71  1  0.81489353  0.67579738  0.63391974  1
  In  In72  1  0.17649416  0.16255984  0.50188655  1
  In  In73  1  -0.00068918  0.32989059  0.25005295  1
  In  In74  1  0.82630274  0.15978353  0.48519667  1
  In  In75  1  -0.00463165  0.67118178  0.26043284  1
  In  In76  1  0.66550561  0.33642188  0.74858589  1
  In  In77  1  0.33775207  0.33053337  0.76306956  1
  In  In78  1  0.82601499  0.16894417  0.00018550  1
  In  In79  1  0.34215041  0.66583154  0.75351665  1
  In  In80  1  0.82322694  0.50401442  0.50161622  1
  In  In81  1  -0.01238179  -0.02565467  0.73679082  1
  In  In82  1  0.17176269  0.82585975  0.00810902  1
  In  In83  1  -0.00105079  0.33651929  0.76181349  1
  In  In84  1  0.34162723  -0.00543133  0.75052772  1
  In  In85  1  0.17280846  0.16897288  0.00402443  1
  Cu  Cu86  1  0.66759824  -0.01251769  0.49419238  1
  Cu  Cu87  1  0.83416746  0.50982419  0.75913718  1
  Cu  Cu88  1  -0.00243632  0.66591716  -0.00205213  1
  Cu  Cu89  1  0.17230485  0.50277807  0.25384925  1
  Cu  Cu90  1  -0.00044892  -0.00692803  0.49416425  1
  Cu  Cu91  1  -0.00238203  0.34051391  0.50068649  1
  Cu  Cu92  1  0.82189028  0.50197868  0.24676044  1
  Cu  Cu93  1  0.82522314  0.82974184  0.74884458  1
  Cu  Cu94  1  0.66408058  0.67445500  0.00285099  1
  Cu  Cu95  1  0.83335374  0.15863269  0.24881269  1
  Cu  Cu96  1  0.49715862  0.49809396  0.24576999  1
  Cu  Cu97  1  0.17223963  0.16596347  0.24780433  1
  Cu  Cu98  1  0.66088477  0.66743696  0.49566377  1
  Cu  Cu99  1  0.81767977  0.15465175  0.74231048  1
  Cu  Cu100  1  0.66375572  -0.00030973  0.01115226  1
  Cu  Cu101  1  0.15728776  0.16356159  0.75427523  1
  Cu  Cu102  1  0.17002025  0.50984248  0.74837895  1
  Cu  Cu103  1  0.83237093  0.83169976  0.25195315  1
  Cu  Cu104  1  0.17106097  0.82669545  0.74516390  1
  Cu  Cu105  1  0.66822244  0.34078394  0.00487144  1
  Cu  Cu106  1  0.50315932  0.16805519  0.24889313  1
  Cu  Cu107  1  -0.00075704  -0.01029992  0.00104957  1
  Cu  Cu108  1  0.50175925  0.16351592  0.74782764  1
  Cu  Cu109  1  0.33922196  0.66722450  0.49304440  1
  Cu  Cu110  1  0.33718123  0.66635979  0.00636205  1
  Cu  Cu111  1  0.34102986  0.00020635  0.48458021  1
  Cu  Cu112  1  0.16832305  0.83232402  0.25006043  1
  Cu  Cu113  1  0.33395513  0.33896696  0.49216743  1
  Cu  Cu114  1  0.00530190  0.34241930  0.00145032  1
  Se  Se115  1  0.07831089  0.07283186  0.05898237  1
  Se  Se116  1  0.07558583  0.07379021  0.55770234  1
  Se  Se117  1  0.08626727  0.42538476  0.05533993  1
  Se  Se118  1  0.08545970  0.42621986  0.54598091  1
  Se  Se119  1  0.07588759  0.73839910  0.06607369  1
  Se  Se120  1  0.10879597  0.77666297  0.55835751  1
  Se  Se121  1  0.42614464  0.08324665  0.05656930  1
  Se  Se122  1  0.42020725  0.08262045  0.54313410  1
  Se  Se123  1  0.42652613  0.43002249  0.05169917  1
  Se  Se124  1  0.41490105  0.41950942  0.55089609  1
  Se  Se125  1  0.41710982  0.75061877  0.05969104  1
  Se  Se126  1  0.42198451  0.74790670  0.54890800  1
  Se  Se127  1  0.74496704  0.08428091  0.06860077  1
  Se  Se128  1  0.74411829  0.07376621  0.55548233  1
  Se  Se129  1  0.75364069  0.42371641  0.05440478  1
  Se  Se130  1  0.73262435  0.40411726  0.55352934  1
  Se  Se131  1  0.74298815  0.75630420  0.06109438  1
  Se  Se132  1  0.74692841  0.74617909  0.55106345  1
  Se  Se133  1  0.25837749  0.24949342  0.07000886  1
  Se  Se134  1  0.26208890  0.25930489  0.56217829  1
  Se  Se135  1  0.24993310  0.58225830  0.05359769  1
  Se  Se136  1  0.25099303  0.58712047  0.54720056  1
  Se  Se137  1  0.25781055  0.91578496  0.06721220  1
  Se  Se138  1  0.25653166  0.91935008  0.53946680  1
  Se  Se139  1  0.58329460  0.25654029  0.05480615  1
  Se  Se140  1  0.57587458  0.24014905  0.54171361  1
  Se  Se141  1  0.58207004  0.58856597  0.05612652  1
  Se  Se142  1  0.58150589  0.58102761  0.54956359  1
  Se  Se143  1  0.58369542  0.91297060  0.06269746  1
  Se  Se144  1  0.58258893  0.91177662  0.55288719  1
  Se  Se145  1  0.92529442  0.25719912  0.05786959  1
  Se  Se146  1  0.91274404  0.25871745  0.55359501  1
  Se  Se147  1  0.91255468  0.58294108  0.05078374  1
  Se  Se148  1  0.90982370  0.58608314  0.56832587  1
  Se  Se149  1  0.91190177  0.91087322  0.05253401  1
  Se  Se150  1  0.91035352  0.91194042  0.54405494  1
  Se  Se151  1  0.08195443  0.25787736  0.44525776  1
  Se  Se152  1  0.08035636  0.25836723  0.94056535  1
  Se  Se153  1  0.07675252  0.59672077  0.45509509  1
  Se  Se154  1  0.08796131  0.58647638  0.94838246  1
  Se  Se155  1  0.09049135  0.91740555  0.44249153  1
  Se  Se156  1  0.08476655  0.91644809  0.94052037  1
  Se  Se157  1  0.41552469  0.25166678  0.44274392  1
  Se  Se158  1  0.40297990  0.26310994  0.95381661  1
  Se  Se159  1  0.42103631  0.58266615  0.43973746  1
  Se  Se160  1  0.42123567  0.59289986  0.94502508  1
  Se  Se161  1  0.42165838  0.91332481  0.43428503  1
  Se  Se162  1  0.40305993  0.92274624  0.95865582  1
  Se  Se163  1  0.73432961  0.25926145  0.44052113  1
  Se  Se164  1  0.73791737  0.25777906  0.93637137  1
  Se  Se165  1  0.73835472  0.58600922  0.43376267  1
  Se  Se166  1  0.74961788  0.59037324  0.94992221  1
  Se  Se167  1  0.75074455  0.90320907  0.44284966  1
  Se  Se168  1  0.74680131  0.91909272  0.95434587  1
  Se  Se169  1  0.25672282  0.08418984  0.42939613  1
  Se  Se170  1  0.25892673  0.06712346  0.95109474  1
  Se  Se171  1  0.24718432  0.42225164  0.44400253  1
  Se  Se172  1  0.25436080  0.41575618  0.96190246  1
  Se  Se173  1  0.26224634  0.75461840  0.43807560  1
  Se  Se174  1  0.25811075  0.74263325  0.93904301  1
  Se  Se175  1  0.58634849  0.07410408  0.44236918  1
  Se  Se176  1  0.58464520  0.09255250  0.96053419  1
  Se  Se177  1  0.57756367  0.42229257  0.44768948  1
  Se  Se178  1  0.58653152  0.42214321  0.94782867  1
  Se  Se179  1  0.57899273  0.74752797  0.43873552  1
  Se  Se180  1  0.58076744  0.75562419  0.94760611  1
  Se  Se181  1  0.92404991  0.07267605  0.43064474  1
  Se  Se182  1  0.92005382  0.07440851  0.94262269  1
  Se  Se183  1  0.91800990  0.41512951  0.43747684  1
  Se  Se184  1  0.91527228  0.42102232  0.95055698  1
  Se  Se185  1  0.93415025  0.73115399  0.45253495  1
  Se  Se186  1  0.91653875  0.75494567  0.94951263  1
  Se  Se187  1  0.25241830  0.25599247  0.29616264  1
  Se  Se188  1  0.24335894  0.23464797  0.81688519  1
  Se  Se189  1  0.25146063  0.58811938  0.30721712  1
  Se  Se190  1  0.25214365  0.57614947  0.81594694  1
  Se  Se191  1  0.25458355  0.91567134  0.29992656  1
  Se  Se192  1  0.24588426  0.90359821  0.80967339  1
  Se  Se193  1  0.58310208  0.25294899  0.30415663  1
  Se  Se194  1  0.57511923  0.24696585  0.81127196  1
  Se  Se195  1  0.58195835  0.58304950  0.29710743  1
  Se  Se196  1  0.58566694  0.58722310  0.79897079  1
  Se  Se197  1  0.60240755  0.92706777  0.29706259  1
  Se  Se198  1  0.57967416  0.92904837  0.81770400  1
  Se  Se199  1  0.90908912  0.24059783  0.31217094  1
  Se  Se200  1  0.89943549  0.23312789  0.80378308  1
  Se  Se201  1  0.90039845  0.57584237  0.31208480  1
  Se  Se202  1  0.91947975  0.59338740  0.80843350  1
  Se  Se203  1  0.92071221  0.90919209  0.30689444  1
  Se  Se204  1  0.90114720  0.91118150  0.81508987  1
  Se  Se205  1  0.08401735  0.08302241  0.29564245  1
  Se  Se206  1  0.07384025  0.07565773  0.80275410  1
  Se  Se207  1  0.08425499  0.42528134  0.31059012  1
  Se  Se208  1  0.09366992  0.42857819  0.81456171  1
  Se  Se209  1  0.09232251  0.75591025  0.31584461  1
  Se  Se210  1  0.08104793  0.74878559  0.79644002  1
  Se  Se211  1  0.42076569  0.08215511  0.30065819  1
  Se  Se212  1  0.42634617  0.08472778  0.81251646  1
  Se  Se213  1  0.41679652  0.41443665  0.30323792  1
  Se  Se214  1  0.42853282  0.42850501  0.81243357  1
  Se  Se215  1  0.44363301  0.76654767  0.29242349  1
  Se  Se216  1  0.43371651  0.76212124  0.80438661  1
  Se  Se217  1  0.74707488  0.08160555  0.30299448  1
  Se  Se218  1  0.73410668  0.07568775  0.79692500  1
  Se  Se219  1  0.74058491  0.41265616  0.29547380  1
  Se  Se220  1  0.75458437  0.42187566  0.81287156  1
  Se  Se221  1  0.75026851  0.74550482  0.30306236  1
  Se  Se222  1  0.74656218  0.75216462  0.81039665  1
  Se  Se223  1  0.25695279  0.07931033  0.20040808  1
  Se  Se224  1  0.24588203  0.09177290  0.69374333  1
  Se  Se225  1  0.25293673  0.42124151  0.19826047  1
  Se  Se226  1  0.25008623  0.42218079  0.69514470  1
  Se  Se227  1  0.25225272  0.74627040  0.20124252  1
  Se  Se228  1  0.25535652  0.75001098  0.68626006  1
  Se  Se229  1  0.58688599  0.08301548  0.19712359  1
  Se  Se230  1  0.57921841  0.07670504  0.69337554  1
  Se  Se231  1  0.58317997  0.41576859  0.19353822  1
  Se  Se232  1  0.57284647  0.41997946  0.68800767  1
  Se  Se233  1  0.55924646  0.76196142  0.20483482  1
  Se  Se234  1  0.59411287  0.73206182  0.69281876  1
  Se  Se235  1  0.91726686  0.07274197  0.20006136  1
  Se  Se236  1  0.90852700  0.08445709  0.68342610  1
  Se  Se237  1  0.91202938  0.42504134  0.19229663  1
  Se  Se238  1  0.91535806  0.42880161  0.69787332  1
  Se  Se239  1  0.90976849  0.75016639  0.18986735  1
  Se  Se240  1  0.91515707  0.75405142  0.69434236  1
  Se  Se241  1  0.08882443  0.24357161  0.18597018  1
  Se  Se242  1  0.08859626  0.25148640  0.69287514  1
  Se  Se243  1  0.08444779  0.58032283  0.19782473  1
  Se  Se244  1  0.08538663  0.59047356  0.69579966  1
  Se  Se245  1  0.08084424  0.91488794  0.19986658  1
  Se  Se246  1  0.09553679  0.90679857  0.68065639  1
  Se  Se247  1  0.41938280  0.25357762  0.19691759  1
  Se  Se248  1  0.42347003  0.24857773  0.69076736  1
  Se  Se249  1  0.41284196  0.58307044  0.19534646  1
  Se  Se250  1  0.42397843  0.57326109  0.69128910  1
  Se  Se251  1  0.41641180  0.92232066  0.20414606  1
  Se  Se252  1  0.42335960  0.90489101  0.68615919  1
  Se  Se253  1  0.75507782  0.25043398  0.19929263  1
  Se  Se254  1  0.74935585  0.24376996  0.68284457  1
  Se  Se255  1  0.74159503  0.58803986  0.19506125  1
  Se  Se256  1  0.74545521  0.57890685  0.69963902  1
  Se  Se257  1  0.74801818  0.91357538  0.19881895  1
  Se  Se258  1  0.74173380  0.91173682  0.69555337  1
