# generated using pymatgen
data_In86Cu29Se144
_symmetry_space_group_name_H-M   'P 1'
_cell_length_a   17.57185670
_cell_length_b   17.57054584
_cell_length_c   23.43541227
_cell_angle_alpha   89.99575893
_cell_angle_beta   90.00905011
_cell_angle_gamma   90.00986031
_symmetry_Int_Tables_number   1
_chemical_formula_structural   In86Cu29Se144
_chemical_formula_sum   'In86 Cu29 Se144'
_cell_volume   7235.61567560
_cell_formula_units_Z   1
loop_
 _symmetry_equiv_pos_site_id
 _symmetry_equiv_pos_as_xyz
  1  'x, y, z'
loop_
 _atom_site_type_symbol
 _atom_site_label
 _atom_site_symmetry_multiplicity
 _atom_site_fract_x
 _atom_site_fract_y
 _atom_site_fract_z
 _atom_site_occupancy
  In  In0  1  0.00174160  0.17294502  0.12073005  1
  In  In1  1  0.01094602  0.16651403  0.62526740  1
  In  In2  1  -0.01303985  0.50785251  0.13016456  1
  In  In3  1  -0.01577628  0.50875710  0.63063975  1
  In  In4  1  -0.01223118  0.82818581  0.12190576  1
  In  In5  1  -0.01240619  0.82635607  0.62509779  1
  In  In6  1  0.34541477  0.17843698  0.11409732  1
  In  In7  1  0.33453842  0.17100745  0.62552242  1
  In  In8  1  0.33915981  0.49381573  0.12696463  1
  In  In9  1  0.33193801  0.48510962  0.62393289  1
  In  In10  1  0.33521064  0.82527699  0.13150063  1
  In  In11  1  0.34647925  0.83342517  0.62992874  1
  In  In12  1  0.68217305  0.18829153  0.11326154  1
  In  In13  1  0.67309864  0.18506157  0.62395147  1
  In  In14  1  0.66691494  0.49596424  0.12462825  1
  In  In15  1  0.66768447  0.49917840  0.62416699  1
  In  In16  1  0.66883956  0.81474385  0.12920594  1
  In  In17  1  0.65668723  0.82602658  0.62950288  1
  In  In18  1  0.17272051  0.00766764  0.38075245  1
  In  In19  1  0.18073019  0.00522803  0.86825654  1
  In  In20  1  0.16174091  0.32673798  0.37134001  1
  In  In21  1  0.15448017  0.32296179  0.87065590  1
  In  In22  1  0.16068121  0.65416175  0.36577190  1
  In  In23  1  0.16284478  0.67481982  0.87508721  1
  In  In24  1  0.51044190  0.01720788  0.38054734  1
  In  In25  1  0.49971392  0.01897159  0.87372910  1
  In  In26  1  0.50303356  0.33467921  0.37479721  1
  In  In27  1  0.50194803  0.33364741  0.87351292  1
  In  In28  1  0.49373357  0.65756110  0.36293126  1
  In  In29  1  0.50303361  0.64146520  0.88198366  1
  In  In30  1  0.82645993  0.00481878  0.37570930  1
  In  In31  1  0.82912062  0.00283114  0.88370059  1
  In  In32  1  0.84844406  0.33894830  0.36610345  1
  In  In33  1  0.83192727  0.33423566  0.87661245  1
  In  In34  1  0.82320821  0.65887153  0.36803631  1
  In  In35  1  0.83185815  0.66277796  0.87765848  1
  In  In36  1  -0.00277753  0.18404537  0.38045227  1
  In  In37  1  -0.01556154  0.18510455  0.88583007  1
  In  In38  1  -0.00867269  0.49650400  0.37287495  1
  In  In39  1  -0.01102917  0.48524323  0.86966711  1
  In  In40  1  0.00703165  0.82628878  0.37320480  1
  In  In41  1  -0.00303439  0.81955888  0.87327228  1
  In  In42  1  0.32952765  0.17813871  0.37890657  1
  In  In43  1  0.33266529  0.17050825  0.87372597  1
  In  In44  1  0.34452174  0.50496208  0.36701346  1
  In  In45  1  0.35253500  0.49584789  0.87888839  1
  In  In46  1  0.34618427  0.82285503  0.37194423  1
  In  In47  1  0.32225904  0.83575662  0.87357084  1
  In  In48  1  0.65581558  0.16559086  0.37644639  1
  In  In49  1  0.66281999  0.17639282  0.87824235  1
  In  In50  1  0.66876027  0.49617194  0.37471391  1
  In  In51  1  0.66647116  0.49746519  0.87572187  1
  In  In52  1  0.67214299  0.83072470  0.36977230  1
  In  In53  1  0.68237687  0.83045995  0.87849402  1
  In  In54  1  0.15937988  0.00380733  0.12076133  1
  In  In55  1  0.16313907  0.02397165  0.62119111  1
  In  In56  1  0.17498408  0.32571960  0.12834350  1
  In  In57  1  0.17681291  0.32701487  0.63201686  1
  In  In58  1  0.16933973  0.65413137  0.13388107  1
  In  In59  1  0.15524759  0.65290083  0.62298821  1
  In  In60  1  0.49187987  0.01056211  0.12329439  1
  In  In61  1  0.48721446  -0.00316860  0.62665270  1
  In  In62  1  0.50237913  0.33495612  0.12301317  1
  In  In63  1  0.50228778  0.33409254  0.62332012  1
  In  In64  1  0.51292761  0.65914011  0.13403672  1
  In  In65  1  0.51504608  0.66875521  0.62539074  1
  In  In66  1  0.83777910  0.00457709  0.11573500  1
  In  In67  1  0.84017098  0.00716546  0.62553216  1
  In  In68  1  0.82783196  0.33388796  0.12650770  1
  In  In69  1  0.81696063  0.34136609  0.63736514  1
  In  In70  1  0.83111868  0.66034055  0.12302083  1
  In  In71  1  0.84386377  0.64984983  0.63072362  1
  In  In72  1  0.66624623  0.00554160  0.75309841  1
  In  In73  1  0.66354963  0.00144051  0.25399408  1
  In  In74  1  0.50435267  0.83456676  0.00936301  1
  In  In75  1  0.16432712  0.49167621  0.49394178  1
  In  In76  1  0.82939728  0.83392189  0.49610007  1
  In  In77  1  0.50357770  0.83766587  0.49501043  1
  In  In78  1  0.33332581  0.66311443  0.75503669  1
  In  In79  1  0.33148258  -0.00364578  0.24902118  1
  In  In80  1  0.16552139  0.83608097  -0.00496780  1
  In  In81  1  0.16475072  0.49513641  0.00432542  1
  In  In82  1  0.00261335  0.00270889  0.74407427  1
  In  In83  1  -0.00176145  0.00181968  0.24452588  1
  In  In84  1  0.83296285  0.17380592  0.50174022  1
  In  In85  1  0.16557107  0.83731652  0.50267219  1
  Cu  Cu86  1  0.16515496  0.49170759  0.24999088  1
  Cu  Cu87  1  0.33111288  0.01407898  0.50282984  1
  Cu  Cu88  1  0.16469058  0.83242098  0.75012917  1
  Cu  Cu89  1  0.66904067  0.66113389  0.00359880  1
  Cu  Cu90  1  0.82852630  0.49946857  0.24739119  1
  Cu  Cu91  1  0.66839203  0.00224090  -0.00376728  1
  Cu  Cu92  1  0.16900634  0.16979633  0.75052396  1
  Cu  Cu93  1  0.50175930  0.83082100  0.75294219  1
  Cu  Cu94  1  0.16769988  0.16978182  0.24820515  1
  Cu  Cu95  1  0.16208606  0.49710384  0.74889883  1
  Cu  Cu96  1  -0.00770393  0.33382121  0.00010231  1
  Cu  Cu97  1  0.83225001  0.82673297  0.75188505  1
  Cu  Cu98  1  0.83370148  0.82597585  0.24629883  1
  Cu  Cu99  1  0.50113995  0.17641443  0.24746926  1
  Cu  Cu100  1  0.66366896  0.33850366  -0.00124996  1
  Cu  Cu101  1  0.50497019  0.49553047  0.74962392  1
  Cu  Cu102  1  0.82793794  0.50095251  0.75432726  1
  Cu  Cu103  1  0.33659192  0.66030712  0.48996556  1
  Cu  Cu104  1  0.50591829  0.49215336  0.24870518  1
  Cu  Cu105  1  0.66698303  0.34099379  0.50035536  1
  Cu  Cu106  1  -0.00502448  0.66393863  -0.00003849  1
  Cu  Cu107  1  0.00172524  0.00636939  -0.00118178  1
  Cu  Cu108  1  0.16688415  0.82087682  0.25093359  1
  Cu  Cu109  1  0.49475578  0.17147428  0.74966259  1
  Cu  Cu110  1  0.34194587  0.32900685  0.50131635  1
  Cu  Cu111  1  0.33509760  0.33155238  -0.00108253  1
  Cu  Cu112  1  0.33449892  0.00570916  -0.00399587  1
  Cu  Cu113  1  0.67125853  0.65778799  0.49967069  1
  Cu  Cu114  1  -0.00029945  0.33890245  0.50162283  1
  Se  Se115  1  0.08543918  0.08890674  0.05143284  1
  Se  Se116  1  0.07584384  0.08576599  0.54783029  1
  Se  Se117  1  0.07295945  0.40927398  0.06484905  1
  Se  Se118  1  0.08031180  0.41386835  0.56639733  1
  Se  Se119  1  0.08217484  0.74053951  0.05811974  1
  Se  Se120  1  0.07293183  0.74110804  0.55412441  1
  Se  Se121  1  0.42154231  0.08822069  0.04616989  1
  Se  Se122  1  0.42055625  0.08882215  0.55637394  1
  Se  Se123  1  0.41682321  0.41571753  0.05262923  1
  Se  Se124  1  0.42078462  0.41878667  0.55205514  1
  Se  Se125  1  0.41480151  0.73977140  0.06214927  1
  Se  Se126  1  0.41235690  0.74219023  0.55383088  1
  Se  Se127  1  0.75123610  0.08678944  0.05061753  1
  Se  Se128  1  0.74322975  0.07888110  0.55979147  1
  Se  Se129  1  0.75059611  0.41754648  0.05338829  1
  Se  Se130  1  0.75451501  0.41837195  0.55528780  1
  Se  Se131  1  0.75224789  0.74876671  0.05315143  1
  Se  Se132  1  0.74488406  0.74341547  0.56105482  1
  Se  Se133  1  0.24709235  0.24922193  0.04960064  1
  Se  Se134  1  0.25136053  0.25247024  0.55437878  1
  Se  Se135  1  0.25698637  0.58805165  0.05785285  1
  Se  Se136  1  0.25683362  0.58611873  0.55450087  1
  Se  Se137  1  0.26050621  0.92204096  0.05859605  1
  Se  Se138  1  0.26106494  0.92351560  0.56232787  1
  Se  Se139  1  0.57922604  0.25140819  0.04953415  1
  Se  Se140  1  0.58573434  0.25345172  0.55164183  1
  Se  Se141  1  0.58243711  0.58068485  0.05583186  1
  Se  Se142  1  0.58222787  0.58080917  0.55346526  1
  Se  Se143  1  0.59648647  0.92657951  0.06597680  1
  Se  Se144  1  0.59031491  0.92390440  0.56049907  1
  Se  Se145  1  0.91007338  0.25015382  0.05532730  1
  Se  Se146  1  0.91924447  0.26194991  0.56564278  1
  Se  Se147  1  0.91197250  0.57836319  0.05090487  1
  Se  Se148  1  0.91734654  0.58367468  0.55067483  1
  Se  Se149  1  0.92135587  0.91793020  0.05039365  1
  Se  Se150  1  0.92392774  0.92520592  0.55438687  1
  Se  Se151  1  0.08557737  0.25533754  0.45121616  1
  Se  Se152  1  0.08362163  0.25201889  0.95218796  1
  Se  Se153  1  0.07405715  0.58903651  0.44335346  1
  Se  Se154  1  0.07705441  0.58489490  0.93985778  1
  Se  Se155  1  0.07364330  0.92542576  0.44189153  1
  Se  Se156  1  0.07637894  0.92607765  0.93382849  1
  Se  Se157  1  0.42502008  0.24706607  0.44584430  1
  Se  Se158  1  0.41856355  0.24981642  0.94271171  1
  Se  Se159  1  0.42518356  0.57907429  0.44246805  1
  Se  Se160  1  0.41258471  0.58194724  0.95456236  1
  Se  Se161  1  0.40559981  0.92990529  0.43997921  1
  Se  Se162  1  0.41485721  0.91966420  0.94044474  1
  Se  Se163  1  0.74686859  0.26130959  0.43765285  1
  Se  Se164  1  0.74914455  0.25306508  0.94788985  1
  Se  Se165  1  0.75467860  0.57734221  0.44496327  1
  Se  Se166  1  0.74991093  0.57914093  0.94635647  1
  Se  Se167  1  0.73346955  0.92797301  0.44402433  1
  Se  Se168  1  0.75406068  0.91308528  0.95215531  1
  Se  Se169  1  0.24716232  0.09487392  0.44897032  1
  Se  Se170  1  0.24848697  0.08712409  0.94437873  1
  Se  Se171  1  0.26252490  0.40809903  0.43739275  1
  Se  Se172  1  0.25147675  0.40917844  0.93824681  1
  Se  Se173  1  0.25088401  0.74314421  0.43833999  1
  Se  Se174  1  0.26145431  0.73872293  0.94708902  1
  Se  Se175  1  0.58822953  0.08798984  0.45492350  1
  Se  Se176  1  0.58411884  0.08746349  0.94714194  1
  Se  Se177  1  0.58133030  0.42042989  0.44548253  1
  Se  Se178  1  0.57838380  0.41975775  0.94484426  1
  Se  Se179  1  0.59078726  0.74018873  0.43941351  1
  Se  Se180  1  0.58874948  0.74450927  0.94335401  1
  Se  Se181  1  0.92142035  0.07926434  0.44187228  1
  Se  Se182  1  0.91256168  0.08774642  0.94952578  1
  Se  Se183  1  0.91389927  0.41690924  0.44720311  1
  Se  Se184  1  0.91043202  0.41991519  0.94914339  1
  Se  Se185  1  0.91739572  0.74262158  0.43785519  1
  Se  Se186  1  0.91340794  0.75052097  0.94740645  1
  Se  Se187  1  0.25223646  0.25165862  0.30217433  1
  Se  Se188  1  0.25162605  0.25451566  0.80400521  1
  Se  Se189  1  0.25079939  0.57833052  0.30024490  1
  Se  Se190  1  0.24268849  0.57222434  0.81429148  1
  Se  Se191  1  0.24042017  0.90582242  0.31162612  1
  Se  Se192  1  0.25231076  0.91630861  0.79717872  1
  Se  Se193  1  0.58684410  0.25280362  0.30397250  1
  Se  Se194  1  0.58281403  0.24989047  0.80281792  1
  Se  Se195  1  0.58806744  0.57785442  0.30238122  1
  Se  Se196  1  0.58522043  0.58120344  0.80316634  1
  Se  Se197  1  0.56899179  0.91261228  0.31184774  1
  Se  Se198  1  0.57970622  0.91173548  0.81535554  1
  Se  Se199  1  0.92163405  0.24486899  0.30042231  1
  Se  Se200  1  0.92504951  0.26379682  0.80670553  1
  Se  Se201  1  0.91422329  0.58156672  0.30166242  1
  Se  Se202  1  0.91528289  0.58294692  0.80672114  1
  Se  Se203  1  0.90798933  0.91014349  0.30803636  1
  Se  Se204  1  0.91070290  0.91441020  0.80831230  1
  Se  Se205  1  0.08900634  0.08800507  0.30817703  1
  Se  Se206  1  0.08430889  0.09176627  0.81050373  1
  Se  Se207  1  0.07979890  0.41495201  0.30694447  1
  Se  Se208  1  0.07946842  0.41197855  0.80158283  1
  Se  Se209  1  0.07699932  0.74146745  0.30046230  1
  Se  Se210  1  0.08165977  0.74720382  0.80000464  1
  Se  Se211  1  0.42153477  0.09151605  0.30605149  1
  Se  Se212  1  0.41192535  0.08531365  0.80108692  1
  Se  Se213  1  0.41868449  0.41123883  0.30186912  1
  Se  Se214  1  0.41804975  0.41473671  0.80143899  1
  Se  Se215  1  0.41590320  0.74653129  0.29657095  1
  Se  Se216  1  0.42465989  0.75105758  0.81684843  1
  Se  Se217  1  0.75722722  0.09710835  0.30562781  1
  Se  Se218  1  0.75867435  0.09287083  0.81069473  1
  Se  Se219  1  0.75115083  0.41438378  0.30433107  1
  Se  Se220  1  0.74658788  0.41383876  0.80594126  1
  Se  Se221  1  0.74551214  0.74671707  0.29834082  1
  Se  Se222  1  0.74889028  0.74420472  0.80489045  1
  Se  Se223  1  0.24751806  0.08997893  0.18721462  1
  Se  Se224  1  0.25108419  0.08619622  0.69574046  1
  Se  Se225  1  0.25231807  0.41437838  0.19533740  1
  Se  Se226  1  0.25285798  0.41676199  0.70103379  1
  Se  Se227  1  0.25329697  0.74171614  0.19833271  1
  Se  Se228  1  0.24347325  0.74934812  0.68791615  1
  Se  Se229  1  0.58114930  0.09336804  0.18911917  1
  Se  Se230  1  0.57616013  0.08989132  0.68931729  1
  Se  Se231  1  0.58876764  0.40943890  0.19471541  1
  Se  Se232  1  0.58719165  0.41381483  0.69342192  1
  Se  Se233  1  0.58013285  0.75451480  0.20210751  1
  Se  Se234  1  0.58552353  0.74477503  0.70449793  1
  Se  Se235  1  0.90676840  0.09370684  0.19100356  1
  Se  Se236  1  0.90811722  0.10017121  0.69603425  1
  Se  Se237  1  0.91406547  0.41477705  0.19657910  1
  Se  Se238  1  0.91287680  0.41866350  0.70003605  1
  Se  Se239  1  0.91714580  0.74248386  0.19368509  1
  Se  Se240  1  0.91723326  0.74462212  0.69905977  1
  Se  Se241  1  0.08172205  0.25026390  0.19470748  1
  Se  Se242  1  0.08327631  0.25129918  0.69779197  1
  Se  Se243  1  0.07995161  0.57820475  0.19982701  1
  Se  Se244  1  0.07809595  0.58313955  0.69980110  1
  Se  Se245  1  0.09128067  0.90432844  0.18997195  1
  Se  Se246  1  0.09186368  0.91055570  0.68302274  1
  Se  Se247  1  0.41397079  0.25455787  0.19302799  1
  Se  Se248  1  0.41507075  0.25649095  0.69385413  1
  Se  Se249  1  0.42090893  0.57658555  0.19657271  1
  Se  Se250  1  0.42231358  0.57829562  0.68992091  1
  Se  Se251  1  0.42976186  0.91016349  0.19373637  1
  Se  Se252  1  0.41716628  0.91610528  0.70407456  1
  Se  Se253  1  0.74180424  0.25704252  0.19752989  1
  Se  Se254  1  0.74642300  0.24774824  0.70474441  1
  Se  Se255  1  0.74579215  0.58388081  0.19401514  1
  Se  Se256  1  0.74614918  0.58327001  0.69689073  1
  Se  Se257  1  0.75777193  0.91575032  0.18971732  1
  Se  Se258  1  0.75702911  0.91127190  0.69135112  1
