# generated using pymatgen
data_In86Cu29Se144
_symmetry_space_group_name_H-M   'P 1'
_cell_length_a   17.65112954
_cell_length_b   17.64789734
_cell_length_c   23.51096584
_cell_angle_alpha   90.04920598
_cell_angle_beta   89.98823882
_cell_angle_gamma   89.98028084
_symmetry_Int_Tables_number   1
_chemical_formula_structural   In86Cu29Se144
_chemical_formula_sum   'In86 Cu29 Se144'
_cell_volume   7323.78769342
_cell_formula_units_Z   1
loop_
 _symmetry_equiv_pos_site_id
 _symmetry_equiv_pos_as_xyz
  1  'x, y, z'
loop_
 _atom_site_type_symbol
 _atom_site_label
 _atom_site_symmetry_multiplicity
 _atom_site_fract_x
 _atom_site_fract_y
 _atom_site_fract_z
 _atom_site_occupancy
  In  In0  1  0.03421490  0.20187766  0.05454446  1
  In  In1  1  0.01249893  0.15562260  0.63998268  1
  In  In2  1  -0.00821613  0.47723903  0.10928306  1
  In  In3  1  -0.00204116  0.49056710  0.62915381  1
  In  In4  1  0.00293835  0.84041962  0.12686208  1
  In  In5  1  0.01430198  0.85573903  0.61156415  1
  In  In6  1  0.34775269  0.16558981  0.13376995  1
  In  In7  1  0.33654843  0.16741252  0.62132478  1
  In  In8  1  0.33057628  0.50718365  0.12842029  1
  In  In9  1  0.32352450  0.49085634  0.62598495  1
  In  In10  1  0.33582485  0.83534825  0.12994129  1
  In  In11  1  0.33169389  0.83608239  0.61619967  1
  In  In12  1  0.66102701  0.16350397  0.11691422  1
  In  In13  1  0.65481346  0.17210137  0.63473259  1
  In  In14  1  0.67873276  0.49933336  0.12341601  1
  In  In15  1  0.67633184  0.49039022  0.63709106  1
  In  In16  1  0.65352443  0.83869687  0.12800701  1
  In  In17  1  0.66547158  0.83257322  0.62601018  1
  In  In18  1  0.17342280  -0.00124219  0.37737840  1
  In  In19  1  0.16299132  0.01238569  0.87425854  1
  In  In20  1  0.17127696  0.32313276  0.36098042  1
  In  In21  1  0.17095876  0.32595861  0.87822645  1
  In  In22  1  0.17529981  0.67180597  0.37197584  1
  In  In23  1  0.15327606  0.66310611  0.87658370  1
  In  In24  1  0.48478400  0.01099655  0.38454840  1
  In  In25  1  0.50239056  -0.01102721  0.87998071  1
  In  In26  1  0.49077652  0.33309536  0.37652270  1
  In  In27  1  0.48522387  0.32055936  0.86771223  1
  In  In28  1  0.50587035  0.66906533  0.37070411  1
  In  In29  1  0.51344752  0.66875542  0.87498191  1
  In  In30  1  0.82031928  0.00014079  0.37808031  1
  In  In31  1  0.84908339  0.02110083  0.86686403  1
  In  In32  1  0.84390073  0.32023856  0.37161552  1
  In  In33  1  0.83212922  0.33196671  0.88209110  1
  In  In34  1  0.83613745  0.67200312  0.37340315  1
  In  In35  1  0.82527426  0.66088351  0.87495434  1
  In  In36  1  0.00790911  0.18042916  0.36787912  1
  In  In37  1  -0.00321121  0.16626955  0.88000943  1
  In  In38  1  0.01318404  0.48518418  0.37037660  1
  In  In39  1  0.01328142  0.47542085  0.89981897  1
  In  In40  1  -0.00498225  0.84288693  0.38512962  1
  In  In41  1  -0.00421916  0.83515354  0.86768109  1
  In  In42  1  0.33395535  0.16446202  0.37060829  1
  In  In43  1  0.32271014  0.17026339  0.88520406  1
  In  In44  1  0.32547840  0.49928781  0.36284073  1
  In  In45  1  0.33373519  0.48307395  0.87814207  1
  In  In46  1  0.33619538  0.83544884  0.37743743  1
  In  In47  1  0.33324848  0.84830726  0.87866349  1
  In  In48  1  0.66318975  0.16198337  0.37716950  1
  In  In49  1  0.66097555  0.16273624  0.87344933  1
  In  In50  1  0.65533452  0.49837341  0.37300197  1
  In  In51  1  0.67300079  0.50454598  0.87306803  1
  In  In52  1  0.66860479  0.82633196  0.38364177  1
  In  In53  1  0.66543079  0.82645420  0.86787769  1
  In  In54  1  0.16074887  0.11050854  0.13555795  1
  In  In55  1  0.16316681  0.00284458  0.62206159  1
  In  In56  1  0.17580664  0.33487475  0.12114887  1
  In  In57  1  0.17979687  0.31726833  0.64174813  1
  In  In58  1  0.17958601  0.66665109  0.12766261  1
  In  In59  1  0.15522015  0.67561433  0.62537181  1
  In  In60  1  0.50106772  -0.00416739  0.12278090  1
  In  In61  1  0.50317822  0.00687601  0.62032695  1
  In  In62  1  0.48768668  0.31341240  0.12969067  1
  In  In63  1  0.51514376  0.31421566  0.63425554  1
  In  In64  1  0.49064304  0.68228868  0.13310847  1
  In  In65  1  0.50363291  0.67807552  0.62230773  1
  In  In66  1  0.83830621  0.00781605  0.11797857  1
  In  In67  1  0.83970675  -0.00631865  0.63100030  1
  In  In68  1  0.84440986  0.32898901  0.10318542  1
  In  In69  1  0.83719426  0.32406219  0.63335484  1
  In  In70  1  0.83769192  0.65463284  0.12755785  1
  In  In71  1  0.82085484  0.66987781  0.63038812  1
  In  In72  1  0.49777276  0.49774123  0.49645366  1
  In  In73  1  0.33581866  0.66405380  0.74148288  1
  In  In74  1  0.00371432  0.66230557  0.25152480  1
  In  In75  1  0.00639819  0.00888322  0.24479937  1
  In  In76  1  0.32720968  0.00155984  0.74702515  1
  In  In77  1  0.82835350  0.83214513  -0.00778007  1
  In  In78  1  0.83038916  0.16244278  0.50346202  1
  In  In79  1  0.16592991  0.50441875  0.49483347  1
  In  In80  1  0.65923309  0.00017172  0.24986963  1
  In  In81  1  0.17329069  0.84091583  0.00258239  1
  In  In82  1  0.50398525  0.50370323  -0.00096409  1
  In  In83  1  0.66238116  0.33480795  0.24858851  1
  In  In84  1  -0.01185253  0.66392134  0.75176785  1
  In  In85  1  0.83254363  0.49931160  0.51251946  1
  Cu  Cu86  1  0.83885593  0.17356411  0.24042546  1
  Cu  Cu87  1  0.50429604  0.49754219  0.75543677  1
  Cu  Cu88  1  0.15926322  0.49464851  0.24348709  1
  Cu  Cu89  1  0.00015320  0.01083310  0.50317336  1
  Cu  Cu90  1  0.82750707  0.83440518  0.25602664  1
  Cu  Cu91  1  0.33369590  0.32581094  0.50003950  1
  Cu  Cu92  1  0.83685886  0.49059708  0.23944467  1
  Cu  Cu93  1  0.66245375  -0.00365567  -0.00594147  1
  Cu  Cu94  1  0.16622667  0.49182405  0.75904402  1
  Cu  Cu95  1  0.66348016  0.67413590  -0.00093199  1
  Cu  Cu96  1  0.83684904  0.49383408  0.75765085  1
  Cu  Cu97  1  0.83207592  0.83567185  0.74867182  1
  Cu  Cu98  1  0.33583244  0.66893835  0.00614796  1
  Cu  Cu99  1  0.33548053  0.32833726  0.00084042  1
  Cu  Cu100  1  0.17089336  0.84085103  0.25076576  1
  Cu  Cu101  1  0.66613492  0.66409048  0.50244612  1
  Cu  Cu102  1  0.65885719  0.33017195  -0.00220756  1
  Cu  Cu103  1  0.00809368  0.32943859  0.49956149  1
  Cu  Cu104  1  0.50099614  0.83022822  0.25527299  1
  Cu  Cu105  1  0.82807741  0.16900899  0.75639888  1
  Cu  Cu106  1  0.33244183  0.67409119  0.49641878  1
  Cu  Cu107  1  0.33529721  0.00467212  0.00765082  1
  Cu  Cu108  1  0.33201668  0.00251496  0.49783262  1
  Cu  Cu109  1  0.49491684  0.15893547  0.75089739  1
  Cu  Cu110  1  -0.00416026  0.67910702  0.49950170  1
  Cu  Cu111  1  0.50255154  0.50994016  0.24686033  1
  Cu  Cu112  1  0.50398182  0.82965218  0.74990782  1
  Cu  Cu113  1  0.00249517  0.65791941  0.00392047  1
  Cu  Cu114  1  0.66324310  -0.00692135  0.50328955  1
  Se  Se115  1  0.08119527  0.06139585  0.05265740  1
  Se  Se116  1  0.08336253  0.09311986  0.55551275  1
  Se  Se117  1  0.09441331  0.41356062  0.04974351  1
  Se  Se118  1  0.08586806  0.41264153  0.55921066  1
  Se  Se119  1  0.07944335  0.74391898  0.06046259  1
  Se  Se120  1  0.08712773  0.75605317  0.54946209  1
  Se  Se121  1  0.42357331  0.08654203  0.05718432  1
  Se  Se122  1  0.41630613  0.08408797  0.55255337  1
  Se  Se123  1  0.41490984  0.41373809  0.05951283  1
  Se  Se124  1  0.41154467  0.40864631  0.55954430  1
  Se  Se125  1  0.41623048  0.75590438  0.05562303  1
  Se  Se126  1  0.41752921  0.75083878  0.55212682  1
  Se  Se127  1  0.74208428  0.07583263  0.05222189  1
  Se  Se128  1  0.74125501  0.07545226  0.56450151  1
  Se  Se129  1  0.74408775  0.41266296  0.04989513  1
  Se  Se130  1  0.74389258  0.40015061  0.56106926  1
  Se  Se131  1  0.74699203  0.74714156  0.06295198  1
  Se  Se132  1  0.74836387  0.74869101  0.55533945  1
  Se  Se133  1  0.26213500  0.24350716  0.06033487  1
  Se  Se134  1  0.24671068  0.25133361  0.55692474  1
  Se  Se135  1  0.25145546  0.58349191  0.05354548  1
  Se  Se136  1  0.25491137  0.59410141  0.55891774  1
  Se  Se137  1  0.25256946  0.92806223  0.06780132  1
  Se  Se138  1  0.24773367  0.92242638  0.55331661  1
  Se  Se139  1  0.57614871  0.25142836  0.05443387  1
  Se  Se140  1  0.58173197  0.24124805  0.55478471  1
  Se  Se141  1  0.58693479  0.59448787  0.06339606  1
  Se  Se142  1  0.59156617  0.57911739  0.56237626  1
  Se  Se143  1  0.58261618  0.91424168  0.05113360  1
  Se  Se144  1  0.57923523  0.91166974  0.55694342  1
  Se  Se145  1  0.88837030  0.21475244  0.04171433  1
  Se  Se146  1  0.92583216  0.25106949  0.55856782  1
  Se  Se147  1  0.91261615  0.57872589  0.05303486  1
  Se  Se148  1  0.92764049  0.59461116  0.56349503  1
  Se  Se149  1  0.92255326  0.91762938  0.05152870  1
  Se  Se150  1  0.91304452  0.92435097  0.54935619  1
  Se  Se151  1  0.09107392  0.25479298  0.44006318  1
  Se  Se152  1  0.08404565  0.24673010  0.94891614  1
  Se  Se153  1  0.07032767  0.59513844  0.43722903  1
  Se  Se154  1  0.09169117  0.57928261  0.95327727  1
  Se  Se155  1  0.08161987  0.92653190  0.44720887  1
  Se  Se156  1  0.07662432  0.91756158  0.93892525  1
  Se  Se157  1  0.41578408  0.24556516  0.44428485  1
  Se  Se158  1  0.41961543  0.24558437  0.94869894  1
  Se  Se159  1  0.40441741  0.58630890  0.43783834  1
  Se  Se160  1  0.41057003  0.59142817  0.93865543  1
  Se  Se161  1  0.41710043  0.91406102  0.45044110  1
  Se  Se162  1  0.41454434  0.91708313  0.95308444  1
  Se  Se163  1  0.74626048  0.25669342  0.44125926  1
  Se  Se164  1  0.74023589  0.24702148  0.94338760  1
  Se  Se165  1  0.74616621  0.58315975  0.44260904  1
  Se  Se166  1  0.74500025  0.58620800  0.94909407  1
  Se  Se167  1  0.75030867  0.91492124  0.44937528  1
  Se  Se168  1  0.74711244  0.92567178  0.93104457  1
  Se  Se169  1  0.25129410  0.08769103  0.44410040  1
  Se  Se170  1  0.24734900  0.07813943  0.95069635  1
  Se  Se171  1  0.25626559  0.40990631  0.43967545  1
  Se  Se172  1  0.25042571  0.41144171  0.94994801  1
  Se  Se173  1  0.24573123  0.75497396  0.44504143  1
  Se  Se174  1  0.25565359  0.74341809  0.93963297  1
  Se  Se175  1  0.58691440  0.07959659  0.44719527  1
  Se  Se176  1  0.57799729  0.08224310  0.94461176  1
  Se  Se177  1  0.59253667  0.40384115  0.44487487  1
  Se  Se178  1  0.58203542  0.41029540  0.93496713  1
  Se  Se179  1  0.58049822  0.74347314  0.44838607  1
  Se  Se180  1  0.58290602  0.75767780  0.94591462  1
  Se  Se181  1  0.92359512  0.08404230  0.43445723  1
  Se  Se182  1  0.90769093  0.09299200  0.95173038  1
  Se  Se183  1  0.92320337  0.41171436  0.44506791  1
  Se  Se184  1  0.90445727  0.41612618  0.95585778  1
  Se  Se185  1  0.90809760  0.75543775  0.44627799  1
  Se  Se186  1  0.92699263  0.73813402  0.94066397  1
  Se  Se187  1  0.27459002  0.26231362  0.29772694  1
  Se  Se188  1  0.25805948  0.25176939  0.80887684  1
  Se  Se189  1  0.23782059  0.58175790  0.29850210  1
  Se  Se190  1  0.24781823  0.58022204  0.81071897  1
  Se  Se191  1  0.25456733  0.91814737  0.30750155  1
  Se  Se192  1  0.23833236  0.91062608  0.80751885  1
  Se  Se193  1  0.57626728  0.24289580  0.30800801  1
  Se  Se194  1  0.57812663  0.24492173  0.80300945  1
  Se  Se195  1  0.58896241  0.58660511  0.30158346  1
  Se  Se196  1  0.58654021  0.58463314  0.80394977  1
  Se  Se197  1  0.57853876  0.91214568  0.31642623  1
  Se  Se198  1  0.58219474  0.91572288  0.80430077  1
  Se  Se199  1  0.92374216  0.25354668  0.29459882  1
  Se  Se200  1  0.91217880  0.24924164  0.81143599  1
  Se  Se201  1  0.91179426  0.56760440  0.30832082  1
  Se  Se202  1  0.92021212  0.56803914  0.81952451  1
  Se  Se203  1  0.91047002  0.91935867  0.30792691  1
  Se  Se204  1  0.91468111  0.91883453  0.80196350  1
  Se  Se205  1  0.09910650  0.09437912  0.30593209  1
  Se  Se206  1  0.07608308  0.08685918  0.80747775  1
  Se  Se207  1  0.08173376  0.40516770  0.29503860  1
  Se  Se208  1  0.08300188  0.41340974  0.81447988  1
  Se  Se209  1  0.08367128  0.76499001  0.30907192  1
  Se  Se210  1  0.08978377  0.75414561  0.80184369  1
  Se  Se211  1  0.41469474  0.07639417  0.30398165  1
  Se  Se212  1  0.41581624  0.08245538  0.81412118  1
  Se  Se213  1  0.42669420  0.42585731  0.30527046  1
  Se  Se214  1  0.41430618  0.41631850  0.80142574  1
  Se  Se215  1  0.41465130  0.74834802  0.30753313  1
  Se  Se216  1  0.41783598  0.75508982  0.80937712  1
  Se  Se217  1  0.75901657  0.09540435  0.30190677  1
  Se  Se218  1  0.74388469  0.08048267  0.80346835  1
  Se  Se219  1  0.75897381  0.41969936  0.30977787  1
  Se  Se220  1  0.75019405  0.41260334  0.80912666  1
  Se  Se221  1  0.74705836  0.74941039  0.30739165  1
  Se  Se222  1  0.75549956  0.74693004  0.80230057  1
  Se  Se223  1  0.27165094  0.06865120  0.19683816  1
  Se  Se224  1  0.24007965  0.09608688  0.69227612  1
  Se  Se225  1  0.25127249  0.41792195  0.19377617  1
  Se  Se226  1  0.25383916  0.41517263  0.70379461  1
  Se  Se227  1  0.25104329  0.75217900  0.19886534  1
  Se  Se228  1  0.24332820  0.76018509  0.69140937  1
  Se  Se229  1  0.57330599  0.09442605  0.19384451  1
  Se  Se230  1  0.58026309  0.07634594  0.69908107  1
  Se  Se231  1  0.57387450  0.42352728  0.18477947  1
  Se  Se232  1  0.58414955  0.41211842  0.69968579  1
  Se  Se233  1  0.58708669  0.75074841  0.20085283  1
  Se  Se234  1  0.58697456  0.74553068  0.69719506  1
  Se  Se235  1  0.92008059  0.09539011  0.18229967  1
  Se  Se236  1  0.90948208  0.08688270  0.69899076  1
  Se  Se237  1  0.91285102  0.40440014  0.18491406  1
  Se  Se238  1  0.91660666  0.41373287  0.69929977  1
  Se  Se239  1  0.91082396  0.75782282  0.19508308  1
  Se  Se240  1  0.91583048  0.76052703  0.68630046  1
  Se  Se241  1  0.07903125  0.23203007  0.16276096  1
  Se  Se242  1  0.05987919  0.27388576  0.69349424  1
  Se  Se243  1  0.08038856  0.57447375  0.18234357  1
  Se  Se244  1  0.09135275  0.57372212  0.69591765  1
  Se  Se245  1  0.09697780  0.91902168  0.18735043  1
  Se  Se246  1  0.08020386  0.92433065  0.69246235  1
  Se  Se247  1  0.39874646  0.26536539  0.20880770  1
  Se  Se248  1  0.41505658  0.24461182  0.69637670  1
  Se  Se249  1  0.41333663  0.58969399  0.19665227  1
  Se  Se250  1  0.42877788  0.57118439  0.68587895  1
  Se  Se251  1  0.42619785  0.91406437  0.19632400  1
  Se  Se252  1  0.42144736  0.90897327  0.69122966  1
  Se  Se253  1  0.75090402  0.24977941  0.18405904  1
  Se  Se254  1  0.74608384  0.24994674  0.69986883  1
  Se  Se255  1  0.75126485  0.58121308  0.19854637  1
  Se  Se256  1  0.75692387  0.57851546  0.70214326  1
  Se  Se257  1  0.75780111  0.91582389  0.19048261  1
  Se  Se258  1  0.74694319  0.91636293  0.69517888  1
