# generated using pymatgen
data_In86Cu29Se144
_symmetry_space_group_name_H-M   'P 1'
_cell_length_a   17.58078399
_cell_length_b   17.57786500
_cell_length_c   23.43486436
_cell_angle_alpha   89.99883084
_cell_angle_beta   90.02675691
_cell_angle_gamma   89.99150309
_symmetry_Int_Tables_number   1
_chemical_formula_structural   In86Cu29Se144
_chemical_formula_sum   'In86 Cu29 Se144'
_cell_volume   7242.13730581
_cell_formula_units_Z   1
loop_
 _symmetry_equiv_pos_site_id
 _symmetry_equiv_pos_as_xyz
  1  'x, y, z'
loop_
 _atom_site_type_symbol
 _atom_site_label
 _atom_site_symmetry_multiplicity
 _atom_site_fract_x
 _atom_site_fract_y
 _atom_site_fract_z
 _atom_site_occupancy
  In  In0  1  0.00022703  0.16623824  0.12196500  1
  In  In1  1  0.00306070  0.15293573  0.62092643  1
  In  In2  1  -0.01619396  0.48648284  0.13247413  1
  In  In3  1  -0.00027693  0.50214390  0.62339917  1
  In  In4  1  0.01508219  0.84543563  0.11691670  1
  In  In5  1  -0.00298491  0.83832601  0.61209040  1
  In  In6  1  0.33175743  0.16751495  0.12573035  1
  In  In7  1  0.33591988  0.16325786  0.62383427  1
  In  In8  1  0.33648844  0.48607856  0.12672186  1
  In  In9  1  0.33892264  0.47851902  0.63110434  1
  In  In10  1  0.34906705  0.84866984  0.11644135  1
  In  In11  1  0.32822194  0.85165069  0.62991623  1
  In  In12  1  0.64800058  0.14275601  0.10504288  1
  In  In13  1  0.65204388  0.17791846  0.63870506  1
  In  In14  1  0.66813590  0.51327724  0.12709500  1
  In  In15  1  0.64960945  0.49770744  0.62459468  1
  In  In16  1  0.66624938  0.84007049  0.11935169  1
  In  In17  1  0.67564159  0.83887686  0.62934777  1
  In  In18  1  0.16790456  0.00198960  0.37024968  1
  In  In19  1  0.17875255  -0.00484832  0.87959913  1
  In  In20  1  0.16236531  0.32109215  0.36645577  1
  In  In21  1  0.17184879  0.31458657  0.87870639  1
  In  In22  1  0.16812416  0.67369004  0.37899396  1
  In  In23  1  0.16613975  0.68116627  0.87576411  1
  In  In24  1  0.51173801  0.00739281  0.36728030  1
  In  In25  1  0.50221689  0.00738293  0.88385615  1
  In  In26  1  0.49196370  0.33554912  0.37616036  1
  In  In27  1  0.49648435  0.33101681  0.87611591  1
  In  In28  1  0.49815244  0.65468472  0.37530615  1
  In  In29  1  0.50657852  0.66350374  0.88064963  1
  In  In30  1  0.82763237  -0.01082176  0.36484015  1
  In  In31  1  0.82552517  0.00372133  0.88937713  1
  In  In32  1  0.83594181  0.31825497  0.36768169  1
  In  In33  1  0.81988768  0.33616626  0.87989568  1
  In  In34  1  0.84122652  0.68745534  0.37067647  1
  In  In35  1  0.83430740  0.67721771  0.87887076  1
  In  In36  1  0.01057127  0.17396899  0.36458610  1
  In  In37  1  0.01162724  0.16382492  0.89226566  1
  In  In38  1  0.00871973  0.49832844  0.36974601  1
  In  In39  1  -0.01509766  0.49980932  0.87737361  1
  In  In40  1  -0.01256616  0.83946816  0.37933683  1
  In  In41  1  -0.00391085  0.84391496  0.88455528  1
  In  In42  1  0.33457085  0.16324494  0.37155171  1
  In  In43  1  0.33438840  0.16602606  0.87672380  1
  In  In44  1  0.34771036  0.49890727  0.37622478  1
  In  In45  1  0.35261858  0.49463906  0.87416058  1
  In  In46  1  0.32277218  0.83496269  0.37568863  1
  In  In47  1  0.32049104  0.85384088  0.87948568  1
  In  In48  1  0.66698959  0.15325695  0.37291777  1
  In  In49  1  0.65952100  0.15947911  0.88628019  1
  In  In50  1  0.64988498  0.49695896  0.37335517  1
  In  In51  1  0.65862531  0.48468692  0.86941249  1
  In  In52  1  0.67898941  0.84137944  0.36771088  1
  In  In53  1  0.66348294  0.84574856  0.88821419  1
  In  In54  1  0.16952646  0.00367186  0.12554801  1
  In  In55  1  0.16884247  0.00664164  0.61666501  1
  In  In56  1  0.17012191  0.32458082  0.12826345  1
  In  In57  1  0.18511290  0.32992741  0.62651303  1
  In  In58  1  0.16097026  0.67654983  0.12580130  1
  In  In59  1  0.16444566  0.67902683  0.61971601  1
  In  In60  1  0.49835869  -0.00031413  0.12570444  1
  In  In61  1  0.48715778  0.01240896  0.63746783  1
  In  In62  1  0.48844695  0.32044749  0.11621333  1
  In  In63  1  0.49908481  0.32598490  0.62631661  1
  In  In64  1  0.51137349  0.68043258  0.11602166  1
  In  In65  1  0.50936776  0.66124679  0.62241315  1
  In  In66  1  0.83257978  0.00422533  0.11812692  1
  In  In67  1  0.82766341  -0.00921814  0.62791953  1
  In  In68  1  0.84527762  0.32063215  0.12890822  1
  In  In69  1  0.82571595  0.31661848  0.62961458  1
  In  In70  1  0.81647176  0.66432394  0.12887023  1
  In  In71  1  0.83095368  0.67995831  0.61774809  1
  In  In72  1  0.67254175  0.33037290  0.24235108  1
  In  In73  1  0.00159624  0.32945927  0.76027183  1
  In  In74  1  0.83378882  0.15892500  0.49905294  1
  In  In75  1  0.82829791  0.49592339  0.00531421  1
  In  In76  1  0.49849225  0.83392854  0.50469766  1
  In  In77  1  0.33762399  0.67084779  0.74447898  1
  In  In78  1  -0.00220185  -0.00045541  0.75149703  1
  In  In79  1  0.66532306  0.67067150  0.75540212  1
  In  In80  1  -0.00396054  0.66511595  0.25045642  1
  In  In81  1  0.33621563  0.66778104  0.25453919  1
  In  In82  1  0.17275546  0.50124886  0.49136834  1
  In  In83  1  0.00235631  0.67592980  0.74028826  1
  In  In84  1  0.82961769  0.50607192  0.49942095  1
  In  In85  1  0.16972327  0.50370466  0.01039631  1
  Cu  Cu86  1  0.33134763  0.00766073  0.00229212  1
  Cu  Cu87  1  0.33247599  0.00356036  0.49902282  1
  Cu  Cu88  1  0.33104480  0.66469513  0.49946840  1
  Cu  Cu89  1  0.66318003  0.00181217  0.49852187  1
  Cu  Cu90  1  0.16680258  0.48957954  0.24926744  1
  Cu  Cu91  1  0.00695775  0.33394577  0.49276852  1
  Cu  Cu92  1  0.66119192  0.33075049  -0.00210781  1
  Cu  Cu93  1  0.00356552  -0.00008145  0.49317024  1
  Cu  Cu94  1  0.33951852  0.32075618  0.50135496  1
  Cu  Cu95  1  0.83436985  0.83749029  0.24231123  1
  Cu  Cu96  1  0.50160859  0.50004250  0.24927878  1
  Cu  Cu97  1  0.33577381  0.33237100  0.00026116  1
  Cu  Cu98  1  0.17509588  0.16332431  0.74811673  1
  Cu  Cu99  1  0.66588185  0.66926897  0.49898366  1
  Cu  Cu100  1  0.33702951  0.67174225  -0.00709940  1
  Cu  Cu101  1  0.49895353  0.16631814  0.24382057  1
  Cu  Cu102  1  0.17696531  0.49798241  0.75464390  1
  Cu  Cu103  1  0.50010403  0.16573260  0.75778036  1
  Cu  Cu104  1  0.00320040  0.67154205  0.00239667  1
  Cu  Cu105  1  0.00317829  0.00314390  0.00454680  1
  Cu  Cu106  1  0.82206631  0.16361439  0.76180616  1
  Cu  Cu107  1  0.17038595  0.84268516  0.24781325  1
  Cu  Cu108  1  0.82758761  0.50149408  0.74606320  1
  Cu  Cu109  1  0.83538864  0.15716718  0.24373519  1
  Cu  Cu110  1  0.66588885  0.66759054  0.00077718  1
  Cu  Cu111  1  0.16920049  0.16340938  0.24647872  1
  Cu  Cu112  1  0.50851793  0.83651092  0.24254247  1
  Cu  Cu113  1  0.49760474  0.84011150  0.76170918  1
  Cu  Cu114  1  0.65527493  0.33188243  0.50227246  1
  Se  Se115  1  0.08976977  0.08665647  0.05478642  1
  Se  Se116  1  0.08499373  0.08632580  0.54520195  1
  Se  Se117  1  0.07565434  0.41251566  0.06250637  1
  Se  Se118  1  0.08378374  0.41169039  0.55749370  1
  Se  Se119  1  0.09256034  0.75497253  0.04867313  1
  Se  Se120  1  0.08095778  0.75089228  0.54989855  1
  Se  Se121  1  0.41672358  0.08705120  0.05709265  1
  Se  Se122  1  0.41955648  0.08117037  0.55363808  1
  Se  Se123  1  0.41893802  0.41991595  0.05009308  1
  Se  Se124  1  0.41790210  0.41024114  0.55396795  1
  Se  Se125  1  0.41941441  0.75404703  0.04941717  1
  Se  Se126  1  0.40596275  0.74428466  0.56529843  1
  Se  Se127  1  0.74929791  0.07708466  0.04356309  1
  Se  Se128  1  0.73887420  0.08305068  0.56365544  1
  Se  Se129  1  0.73948109  0.40495436  0.06469388  1
  Se  Se130  1  0.74641363  0.40638537  0.55856133  1
  Se  Se131  1  0.75045451  0.74866430  0.05393717  1
  Se  Se132  1  0.74339104  0.75794772  0.55086782  1
  Se  Se133  1  0.25099910  0.25103782  0.05372774  1
  Se  Se134  1  0.24922419  0.24327534  0.55259965  1
  Se  Se135  1  0.26443556  0.59725677  0.06398982  1
  Se  Se136  1  0.25782311  0.58162430  0.56407047  1
  Se  Se137  1  0.24937510  0.91917706  0.05398079  1
  Se  Se138  1  0.24990124  0.91687884  0.55009759  1
  Se  Se139  1  0.57515432  0.24559861  0.04670511  1
  Se  Se140  1  0.57992876  0.24161811  0.55496490  1
  Se  Se141  1  0.58364124  0.58121016  0.05201872  1
  Se  Se142  1  0.58280973  0.58161889  0.54763351  1
  Se  Se143  1  0.57299344  0.91411491  0.05440369  1
  Se  Se144  1  0.58402581  0.92701288  0.56437942  1
  Se  Se145  1  0.91820479  0.24883946  0.05209293  1
  Se  Se146  1  0.92558945  0.25686908  0.55581389  1
  Se  Se147  1  0.92296394  0.59019200  0.06149448  1
  Se  Se148  1  0.92660455  0.59492451  0.55535470  1
  Se  Se149  1  0.91835316  0.91602133  0.05259864  1
  Se  Se150  1  0.91293161  0.92839870  0.55021151  1
  Se  Se151  1  0.08718288  0.24551932  0.44363457  1
  Se  Se152  1  0.08407143  0.25984613  0.95471676  1
  Se  Se153  1  0.07194405  0.59299320  0.44345457  1
  Se  Se154  1  0.07748948  0.58715814  0.94117113  1
  Se  Se155  1  0.08605416  0.91629802  0.43938101  1
  Se  Se156  1  0.08739726  0.92154298  0.94859359  1
  Se  Se157  1  0.42108122  0.24144131  0.44294846  1
  Se  Se158  1  0.41753330  0.24711758  0.94706821  1
  Se  Se159  1  0.41825790  0.58181404  0.45107294  1
  Se  Se160  1  0.41993153  0.58158945  0.94758362  1
  Se  Se161  1  0.41498320  0.92293737  0.43928894  1
  Se  Se162  1  0.41312842  0.92156849  0.94859003  1
  Se  Se163  1  0.74060636  0.25501845  0.44290064  1
  Se  Se164  1  0.74895070  0.24809426  0.94952388  1
  Se  Se165  1  0.74264877  0.59126702  0.43433503  1
  Se  Se166  1  0.74223663  0.58414028  0.93768996  1
  Se  Se167  1  0.74899801  0.92195437  0.44488760  1
  Se  Se168  1  0.76921019  0.89805868  0.95415970  1
  Se  Se169  1  0.24948469  0.08373387  0.44176580  1
  Se  Se170  1  0.24675778  0.08996672  0.94772537  1
  Se  Se171  1  0.26076225  0.40257378  0.43821445  1
  Se  Se172  1  0.25412083  0.41719836  0.94227394  1
  Se  Se173  1  0.25004314  0.75177415  0.44983447  1
  Se  Se174  1  0.24920969  0.75619031  0.94650881  1
  Se  Se175  1  0.58010413  0.08593789  0.44710555  1
  Se  Se176  1  0.59335660  0.06879529  0.95906185  1
  Se  Se177  1  0.57617265  0.41633781  0.44693785  1
  Se  Se178  1  0.57925807  0.41723098  0.94641199  1
  Se  Se179  1  0.58592706  0.75017900  0.43746077  1
  Se  Se180  1  0.58172034  0.75143479  0.94879813  1
  Se  Se181  1  0.92183826  0.07902794  0.43163440  1
  Se  Se182  1  0.91707846  0.08539139  0.95272816  1
  Se  Se183  1  0.91855329  0.41053554  0.43887981  1
  Se  Se184  1  0.92284196  0.40479804  0.94891524  1
  Se  Se185  1  0.91352528  0.75389854  0.45007616  1
  Se  Se186  1  0.91746061  0.75206064  0.94973035  1
  Se  Se187  1  0.25390145  0.24714310  0.30023867  1
  Se  Se188  1  0.25445591  0.24860185  0.80267207  1
  Se  Se189  1  0.24139734  0.57377813  0.31093308  1
  Se  Se190  1  0.24927965  0.58499000  0.81328264  1
  Se  Se191  1  0.25688058  0.92141077  0.30175616  1
  Se  Se192  1  0.24613888  0.92092044  0.79957342  1
  Se  Se193  1  0.58030209  0.24547042  0.30675453  1
  Se  Se194  1  0.58513501  0.24493711  0.81320762  1
  Se  Se195  1  0.58296052  0.58679233  0.30010129  1
  Se  Se196  1  0.57206393  0.57296567  0.80263969  1
  Se  Se197  1  0.59006407  0.91890789  0.30050221  1
  Se  Se198  1  0.58336889  0.92035899  0.81364156  1
  Se  Se199  1  0.91702973  0.24474488  0.29509051  1
  Se  Se200  1  0.91179491  0.23903981  0.81853522  1
  Se  Se201  1  0.90626942  0.57533813  0.30975131  1
  Se  Se202  1  0.90851513  0.58419452  0.80222547  1
  Se  Se203  1  0.92130325  0.91556706  0.29818678  1
  Se  Se204  1  0.90654596  0.91561518  0.81229364  1
  Se  Se205  1  0.08351876  0.08029050  0.29881239  1
  Se  Se206  1  0.08829006  0.09167868  0.80944834  1
  Se  Se207  1  0.07948829  0.40914094  0.30083350  1
  Se  Se208  1  0.09064771  0.42669357  0.81597467  1
  Se  Se209  1  0.09015149  0.75761602  0.30587379  1
  Se  Se210  1  0.08282273  0.76546231  0.80691091  1
  Se  Se211  1  0.41930549  0.08247982  0.30140007  1
  Se  Se212  1  0.41681384  0.08042840  0.80972268  1
  Se  Se213  1  0.41676337  0.41652188  0.30062855  1
  Se  Se214  1  0.41556325  0.40751582  0.80168756  1
  Se  Se215  1  0.42923933  0.76149638  0.31011615  1
  Se  Se216  1  0.41799311  0.75433952  0.81622035  1
  Se  Se217  1  0.74834895  0.07997802  0.29947638  1
  Se  Se218  1  0.74433481  0.07827019  0.81513231  1
  Se  Se219  1  0.75141667  0.41835300  0.31202751  1
  Se  Se220  1  0.75157819  0.41489320  0.80102719  1
  Se  Se221  1  0.75299556  0.75267058  0.29686460  1
  Se  Se222  1  0.75398708  0.76296778  0.81037244  1
  Se  Se223  1  0.25571053  0.08047426  0.19628934  1
  Se  Se224  1  0.25139279  0.07836692  0.69167292  1
  Se  Se225  1  0.25284866  0.41024570  0.19661042  1
  Se  Se226  1  0.25441356  0.40764866  0.70477947  1
  Se  Se227  1  0.25186741  0.75934645  0.19086501  1
  Se  Se228  1  0.23851252  0.76162050  0.69554752  1
  Se  Se229  1  0.58518656  0.08250233  0.19426583  1
  Se  Se230  1  0.58374345  0.08034929  0.70452360  1
  Se  Se231  1  0.57446450  0.41692722  0.18559524  1
  Se  Se232  1  0.59021681  0.40329248  0.69302313  1
  Se  Se233  1  0.59102770  0.75076699  0.19241484  1
  Se  Se234  1  0.57119339  0.76108619  0.69477655  1
  Se  Se235  1  0.92107952  0.07718347  0.19013205  1
  Se  Se236  1  0.90439765  0.09531362  0.69459714  1
  Se  Se237  1  0.90225998  0.41320912  0.20335275  1
  Se  Se238  1  0.91293657  0.41815316  0.69178699  1
  Se  Se239  1  0.91731660  0.75659416  0.18358821  1
  Se  Se240  1  0.90548042  0.76758394  0.69021713  1
  Se  Se241  1  0.08202405  0.24668749  0.19564675  1
  Se  Se242  1  0.08682436  0.24283312  0.69101619  1
  Se  Se243  1  0.09006734  0.57337057  0.19028788  1
  Se  Se244  1  0.09767869  0.57415939  0.69171205  1
  Se  Se245  1  0.08339849  0.92230326  0.19569012  1
  Se  Se246  1  0.08381843  0.91567587  0.68518119  1
  Se  Se247  1  0.41367687  0.25264317  0.19652297  1
  Se  Se248  1  0.41749774  0.24233886  0.69604383  1
  Se  Se249  1  0.42340055  0.58399319  0.18795863  1
  Se  Se250  1  0.42743719  0.57409412  0.69170745  1
  Se  Se251  1  0.41648692  0.91907725  0.19899027  1
  Se  Se252  1  0.41348383  0.91874249  0.70429240  1
  Se  Se253  1  0.74736292  0.22897640  0.18266420  1
  Se  Se254  1  0.74534253  0.25146376  0.70666132  1
  Se  Se255  1  0.75429853  0.57579758  0.20177904  1
  Se  Se256  1  0.75265777  0.58376243  0.68504507  1
  Se  Se257  1  0.75087189  0.92076099  0.18925249  1
  Se  Se258  1  0.74432910  0.92319377  0.70195758  1
