# generated using pymatgen
data_In86Cu29Se144
_symmetry_space_group_name_H-M   'P 1'
_cell_length_a   17.57268402
_cell_length_b   17.57687262
_cell_length_c   23.42524623
_cell_angle_alpha   89.98934171
_cell_angle_beta   89.98113493
_cell_angle_gamma   89.97745630
_symmetry_Int_Tables_number   1
_chemical_formula_structural   In86Cu29Se144
_chemical_formula_sum   'In86 Cu29 Se144'
_cell_volume   7235.42099035
_cell_formula_units_Z   1
loop_
 _symmetry_equiv_pos_site_id
 _symmetry_equiv_pos_as_xyz
  1  'x, y, z'
loop_
 _atom_site_type_symbol
 _atom_site_label
 _atom_site_symmetry_multiplicity
 _atom_site_fract_x
 _atom_site_fract_y
 _atom_site_fract_z
 _atom_site_occupancy
  In  In0  1  -0.00589857  0.18029706  0.12424196  1
  In  In1  1  -0.00598117  0.15565602  0.61556953  1
  In  In2  1  0.00123819  0.49995077  0.11765734  1
  In  In3  1  -0.00867989  0.50768002  0.62748151  1
  In  In4  1  0.00344796  0.82334028  0.12475008  1
  In  In5  1  -0.00016411  0.83939648  0.61755811  1
  In  In6  1  0.35898980  0.15639106  0.15461910  1
  In  In7  1  0.32791536  0.16104827  0.61116446  1
  In  In8  1  0.33655157  0.50760786  0.13666219  1
  In  In9  1  0.35101925  0.51144427  0.61336253  1
  In  In10  1  0.33567507  0.83118044  0.12362021  1
  In  In11  1  0.34488210  0.83331432  0.61810224  1
  In  In12  1  0.67323940  0.15637537  0.14660880  1
  In  In13  1  0.66309269  0.16091693  0.61697438  1
  In  In14  1  0.66704367  0.48482916  0.13332700  1
  In  In15  1  0.66499781  0.50972278  0.60610484  1
  In  In16  1  0.66699751  0.85445999  0.13276959  1
  In  In17  1  0.66331924  0.83577859  0.61497903  1
  In  In18  1  0.18347173  -0.01734043  0.38151250  1
  In  In19  1  0.16404230  -0.01432874  0.87730145  1
  In  In20  1  0.17204506  0.31922792  0.37948668  1
  In  In21  1  0.18125397  0.34051516  0.88406213  1
  In  In22  1  0.19116066  0.66583070  0.38137728  1
  In  In23  1  0.17484035  0.66280643  0.87941838  1
  In  In24  1  0.49867973  0.00172351  0.37028657  1
  In  In25  1  0.48721702  -0.01167833  0.86127581  1
  In  In26  1  0.50535749  0.32435061  0.36553958  1
  In  In27  1  0.49763888  0.33327237  0.87567712  1
  In  In28  1  0.48890802  0.68845373  0.41103260  1
  In  In29  1  0.51214183  0.67995098  0.86661118  1
  In  In30  1  0.82144134  0.00813758  0.37449325  1
  In  In31  1  0.82864693  0.00571022  0.87478552  1
  In  In32  1  0.82291640  0.33587558  0.37416217  1
  In  In33  1  0.83358444  0.32926590  0.88025862  1
  In  In34  1  0.80868841  0.67770001  0.39943826  1
  In  In35  1  0.81772824  0.66799015  0.87387335  1
  In  In36  1  -0.00952857  0.17545798  0.38017703  1
  In  In37  1  -0.01283332  0.15260383  0.87604573  1
  In  In38  1  -0.00986186  0.49371577  0.37517665  1
  In  In39  1  0.00009115  0.50037772  0.87953259  1
  In  In40  1  0.00188794  0.83459647  0.38292875  1
  In  In41  1  0.00699961  0.84212338  0.87668952  1
  In  In42  1  0.34067441  0.15912346  0.36980534  1
  In  In43  1  0.34514478  0.16509703  0.87397797  1
  In  In44  1  0.36626024  0.51275587  0.35456888  1
  In  In45  1  0.32532763  0.49907805  0.88200383  1
  In  In46  1  0.33709301  0.83252424  0.37783831  1
  In  In47  1  0.33679485  0.83146443  0.87477106  1
  In  In48  1  0.66836576  0.16308713  0.36302399  1
  In  In49  1  0.67687484  0.16010901  0.87468286  1
  In  In50  1  0.66661429  0.49746295  0.38294339  1
  In  In51  1  0.66013995  0.51184746  0.87739230  1
  In  In52  1  0.65566502  0.83529963  0.38502339  1
  In  In53  1  0.65869746  0.82856793  0.86564406  1
  In  In54  1  0.18074301  -0.00413795  0.12565855  1
  In  In55  1  0.17643527  0.00527605  0.61562088  1
  In  In56  1  0.16345568  0.34140866  0.12628546  1
  In  In57  1  0.18397688  0.32956105  0.62065083  1
  In  In58  1  0.18060323  0.67325064  0.11879518  1
  In  In59  1  0.17635310  0.68544025  0.61992208  1
  In  In60  1  0.50843819  -0.00752851  0.13455222  1
  In  In61  1  0.50041427  -0.00162243  0.61785623  1
  In  In62  1  0.51966393  0.32919323  0.15972650  1
  In  In63  1  0.50735456  0.33424542  0.61107536  1
  In  In64  1  0.48211395  0.66348863  0.12929361  1
  In  In65  1  0.50085974  0.67190665  0.61237445  1
  In  In66  1  0.81148902  0.00780387  0.13187810  1
  In  In67  1  0.82473701  -0.00425975  0.61681799  1
  In  In68  1  0.82657632  0.32825605  0.12286872  1
  In  In69  1  0.82266494  0.32456000  0.61621393  1
  In  In70  1  0.84357794  0.67053648  0.12448697  1
  In  In71  1  0.81394321  0.65640390  0.60524218  1
  In  In72  1  0.66195156  0.33188767  0.74279758  1
  In  In73  1  0.50871268  0.16368948  0.01527466  1
  In  In74  1  0.00030000  0.66777638  0.24924222  1
  In  In75  1  -0.00011880  0.33498435  0.25713625  1
  In  In76  1  0.65914489  0.66712718  0.26385588  1
  In  In77  1  0.16503821  0.17587381  0.00434062  1
  In  In78  1  0.00133642  0.33138383  0.75840529  1
  In  In79  1  0.16317849  0.48955399  0.49661945  1
  In  In80  1  -0.00666857  -0.00588708  0.74726895  1
  In  In81  1  0.49655375  0.50228618  0.01252747  1
  In  In82  1  0.83626494  0.83485603  -0.00060040  1
  In  In83  1  -0.00509093  0.67196682  0.74433003  1
  In  In84  1  0.33778087  0.33255418  0.75356180  1
  In  In85  1  -0.00180348  0.00391445  0.25365638  1
  Cu  Cu86  1  0.33557592  0.66840768  0.00029842  1
  Cu  Cu87  1  0.49912172  0.51882621  0.74220540  1
  Cu  Cu88  1  0.00581129  0.66084474  0.00091052  1
  Cu  Cu89  1  0.18044412  0.51070074  0.75069620  1
  Cu  Cu90  1  0.49631633  0.82723773  0.25642846  1
  Cu  Cu91  1  -0.00764278  0.33153879  0.49904281  1
  Cu  Cu92  1  0.18142982  0.83443728  0.74931872  1
  Cu  Cu93  1  0.82054731  0.82941728  0.73942709  1
  Cu  Cu94  1  0.66683154  0.66853079  -0.00010024  1
  Cu  Cu95  1  0.83273384  0.50604325  0.25293599  1
  Cu  Cu96  1  0.34206474  0.00009826  0.49626782  1
  Cu  Cu97  1  0.50110674  0.83337120  0.74059848  1
  Cu  Cu98  1  0.82223347  0.50139674  0.74357845  1
  Cu  Cu99  1  0.16874141  0.15448023  0.25741619  1
  Cu  Cu100  1  0.33497348  0.32850627  0.48860232  1
  Cu  Cu101  1  -0.00455508  0.00165290  0.00215896  1
  Cu  Cu102  1  0.00390269  0.00467894  0.49445238  1
  Cu  Cu103  1  -0.00775551  0.33727734  -0.00009387  1
  Cu  Cu104  1  0.66139320  0.00604339  0.00482511  1
  Cu  Cu105  1  0.17619661  0.50531481  0.25012559  1
  Cu  Cu106  1  0.67362634  0.33385428  0.00606053  1
  Cu  Cu107  1  0.66350019  0.32158242  0.49040604  1
  Cu  Cu108  1  0.16522400  0.16296327  0.73939758  1
  Cu  Cu109  1  -0.00245643  0.66251109  0.50256878  1
  Cu  Cu110  1  0.49700180  0.15886711  0.74040105  1
  Cu  Cu111  1  0.33514777  0.33401023  0.01585828  1
  Cu  Cu112  1  0.33195195  -0.00883180  -0.00095064  1
  Cu  Cu113  1  0.17580910  0.82643421  0.25232090  1
  Cu  Cu114  1  0.66235523  0.00466762  0.49369637  1
  Se  Se115  1  0.07677779  0.07888779  0.06394165  1
  Se  Se116  1  0.08878185  0.08634865  0.54924143  1
  Se  Se117  1  0.08352147  0.41447804  0.05064761  1
  Se  Se118  1  0.07249425  0.40638905  0.56460643  1
  Se  Se119  1  0.08575560  0.74802629  0.05331298  1
  Se  Se120  1  0.07989670  0.74952469  0.55266530  1
  Se  Se121  1  0.40624760  0.07475313  0.06368602  1
  Se  Se122  1  0.42339204  0.08757827  0.54780541  1
  Se  Se123  1  0.42342348  0.40439134  0.07650622  1
  Se  Se124  1  0.41246375  0.41005506  0.54797199  1
  Se  Se125  1  0.42035097  0.75022948  0.05261687  1
  Se  Se126  1  0.42008302  0.75478186  0.54246014  1
  Se  Se127  1  0.73977137  0.09285048  0.05883786  1
  Se  Se128  1  0.75021062  0.08465853  0.54713831  1
  Se  Se129  1  0.75373026  0.42385137  0.05605504  1
  Se  Se130  1  0.74117246  0.40662416  0.54913488  1
  Se  Se131  1  0.74295826  0.75151891  0.06306744  1
  Se  Se132  1  0.74982173  0.75855625  0.54379557  1
  Se  Se133  1  0.25991763  0.24478364  0.07317811  1
  Se  Se134  1  0.24798022  0.24864447  0.54263837  1
  Se  Se135  1  0.26037407  0.57924677  0.05661742  1
  Se  Se136  1  0.24882460  0.58762251  0.55238532  1
  Se  Se137  1  0.24753737  0.90910443  0.05224744  1
  Se  Se138  1  0.25773890  0.91792385  0.55113983  1
  Se  Se139  1  0.59070670  0.26307549  0.07124825  1
  Se  Se140  1  0.58006720  0.24041877  0.54627868  1
  Se  Se141  1  0.59346038  0.59192898  0.06744559  1
  Se  Se142  1  0.55372939  0.56210453  0.54802499  1
  Se  Se143  1  0.58139472  0.91757632  0.05546583  1
  Se  Se144  1  0.58048795  0.91815177  0.54547253  1
  Se  Se145  1  0.91097084  0.25056806  0.05082399  1
  Se  Se146  1  0.91094581  0.24338727  0.55123002  1
  Se  Se147  1  0.91514088  0.58445494  0.05289249  1
  Se  Se148  1  0.91354917  0.57383559  0.54898731  1
  Se  Se149  1  0.91654577  0.92523696  0.06742369  1
  Se  Se150  1  0.91954082  0.92342327  0.55033086  1
  Se  Se151  1  0.08053356  0.25034558  0.44864291  1
  Se  Se152  1  0.07223215  0.25730193  0.93633532  1
  Se  Se153  1  0.07680663  0.58785489  0.43717319  1
  Se  Se154  1  0.08910424  0.57914919  0.94532726  1
  Se  Se155  1  0.08829782  0.91442134  0.44988418  1
  Se  Se156  1  0.08139090  0.91674880  0.95363329  1
  Se  Se157  1  0.42114234  0.24527900  0.43816189  1
  Se  Se158  1  0.41304507  0.25582404  0.95178496  1
  Se  Se159  1  0.39961404  0.58155399  0.44756622  1
  Se  Se160  1  0.41997202  0.58968205  0.94009409  1
  Se  Se161  1  0.42489952  0.91616867  0.44368717  1
  Se  Se162  1  0.42047255  0.91644288  0.94401966  1
  Se  Se163  1  0.75066475  0.24031636  0.43891704  1
  Se  Se164  1  0.74662011  0.24840832  0.94665451  1
  Se  Se165  1  0.75344482  0.56787772  0.45647811  1
  Se  Se166  1  0.74944796  0.58308815  0.94876452  1
  Se  Se167  1  0.74957503  0.91915803  0.44548641  1
  Se  Se168  1  0.73903238  0.92079723  0.94349084  1
  Se  Se169  1  0.25577028  0.08219627  0.44321660  1
  Se  Se170  1  0.25458347  0.08155785  0.94260320  1
  Se  Se171  1  0.26049145  0.41876960  0.43122740  1
  Se  Se172  1  0.25530120  0.41789755  0.95948024  1
  Se  Se173  1  0.24444513  0.76491828  0.44974265  1
  Se  Se174  1  0.25242084  0.75179178  0.94578615  1
  Se  Se175  1  0.58328735  0.08747471  0.43668670  1
  Se  Se176  1  0.57911465  0.07884135  0.93860681  1
  Se  Se177  1  0.57789737  0.40700444  0.44177043  1
  Se  Se178  1  0.58736305  0.41044129  0.94744405  1
  Se  Se179  1  0.61780714  0.72715609  0.45614721  1
  Se  Se180  1  0.58765673  0.75231496  0.94518310  1
  Se  Se181  1  0.91350865  0.08226082  0.44331614  1
  Se  Se182  1  0.90769426  0.08006148  0.95088974  1
  Se  Se183  1  0.90979384  0.41385798  0.44500944  1
  Se  Se184  1  0.91067402  0.42100410  0.94467343  1
  Se  Se185  1  0.91765704  0.75124715  0.45043301  1
  Se  Se186  1  0.92524659  0.74057492  0.93858130  1
  Se  Se187  1  0.24958292  0.24453762  0.30527692  1
  Se  Se188  1  0.23948301  0.24086203  0.80850250  1
  Se  Se189  1  0.25889613  0.58931949  0.30181129  1
  Se  Se190  1  0.26183580  0.58911806  0.80754985  1
  Se  Se191  1  0.25876487  0.91278915  0.30223413  1
  Se  Se192  1  0.25536045  0.92121481  0.80643960  1
  Se  Se193  1  0.60388863  0.26334054  0.29603819  1
  Se  Se194  1  0.57120356  0.24118035  0.80583775  1
  Se  Se195  1  0.57066479  0.58966182  0.32940697  1
  Se  Se196  1  0.58965290  0.58867341  0.79979158  1
  Se  Se197  1  0.58295935  0.91020382  0.30640814  1
  Se  Se198  1  0.58353288  0.91693671  0.79659114  1
  Se  Se199  1  0.90266587  0.24129589  0.30316042  1
  Se  Se200  1  0.90390155  0.23670186  0.80512191  1
  Se  Se201  1  0.90692212  0.58808716  0.31405932  1
  Se  Se202  1  0.90868564  0.57605749  0.80492528  1
  Se  Se203  1  0.91321168  0.91124731  0.31276454  1
  Se  Se204  1  0.90286304  0.89988444  0.80614479  1
  Se  Se205  1  0.08791900  0.08323829  0.32124125  1
  Se  Se206  1  0.08865384  0.08624393  0.80616870  1
  Se  Se207  1  0.09659075  0.42616777  0.31139793  1
  Se  Se208  1  0.10027513  0.42679931  0.80883832  1
  Se  Se209  1  0.09243718  0.75137374  0.31246632  1
  Se  Se210  1  0.09038376  0.75742445  0.80502049  1
  Se  Se211  1  0.41421863  0.07493832  0.29688966  1
  Se  Se212  1  0.40927220  0.08287358  0.79699334  1
  Se  Se213  1  0.39879147  0.38958454  0.30152473  1
  Se  Se214  1  0.42835822  0.43355783  0.80746550  1
  Se  Se215  1  0.42612398  0.74275621  0.31767445  1
  Se  Se216  1  0.41982128  0.75465514  0.80123638  1
  Se  Se217  1  0.74287933  0.07016681  0.29442996  1
  Se  Se218  1  0.74435728  0.07417738  0.80211976  1
  Se  Se219  1  0.74771290  0.42461953  0.30530728  1
  Se  Se220  1  0.74935157  0.42047713  0.80919512  1
  Se  Se221  1  0.75588169  0.75869068  0.31382135  1
  Se  Se222  1  0.74480305  0.74545026  0.79837231  1
  Se  Se223  1  0.25203762  0.07423705  0.20160752  1
  Se  Se224  1  0.25498587  0.08452597  0.68988650  1
  Se  Se225  1  0.24967555  0.41497302  0.19614608  1
  Se  Se226  1  0.25493858  0.42745673  0.68938287  1
  Se  Se227  1  0.25724347  0.74496116  0.19566704  1
  Se  Se228  1  0.26158238  0.75318548  0.69298277  1
  Se  Se229  1  0.55643751  0.10211944  0.19775199  1
  Se  Se230  1  0.58428354  0.08009673  0.68916747  1
  Se  Se231  1  0.57354359  0.44692886  0.21172041  1
  Se  Se232  1  0.57419598  0.42710889  0.68678047  1
  Se  Se233  1  0.57871169  0.75457131  0.19092710  1
  Se  Se234  1  0.58305864  0.75117747  0.68508724  1
  Se  Se235  1  0.91073502  0.09437199  0.19161709  1
  Se  Se236  1  0.90653814  0.08656360  0.69058659  1
  Se  Se237  1  0.91452346  0.42627244  0.19310120  1
  Se  Se238  1  0.90761902  0.41585627  0.69257632  1
  Se  Se239  1  0.90571711  0.76593164  0.19861888  1
  Se  Se240  1  0.90362035  0.75222108  0.67945008  1
  Se  Se241  1  0.09183181  0.24044671  0.19831660  1
  Se  Se242  1  0.08609065  0.24857948  0.68597088  1
  Se  Se243  1  0.09068313  0.57839272  0.18912831  1
  Se  Se244  1  0.09418433  0.58196278  0.68942076  1
  Se  Se245  1  0.09044980  0.90773156  0.19524314  1
  Se  Se246  1  0.09437896  0.91183436  0.69026643  1
  Se  Se247  1  0.40655661  0.26816439  0.21461129  1
  Se  Se248  1  0.42052036  0.24866923  0.68472319  1
  Se  Se249  1  0.42924136  0.57503736  0.20624099  1
  Se  Se250  1  0.41409198  0.59769383  0.68912465  1
  Se  Se251  1  0.41788826  0.90895873  0.19606163  1
  Se  Se252  1  0.41771837  0.92001746  0.69059090  1
  Se  Se253  1  0.73970283  0.26822307  0.19885583  1
  Se  Se254  1  0.75464861  0.23745727  0.69223511  1
  Se  Se255  1  0.75432089  0.58824030  0.19309341  1
  Se  Se256  1  0.74376650  0.58078736  0.68483507  1
  Se  Se257  1  0.74327030  0.92835786  0.20816652  1
  Se  Se258  1  0.74239311  0.91837528  0.68864938  1
