# generated using pymatgen
data_In86Cu29Se144
_symmetry_space_group_name_H-M   'P 1'
_cell_length_a   17.56131816
_cell_length_b   17.56154394
_cell_length_c   23.41656529
_cell_angle_alpha   90.00249012
_cell_angle_beta   89.97622186
_cell_angle_gamma   90.01466593
_symmetry_Int_Tables_number   1
_chemical_formula_structural   In86Cu29Se144
_chemical_formula_sum   'In86 Cu29 Se144'
_cell_volume   7221.75827025
_cell_formula_units_Z   1
loop_
 _symmetry_equiv_pos_site_id
 _symmetry_equiv_pos_as_xyz
  1  'x, y, z'
loop_
 _atom_site_type_symbol
 _atom_site_label
 _atom_site_symmetry_multiplicity
 _atom_site_fract_x
 _atom_site_fract_y
 _atom_site_fract_z
 _atom_site_occupancy
  In  In0  1  0.00790657  0.17629855  0.09722390  1
  In  In1  1  0.00551032  0.16405284  0.64108975  1
  In  In2  1  0.01219678  0.50562227  0.12004920  1
  In  In3  1  0.00453920  0.49875581  0.62482610  1
  In  In4  1  -0.00142130  0.82500892  0.12408914  1
  In  In5  1  0.01434795  0.81827066  0.63802502  1
  In  In6  1  0.33690946  0.16922304  0.11644235  1
  In  In7  1  0.33311124  0.18899223  0.63645039  1
  In  In8  1  0.32196544  0.51023560  0.13443715  1
  In  In9  1  0.33310500  0.50510001  0.62525740  1
  In  In10  1  0.32301181  0.82250946  0.11534985  1
  In  In11  1  0.32488781  0.82459660  0.61886439  1
  In  In12  1  0.66386555  0.16577751  0.12372079  1
  In  In13  1  0.66665826  0.16221867  0.62685693  1
  In  In14  1  0.66640628  0.50351457  0.13977627  1
  In  In15  1  0.67305914  0.50571538  0.61110581  1
  In  In16  1  0.66468157  0.84775280  0.13926980  1
  In  In17  1  0.65664692  0.83460035  0.61846129  1
  In  In18  1  0.15898322  -0.00450799  0.37419752  1
  In  In19  1  0.14559563  0.03308809  0.91521139  1
  In  In20  1  0.18530352  0.34084500  0.36661315  1
  In  In21  1  0.16662807  0.33382149  0.87911860  1
  In  In22  1  0.16860300  0.66404693  0.37418703  1
  In  In23  1  0.16612676  0.66216568  0.87402780  1
  In  In24  1  0.49299998  -0.01513160  0.37101705  1
  In  In25  1  0.48066205  0.00710514  0.89589047  1
  In  In26  1  0.50753192  0.33947485  0.36731055  1
  In  In27  1  0.48675379  0.33020377  0.87131146  1
  In  In28  1  0.49608132  0.66490485  0.37342495  1
  In  In29  1  0.48925075  0.68423795  0.87709038  1
  In  In30  1  0.82773657  0.00615364  0.36999946  1
  In  In31  1  0.85559762  0.00290091  0.88420056  1
  In  In32  1  0.83771204  0.34722277  0.37362408  1
  In  In33  1  0.83450888  0.32069573  0.87662465  1
  In  In34  1  0.82417128  0.66205304  0.36503743  1
  In  In35  1  0.84934927  0.65848260  0.87147025  1
  In  In36  1  -0.00259026  0.15861893  0.37212690  1
  In  In37  1  0.00210275  0.17063159  0.88107545  1
  In  In38  1  -0.00903899  0.50797635  0.38466083  1
  In  In39  1  0.00688403  0.51186719  0.86263319  1
  In  In40  1  0.01926452  0.82831628  0.37806405  1
  In  In41  1  0.01780770  0.84438507  0.87067395  1
  In  In42  1  0.33072796  0.18847864  0.36496781  1
  In  In43  1  0.32733262  0.17058327  0.88645013  1
  In  In44  1  0.33269151  0.50246297  0.37589732  1
  In  In45  1  0.31711575  0.48525871  0.86277683  1
  In  In46  1  0.33998782  0.82358699  0.37830544  1
  In  In47  1  0.32788484  0.83092902  0.88215518  1
  In  In48  1  0.66288190  0.16101443  0.35963239  1
  In  In49  1  0.66709958  0.16264508  0.88680835  1
  In  In50  1  0.66424608  0.50005377  0.37375426  1
  In  In51  1  0.67728502  0.49740970  0.87209361  1
  In  In52  1  0.64953677  0.81414580  0.35499490  1
  In  In53  1  0.64735734  0.83532870  0.87994348  1
  In  In54  1  0.17565782  0.00292358  0.10243426  1
  In  In55  1  0.17109790  -0.01414764  0.62992292  1
  In  In56  1  0.16586703  0.34257408  0.11727586  1
  In  In57  1  0.15736962  0.34294863  0.63585118  1
  In  In58  1  0.16636704  0.66662569  0.12607226  1
  In  In59  1  0.16952601  0.66655700  0.62535423  1
  In  In60  1  0.50050693  0.00816474  0.11217536  1
  In  In61  1  0.50223006  -0.00204716  0.62202565  1
  In  In62  1  0.50489081  0.32798969  0.13241959  1
  In  In63  1  0.48571090  0.34046301  0.63086199  1
  In  In64  1  0.49558758  0.67101375  0.13350545  1
  In  In65  1  0.49481931  0.65743247  0.61536566  1
  In  In66  1  0.82716327  -0.00055158  0.12346555  1
  In  In67  1  0.83730338  0.00627971  0.62904432  1
  In  In68  1  0.83118736  0.32327000  0.12159228  1
  In  In69  1  0.83987241  0.34486391  0.62496504  1
  In  In70  1  0.83639651  0.67946328  0.14591865  1
  In  In71  1  0.84850031  0.66108058  0.62754991  1
  In  In72  1  0.33367747  0.00032039  0.23492591  1
  In  In73  1  0.00019760  -0.00132495  0.23871398  1
  In  In74  1  -0.00187685  0.33739622  0.23628586  1
  In  In75  1  0.66482375  0.00042528  0.74468260  1
  In  In76  1  0.49816739  0.16890365  0.50911308  1
  In  In77  1  0.66836296  0.66799552  0.74542955  1
  In  In78  1  0.83504946  0.83813421  0.00737951  1
  In  In79  1  0.83024854  0.17128739  0.50355030  1
  In  In80  1  0.49296589  0.49954765  -0.00070940  1
  In  In81  1  0.67122381  0.33357319  0.75366873  1
  In  In82  1  0.16623010  0.16705035  0.49259751  1
  In  In83  1  0.32303539  0.00163533  0.76583898  1
  In  In84  1  0.84308068  0.49555925  0.00020750  1
  In  In85  1  0.83192085  0.83013537  0.49773450  1
  Cu  Cu86  1  0.66751707  0.66878426  0.00554790  1
  Cu  Cu87  1  0.50053313  0.50822112  0.74722880  1
  Cu  Cu88  1  0.49715413  0.16350641  0.23975926  1
  Cu  Cu89  1  0.00630023  0.66733685  -0.00023328  1
  Cu  Cu90  1  0.32421994  0.65687356  0.00165560  1
  Cu  Cu91  1  0.48460780  0.83698900  0.75262715  1
  Cu  Cu92  1  0.16351343  0.83109070  0.75462713  1
  Cu  Cu93  1  0.65511966  -0.01143763  0.49229916  1
  Cu  Cu94  1  0.16663149  0.16513668  0.76628618  1
  Cu  Cu95  1  0.49489091  0.49793744  0.25545338  1
  Cu  Cu96  1  0.33198149  0.66740024  0.49773678  1
  Cu  Cu97  1  0.16373433  0.50133099  0.24992125  1
  Cu  Cu98  1  0.00504794  -0.01019544  0.50591895  1
  Cu  Cu99  1  0.17118716  0.50237664  0.74712841  1
  Cu  Cu100  1  0.50091628  0.83162881  0.24942989  1
  Cu  Cu101  1  0.33187293  0.33699315  -0.00032173  1
  Cu  Cu102  1  0.65924236  0.32968398  0.00456842  1
  Cu  Cu103  1  0.84219643  0.16087254  0.75675242  1
  Cu  Cu104  1  0.83678268  0.83021736  0.75772927  1
  Cu  Cu105  1  0.00949811  0.33943323  0.50264567  1
  Cu  Cu106  1  0.82948262  0.16639518  0.24177801  1
  Cu  Cu107  1  0.66556819  0.66516600  0.48840632  1
  Cu  Cu108  1  0.82947947  0.50342730  0.25642717  1
  Cu  Cu109  1  0.66654000  0.33966980  0.49351900  1
  Cu  Cu110  1  0.66629653  0.00077698  0.00644524  1
  Cu  Cu111  1  0.33161722  0.34437264  0.50187058  1
  Cu  Cu112  1  0.00627218  0.66387878  0.50433902  1
  Cu  Cu113  1  0.33001768  -0.00295538  0.49899018  1
  Cu  Cu114  1  0.17248382  0.82880260  0.24659466  1
  Se  Se115  1  0.08804554  0.08274330  0.03574713  1
  Se  Se116  1  0.08140087  0.08011674  0.56145970  1
  Se  Se117  1  0.06684877  0.40781691  0.05102553  1
  Se  Se118  1  0.09396058  0.42104057  0.55459941  1
  Se  Se119  1  0.08690809  0.75111404  0.05469305  1
  Se  Se120  1  0.08636690  0.75221199  0.55570048  1
  Se  Se121  1  0.39832890  0.06981253  0.04736987  1
  Se  Se122  1  0.39787865  0.08175502  0.56445091  1
  Se  Se123  1  0.40893294  0.41390075  0.06559406  1
  Se  Se124  1  0.41934309  0.42306701  0.55495720  1
  Se  Se125  1  0.41386271  0.73485281  0.05456570  1
  Se  Se126  1  0.41704547  0.75089008  0.55154225  1
  Se  Se127  1  0.75139098  0.08674904  0.05472261  1
  Se  Se128  1  0.73709400  0.06706237  0.55350672  1
  Se  Se129  1  0.73728191  0.41851616  0.05914292  1
  Se  Se130  1  0.75593952  0.41349365  0.54982744  1
  Se  Se131  1  0.74660946  0.74610201  0.06688165  1
  Se  Se132  1  0.74265894  0.73712600  0.55901469  1
  Se  Se133  1  0.24807161  0.25246453  0.05221042  1
  Se  Se134  1  0.25032149  0.25849224  0.55745378  1
  Se  Se135  1  0.24084077  0.57507646  0.05557088  1
  Se  Se136  1  0.25042189  0.58469883  0.55419655  1
  Se  Se137  1  0.25297617  0.90776801  0.04336592  1
  Se  Se138  1  0.24552414  0.91435492  0.55162321  1
  Se  Se139  1  0.57478076  0.24652920  0.05593306  1
  Se  Se140  1  0.59373588  0.26293679  0.56243465  1
  Se  Se141  1  0.58785854  0.58333800  0.06106477  1
  Se  Se142  1  0.58339517  0.58284415  0.54578531  1
  Se  Se143  1  0.58761431  0.91085822  0.05736556  1
  Se  Se144  1  0.57109509  0.91072487  0.54849890  1
  Se  Se145  1  0.91769439  0.26775870  0.04469576  1
  Se  Se146  1  0.93391227  0.24928143  0.55976511  1
  Se  Se147  1  0.91585919  0.59961601  0.06182660  1
  Se  Se148  1  0.91923491  0.57960807  0.55313969  1
  Se  Se149  1  0.93115597  0.93000493  0.05807215  1
  Se  Se150  1  0.92138750  0.91349062  0.56512116  1
  Se  Se151  1  0.07636115  0.25937219  0.43371225  1
  Se  Se152  1  0.10582468  0.23310734  0.94592475  1
  Se  Se153  1  0.08800815  0.58206471  0.44699932  1
  Se  Se154  1  0.08163331  0.57967602  0.94419960  1
  Se  Se155  1  0.09191073  0.91340628  0.45135483  1
  Se  Se156  1  0.08378684  0.90936377  0.95441486  1
  Se  Se157  1  0.41243916  0.25880991  0.44459903  1
  Se  Se158  1  0.41934101  0.25325985  0.95052154  1
  Se  Se159  1  0.41677890  0.58323858  0.44558626  1
  Se  Se160  1  0.40442283  0.58391356  0.93525322  1
  Se  Se161  1  0.41574020  0.91400100  0.44781141  1
  Se  Se162  1  0.44246838  0.88186351  0.94242500  1
  Se  Se163  1  0.74054367  0.25115300  0.43559064  1
  Se  Se164  1  0.74814831  0.25259294  0.95068583  1
  Se  Se165  1  0.75355479  0.58121011  0.44125183  1
  Se  Se166  1  0.74795313  0.59240137  0.94418995  1
  Se  Se167  1  0.74175628  0.91502074  0.43392726  1
  Se  Se168  1  0.74331441  0.92297390  0.94053031  1
  Se  Se169  1  0.26255494  0.08006649  0.43323480  1
  Se  Se170  1  0.28480117  0.05618704  0.94948788  1
  Se  Se171  1  0.24572401  0.42186647  0.44636342  1
  Se  Se172  1  0.24875954  0.42172558  0.94764543  1
  Se  Se173  1  0.24710408  0.75058205  0.44500416  1
  Se  Se174  1  0.24399966  0.74359989  0.94741916  1
  Se  Se175  1  0.58131069  0.08188401  0.43843778  1
  Se  Se176  1  0.57984161  0.08400579  0.95463260  1
  Se  Se177  1  0.57799967  0.41963501  0.44381632  1
  Se  Se178  1  0.58920552  0.41200982  0.93907575  1
  Se  Se179  1  0.58138697  0.75222273  0.44068581  1
  Se  Se180  1  0.58010489  0.74591021  0.95227321  1
  Se  Se181  1  0.92214086  0.07160505  0.44847820  1
  Se  Se182  1  0.90759652  0.10274518  0.95213686  1
  Se  Se183  1  0.91567272  0.41489825  0.45177142  1
  Se  Se184  1  0.92742692  0.41435944  0.93277979  1
  Se  Se185  1  0.92434447  0.74054538  0.44025561  1
  Se  Se186  1  0.92236889  0.74912352  0.94207914  1
  Se  Se187  1  0.23479023  0.24330496  0.29457004  1
  Se  Se188  1  0.25515010  0.25115523  0.81085654  1
  Se  Se189  1  0.25057880  0.58226613  0.30384784  1
  Se  Se190  1  0.25276250  0.58861098  0.80022854  1
  Se  Se191  1  0.25018938  0.91367990  0.30584402  1
  Se  Se192  1  0.23051725  0.91370938  0.82137393  1
  Se  Se193  1  0.57786855  0.24726111  0.29759495  1
  Se  Se194  1  0.58318278  0.24138593  0.81156462  1
  Se  Se195  1  0.58161038  0.58318975  0.30492802  1
  Se  Se196  1  0.57838938  0.58246852  0.81297755  1
  Se  Se197  1  0.58277278  0.92293962  0.29721381  1
  Se  Se198  1  0.56937074  0.91941303  0.80698641  1
  Se  Se199  1  0.91014643  0.24470543  0.30470510  1
  Se  Se200  1  0.92297458  0.24947284  0.80558567  1
  Se  Se201  1  0.92154478  0.58256051  0.30469495  1
  Se  Se202  1  0.91441110  0.58228590  0.79363569  1
  Se  Se203  1  0.92553711  0.91793527  0.31555023  1
  Se  Se204  1  0.91855601  0.91748042  0.80746252  1
  Se  Se205  1  0.09145862  0.08980034  0.30184641  1
  Se  Se206  1  0.08701381  0.07705314  0.81820273  1
  Se  Se207  1  0.07886410  0.42179225  0.30882947  1
  Se  Se208  1  0.09237312  0.41831015  0.80463921  1
  Se  Se209  1  0.08837036  0.74780130  0.30160224  1
  Se  Se210  1  0.07930203  0.74289646  0.80436069  1
  Se  Se211  1  0.41804785  0.08806192  0.30639165  1
  Se  Se212  1  0.42360808  0.09143209  0.81350382  1
  Se  Se213  1  0.40905544  0.41294258  0.30558271  1
  Se  Se214  1  0.42032708  0.41954746  0.79917417  1
  Se  Se215  1  0.41542538  0.74904604  0.30182144  1
  Se  Se216  1  0.40267175  0.75130836  0.80312023  1
  Se  Se217  1  0.74924223  0.07849634  0.29372953  1
  Se  Se218  1  0.75427766  0.08233560  0.81213020  1
  Se  Se219  1  0.74640492  0.41402697  0.30366197  1
  Se  Se220  1  0.76991407  0.42422529  0.80422685  1
  Se  Se221  1  0.76628880  0.76617632  0.30121817  1
  Se  Se222  1  0.74915553  0.75728090  0.81588991  1
  Se  Se223  1  0.23714660  0.08946823  0.18336788  1
  Se  Se224  1  0.24205764  0.09250509  0.69463743  1
  Se  Se225  1  0.24313476  0.41415260  0.19624104  1
  Se  Se226  1  0.25712492  0.41719494  0.69614967  1
  Se  Se227  1  0.25645747  0.74401256  0.19525440  1
  Se  Se228  1  0.24779212  0.75385301  0.69667653  1
  Se  Se229  1  0.58054949  0.07744673  0.19012870  1
  Se  Se230  1  0.56720325  0.09550063  0.69446239  1
  Se  Se231  1  0.58056863  0.41616246  0.20150097  1
  Se  Se232  1  0.58682155  0.42914853  0.69020848  1
  Se  Se233  1  0.58836147  0.74739570  0.19916973  1
  Se  Se234  1  0.56983594  0.75921854  0.69256119  1
  Se  Se235  1  0.91945593  0.09971667  0.18038168  1
  Se  Se236  1  0.92183958  0.07354893  0.70344724  1
  Se  Se237  1  0.90283553  0.43137376  0.18451610  1
  Se  Se238  1  0.93563014  0.40301257  0.69319653  1
  Se  Se239  1  0.93117436  0.75617441  0.20613962  1
  Se  Se240  1  0.91644560  0.74648455  0.70184169  1
  Se  Se241  1  0.08513960  0.24113086  0.18260137  1
  Se  Se242  1  0.08943206  0.24840426  0.70534880  1
  Se  Se243  1  0.08107758  0.58578327  0.19699430  1
  Se  Se244  1  0.08540982  0.58445436  0.69381743  1
  Se  Se245  1  0.10073544  0.91388194  0.18366114  1
  Se  Se246  1  0.08182375  0.91980599  0.70227645  1
  Se  Se247  1  0.40899662  0.24829175  0.19386858  1
  Se  Se248  1  0.42626185  0.25190714  0.70519901  1
  Se  Se249  1  0.41524997  0.58380053  0.20026988  1
  Se  Se250  1  0.41623751  0.59082974  0.69464361  1
  Se  Se251  1  0.42419132  0.90555213  0.18172758  1
  Se  Se252  1  0.40933916  0.92055330  0.69122826  1
  Se  Se253  1  0.74378738  0.25304031  0.19376189  1
  Se  Se254  1  0.76250694  0.23841345  0.69245423  1
  Se  Se255  1  0.74698556  0.59121286  0.20541905  1
  Se  Se256  1  0.75742160  0.57205607  0.69172555  1
  Se  Se257  1  0.77247287  0.90899857  0.19876135  1
  Se  Se258  1  0.75680865  0.90158048  0.69031238  1
