# generated using pymatgen
data_In86Cu29Se144
_symmetry_space_group_name_H-M   'P 1'
_cell_length_a   17.59073250
_cell_length_b   17.59054296
_cell_length_c   23.44934392
_cell_angle_alpha   89.98299155
_cell_angle_beta   89.98319406
_cell_angle_gamma   89.99117663
_symmetry_Int_Tables_number   1
_chemical_formula_structural   In86Cu29Se144
_chemical_formula_sum   'In86 Cu29 Se144'
_cell_volume   7255.94233160
_cell_formula_units_Z   1
loop_
 _symmetry_equiv_pos_site_id
 _symmetry_equiv_pos_as_xyz
  1  'x, y, z'
loop_
 _atom_site_type_symbol
 _atom_site_label
 _atom_site_symmetry_multiplicity
 _atom_site_fract_x
 _atom_site_fract_y
 _atom_site_fract_z
 _atom_site_occupancy
  In  In0  1  0.00702145  0.16263519  0.13899637  1
  In  In1  1  -0.00274667  0.19068723  0.61268069  1
  In  In2  1  -0.01265170  0.50262234  0.12921495  1
  In  In3  1  0.04070518  0.52152937  0.59861261  1
  In  In4  1  0.00796775  0.83874808  0.12070959  1
  In  In5  1  -0.00925705  0.81826010  0.61113449  1
  In  In6  1  0.34915766  0.15787125  0.14317108  1
  In  In7  1  0.34817422  0.16922108  0.62079078  1
  In  In8  1  0.35358468  0.48451011  0.14460064  1
  In  In9  1  0.32290024  0.51021763  0.63654587  1
  In  In10  1  0.33539498  0.83042588  0.12764661  1
  In  In11  1  0.31965647  0.81962847  0.61189848  1
  In  In12  1  0.65752496  0.17463863  0.12441896  1
  In  In13  1  0.65614473  0.15665443  0.61581074  1
  In  In14  1  0.67672907  0.51035573  0.12087357  1
  In  In15  1  0.66139045  0.50612434  0.62200786  1
  In  In16  1  0.65528052  0.82403753  0.11906010  1
  In  In17  1  0.67730619  0.83904576  0.61762483  1
  In  In18  1  0.16151967  -0.00772066  0.37063096  1
  In  In19  1  0.15667599  -0.00629830  0.87543267  1
  In  In20  1  0.17666103  0.34209578  0.37704213  1
  In  In21  1  0.17301570  0.32810667  0.87269834  1
  In  In22  1  0.16605010  0.65263431  0.39100919  1
  In  In23  1  0.18037712  0.67459671  0.86578929  1
  In  In24  1  0.48815297  0.00503629  0.37479335  1
  In  In25  1  0.50616190  -0.01179240  0.88148346  1
  In  In26  1  0.48134834  0.33002113  0.37011713  1
  In  In27  1  0.49414401  0.34316258  0.88620632  1
  In  In28  1  0.50627392  0.66937387  0.35851330  1
  In  In29  1  0.49413098  0.67223040  0.88015199  1
  In  In30  1  0.83656634  -0.01284918  0.37729911  1
  In  In31  1  0.81693867  0.00389923  0.87148354  1
  In  In32  1  0.83348776  0.31803817  0.37790262  1
  In  In33  1  0.84412170  0.34002001  0.87898658  1
  In  In34  1  0.83376205  0.67921435  0.38215603  1
  In  In35  1  0.83956859  0.66256069  0.87895731  1
  In  In36  1  -0.00463583  0.15815029  0.37063883  1
  In  In37  1  -0.00134339  0.17235526  0.87438655  1
  In  In38  1  0.01823446  0.50380458  0.38168758  1
  In  In39  1  -0.01061752  0.50126237  0.87872710  1
  In  In40  1  -0.00820266  0.83341572  0.38438121  1
  In  In41  1  0.01006057  0.82282921  0.88330438  1
  In  In42  1  0.34941340  0.17477635  0.36560973  1
  In  In43  1  0.33568286  0.18000247  0.87606614  1
  In  In44  1  0.32268719  0.49237047  0.36871199  1
  In  In45  1  0.33719571  0.51114898  0.86991016  1
  In  In46  1  0.33362297  0.83271615  0.37317936  1
  In  In47  1  0.34089876  0.82425087  0.88440451  1
  In  In48  1  0.65678521  0.16783994  0.38124094  1
  In  In49  1  0.66492246  0.15123085  0.87233784  1
  In  In50  1  0.65165769  0.51240226  0.36753260  1
  In  In51  1  0.66755274  0.49899231  0.88440657  1
  In  In52  1  0.66831184  0.81940197  0.37931274  1
  In  In53  1  0.65901075  0.84111481  0.87777978  1
  In  In54  1  0.17742777  -0.00771984  0.13434282  1
  In  In55  1  0.17395864  -0.01261107  0.61937875  1
  In  In56  1  0.17413186  0.32662098  0.13609019  1
  In  In57  1  0.17917543  0.36097119  0.60834452  1
  In  In58  1  0.17529033  0.67951623  0.12306241  1
  In  In59  1  0.16807732  0.66849940  0.62763386  1
  In  In60  1  0.49488551  -0.00339522  0.12270414  1
  In  In61  1  0.50570210  0.00242089  0.61983128  1
  In  In62  1  0.49397506  0.32574099  0.11877549  1
  In  In63  1  0.49623940  0.32445363  0.62081176  1
  In  In64  1  0.49770221  0.66654874  0.12842409  1
  In  In65  1  0.48543287  0.66033185  0.62109323  1
  In  In66  1  0.84584874  -0.00202113  0.12732677  1
  In  In67  1  0.82548817  -0.00934467  0.61878598  1
  In  In68  1  0.83071037  0.34560528  0.13088821  1
  In  In69  1  0.85992671  0.33263433  0.61540003  1
  In  In70  1  0.82384074  0.66540587  0.12106773  1
  In  In71  1  0.83127664  0.68624585  0.62502588  1
  In  In72  1  0.16783263  0.16178282  0.49516881  1
  In  In73  1  0.17011117  0.16156656  -0.00189222  1
  In  In74  1  0.66262525  0.33730331  0.25401802  1
  In  In75  1  0.00518608  0.66642731  0.25464535  1
  In  In76  1  0.33854600  -0.00254793  0.74852843  1
  In  In77  1  0.49519247  0.50077584  0.49503258  1
  In  In78  1  0.16908234  0.50694272  0.00235302  1
  In  In79  1  0.66292326  -0.00422448  0.24379140  1
  In  In80  1  0.83246795  0.49860321  0.49380585  1
  In  In81  1  0.00476416  0.34139518  0.74779136  1
  In  In82  1  0.66228028  0.67537614  0.74944633  1
  In  In83  1  -0.00429329  0.00110977  0.74719345  1
  In  In84  1  0.83219664  0.16773583  -0.00242015  1
  In  In85  1  0.66730393  0.33010932  0.74552339  1
  Cu  Cu86  1  0.49063902  0.50031736  0.75466332  1
  Cu  Cu87  1  0.00188827  -0.01034984  0.00291738  1
  Cu  Cu88  1  0.50230523  0.16702448  0.74554786  1
  Cu  Cu89  1  0.83515591  0.83866400  0.74533988  1
  Cu  Cu90  1  0.66413955  -0.00195903  -0.00027207  1
  Cu  Cu91  1  -0.00433200  0.66813294  0.00328603  1
  Cu  Cu92  1  0.83704437  0.50071840  0.24960080  1
  Cu  Cu93  1  0.49377714  0.83241820  0.75204950  1
  Cu  Cu94  1  0.16953266  0.50131275  0.25486166  1
  Cu  Cu95  1  0.49613731  0.83452206  0.24711237  1
  Cu  Cu96  1  0.33384872  -0.00426114  0.00915826  1
  Cu  Cu97  1  0.17464239  0.17510015  0.74496304  1
  Cu  Cu98  1  -0.00602195  0.34132284  0.00852797  1
  Cu  Cu99  1  0.83685411  0.82926471  0.25547537  1
  Cu  Cu100  1  -0.00388637  0.00029895  0.49663469  1
  Cu  Cu101  1  0.16825617  0.83401295  0.25188655  1
  Cu  Cu102  1  0.33958724  0.66526440  0.00343372  1
  Cu  Cu103  1  0.82575764  0.16310876  0.74010376  1
  Cu  Cu104  1  0.83572113  0.15934192  0.25519199  1
  Cu  Cu105  1  0.66528426  -0.00646320  0.49411504  1
  Cu  Cu106  1  0.66519722  0.33081228  0.49973310  1
  Cu  Cu107  1  0.16495264  0.17010184  0.25950321  1
  Cu  Cu108  1  0.66647757  0.67185302  -0.00128357  1
  Cu  Cu109  1  0.16757028  0.82709123  0.74850063  1
  Cu  Cu110  1  0.83950001  0.50694435  0.75230554  1
  Cu  Cu111  1  0.33907951  -0.00266714  0.49591380  1
  Cu  Cu112  1  0.66312732  0.33690799  0.00419647  1
  Cu  Cu113  1  0.33914544  0.33479251  0.00574007  1
  Cu  Cu114  1  0.33326601  0.66801567  0.49769361  1
  Se  Se115  1  0.07918639  0.07617407  0.06105113  1
  Se  Se116  1  0.07614601  0.07606026  0.56085340  1
  Se  Se117  1  0.08361262  0.41290678  0.06572732  1
  Se  Se118  1  0.04835209  0.38306483  0.56242584  1
  Se  Se119  1  0.08461210  0.74869943  0.05322941  1
  Se  Se120  1  0.10743670  0.76834543  0.55882341  1
  Se  Se121  1  0.41247785  0.08727128  0.05792037  1
  Se  Se122  1  0.41949004  0.08166961  0.55074460  1
  Se  Se123  1  0.41867326  0.42436991  0.05588774  1
  Se  Se124  1  0.40993211  0.42071854  0.56401494  1
  Se  Se125  1  0.41992857  0.75257009  0.05632631  1
  Se  Se126  1  0.42008592  0.75051249  0.54841757  1
  Se  Se127  1  0.74411749  0.07784475  0.06152048  1
  Se  Se128  1  0.74609791  0.07728290  0.55081528  1
  Se  Se129  1  0.75322864  0.41634011  0.05416990  1
  Se  Se130  1  0.74316474  0.40933431  0.56083019  1
  Se  Se131  1  0.75093030  0.75508326  0.05148193  1
  Se  Se132  1  0.74663025  0.74664925  0.54943127  1
  Se  Se133  1  0.25683165  0.25041333  0.06018592  1
  Se  Se134  1  0.25772723  0.25306757  0.55415607  1
  Se  Se135  1  0.26433045  0.58306284  0.06599539  1
  Se  Se136  1  0.25406779  0.58672166  0.55705729  1
  Se  Se137  1  0.24801388  0.91214922  0.05802109  1
  Se  Se138  1  0.25012854  0.91469100  0.54341880  1
  Se  Se139  1  0.58004623  0.24641739  0.04866916  1
  Se  Se140  1  0.57825279  0.24768818  0.55007224  1
  Se  Se141  1  0.58603973  0.59066470  0.05696315  1
  Se  Se142  1  0.58842294  0.59436100  0.55207481  1
  Se  Se143  1  0.57945664  0.91700335  0.05400458  1
  Se  Se144  1  0.58318493  0.91388468  0.55239912  1
  Se  Se145  1  0.92132881  0.24976808  0.06500072  1
  Se  Se146  1  0.89898112  0.23516759  0.53891441  1
  Se  Se147  1  0.91380985  0.58323675  0.05582561  1
  Se  Se148  1  0.91171506  0.58427443  0.56410416  1
  Se  Se149  1  0.91225443  0.91129324  0.05332399  1
  Se  Se150  1  0.91372227  0.91495176  0.55046577  1
  Se  Se151  1  0.07965248  0.25093708  0.43582036  1
  Se  Se152  1  0.07386801  0.26199102  0.94724672  1
  Se  Se153  1  0.07774799  0.58167580  0.46264847  1
  Se  Se154  1  0.07892531  0.59299927  0.94073970  1
  Se  Se155  1  0.08272651  0.91823489  0.44636009  1
  Se  Se156  1  0.09031395  0.91078738  0.95080428  1
  Se  Se157  1  0.41263891  0.25221963  0.44695582  1
  Se  Se158  1  0.41890120  0.24779320  0.95126173  1
  Se  Se159  1  0.40954234  0.59036628  0.43337795  1
  Se  Se160  1  0.41821095  0.58032981  0.94680017  1
  Se  Se161  1  0.42049054  0.91059219  0.44387357  1
  Se  Se162  1  0.41632954  0.91519278  0.95043430  1
  Se  Se163  1  0.74654212  0.24459650  0.44786404  1
  Se  Se164  1  0.74013938  0.25843574  0.93743161  1
  Se  Se165  1  0.73661042  0.58888316  0.44079062  1
  Se  Se166  1  0.75091228  0.58620268  0.94729760  1
  Se  Se167  1  0.75000311  0.90791550  0.44436898  1
  Se  Se168  1  0.75003886  0.91848126  0.94570712  1
  Se  Se169  1  0.25953585  0.07732559  0.43374108  1
  Se  Se170  1  0.26101460  0.07052225  0.93800201  1
  Se  Se171  1  0.24388106  0.42984547  0.44948483  1
  Se  Se172  1  0.25590075  0.41037056  0.94427998  1
  Se  Se173  1  0.24985888  0.75199177  0.44467079  1
  Se  Se174  1  0.25051816  0.74331877  0.94886298  1
  Se  Se175  1  0.57807600  0.07790858  0.44560779  1
  Se  Se176  1  0.58144975  0.08310526  0.94726940  1
  Se  Se177  1  0.58876389  0.40910753  0.43685713  1
  Se  Se178  1  0.58049928  0.42337205  0.95301616  1
  Se  Se179  1  0.57064843  0.74466860  0.43962135  1
  Se  Se180  1  0.58100881  0.75376784  0.94548863  1
  Se  Se181  1  0.91244035  0.08089245  0.44253001  1
  Se  Se182  1  0.92645936  0.07341417  0.94055794  1
  Se  Se183  1  0.92446302  0.40780990  0.43908624  1
  Se  Se184  1  0.91217830  0.42318277  0.95406683  1
  Se  Se185  1  0.92561359  0.73950678  0.45328912  1
  Se  Se186  1  0.91357489  0.75215755  0.94858453  1
  Se  Se187  1  0.25166655  0.25454123  0.30696405  1
  Se  Se188  1  0.25705240  0.25423245  0.80064615  1
  Se  Se189  1  0.24374221  0.59107546  0.30850931  1
  Se  Se190  1  0.24291066  0.57503015  0.80170184  1
  Se  Se191  1  0.25327586  0.91855756  0.30308938  1
  Se  Se192  1  0.24583354  0.91014209  0.80929746  1
  Se  Se193  1  0.57246414  0.24044684  0.30514426  1
  Se  Se194  1  0.57790320  0.24726600  0.81073713  1
  Se  Se195  1  0.57450908  0.57599210  0.28911279  1
  Se  Se196  1  0.58063626  0.57722886  0.81002323  1
  Se  Se197  1  0.57959758  0.90892415  0.30991788  1
  Se  Se198  1  0.58011046  0.91633627  0.80166321  1
  Se  Se199  1  0.91697366  0.24931384  0.30287148  1
  Se  Se200  1  0.90488574  0.24328570  0.80201338  1
  Se  Se201  1  0.91380718  0.57814588  0.31508843  1
  Se  Se202  1  0.92253769  0.58955420  0.80463930  1
  Se  Se203  1  0.92167194  0.91236694  0.30538008  1
  Se  Se204  1  0.91260336  0.91282460  0.81312910  1
  Se  Se205  1  0.08095603  0.07852911  0.30284463  1
  Se  Se206  1  0.09220218  0.09662176  0.80403102  1
  Se  Se207  1  0.08541444  0.41844853  0.30702328  1
  Se  Se208  1  0.09064366  0.42620327  0.81407655  1
  Se  Se209  1  0.09166244  0.75481511  0.31618744  1
  Se  Se210  1  0.08107399  0.74948040  0.80376879  1
  Se  Se211  1  0.41562870  0.07926166  0.29771813  1
  Se  Se212  1  0.42422463  0.08842387  0.81088230  1
  Se  Se213  1  0.42933416  0.43454296  0.30533819  1
  Se  Se214  1  0.41484824  0.41204073  0.80887987  1
  Se  Se215  1  0.41135876  0.75143683  0.29945782  1
  Se  Se216  1  0.41320001  0.74810551  0.80581472  1
  Se  Se217  1  0.74807238  0.08345098  0.31123989  1
  Se  Se218  1  0.74439401  0.08156489  0.79481428  1
  Se  Se219  1  0.75771488  0.42411587  0.31387165  1
  Se  Se220  1  0.75761953  0.42301812  0.80712250  1
  Se  Se221  1  0.75156030  0.74532349  0.30430842  1
  Se  Se222  1  0.75673528  0.75904519  0.81006071  1
  Se  Se223  1  0.24510411  0.08814596  0.20103803  1
  Se  Se224  1  0.24718200  0.08771265  0.68704152  1
  Se  Se225  1  0.25159564  0.41338104  0.20412559  1
  Se  Se226  1  0.24917480  0.40961347  0.69600651  1
  Se  Se227  1  0.25206641  0.75053704  0.20012095  1
  Se  Se228  1  0.25675380  0.74923027  0.69668561  1
  Se  Se229  1  0.57215088  0.09332044  0.19323434  1
  Se  Se230  1  0.58381570  0.08109497  0.69477849  1
  Se  Se231  1  0.58520803  0.41841894  0.18177756  1
  Se  Se232  1  0.57323375  0.42576587  0.69216059  1
  Se  Se233  1  0.58350445  0.75048048  0.19747553  1
  Se  Se234  1  0.57269120  0.75752290  0.68550760  1
  Se  Se235  1  0.91941771  0.07692175  0.20176509  1
  Se  Se236  1  0.91587836  0.09287331  0.68144360  1
  Se  Se237  1  0.92109819  0.41329929  0.20259429  1
  Se  Se238  1  0.91641460  0.43063476  0.68792166  1
  Se  Se239  1  0.91618000  0.75190057  0.19035639  1
  Se  Se240  1  0.92068340  0.75417845  0.69684150  1
  Se  Se241  1  0.08219355  0.25405415  0.20409459  1
  Se  Se242  1  0.09291709  0.25209147  0.68558988  1
  Se  Se243  1  0.09332334  0.57890381  0.18899504  1
  Se  Se244  1  0.08651675  0.57861072  0.69205022  1
  Se  Se245  1  0.08224055  0.91477860  0.19765922  1
  Se  Se246  1  0.08743997  0.91012424  0.69111006  1
  Se  Se247  1  0.40993840  0.26818630  0.19815119  1
  Se  Se248  1  0.41682949  0.25163246  0.69742123  1
  Se  Se249  1  0.40111480  0.60233474  0.19756920  1
  Se  Se250  1  0.41458692  0.58966429  0.70179589  1
  Se  Se251  1  0.41391232  0.92018253  0.19575756  1
  Se  Se252  1  0.41770872  0.90639023  0.68362334  1
  Se  Se253  1  0.75623510  0.24132650  0.19517030  1
  Se  Se254  1  0.75603881  0.24962896  0.67866299  1
  Se  Se255  1  0.75388586  0.58511975  0.19830824  1
  Se  Se256  1  0.75387055  0.58076071  0.69226977  1
  Se  Se257  1  0.75739763  0.90424810  0.18930936  1
  Se  Se258  1  0.74654303  0.91877822  0.69615282  1
