# generated using pymatgen
data_In86Cu29Se144
_symmetry_space_group_name_H-M   'P 1'
_cell_length_a   17.58879919
_cell_length_b   17.57964967
_cell_length_c   23.44350756
_cell_angle_alpha   89.99065588
_cell_angle_beta   89.97437713
_cell_angle_gamma   89.99838911
_symmetry_Int_Tables_number   1
_chemical_formula_structural   In86Cu29Se144
_chemical_formula_sum   'In86 Cu29 Se144'
_cell_volume   7248.84724272
_cell_formula_units_Z   1
loop_
 _symmetry_equiv_pos_site_id
 _symmetry_equiv_pos_as_xyz
  1  'x, y, z'
loop_
 _atom_site_type_symbol
 _atom_site_label
 _atom_site_symmetry_multiplicity
 _atom_site_fract_x
 _atom_site_fract_y
 _atom_site_fract_z
 _atom_site_occupancy
  In  In0  1  -0.00493607  0.15825182  0.12129840  1
  In  In1  1  0.00487404  0.17105785  0.62137298  1
  In  In2  1  -0.00372821  0.50360633  0.12161259  1
  In  In3  1  0.00681657  0.49117834  0.63254125  1
  In  In4  1  0.02306669  0.83249961  0.12035400  1
  In  In5  1  -0.00785258  0.83055002  0.62162537  1
  In  In6  1  0.32354094  0.15257060  0.11370072  1
  In  In7  1  0.33463372  0.16538833  0.62695289  1
  In  In8  1  0.34694391  0.49233169  0.12538309  1
  In  In9  1  0.31769587  0.49606138  0.62388551  1
  In  In10  1  0.32086323  0.85113723  0.13342927  1
  In  In11  1  0.33755736  0.85571632  0.62976322  1
  In  In12  1  0.67898515  0.16882277  0.11319039  1
  In  In13  1  0.66077087  0.17176002  0.61905343  1
  In  In14  1  0.64797880  0.49331347  0.11758054  1
  In  In15  1  0.67137544  0.49412164  0.63206860  1
  In  In16  1  0.66881702  0.83737178  0.11952363  1
  In  In17  1  0.66781379  0.83347906  0.63704810  1
  In  In18  1  0.16341638  0.00296359  0.37487540  1
  In  In19  1  0.17508409  -0.00697448  0.87735013  1
  In  In20  1  0.17541231  0.33068586  0.38492548  1
  In  In21  1  0.15448763  0.32200023  0.86710118  1
  In  In22  1  0.16896298  0.66439153  0.38095583  1
  In  In23  1  0.16604603  0.67853917  0.87711768  1
  In  In24  1  0.49547382  0.01658097  0.37618968  1
  In  In25  1  0.51800924  0.01953998  0.85807970  1
  In  In26  1  0.50142694  0.31725710  0.37898200  1
  In  In27  1  0.50110093  0.33187940  0.87304584  1
  In  In28  1  0.50057090  0.68085184  0.37344859  1
  In  In29  1  0.50114767  0.65305991  0.87980706  1
  In  In30  1  0.83834961  -0.00187740  0.38621664  1
  In  In31  1  0.82315200  0.01615925  0.87769178  1
  In  In32  1  0.81534224  0.32211074  0.37985261  1
  In  In33  1  0.82405063  0.32156432  0.86340117  1
  In  In34  1  0.84151269  0.67259575  0.37938158  1
  In  In35  1  0.83147756  0.66706880  0.86491998  1
  In  In36  1  0.01634402  0.15401990  0.38155677  1
  In  In37  1  -0.00770050  0.16907141  0.87777422  1
  In  In38  1  0.00244524  0.51154792  0.37981658  1
  In  In39  1  0.00083645  0.49965453  0.86544499  1
  In  In40  1  -0.00835861  0.84840316  0.38369579  1
  In  In41  1  0.01227544  0.83306780  0.87355858  1
  In  In42  1  0.33133302  0.16396585  0.37724437  1
  In  In43  1  0.33414333  0.16595633  0.87291083  1
  In  In44  1  0.32213407  0.49925194  0.37737504  1
  In  In45  1  0.34914099  0.49966208  0.87824214  1
  In  In46  1  0.32385502  0.82457600  0.37011867  1
  In  In47  1  0.32256022  0.83445879  0.87582716  1
  In  In48  1  0.65339507  0.17128039  0.39121743  1
  In  In49  1  0.66227643  0.16708822  0.87274558  1
  In  In50  1  0.67569869  0.49301017  0.37691724  1
  In  In51  1  0.66333644  0.49241626  0.86917244  1
  In  In52  1  0.67424055  0.84989364  0.38254597  1
  In  In53  1  0.65753569  0.83672561  0.86000742  1
  In  In54  1  0.16975776  0.00321201  0.12538238  1
  In  In55  1  0.17610683  0.00988897  0.61889735  1
  In  In56  1  0.17982501  0.32648891  0.12267453  1
  In  In57  1  0.16706606  0.33016781  0.62791074  1
  In  In58  1  0.16513893  0.69415954  0.12303383  1
  In  In59  1  0.15744049  0.66167479  0.61975194  1
  In  In60  1  0.48633744  -0.00242478  0.12106818  1
  In  In61  1  0.49081038  0.00479784  0.63524281  1
  In  In62  1  0.50747986  0.33570092  0.11850494  1
  In  In63  1  0.51562268  0.31096004  0.63656983  1
  In  In64  1  0.49553390  0.65177622  0.11976160  1
  In  In65  1  0.50797842  0.68080455  0.63479839  1
  In  In66  1  0.83258697  0.01491456  0.12420739  1
  In  In67  1  0.81547671  0.00030340  0.60668667  1
  In  In68  1  0.83294580  0.31139537  0.12449761  1
  In  In69  1  0.83315631  0.32667908  0.62838086  1
  In  In70  1  0.83457203  0.66908858  0.12144651  1
  In  In71  1  0.82927986  0.67446189  0.63530555  1
  In  In72  1  0.33260286  0.66492147  0.75250270  1
  In  In73  1  0.33898211  0.32698486  0.25605654  1
  In  In74  1  -0.00371454  0.00277208  0.74660157  1
  In  In75  1  0.83284412  0.83769998  -0.00998196  1
  In  In76  1  0.00170515  0.67015601  0.24993949  1
  In  In77  1  0.66300595  0.66705605  0.23991675  1
  In  In78  1  0.83862154  0.49406263  0.51191958  1
  In  In79  1  0.00423055  0.32355359  0.25196164  1
  In  In80  1  0.50169568  0.84203318  0.50817130  1
  In  In81  1  0.66169427  0.00615907  0.25450266  1
  In  In82  1  0.49556484  0.83717369  -0.00501937  1
  In  In83  1  0.49706317  0.49361465  0.50327714  1
  In  In84  1  0.83201597  0.49656345  -0.00921177  1
  In  In85  1  0.17286750  0.49844916  -0.00182948  1
  Cu  Cu86  1  0.32843329  0.66979390  0.50084642  1
  Cu  Cu87  1  0.82651948  0.16652033  0.74682433  1
  Cu  Cu88  1  0.33997443  0.32644870  -0.00306063  1
  Cu  Cu89  1  0.00609456  0.33860981  0.50416392  1
  Cu  Cu90  1  0.33119440  0.32811300  0.50402067  1
  Cu  Cu91  1  0.16661600  0.84375791  0.25247880  1
  Cu  Cu92  1  0.32962870  0.00181797  0.49959368  1
  Cu  Cu93  1  0.66721221  0.33019863  -0.00870123  1
  Cu  Cu94  1  0.16868708  0.50636150  0.25574906  1
  Cu  Cu95  1  0.83511585  0.84231318  0.74512204  1
  Cu  Cu96  1  0.00420868  -0.00183730  -0.00080052  1
  Cu  Cu97  1  0.49705915  0.17102217  0.75032657  1
  Cu  Cu98  1  0.48749089  0.83552276  0.24871581  1
  Cu  Cu99  1  0.00110842  0.32443175  -0.00290029  1
  Cu  Cu100  1  0.83403875  0.49942868  0.74885447  1
  Cu  Cu101  1  0.16648807  0.83305377  0.74979113  1
  Cu  Cu102  1  0.83592567  0.83901533  0.25790701  1
  Cu  Cu103  1  0.50180781  0.49915200  0.24530960  1
  Cu  Cu104  1  0.67448841  0.67082516  0.51163571  1
  Cu  Cu105  1  0.17097346  0.16399343  0.74614701  1
  Cu  Cu106  1  0.00327803  0.67435863  0.50154629  1
  Cu  Cu107  1  0.33209198  0.00355689  -0.00215715  1
  Cu  Cu108  1  0.82999594  0.16530133  0.25057159  1
  Cu  Cu109  1  0.00624682  0.00229178  0.50256094  1
  Cu  Cu110  1  0.16542313  0.49533760  0.74916426  1
  Cu  Cu111  1  0.33232896  0.67036224  0.00075810  1
  Cu  Cu112  1  0.49987785  0.49664763  0.75170643  1
  Cu  Cu113  1  0.50120709  0.16896942  0.24888478  1
  Cu  Cu114  1  0.82533352  0.48616652  0.24994148  1
  Se  Se115  1  0.08538147  0.08240911  0.05413701  1
  Se  Se116  1  0.08859525  0.08922434  0.55283510  1
  Se  Se117  1  0.07726235  0.40685870  0.05821291  1
  Se  Se118  1  0.08940950  0.42001240  0.55765519  1
  Se  Se119  1  0.07479970  0.74009347  0.04504694  1
  Se  Se120  1  0.08655850  0.75825933  0.55424954  1
  Se  Se121  1  0.42132017  0.08572350  0.04670257  1
  Se  Se122  1  0.41445396  0.07836502  0.55741908  1
  Se  Se123  1  0.41932897  0.41472559  0.04973426  1
  Se  Se124  1  0.41192660  0.40534476  0.56624072  1
  Se  Se125  1  0.40820170  0.75356251  0.06381520  1
  Se  Se126  1  0.40965868  0.74521006  0.56275401  1
  Se  Se127  1  0.74940177  0.07402019  0.04736235  1
  Se  Se128  1  0.76402015  0.11520438  0.54884073  1
  Se  Se129  1  0.74833077  0.40656613  0.05710944  1
  Se  Se130  1  0.73753109  0.40358004  0.55666807  1
  Se  Se131  1  0.74295238  0.74274855  0.05210558  1
  Se  Se132  1  0.75283099  0.75742651  0.56335670  1
  Se  Se133  1  0.24991024  0.24732128  0.04701544  1
  Se  Se134  1  0.24751760  0.24549362  0.55808601  1
  Se  Se135  1  0.25508531  0.58876028  0.06469799  1
  Se  Se136  1  0.24722269  0.58306751  0.55250259  1
  Se  Se137  1  0.24903418  0.91929700  0.05223889  1
  Se  Se138  1  0.25037257  0.91439473  0.55277010  1
  Se  Se139  1  0.58664453  0.24933758  0.05046361  1
  Se  Se140  1  0.56958983  0.24478271  0.54918423  1
  Se  Se141  1  0.58916848  0.59081991  0.04994744  1
  Se  Se142  1  0.58724226  0.58880260  0.56269650  1
  Se  Se143  1  0.58870169  0.92717893  0.05466514  1
  Se  Se144  1  0.59164112  0.92819122  0.56701998  1
  Se  Se145  1  0.91538868  0.24249420  0.05009645  1
  Se  Se146  1  0.92076782  0.25690796  0.55542818  1
  Se  Se147  1  0.92288316  0.59156199  0.05034132  1
  Se  Se148  1  0.92516456  0.59293981  0.56477321  1
  Se  Se149  1  0.92129528  0.91867538  0.06009046  1
  Se  Se150  1  0.91827506  0.92081403  0.55305343  1
  Se  Se151  1  0.08482072  0.25225736  0.44832290  1
  Se  Se152  1  0.08663186  0.24215832  0.94548037  1
  Se  Se153  1  0.08434528  0.58506701  0.45175179  1
  Se  Se154  1  0.07860447  0.58447692  0.94004880  1
  Se  Se155  1  0.08852390  0.91750102  0.44862819  1
  Se  Se156  1  0.08716198  0.91442941  0.94628397  1
  Se  Se157  1  0.41306724  0.24578355  0.44827529  1
  Se  Se158  1  0.42211943  0.24483627  0.94178697  1
  Se  Se159  1  0.41443458  0.59285614  0.44228653  1
  Se  Se160  1  0.41680460  0.58266818  0.95458542  1
  Se  Se161  1  0.40977250  0.91896074  0.43962432  1
  Se  Se162  1  0.41232797  0.92909962  0.93330847  1
  Se  Se163  1  0.75650654  0.23518812  0.45633523  1
  Se  Se164  1  0.75296401  0.24602677  0.94178045  1
  Se  Se165  1  0.74862250  0.58885795  0.44768814  1
  Se  Se166  1  0.74227564  0.59008967  0.93683653  1
  Se  Se167  1  0.75603705  0.91681947  0.45578560  1
  Se  Se168  1  0.73374915  0.92238478  0.93681469  1
  Se  Se169  1  0.24627186  0.08507774  0.44610719  1
  Se  Se170  1  0.24815655  0.08649101  0.94358703  1
  Se  Se171  1  0.25183539  0.41922549  0.45328226  1
  Se  Se172  1  0.25643354  0.40564391  0.93677774  1
  Se  Se173  1  0.24650450  0.75415686  0.44836947  1
  Se  Se174  1  0.24775613  0.75352275  0.95045345  1
  Se  Se175  1  0.59220222  0.06234551  0.44904922  1
  Se  Se176  1  0.58082340  0.08463674  0.94260182  1
  Se  Se177  1  0.59101102  0.40740594  0.44426394  1
  Se  Se178  1  0.58275761  0.41699208  0.94345172  1
  Se  Se179  1  0.59376085  0.74683695  0.44753506  1
  Se  Se180  1  0.58998021  0.74811054  0.93884132  1
  Se  Se181  1  0.92215879  0.08643427  0.45013445  1
  Se  Se182  1  0.91775375  0.08020559  0.94763884  1
  Se  Se183  1  0.92132773  0.41056133  0.43907253  1
  Se  Se184  1  0.92383137  0.40391357  0.93529181  1
  Se  Se185  1  0.91523325  0.75493730  0.45037269  1
  Se  Se186  1  0.92301738  0.74246659  0.93702241  1
  Se  Se187  1  0.23724209  0.24224806  0.30649409  1
  Se  Se188  1  0.25021366  0.24870568  0.80305238  1
  Se  Se189  1  0.25248629  0.58972844  0.30694383  1
  Se  Se190  1  0.24292982  0.57395220  0.81401483  1
  Se  Se191  1  0.25279530  0.92224723  0.30684097  1
  Se  Se192  1  0.25106194  0.91673529  0.80024418  1
  Se  Se193  1  0.58648995  0.24371649  0.30710549  1
  Se  Se194  1  0.58455171  0.25281740  0.80219369  1
  Se  Se195  1  0.58118653  0.57797175  0.30999758  1
  Se  Se196  1  0.58185871  0.58233716  0.80346814  1
  Se  Se197  1  0.57235965  0.90798003  0.31061464  1
  Se  Se198  1  0.57475780  0.91624439  0.79160314  1
  Se  Se199  1  0.91085002  0.24160188  0.31407155  1
  Se  Se200  1  0.91801484  0.24366200  0.79953209  1
  Se  Se201  1  0.90448277  0.57393482  0.30471317  1
  Se  Se202  1  0.91800316  0.58449676  0.79935336  1
  Se  Se203  1  0.91674378  0.92535175  0.30764100  1
  Se  Se204  1  0.91006594  0.91689437  0.81392549  1
  Se  Se205  1  0.08116082  0.07985349  0.30207953  1
  Se  Se206  1  0.08893556  0.08603646  0.80915251  1
  Se  Se207  1  0.08857192  0.42334963  0.31210100  1
  Se  Se208  1  0.07873664  0.41116541  0.79907895  1
  Se  Se209  1  0.08553529  0.76056471  0.31301859  1
  Se  Se210  1  0.08387957  0.74730313  0.80016121  1
  Se  Se211  1  0.41468551  0.09011936  0.30240747  1
  Se  Se212  1  0.41109502  0.08402527  0.79899606  1
  Se  Se213  1  0.42692853  0.42350945  0.31414310  1
  Se  Se214  1  0.41482797  0.41435610  0.80345914  1
  Se  Se215  1  0.41190564  0.74531618  0.30112877  1
  Se  Se216  1  0.42081919  0.75037454  0.81517751  1
  Se  Se217  1  0.75253877  0.08937663  0.31661574  1
  Se  Se218  1  0.74365025  0.08370210  0.80039561  1
  Se  Se219  1  0.74386259  0.40542768  0.30432895  1
  Se  Se220  1  0.74833662  0.41462814  0.79940422  1
  Se  Se221  1  0.75085966  0.75377105  0.30871962  1
  Se  Se222  1  0.75319242  0.75697626  0.79952654  1
  Se  Se223  1  0.25723878  0.08109276  0.19390163  1
  Se  Se224  1  0.25508885  0.07753515  0.69733215  1
  Se  Se225  1  0.24621210  0.42227875  0.19651474  1
  Se  Se226  1  0.25087480  0.41219013  0.69923604  1
  Se  Se227  1  0.24836425  0.75532258  0.20065168  1
  Se  Se228  1  0.24718402  0.75363723  0.68748228  1
  Se  Se229  1  0.57790961  0.08878072  0.18540176  1
  Se  Se230  1  0.58184440  0.09204880  0.69369751  1
  Se  Se231  1  0.58396420  0.41197314  0.19632597  1
  Se  Se232  1  0.58384908  0.41390665  0.69803787  1
  Se  Se233  1  0.56992059  0.76146707  0.18574340  1
  Se  Se234  1  0.59578349  0.74358112  0.70679991  1
  Se  Se235  1  0.91604841  0.08453095  0.19849199  1
  Se  Se236  1  0.90641138  0.08755714  0.68471393  1
  Se  Se237  1  0.91284606  0.41569933  0.18994977  1
  Se  Se238  1  0.91484547  0.41286104  0.69581904  1
  Se  Se239  1  0.91092898  0.76190875  0.19083501  1
  Se  Se240  1  0.92122552  0.75427620  0.70023470  1
  Se  Se241  1  0.09314949  0.24021795  0.18830208  1
  Se  Se242  1  0.08291963  0.24695821  0.69705568  1
  Se  Se243  1  0.09246243  0.57982539  0.18861950  1
  Se  Se244  1  0.08554984  0.58396415  0.69746788  1
  Se  Se245  1  0.08251168  0.92080460  0.19523541  1
  Se  Se246  1  0.08975452  0.91517891  0.68751671  1
  Se  Se247  1  0.42051432  0.24512820  0.18539252  1
  Se  Se248  1  0.40861470  0.25282101  0.69925268  1
  Se  Se249  1  0.41510452  0.58277022  0.19740740  1
  Se  Se250  1  0.42098605  0.57566607  0.68854317  1
  Se  Se251  1  0.41092000  0.92832814  0.20044175  1
  Se  Se252  1  0.43797615  0.89785341  0.70186042  1
  Se  Se253  1  0.74385338  0.24451341  0.19665044  1
  Se  Se254  1  0.74190028  0.25053292  0.69448775  1
  Se  Se255  1  0.75582624  0.57084726  0.18586517  1
  Se  Se256  1  0.74832360  0.58357268  0.69841751  1
  Se  Se257  1  0.75352689  0.91359586  0.19458634  1
  Se  Se258  1  0.75495470  0.92924283  0.69340529  1
