# generated using pymatgen
data_In86Cu29Se144
_symmetry_space_group_name_H-M   'P 1'
_cell_length_a   17.57213381
_cell_length_b   17.57366459
_cell_length_c   23.42425237
_cell_angle_alpha   90.00566619
_cell_angle_beta   89.99926801
_cell_angle_gamma   89.97239275
_symmetry_Int_Tables_number   1
_chemical_formula_structural   In86Cu29Se144
_chemical_formula_sum   'In86 Cu29 Se144'
_cell_volume   7233.56720877
_cell_formula_units_Z   1
loop_
 _symmetry_equiv_pos_site_id
 _symmetry_equiv_pos_as_xyz
  1  'x, y, z'
loop_
 _atom_site_type_symbol
 _atom_site_label
 _atom_site_symmetry_multiplicity
 _atom_site_fract_x
 _atom_site_fract_y
 _atom_site_fract_z
 _atom_site_occupancy
  In  In0  1  0.01832035  0.16500862  0.12357155  1
  In  In1  1  0.00305823  0.16894065  0.63351663  1
  In  In2  1  0.00316233  0.50057136  0.12064102  1
  In  In3  1  0.00470252  0.50666619  0.63312404  1
  In  In4  1  -0.01361824  0.83006440  0.12769101  1
  In  In5  1  0.00737809  0.83604597  0.62627547  1
  In  In6  1  0.31914518  0.17038780  0.12745254  1
  In  In7  1  0.32449172  0.16209497  0.63271406  1
  In  In8  1  0.32227060  0.51808138  0.12368507  1
  In  In9  1  0.30613881  0.49562850  0.62992303  1
  In  In10  1  0.32607974  0.83381049  0.13052381  1
  In  In11  1  0.33989864  0.84286850  0.62217279  1
  In  In12  1  0.66432042  0.16911708  0.12645095  1
  In  In13  1  0.67720406  0.19106943  0.60310041  1
  In  In14  1  0.66862151  0.49163852  0.11854711  1
  In  In15  1  0.68711038  0.48265631  0.62927977  1
  In  In16  1  0.68214762  0.83420774  0.12962607  1
  In  In17  1  0.66100486  0.82450910  0.62274024  1
  In  In18  1  0.17398030  -0.00706334  0.38449236  1
  In  In19  1  0.18650628  0.01856388  0.83618408  1
  In  In20  1  0.15514446  0.34473506  0.38750544  1
  In  In21  1  0.16796176  0.34532370  0.87260017  1
  In  In22  1  0.16575202  0.66728169  0.37672773  1
  In  In23  1  0.15605387  0.67046517  0.86750093  1
  In  In24  1  0.48547605  0.00680608  0.38476168  1
  In  In25  1  0.48507234  0.00884509  0.87246445  1
  In  In26  1  0.49441115  0.32619850  0.38637085  1
  In  In27  1  0.49810914  0.32638594  0.86074061  1
  In  In28  1  0.49605850  0.67913302  0.38027724  1
  In  In29  1  0.50554652  0.65358535  0.87088043  1
  In  In30  1  0.83445140  0.00114969  0.39246465  1
  In  In31  1  0.84537361  -0.00887611  0.87294845  1
  In  In32  1  0.84923818  0.32054323  0.39113048  1
  In  In33  1  0.85187465  0.35558558  0.86096503  1
  In  In34  1  0.84803810  0.65090407  0.38789101  1
  In  In35  1  0.83311399  0.65725717  0.86904600  1
  In  In36  1  -0.00393229  0.17527498  0.38784097  1
  In  In37  1  0.04584292  0.19960592  0.82416834  1
  In  In38  1  0.00315215  0.49980414  0.37674376  1
  In  In39  1  0.00093008  0.50118971  0.87312451  1
  In  In40  1  0.01245830  0.82292943  0.38851389  1
  In  In41  1  0.02053006  0.83349379  0.85116644  1
  In  In42  1  0.33668202  0.15691554  0.38516573  1
  In  In43  1  0.31475581  0.16495735  0.84758591  1
  In  In44  1  0.31382130  0.49768471  0.37945992  1
  In  In45  1  0.33844445  0.49097966  0.87524176  1
  In  In46  1  0.32749584  0.83329327  0.37845265  1
  In  In47  1  0.31625906  0.84754200  0.86942319  1
  In  In48  1  0.67143550  0.16863914  0.39496724  1
  In  In49  1  0.65521016  0.16770062  0.86559269  1
  In  In50  1  0.67497155  0.50711775  0.37876921  1
  In  In51  1  0.68004695  0.51629228  0.86126417  1
  In  In52  1  0.66292476  0.83352948  0.39038744  1
  In  In53  1  0.67738171  0.82447602  0.87028345  1
  In  In54  1  0.16824001  0.01334842  0.12349488  1
  In  In55  1  0.16655429  0.00173074  0.63456298  1
  In  In56  1  0.15629604  0.32514708  0.11838299  1
  In  In57  1  0.15945325  0.32940552  0.63975424  1
  In  In58  1  0.17256441  0.65840666  0.12842837  1
  In  In59  1  0.15429680  0.65730017  0.62260964  1
  In  In60  1  0.48752999  -0.01343685  0.12500050  1
  In  In61  1  0.49214298  -0.00277683  0.62121731  1
  In  In62  1  0.50460601  0.32827625  0.12109159  1
  In  In63  1  0.50828037  0.32545564  0.62331950  1
  In  In64  1  0.49091954  0.65862971  0.12487812  1
  In  In65  1  0.49810038  0.68143869  0.62512178  1
  In  In66  1  0.83280151  -0.00992251  0.12741739  1
  In  In67  1  0.84829709  0.00769772  0.61697788  1
  In  In68  1  0.83643989  0.35207608  0.11876091  1
  In  In69  1  0.83620418  0.33990697  0.62112873  1
  In  In70  1  0.84350022  0.66762317  0.12463768  1
  In  In71  1  0.83792022  0.66220053  0.62129679  1
  In  In72  1  0.32326661  0.33322644  0.25334985  1
  In  In73  1  0.50407355  0.49803735  0.50548302  1
  In  In74  1  0.67009879  0.33243756  0.26274406  1
  In  In75  1  0.49331529  0.82863684  -0.01277868  1
  In  In76  1  0.49719814  0.49397923  0.00010015  1
  In  In77  1  0.66418517  0.66781764  0.25125075  1
  In  In78  1  0.66069072  0.00737855  0.27691544  1
  In  In79  1  0.83861431  0.82466343  0.00046643  1
  In  In80  1  0.00565644  -0.00454109  0.25310320  1
  In  In81  1  0.66455192  0.00008779  0.73782164  1
  In  In82  1  0.49082206  0.17115681  0.00471653  1
  In  In83  1  0.16463569  0.82808389  -0.00359343  1
  In  In84  1  0.33241521  0.66814637  0.75241604  1
  In  In85  1  0.84628564  0.17333982  -0.01556041  1
  Cu  Cu86  1  0.32460877  0.32767539  0.51092129  1
  Cu  Cu87  1  0.16665711  0.16655387  0.25341941  1
  Cu  Cu88  1  0.50517308  0.50279920  0.74040477  1
  Cu  Cu89  1  0.16660440  0.82977133  0.25684611  1
  Cu  Cu90  1  0.32340282  0.32800065  -0.00425465  1
  Cu  Cu91  1  0.67769512  0.34784917  -0.01621769  1
  Cu  Cu92  1  0.84856457  0.17864717  0.25520435  1
  Cu  Cu93  1  0.84712450  0.50011226  0.25031890  1
  Cu  Cu94  1  0.50453361  0.17033621  0.73950885  1
  Cu  Cu95  1  -0.00303875  0.66243433  -0.00655159  1
  Cu  Cu96  1  0.67102270  0.66251509  0.50493481  1
  Cu  Cu97  1  0.83494619  0.82771153  0.26367087  1
  Cu  Cu98  1  0.83435276  0.82068194  0.74302399  1
  Cu  Cu99  1  0.00763575  0.33704734  0.51164066  1
  Cu  Cu100  1  0.32894799  0.67038473  0.50478512  1
  Cu  Cu101  1  0.83743389  0.50043755  0.74483847  1
  Cu  Cu102  1  0.48220158  0.82978811  0.25167042  1
  Cu  Cu103  1  0.15931782  0.50496612  0.25250295  1
  Cu  Cu104  1  0.49039904  0.49990878  0.24872260  1
  Cu  Cu105  1  0.66460873  -0.00518750  0.50866604  1
  Cu  Cu106  1  0.82150854  0.16902033  0.73961589  1
  Cu  Cu107  1  0.32278196  0.00093074  0.50531394  1
  Cu  Cu108  1  0.00716224  0.33169282  -0.01324295  1
  Cu  Cu109  1  0.00144245  0.66457364  0.50347961  1
  Cu  Cu110  1  0.50325305  0.83654660  0.74847766  1
  Cu  Cu111  1  0.01188309  0.00618207  -0.01307693  1
  Cu  Cu112  1  0.66544417  0.00121736  0.00491791  1
  Cu  Cu113  1  0.49328615  0.15489217  0.25554952  1
  Cu  Cu114  1  0.00419587  0.00405112  0.50995715  1
  Se  Se115  1  0.08943292  0.08635706  0.04710386  1
  Se  Se116  1  0.08620185  0.08659128  0.56366602  1
  Se  Se117  1  0.08180564  0.41394858  0.05020143  1
  Se  Se118  1  0.08919770  0.41831193  0.56751089  1
  Se  Se119  1  0.06945078  0.74445378  0.05893189  1
  Se  Se120  1  0.08510116  0.75123552  0.55384822  1
  Se  Se121  1  0.40280615  0.07604642  0.05920177  1
  Se  Se122  1  0.40730970  0.08462625  0.55792307  1
  Se  Se123  1  0.40269184  0.40497459  0.06153734  1
  Se  Se124  1  0.40648993  0.41510463  0.56464618  1
  Se  Se125  1  0.40764288  0.74691940  0.05706598  1
  Se  Se126  1  0.41663804  0.75458438  0.55165001  1
  Se  Se127  1  0.75323087  0.08348466  0.05771970  1
  Se  Se128  1  0.75210594  0.08221230  0.55267536  1
  Se  Se129  1  0.75631445  0.42626866  0.04397913  1
  Se  Se130  1  0.75234808  0.41343345  0.54710216  1
  Se  Se131  1  0.74050915  0.73693643  0.05701560  1
  Se  Se132  1  0.75255065  0.74971662  0.55569057  1
  Se  Se133  1  0.24306687  0.24360859  0.05090619  1
  Se  Se134  1  0.24128387  0.24945186  0.56649623  1
  Se  Se135  1  0.24392747  0.58768362  0.04840224  1
  Se  Se136  1  0.24503615  0.58252799  0.55268384  1
  Se  Se137  1  0.25166324  0.92186487  0.05702568  1
  Se  Se138  1  0.24209072  0.91709629  0.56018279  1
  Se  Se139  1  0.60216559  0.26348638  0.04710098  1
  Se  Se140  1  0.56956639  0.24813473  0.54177489  1
  Se  Se141  1  0.58849395  0.59028441  0.05659305  1
  Se  Se142  1  0.59065872  0.58593835  0.56830296  1
  Se  Se143  1  0.58834533  0.91373154  0.05919536  1
  Se  Se144  1  0.57765248  0.91091949  0.55695636  1
  Se  Se145  1  0.92793864  0.25685190  0.05663252  1
  Se  Se146  1  0.92394329  0.24928639  0.56069570  1
  Se  Se147  1  0.91557021  0.58330480  0.05240661  1
  Se  Se148  1  0.92116706  0.57600646  0.55509225  1
  Se  Se149  1  0.92971197  0.92976930  0.05023283  1
  Se  Se150  1  0.92007557  0.91086386  0.55315922  1
  Se  Se151  1  0.08646848  0.25018490  0.45596525  1
  Se  Se152  1  0.08199285  0.24563290  0.92831828  1
  Se  Se153  1  0.08445262  0.58361007  0.44618841  1
  Se  Se154  1  0.08571081  0.58502895  0.94133716  1
  Se  Se155  1  0.08356922  0.91967195  0.45276638  1
  Se  Se156  1  0.08580466  0.91783411  0.93034458  1
  Se  Se157  1  0.40925478  0.24920812  0.45406518  1
  Se  Se158  1  0.40818160  0.25263686  0.93490675  1
  Se  Se159  1  0.40901880  0.58565595  0.44457034  1
  Se  Se160  1  0.41001849  0.59118169  0.94407064  1
  Se  Se161  1  0.40664105  0.91742888  0.45017032  1
  Se  Se162  1  0.39925516  0.93079265  0.94402654  1
  Se  Se163  1  0.75376080  0.25385044  0.45796541  1
  Se  Se164  1  0.74809972  0.25635903  0.92645840  1
  Se  Se165  1  0.75462108  0.57700981  0.45470244  1
  Se  Se166  1  0.74802719  0.58721280  0.94197173  1
  Se  Se167  1  0.75120858  0.91275991  0.45597744  1
  Se  Se168  1  0.74463837  0.92176169  0.94421031  1
  Se  Se169  1  0.24170885  0.08836741  0.45296489  1
  Se  Se170  1  0.24600961  0.08381843  0.92338303  1
  Se  Se171  1  0.24820392  0.41651672  0.45644596  1
  Se  Se172  1  0.24917745  0.42250255  0.94742270  1
  Se  Se173  1  0.24496742  0.75096812  0.44774420  1
  Se  Se174  1  0.25783978  0.74165062  0.93598481  1
  Se  Se175  1  0.58293239  0.07683564  0.45073077  1
  Se  Se176  1  0.58535827  0.07869894  0.94412851  1
  Se  Se177  1  0.59312810  0.41024014  0.44307295  1
  Se  Se178  1  0.58443044  0.41705290  0.92846509  1
  Se  Se179  1  0.58169150  0.74450706  0.45547649  1
  Se  Se180  1  0.59486840  0.73874580  0.94096237  1
  Se  Se181  1  0.91858600  0.08714801  0.45615401  1
  Se  Se182  1  0.93549982  0.08590769  0.92620722  1
  Se  Se183  1  0.92710942  0.41699818  0.45112331  1
  Se  Se184  1  0.91746697  0.42048677  0.94666161  1
  Se  Se185  1  0.91517337  0.75038280  0.45256696  1
  Se  Se186  1  0.92962243  0.75189784  0.93125726  1
  Se  Se187  1  0.24145789  0.24565933  0.31910092  1
  Se  Se188  1  0.26777531  0.28705367  0.79843889  1
  Se  Se189  1  0.24768101  0.58344110  0.30498511  1
  Se  Se190  1  0.24636487  0.57231802  0.80874245  1
  Se  Se191  1  0.24706143  0.91723190  0.30687344  1
  Se  Se192  1  0.24634122  0.90353647  0.78451083  1
  Se  Se193  1  0.57516929  0.23607855  0.31433965  1
  Se  Se194  1  0.58917687  0.25367537  0.79145350  1
  Se  Se195  1  0.57317447  0.57593213  0.31096694  1
  Se  Se196  1  0.58647138  0.58864427  0.79296784  1
  Se  Se197  1  0.56689513  0.90270476  0.31618434  1
  Se  Se198  1  0.58054793  0.91692325  0.81222686  1
  Se  Se199  1  0.93005848  0.25894065  0.30969750  1
  Se  Se200  1  0.90343630  0.23956708  0.80502718  1
  Se  Se201  1  0.92318335  0.58668827  0.30585509  1
  Se  Se202  1  0.92059282  0.58285508  0.80015566  1
  Se  Se203  1  0.91432682  0.91370083  0.31901041  1
  Se  Se204  1  0.91145677  0.90593948  0.79891788  1
  Se  Se205  1  0.08679545  0.08790130  0.31594582  1
  Se  Se206  1  0.05572173  0.05507239  0.79461543  1
  Se  Se207  1  0.08437805  0.41536627  0.30606006  1
  Se  Se208  1  0.06284163  0.40075466  0.80613954  1
  Se  Se209  1  0.07938357  0.74885483  0.30682685  1
  Se  Se210  1  0.08662017  0.73636312  0.78458686  1
  Se  Se211  1  0.40554829  0.07631379  0.30675096  1
  Se  Se212  1  0.42074629  0.08684770  0.79354904  1
  Se  Se213  1  0.41963435  0.41827769  0.31349321  1
  Se  Se214  1  0.42376640  0.42458803  0.79961795  1
  Se  Se215  1  0.40640541  0.74425113  0.30806668  1
  Se  Se216  1  0.42378161  0.75972814  0.81349987  1
  Se  Se217  1  0.76662664  0.10025478  0.31711482  1
  Se  Se218  1  0.75402174  0.08238402  0.80642520  1
  Se  Se219  1  0.76743845  0.42253389  0.31383766  1
  Se  Se220  1  0.74831546  0.41782193  0.79634623  1
  Se  Se221  1  0.75100202  0.74832625  0.32077009  1
  Se  Se222  1  0.75086152  0.74193371  0.79886108  1
  Se  Se223  1  0.24962854  0.08296456  0.20077929  1
  Se  Se224  1  0.24899439  0.08027296  0.70698917  1
  Se  Se225  1  0.23882387  0.42279675  0.18985180  1
  Se  Se226  1  0.25494737  0.40407594  0.70678876  1
  Se  Se227  1  0.24628575  0.74826546  0.19754285  1
  Se  Se228  1  0.25055727  0.74935733  0.68237232  1
  Se  Se229  1  0.57982382  0.08036148  0.19477699  1
  Se  Se230  1  0.58564476  0.09508518  0.67639885  1
  Se  Se231  1  0.57710193  0.42039627  0.19494962  1
  Se  Se232  1  0.58570018  0.41379278  0.69153567  1
  Se  Se233  1  0.57352240  0.76111404  0.19080978  1
  Se  Se234  1  0.58451681  0.74901751  0.70011511  1
  Se  Se235  1  0.91265615  0.08698285  0.19155203  1
  Se  Se236  1  0.91209146  0.08437140  0.69759441  1
  Se  Se237  1  0.92389535  0.41499400  0.19313039  1
  Se  Se238  1  0.92014759  0.41396550  0.69456709  1
  Se  Se239  1  0.91181565  0.74920046  0.20183090  1
  Se  Se240  1  0.92270564  0.74473367  0.68941468  1
  Se  Se241  1  0.08533511  0.24963760  0.19884204  1
  Se  Se242  1  0.08707881  0.23807592  0.70987443  1
  Se  Se243  1  0.07818339  0.58569407  0.19379523  1
  Se  Se244  1  0.08728349  0.58683897  0.70456582  1
  Se  Se245  1  0.09207078  0.90645466  0.18727588  1
  Se  Se246  1  0.06586030  0.93331429  0.70014273  1
  Se  Se247  1  0.42390992  0.24417281  0.19471872  1
  Se  Se248  1  0.41595424  0.25219817  0.69109128  1
  Se  Se249  1  0.40884110  0.58627883  0.19885956  1
  Se  Se250  1  0.41756173  0.57884988  0.68446054  1
  Se  Se251  1  0.40470669  0.92056186  0.20045836  1
  Se  Se252  1  0.41854654  0.91913581  0.69827609  1
  Se  Se253  1  0.75878518  0.24881172  0.19303243  1
  Se  Se254  1  0.74549079  0.25689389  0.68795902  1
  Se  Se255  1  0.75440773  0.57263816  0.19271871  1
  Se  Se256  1  0.75190659  0.58454895  0.69317575  1
  Se  Se257  1  0.75288484  0.91759086  0.20994969  1
  Se  Se258  1  0.76014127  0.91008072  0.68406383  1
