# generated using pymatgen
data_In86Cu29Se144
_symmetry_space_group_name_H-M   'P 1'
_cell_length_a   17.58984355
_cell_length_b   17.59224341
_cell_length_c   23.45493242
_cell_angle_alpha   89.99602655
_cell_angle_beta   90.00565812
_cell_angle_gamma   89.98232684
_symmetry_Int_Tables_number   1
_chemical_formula_structural   In86Cu29Se144
_chemical_formula_sum   'In86 Cu29 Se144'
_cell_volume   7258.00669422
_cell_formula_units_Z   1
loop_
 _symmetry_equiv_pos_site_id
 _symmetry_equiv_pos_as_xyz
  1  'x, y, z'
loop_
 _atom_site_type_symbol
 _atom_site_label
 _atom_site_symmetry_multiplicity
 _atom_site_fract_x
 _atom_site_fract_y
 _atom_site_fract_z
 _atom_site_occupancy
  In  In0  1  -0.00625799  0.18563808  0.12256743  1
  In  In1  1  -0.00226860  0.15696174  0.63121831  1
  In  In2  1  0.02526042  0.48414426  0.14487371  1
  In  In3  1  0.01340143  0.51954539  0.60371294  1
  In  In4  1  0.00009381  0.81488157  0.12544296  1
  In  In5  1  -0.00247907  0.83428924  0.62710104  1
  In  In6  1  0.34385617  0.16078333  0.13876055  1
  In  In7  1  0.33577111  0.16597154  0.62959405  1
  In  In8  1  0.31602148  0.49202777  0.12878363  1
  In  In9  1  0.32053957  0.48718481  0.60930451  1
  In  In10  1  0.33972556  0.83634081  0.11727799  1
  In  In11  1  0.34214239  0.83833369  0.62446637  1
  In  In12  1  0.66995500  0.17425337  0.12126258  1
  In  In13  1  0.66090895  0.18310684  0.62064645  1
  In  In14  1  0.67197724  0.49933836  0.13758080  1
  In  In15  1  0.67566688  0.50796421  0.61427459  1
  In  In16  1  0.66024340  0.83932761  0.12768933  1
  In  In17  1  0.65856958  0.82274580  0.61973474  1
  In  In18  1  0.18113589  -0.00292333  0.36980319  1
  In  In19  1  0.15948037  -0.00812839  0.86949082  1
  In  In20  1  0.17927057  0.35722546  0.35854184  1
  In  In21  1  0.17401966  0.32803318  0.87926666  1
  In  In22  1  0.15066985  0.64905753  0.37265845  1
  In  In23  1  0.16448315  0.67019292  0.87759651  1
  In  In24  1  0.49422855  0.01228433  0.38077703  1
  In  In25  1  0.48862184  0.00771543  0.87952683  1
  In  In26  1  0.50253242  0.33465473  0.37259874  1
  In  In27  1  0.48817455  0.33291005  0.87716388  1
  In  In28  1  0.50955292  0.65788526  0.38488340  1
  In  In29  1  0.51228468  0.66604496  0.87245304  1
  In  In30  1  0.82334216  0.00013401  0.37787088  1
  In  In31  1  0.84652008  -0.00130493  0.87914784  1
  In  In32  1  0.84741927  0.34714910  0.35686239  1
  In  In33  1  0.82473830  0.33468165  0.88166567  1
  In  In34  1  0.83671826  0.66726517  0.38217606  1
  In  In35  1  0.83293224  0.66457753  0.86399059  1
  In  In36  1  -0.00952674  0.18458070  0.36792525  1
  In  In37  1  0.01001768  0.15799504  0.88172318  1
  In  In38  1  -0.00113002  0.49782445  0.38152528  1
  In  In39  1  0.00224617  0.51085826  0.87102877  1
  In  In40  1  0.00267934  0.81075455  0.37947863  1
  In  In41  1  0.00345168  0.83291033  0.87121287  1
  In  In42  1  0.37498016  0.19333137  0.33975554  1
  In  In43  1  0.34002476  0.17286859  0.87280719  1
  In  In44  1  0.33904825  0.48885393  0.38934949  1
  In  In45  1  0.32955702  0.48505259  0.86991164  1
  In  In46  1  0.33793871  0.84600882  0.37583798  1
  In  In47  1  0.32168818  0.84035453  0.88011806  1
  In  In48  1  0.65257259  0.17063214  0.36699874  1
  In  In49  1  0.66204816  0.16709525  0.88675304  1
  In  In50  1  0.66463503  0.50444238  0.37398889  1
  In  In51  1  0.65811835  0.50561933  0.86881046  1
  In  In52  1  0.67780641  0.82668064  0.38543263  1
  In  In53  1  0.66964075  0.81928139  0.87509153  1
  In  In54  1  0.18202394  -0.00081133  0.12252968  1
  In  In55  1  0.16832113  -0.00186159  0.63525753  1
  In  In56  1  0.16401956  0.34407096  0.13884326  1
  In  In57  1  0.17609351  0.35167213  0.62400695  1
  In  In58  1  0.15662098  0.65250309  0.11630021  1
  In  In59  1  0.15847549  0.65218174  0.62607707  1
  In  In60  1  0.49332640  -0.00722707  0.11964813  1
  In  In61  1  0.49265031  -0.00610974  0.62218891  1
  In  In62  1  0.50972593  0.32065190  0.14229187  1
  In  In63  1  0.48608810  0.32678630  0.60865199  1
  In  In64  1  0.50257943  0.67989836  0.12738127  1
  In  In65  1  0.50474572  0.67393728  0.61719427  1
  In  In66  1  0.82138499  0.00560256  0.12224839  1
  In  In67  1  0.85063044  0.00103489  0.62695773  1
  In  In68  1  0.84466610  0.31754419  0.14349660  1
  In  In69  1  0.82559604  0.33596465  0.61902045  1
  In  In70  1  0.84311714  0.65964705  0.13840552  1
  In  In71  1  0.83505466  0.66517548  0.62231827  1
  In  In72  1  0.17612091  0.16873675  0.49551999  1
  In  In73  1  0.82480260  0.16883087  0.49458669  1
  In  In74  1  0.17054794  0.82640414  0.50249307  1
  In  In75  1  0.33425072  0.66305020  0.25227388  1
  In  In76  1  0.33134827  0.66470612  0.74510717  1
  In  In77  1  0.66334083  0.00221143  0.25306620  1
  In  In78  1  0.49294549  0.49996113  -0.00026257  1
  In  In79  1  0.66434461  0.34062198  0.74444107  1
  In  In80  1  0.83124908  0.83564685  0.00130148  1
  In  In81  1  0.00275761  0.33247440  0.74805799  1
  In  In82  1  0.16913768  0.16957255  0.00490316  1
  In  In83  1  0.83847314  0.49724068  0.00468604  1
  In  In84  1  0.00033165  -0.00224104  0.24146306  1
  In  In85  1  0.66413920  -0.00539757  0.74867025  1
  Cu  Cu86  1  0.83443375  0.82759040  0.74900397  1
  Cu  Cu87  1  0.66002997  0.33598163  0.49191479  1
  Cu  Cu88  1  0.66347159  -0.00120221  0.50117903  1
  Cu  Cu89  1  0.49851632  0.50419523  0.25782211  1
  Cu  Cu90  1  0.33280278  0.67104033  0.50114874  1
  Cu  Cu91  1  0.33394930  0.32937801  0.00383967  1
  Cu  Cu92  1  0.67015760  0.66820864  0.49883022  1
  Cu  Cu93  1  0.83940271  0.15851582  0.75644091  1
  Cu  Cu94  1  0.82685796  0.51226275  0.25937807  1
  Cu  Cu95  1  0.17307836  0.16696744  0.75545296  1
  Cu  Cu96  1  0.16233338  0.83184720  0.75333972  1
  Cu  Cu97  1  -0.00220925  0.33553672  0.49570142  1
  Cu  Cu98  1  0.00251313  -0.00588841  0.49983460  1
  Cu  Cu99  1  0.16369379  0.16252236  0.24532323  1
  Cu  Cu100  1  0.83889717  0.82672823  0.25952987  1
  Cu  Cu101  1  0.49505092  0.17070191  0.74833971  1
  Cu  Cu102  1  0.66614439  0.66923021  0.00088717  1
  Cu  Cu103  1  0.49953654  0.50409954  0.74320614  1
  Cu  Cu104  1  0.66412764  0.32831430  0.00849048  1
  Cu  Cu105  1  0.65568500  0.00367609  0.00385862  1
  Cu  Cu106  1  0.34311437  0.00957449  0.49744281  1
  Cu  Cu107  1  0.33200882  0.66633116  0.00311781  1
  Cu  Cu108  1  0.49440579  0.83473998  0.74577366  1
  Cu  Cu109  1  0.00186700  0.00140078  -0.00365826  1
  Cu  Cu110  1  0.00652135  0.66297918  -0.00056474  1
  Cu  Cu111  1  0.17628326  0.82502848  0.25174280  1
  Cu  Cu112  1  0.50512713  0.83381368  0.24980833  1
  Cu  Cu113  1  0.33315454  -0.00158996  0.00005561  1
  Cu  Cu114  1  0.83768518  0.50790988  0.73829858  1
  Se  Se115  1  0.07593169  0.07806863  0.06357888  1
  Se  Se116  1  0.08282781  0.07622004  0.55733918  1
  Se  Se117  1  0.08550056  0.41326185  0.06112956  1
  Se  Se118  1  0.08508911  0.41273530  0.54986590  1
  Se  Se119  1  0.08711368  0.75171693  0.05013579  1
  Se  Se120  1  0.07358196  0.74086614  0.55659515  1
  Se  Se121  1  0.40987265  0.08374037  0.05698498  1
  Se  Se122  1  0.42064406  0.09026278  0.55733935  1
  Se  Se123  1  0.41461253  0.40906034  0.06549926  1
  Se  Se124  1  0.42435762  0.42875157  0.54552355  1
  Se  Se125  1  0.42110687  0.74790582  0.05081125  1
  Se  Se126  1  0.41547025  0.75672697  0.55170728  1
  Se  Se127  1  0.74574572  0.08606098  0.05034279  1
  Se  Se128  1  0.74425080  0.07837318  0.56391881  1
  Se  Se129  1  0.74434662  0.41204455  0.06371239  1
  Se  Se130  1  0.74724265  0.41304679  0.54689601  1
  Se  Se131  1  0.74968442  0.74169428  0.06415052  1
  Se  Se132  1  0.75250020  0.75164559  0.55363140  1
  Se  Se133  1  0.25642125  0.25377722  0.06946610  1
  Se  Se134  1  0.26001351  0.25884370  0.55845177  1
  Se  Se135  1  0.25143492  0.57712325  0.05183912  1
  Se  Se136  1  0.24565579  0.58862334  0.55089639  1
  Se  Se137  1  0.24829446  0.91226930  0.04871203  1
  Se  Se138  1  0.25661043  0.93016552  0.55521783  1
  Se  Se139  1  0.57264320  0.24973006  0.05684335  1
  Se  Se140  1  0.57998886  0.24861720  0.54415139  1
  Se  Se141  1  0.58937145  0.58464396  0.06027803  1
  Se  Se142  1  0.58316661  0.58561294  0.54971962  1
  Se  Se143  1  0.58000081  0.91013888  0.05238891  1
  Se  Se144  1  0.58111488  0.91602064  0.55571053  1
  Se  Se145  1  0.90568941  0.25739261  0.05442964  1
  Se  Se146  1  0.92470057  0.24966149  0.55780762  1
  Se  Se147  1  0.92772543  0.58752444  0.06309220  1
  Se  Se148  1  0.89347759  0.56539805  0.55297121  1
  Se  Se149  1  0.92455363  0.92285843  0.06230157  1
  Se  Se150  1  0.91785625  0.91485831  0.55336265  1
  Se  Se151  1  0.08024137  0.25549742  0.43874732  1
  Se  Se152  1  0.07520905  0.26003369  0.94882169  1
  Se  Se153  1  0.07591689  0.58383503  0.45182770  1
  Se  Se154  1  0.08765371  0.57902621  0.94564455  1
  Se  Se155  1  0.08515782  0.91978793  0.43817670  1
  Se  Se156  1  0.08102974  0.91449277  0.94406347  1
  Se  Se157  1  0.41766789  0.24575514  0.43604305  1
  Se  Se158  1  0.41762293  0.24750175  0.94992375  1
  Se  Se159  1  0.41667132  0.58486196  0.45097314  1
  Se  Se160  1  0.40752054  0.58965234  0.93514817  1
  Se  Se161  1  0.42244286  0.91719787  0.44897712  1
  Se  Se162  1  0.41598852  0.91402039  0.94615590  1
  Se  Se163  1  0.74449899  0.25992476  0.43088208  1
  Se  Se164  1  0.74890553  0.25017519  0.95112660  1
  Se  Se165  1  0.74926117  0.58100681  0.44558314  1
  Se  Se166  1  0.74518158  0.58722848  0.94125151  1
  Se  Se167  1  0.75389994  0.91875130  0.45288142  1
  Se  Se168  1  0.73842048  0.92591746  0.94108454  1
  Se  Se169  1  0.26603206  0.08436682  0.43340719  1
  Se  Se170  1  0.25140619  0.07908426  0.93896751  1
  Se  Se171  1  0.23561941  0.41907579  0.44797805  1
  Se  Se172  1  0.25400492  0.41322323  0.94853411  1
  Se  Se173  1  0.25423659  0.74234841  0.43327189  1
  Se  Se174  1  0.24849747  0.74895832  0.94754443  1
  Se  Se175  1  0.58924715  0.08666569  0.44548132  1
  Se  Se176  1  0.57254193  0.08675860  0.94988844  1
  Se  Se177  1  0.57830736  0.42360604  0.44212523  1
  Se  Se178  1  0.59181725  0.41021348  0.94249767  1
  Se  Se179  1  0.58213422  0.75346181  0.45053270  1
  Se  Se180  1  0.58159669  0.75031735  0.94800507  1
  Se  Se181  1  0.92639078  0.08037439  0.44021753  1
  Se  Se182  1  0.91569515  0.08789525  0.95023327  1
  Se  Se183  1  0.90684935  0.41230284  0.44524193  1
  Se  Se184  1  0.92641617  0.41306144  0.93923661  1
  Se  Se185  1  0.90828031  0.75901150  0.45168749  1
  Se  Se186  1  0.91729640  0.73976522  0.94232125  1
  Se  Se187  1  0.23984667  0.23953633  0.30878535  1
  Se  Se188  1  0.25485758  0.25434585  0.80487911  1
  Se  Se189  1  0.25023276  0.57105044  0.31251959  1
  Se  Se190  1  0.24356593  0.57736199  0.80732190  1
  Se  Se191  1  0.25776505  0.91456928  0.29793304  1
  Se  Se192  1  0.24988404  0.91589629  0.80152182  1
  Se  Se193  1  0.56959970  0.24573857  0.29745505  1
  Se  Se194  1  0.58080220  0.24640481  0.80831763  1
  Se  Se195  1  0.58386634  0.59137771  0.30388675  1
  Se  Se196  1  0.58432153  0.58659030  0.79559392  1
  Se  Se197  1  0.58215621  0.90949970  0.31634102  1
  Se  Se198  1  0.57496945  0.90888007  0.81183907  1
  Se  Se199  1  0.90795566  0.24544583  0.29140442  1
  Se  Se200  1  0.91327128  0.24635341  0.81420998  1
  Se  Se201  1  0.91852922  0.58551815  0.31200422  1
  Se  Se202  1  0.91995189  0.58499085  0.79778008  1
  Se  Se203  1  0.91800268  0.91435696  0.31391521  1
  Se  Se204  1  0.91288200  0.91231726  0.80555548  1
  Se  Se205  1  0.08363432  0.08494262  0.31002837  1
  Se  Se206  1  0.08314217  0.08525204  0.80376838  1
  Se  Se207  1  0.05584303  0.39890809  0.30979031  1
  Se  Se208  1  0.09198741  0.41827460  0.80973870  1
  Se  Se209  1  0.08831378  0.74687902  0.30305948  1
  Se  Se210  1  0.08136337  0.74466097  0.80385268  1
  Se  Se211  1  0.41725729  0.06567917  0.29679476  1
  Se  Se212  1  0.41571404  0.08468968  0.80244372  1
  Se  Se213  1  0.41387545  0.42149997  0.30817339  1
  Se  Se214  1  0.42432936  0.41840965  0.80093895  1
  Se  Se215  1  0.42548349  0.75328138  0.31164200  1
  Se  Se216  1  0.41764994  0.75362284  0.80974774  1
  Se  Se217  1  0.75903535  0.09438180  0.30604660  1
  Se  Se218  1  0.74993482  0.08568861  0.81317743  1
  Se  Se219  1  0.74207679  0.42021478  0.30184079  1
  Se  Se220  1  0.76074548  0.42877719  0.80385103  1
  Se  Se221  1  0.75069743  0.74723238  0.31026955  1
  Se  Se222  1  0.74533543  0.74633595  0.79840123  1
  Se  Se223  1  0.25086099  0.07703830  0.19970025  1
  Se  Se224  1  0.25354698  0.08345517  0.69867162  1
  Se  Se225  1  0.24989277  0.41871637  0.20872922  1
  Se  Se226  1  0.25848083  0.42297379  0.69634516  1
  Se  Se227  1  0.25028347  0.74819802  0.18446821  1
  Se  Se228  1  0.23995202  0.75789983  0.68601680  1
  Se  Se229  1  0.57841859  0.08385925  0.18563181  1
  Se  Se230  1  0.58003473  0.09324060  0.69028718  1
  Se  Se231  1  0.58152621  0.42154293  0.20254030  1
  Se  Se232  1  0.57650279  0.42316212  0.68015407  1
  Se  Se233  1  0.59043691  0.75041581  0.19949457  1
  Se  Se234  1  0.57873627  0.75052514  0.69584369  1
  Se  Se235  1  0.90728274  0.09009591  0.18887576  1
  Se  Se236  1  0.92393721  0.07594168  0.70525142  1
  Se  Se237  1  0.90340486  0.43421490  0.19505989  1
  Se  Se238  1  0.91415821  0.41842139  0.68464509  1
  Se  Se239  1  0.92425910  0.74707531  0.20485690  1
  Se  Se240  1  0.91743832  0.74635443  0.69378252  1
  Se  Se241  1  0.07979157  0.24913730  0.19779171  1
  Se  Se242  1  0.09618194  0.24264914  0.68781766  1
  Se  Se243  1  0.08683106  0.59317070  0.20133031  1
  Se  Se244  1  0.07509039  0.57457959  0.69416696  1
  Se  Se245  1  0.09512388  0.90405215  0.18862906  1
  Se  Se246  1  0.07945666  0.91587128  0.69784083  1
  Se  Se247  1  0.40359962  0.26187285  0.20475141  1
  Se  Se248  1  0.41898293  0.25780099  0.69314237  1
  Se  Se249  1  0.42377877  0.57613625  0.18693553  1
  Se  Se250  1  0.41901911  0.58006003  0.68120520  1
  Se  Se251  1  0.41896016  0.91009111  0.19369790  1
  Se  Se252  1  0.41158769  0.92311320  0.69914071  1
  Se  Se253  1  0.73102769  0.26076316  0.19726347  1
  Se  Se254  1  0.76146593  0.24033831  0.69587523  1
  Se  Se255  1  0.74373897  0.59428708  0.20338603  1
  Se  Se256  1  0.74454258  0.58726905  0.69218002  1
  Se  Se257  1  0.76150571  0.90819382  0.19760469  1
  Se  Se258  1  0.75709313  0.91010954  0.68759367  1
