# generated using pymatgen
data_In86Cu29Se144
_symmetry_space_group_name_H-M   'P 1'
_cell_length_a   17.60638305
_cell_length_b   17.60603630
_cell_length_c   23.46527866
_cell_angle_alpha   90.00346474
_cell_angle_beta   90.00903253
_cell_angle_gamma   89.99394212
_symmetry_Int_Tables_number   1
_chemical_formula_structural   In86Cu29Se144
_chemical_formula_sum   'In86 Cu29 Se144'
_cell_volume   7273.73453164
_cell_formula_units_Z   1
loop_
 _symmetry_equiv_pos_site_id
 _symmetry_equiv_pos_as_xyz
  1  'x, y, z'
loop_
 _atom_site_type_symbol
 _atom_site_label
 _atom_site_symmetry_multiplicity
 _atom_site_fract_x
 _atom_site_fract_y
 _atom_site_fract_z
 _atom_site_occupancy
  In  In0  1  -0.01114634  0.16559467  0.12934552  1
  In  In1  1  -0.01191757  0.17127836  0.61056255  1
  In  In2  1  0.00546345  0.49007425  0.12595659  1
  In  In3  1  -0.01310734  0.50962795  0.62149798  1
  In  In4  1  -0.00546593  0.82476210  0.12070851  1
  In  In5  1  -0.01036270  0.83798418  0.62564308  1
  In  In6  1  0.34397500  0.15809632  0.13384895  1
  In  In7  1  0.33670755  0.16288156  0.62365038  1
  In  In8  1  0.33822107  0.49939675  0.13038617  1
  In  In9  1  0.34483024  0.48676378  0.63305129  1
  In  In10  1  0.33057168  0.84478845  0.12857958  1
  In  In11  1  0.34704836  0.82395224  0.63723663  1
  In  In12  1  0.66855512  0.18204565  0.12866828  1
  In  In13  1  0.65988194  0.16898155  0.61678950  1
  In  In14  1  0.65715944  0.49960799  0.12553069  1
  In  In15  1  0.65403681  0.49134841  0.61683258  1
  In  In16  1  0.66750459  0.82215756  0.11879829  1
  In  In17  1  0.66856285  0.83151621  0.62411775  1
  In  In18  1  0.18133700  0.01080268  0.36957682  1
  In  In19  1  0.16425256  -0.01160586  0.87667321  1
  In  In20  1  0.16521192  0.32177276  0.37407240  1
  In  In21  1  0.18486291  0.33393759  0.87558544  1
  In  In22  1  0.18283874  0.65913797  0.36828603  1
  In  In23  1  0.18007703  0.65856825  0.88618036  1
  In  In24  1  0.49277772  0.00457168  0.38302526  1
  In  In25  1  0.50852641  0.01230325  0.86558536  1
  In  In26  1  0.49693910  0.33557124  0.37998092  1
  In  In27  1  0.50161335  0.33504884  0.87571106  1
  In  In28  1  0.49542869  0.67287659  0.38894274  1
  In  In29  1  0.49097493  0.65568471  0.86650906  1
  In  In30  1  0.82801596  0.00491662  0.38004188  1
  In  In31  1  0.82195183  -0.00894611  0.86692314  1
  In  In32  1  0.80962358  0.35782837  0.40975496  1
  In  In33  1  0.82583180  0.33931127  0.86473010  1
  In  In34  1  0.82523376  0.66242011  0.38412670  1
  In  In35  1  0.83750826  0.67099930  0.86878784  1
  In  In36  1  -0.01280087  0.19437064  0.39911471  1
  In  In37  1  -0.00616086  0.17381130  0.87197855  1
  In  In38  1  -0.00947368  0.48986963  0.37748990  1
  In  In39  1  -0.00193312  0.51316574  0.87516822  1
  In  In40  1  -0.01364969  0.83446845  0.37254029  1
  In  In41  1  0.00346200  0.83115910  0.88187925  1
  In  In42  1  0.33334100  0.16554924  0.37779321  1
  In  In43  1  0.34446548  0.18283400  0.86580665  1
  In  In44  1  0.33745403  0.51260230  0.36116022  1
  In  In45  1  0.34001117  0.50056133  0.87799757  1
  In  In46  1  0.33447377  0.83762814  0.37011786  1
  In  In47  1  0.32946384  0.82647490  0.87105582  1
  In  In48  1  0.64688909  0.18829379  0.39958511  1
  In  In49  1  0.66052958  0.15646022  0.86167338  1
  In  In50  1  0.66622061  0.49103606  0.39735273  1
  In  In51  1  0.65094004  0.48854583  0.86123540  1
  In  In52  1  0.66489173  0.82230772  0.39198001  1
  In  In53  1  0.67321724  0.83779408  0.86631392  1
  In  In54  1  0.18021422  -0.00078544  0.12307739  1
  In  In55  1  0.16678396  0.01280414  0.62432133  1
  In  In56  1  0.17767617  0.35162766  0.12421692  1
  In  In57  1  0.18329034  0.33336930  0.62805128  1
  In  In58  1  0.17448525  0.67054222  0.12314567  1
  In  In59  1  0.17364373  0.67012523  0.62926270  1
  In  In60  1  0.48713767  0.00062667  0.12652296  1
  In  In61  1  0.50073280  0.00019752  0.62551794  1
  In  In62  1  0.49955658  0.33113953  0.12709027  1
  In  In63  1  0.49937142  0.32976586  0.61918886  1
  In  In64  1  0.50813183  0.65066811  0.12489880  1
  In  In65  1  0.50266357  0.66685135  0.62315554  1
  In  In66  1  0.83819937  -0.00473076  0.12607243  1
  In  In67  1  0.82531069  -0.00895103  0.61984255  1
  In  In68  1  0.83157507  0.32549818  0.13546895  1
  In  In69  1  0.79544142  0.30539925  0.58330242  1
  In  In70  1  0.82068700  0.67129712  0.12480365  1
  In  In71  1  0.78028455  0.63139584  0.57812852  1
  In  In72  1  0.66517983  0.65753073  0.26152946  1
  In  In73  1  0.83462795  0.50427531  0.00145703  1
  In  In74  1  0.16655097  0.49886605  0.49290092  1
  In  In75  1  0.82849827  0.15954542  -0.00983692  1
  In  In76  1  0.00417050  0.33147030  0.25191943  1
  In  In77  1  0.66264038  -0.00142416  0.25644410  1
  In  In78  1  0.17274542  0.16215312  0.00566000  1
  In  In79  1  0.00177275  0.00025787  0.74186065  1
  In  In80  1  0.00517009  0.00475848  0.25932409  1
  In  In81  1  -0.00671457  0.33789336  0.74409757  1
  In  In82  1  -0.00308632  0.67049791  0.74992040  1
  In  In83  1  0.50133753  0.83189411  -0.00538100  1
  In  In84  1  -0.00070102  0.66564288  0.25413624  1
  In  In85  1  0.16546820  0.84214293  0.50010720  1
  Cu  Cu86  1  0.33937612  -0.00350258  0.50157087  1
  Cu  Cu87  1  0.17742326  0.82958138  0.75405219  1
  Cu  Cu88  1  0.33437379  0.33029652  0.50004215  1
  Cu  Cu89  1  0.66651310  0.00270857  -0.00889817  1
  Cu  Cu90  1  0.65960218  0.33469943  -0.00086448  1
  Cu  Cu91  1  0.49955379  0.17327617  0.74279613  1
  Cu  Cu92  1  0.16815991  0.83430141  0.24574558  1
  Cu  Cu93  1  0.00213817  0.00260398  0.49860546  1
  Cu  Cu94  1  0.17021488  0.16751308  0.74718432  1
  Cu  Cu95  1  0.50498982  0.83846657  0.74960091  1
  Cu  Cu96  1  -0.00398344  0.67332274  0.49512711  1
  Cu  Cu97  1  0.66387600  -0.00360421  0.50297473  1
  Cu  Cu98  1  0.82789476  0.82589716  0.74306973  1
  Cu  Cu99  1  0.34186696  0.34103614  0.00126374  1
  Cu  Cu100  1  0.50104863  0.16963912  0.25996233  1
  Cu  Cu101  1  -0.00117423  -0.01196444  0.00179066  1
  Cu  Cu102  1  0.81389291  0.49690910  0.73415440  1
  Cu  Cu103  1  0.33719646  0.66145693  0.50319202  1
  Cu  Cu104  1  0.00280425  0.33362915  0.00147460  1
  Cu  Cu105  1  0.00911561  0.66991934  0.00033676  1
  Cu  Cu106  1  0.49574397  0.82619115  0.25632137  1
  Cu  Cu107  1  0.82107348  0.17363681  0.26195674  1
  Cu  Cu108  1  0.17127317  0.16868058  0.25223604  1
  Cu  Cu109  1  0.33536187  0.00282626  -0.00018963  1
  Cu  Cu110  1  0.33762876  0.66518705  0.00166413  1
  Cu  Cu111  1  0.50006644  0.50060560  0.74542616  1
  Cu  Cu112  1  0.17110701  0.50140188  0.75596430  1
  Cu  Cu113  1  0.50507155  0.49174854  0.25050130  1
  Cu  Cu114  1  0.67314748  0.66466816  -0.00420649  1
  Se  Se115  1  0.07096876  0.07443328  0.06177458  1
  Se  Se116  1  0.08255184  0.08576956  0.55326159  1
  Se  Se117  1  0.08656447  0.41755015  0.05174798  1
  Se  Se118  1  0.08825515  0.42131908  0.56742707  1
  Se  Se119  1  0.08879423  0.75309911  0.05565638  1
  Se  Se120  1  0.07856695  0.74417439  0.55844564  1
  Se  Se121  1  0.41753409  0.08628002  0.05309795  1
  Se  Se122  1  0.42049308  0.08335359  0.55341535  1
  Se  Se123  1  0.42354409  0.42083707  0.05883014  1
  Se  Se124  1  0.41591946  0.41787461  0.55177933  1
  Se  Se125  1  0.41819663  0.74564336  0.06301520  1
  Se  Se126  1  0.41390594  0.75020519  0.55614784  1
  Se  Se127  1  0.74195279  0.07766107  0.06018223  1
  Se  Se128  1  0.74804989  0.08137458  0.55338024  1
  Se  Se129  1  0.74949572  0.40622996  0.05866862  1
  Se  Se130  1  0.76106143  0.43918976  0.54760948  1
  Se  Se131  1  0.75419429  0.75137200  0.04641155  1
  Se  Se132  1  0.77451717  0.77482071  0.55895602  1
  Se  Se133  1  0.26276762  0.25593144  0.06048791  1
  Se  Se134  1  0.25239793  0.24774508  0.55498771  1
  Se  Se135  1  0.25639736  0.58224482  0.05849321  1
  Se  Se136  1  0.25446415  0.58227107  0.56105101  1
  Se  Se137  1  0.25220415  0.91631230  0.04988214  1
  Se  Se138  1  0.25931549  0.91931684  0.56470906  1
  Se  Se139  1  0.58288866  0.24863946  0.05501123  1
  Se  Se140  1  0.59269035  0.26641625  0.54547042  1
  Se  Se141  1  0.58966681  0.58119275  0.04878801  1
  Se  Se142  1  0.58044197  0.58677994  0.55092485  1
  Se  Se143  1  0.58800254  0.92536328  0.05787431  1
  Se  Se144  1  0.58057289  0.91373489  0.55681091  1
  Se  Se145  1  0.91660788  0.25438128  0.05468838  1
  Se  Se146  1  0.93281705  0.27732547  0.54774118  1
  Se  Se147  1  0.92621376  0.59288244  0.06218691  1
  Se  Se148  1  0.91555487  0.58284914  0.54320924  1
  Se  Se149  1  0.91118508  0.91124974  0.05461363  1
  Se  Se150  1  0.91895144  0.91830070  0.55098377  1
  Se  Se151  1  0.09819095  0.25196443  0.45535868  1
  Se  Se152  1  0.08140485  0.25251921  0.94227407  1
  Se  Se153  1  0.07652108  0.59569338  0.43415292  1
  Se  Se154  1  0.08487846  0.57979799  0.94807682  1
  Se  Se155  1  0.07795446  0.92645371  0.43375164  1
  Se  Se156  1  0.08828261  0.91065869  0.95070963  1
  Se  Se157  1  0.41706741  0.24548266  0.44699973  1
  Se  Se158  1  0.41783817  0.25227783  0.94586045  1
  Se  Se159  1  0.41086740  0.57541173  0.44507695  1
  Se  Se160  1  0.42262697  0.58379715  0.94807592  1
  Se  Se161  1  0.41465959  0.90881219  0.44598025  1
  Se  Se162  1  0.41532307  0.92614215  0.93623498  1
  Se  Se163  1  0.76957099  0.22944293  0.45247105  1
  Se  Se164  1  0.74214528  0.25846127  0.93779941  1
  Se  Se165  1  0.73158420  0.60035528  0.45519049  1
  Se  Se166  1  0.74571250  0.58128697  0.93251733  1
  Se  Se167  1  0.74948400  0.91799404  0.44784456  1
  Se  Se168  1  0.74984062  0.91469736  0.94402100  1
  Se  Se169  1  0.25315018  0.08002904  0.44952529  1
  Se  Se170  1  0.25700452  0.08187333  0.93626253  1
  Se  Se171  1  0.26048774  0.41211698  0.43563711  1
  Se  Se172  1  0.25352022  0.41935812  0.94788290  1
  Se  Se173  1  0.25315705  0.74304247  0.44604933  1
  Se  Se174  1  0.25626615  0.75266456  0.95048220  1
  Se  Se175  1  0.57630245  0.08113127  0.45407994  1
  Se  Se176  1  0.58390388  0.08954685  0.94232709  1
  Se  Se177  1  0.59578132  0.38647939  0.45619274  1
  Se  Se178  1  0.58217086  0.42207280  0.94526015  1
  Se  Se179  1  0.58243681  0.74360920  0.45969528  1
  Se  Se180  1  0.59102414  0.74247087  0.93442693  1
  Se  Se181  1  0.91481411  0.08390899  0.44803659  1
  Se  Se182  1  0.92624690  0.06892296  0.93710494  1
  Se  Se183  1  0.94149413  0.39594099  0.45156934  1
  Se  Se184  1  0.92160095  0.40896162  0.93883433  1
  Se  Se185  1  0.91093902  0.75442491  0.44403477  1
  Se  Se186  1  0.91887152  0.74277753  0.94393069  1
  Se  Se187  1  0.25585229  0.25042490  0.30500120  1
  Se  Se188  1  0.25136613  0.25519122  0.79814587  1
  Se  Se189  1  0.24717946  0.58282471  0.29084983  1
  Se  Se190  1  0.25425207  0.58427385  0.80937070  1
  Se  Se191  1  0.24930075  0.91811235  0.30129945  1
  Se  Se192  1  0.25279869  0.92069033  0.80518880  1
  Se  Se193  1  0.58440259  0.25291025  0.31175481  1
  Se  Se194  1  0.58060558  0.25252692  0.80275662  1
  Se  Se195  1  0.57376154  0.57079730  0.32047967  1
  Se  Se196  1  0.58392663  0.58785722  0.79644811  1
  Se  Se197  1  0.57707841  0.90517376  0.31682264  1
  Se  Se198  1  0.58925546  0.92266790  0.80102523  1
  Se  Se199  1  0.90937233  0.25297917  0.31447093  1
  Se  Se200  1  0.90334146  0.24044353  0.80027218  1
  Se  Se201  1  0.90522031  0.57661171  0.31071725  1
  Se  Se202  1  0.90151147  0.56773996  0.79747752  1
  Se  Se203  1  0.89996650  0.91568397  0.30236923  1
  Se  Se204  1  0.91756670  0.90163061  0.80234222  1
  Se  Se205  1  0.08345003  0.10451269  0.31724880  1
  Se  Se206  1  0.08883335  0.09137848  0.80844126  1
  Se  Se207  1  0.09228575  0.42559341  0.30926835  1
  Se  Se208  1  0.08521152  0.42132323  0.81172506  1
  Se  Se209  1  0.09132314  0.76091818  0.31153293  1
  Se  Se210  1  0.09442947  0.75039040  0.81187555  1
  Se  Se211  1  0.41642076  0.08166500  0.30761561  1
  Se  Se212  1  0.41790743  0.08996283  0.79952514  1
  Se  Se213  1  0.41870678  0.41346717  0.30540887  1
  Se  Se214  1  0.42001502  0.41950307  0.80640937  1
  Se  Se215  1  0.41536078  0.74182061  0.31015901  1
  Se  Se216  1  0.42060440  0.75453283  0.80317896  1
  Se  Se217  1  0.73787622  0.09658172  0.31952974  1
  Se  Se218  1  0.76159957  0.08794043  0.80136605  1
  Se  Se219  1  0.75107558  0.42241447  0.32277196  1
  Se  Se220  1  0.74089381  0.41169379  0.79424085  1
  Se  Se221  1  0.75232288  0.75725992  0.31167053  1
  Se  Se222  1  0.74848872  0.74357294  0.80003699  1
  Se  Se223  1  0.24917012  0.08098986  0.19812360  1
  Se  Se224  1  0.25319720  0.08188969  0.69641326  1
  Se  Se225  1  0.25665982  0.41659406  0.20016852  1
  Se  Se226  1  0.25284965  0.41621257  0.70318676  1
  Se  Se227  1  0.25337693  0.75335630  0.19422862  1
  Se  Se228  1  0.25647326  0.74240447  0.70155704  1
  Se  Se229  1  0.57745150  0.09018831  0.19405711  1
  Se  Se230  1  0.58338923  0.08788448  0.69137583  1
  Se  Se231  1  0.58852893  0.41077931  0.19632256  1
  Se  Se232  1  0.57855916  0.41263461  0.69199259  1
  Se  Se233  1  0.57974289  0.75202788  0.19564623  1
  Se  Se234  1  0.58252946  0.75235009  0.69354242  1
  Se  Se235  1  0.89983528  0.09245579  0.20255859  1
  Se  Se236  1  0.91053369  0.08907262  0.68519438  1
  Se  Se237  1  0.90838175  0.42559286  0.19635439  1
  Se  Se238  1  0.90177095  0.41810888  0.68149839  1
  Se  Se239  1  0.90563215  0.75556368  0.19597554  1
  Se  Se240  1  0.90510422  0.74394223  0.68378224  1
  Se  Se241  1  0.09233040  0.24245939  0.18605646  1
  Se  Se242  1  0.08504533  0.24302444  0.68796406  1
  Se  Se243  1  0.08754972  0.57992941  0.19153095  1
  Se  Se244  1  0.08959625  0.57472302  0.69400353  1
  Se  Se245  1  0.08391035  0.91429966  0.18914196  1
  Se  Se246  1  0.09700464  0.90343761  0.69018590  1
  Se  Se247  1  0.41930204  0.24914744  0.19981167  1
  Se  Se248  1  0.41343582  0.25358749  0.69040660  1
  Se  Se249  1  0.42515016  0.58191307  0.19920753  1
  Se  Se250  1  0.41737802  0.58671075  0.69436725  1
  Se  Se251  1  0.42007910  0.91503609  0.20041692  1
  Se  Se252  1  0.41832267  0.92245139  0.69985901  1
  Se  Se253  1  0.74235666  0.25716069  0.20619794  1
  Se  Se254  1  0.74852215  0.25565580  0.67864700  1
  Se  Se255  1  0.75475667  0.57398422  0.19396381  1
  Se  Se256  1  0.73870138  0.58579636  0.67997291  1
  Se  Se257  1  0.74803158  0.90985215  0.19065107  1
  Se  Se258  1  0.74787939  0.91787436  0.69638824  1
