# generated using pymatgen
data_In86Cu29Se144
_symmetry_space_group_name_H-M   'P 1'
_cell_length_a   17.59332350
_cell_length_b   17.59268035
_cell_length_c   23.44224156
_cell_angle_alpha   89.98514771
_cell_angle_beta   90.00495595
_cell_angle_gamma   90.01023455
_symmetry_Int_Tables_number   1
_chemical_formula_structural   In86Cu29Se144
_chemical_formula_sum   'In86 Cu29 Se144'
_cell_volume   7255.69492648
_cell_formula_units_Z   1
loop_
 _symmetry_equiv_pos_site_id
 _symmetry_equiv_pos_as_xyz
  1  'x, y, z'
loop_
 _atom_site_type_symbol
 _atom_site_label
 _atom_site_symmetry_multiplicity
 _atom_site_fract_x
 _atom_site_fract_y
 _atom_site_fract_z
 _atom_site_occupancy
  In  In0  1  -0.00124355  0.16702655  0.13450271  1
  In  In1  1  -0.00363900  0.16216603  0.61977963  1
  In  In2  1  -0.00823380  0.49162757  0.11410569  1
  In  In3  1  0.00370592  0.48717870  0.64036390  1
  In  In4  1  -0.00664979  0.83829461  0.12623101  1
  In  In5  1  -0.01215664  0.84980004  0.62931518  1
  In  In6  1  0.33599054  0.17178982  0.12759384  1
  In  In7  1  0.32981410  0.16569147  0.62289881  1
  In  In8  1  0.34197308  0.50948189  0.12307107  1
  In  In9  1  0.32721842  0.51237412  0.63377515  1
  In  In10  1  0.31671133  0.82691416  0.12553651  1
  In  In11  1  0.34903063  0.82035852  0.62374185  1
  In  In12  1  0.68313244  0.17522579  0.12326550  1
  In  In13  1  0.67036477  0.16836659  0.63230551  1
  In  In14  1  0.67255918  0.49233014  0.12054271  1
  In  In15  1  0.67719763  0.49257101  0.64836296  1
  In  In16  1  0.66749000  0.82794717  0.11990563  1
  In  In17  1  0.66899244  0.83469461  0.62584578  1
  In  In18  1  0.15947865  0.01163130  0.38583832  1
  In  In19  1  0.16498058  -0.00336267  0.85891682  1
  In  In20  1  0.15912756  0.33885510  0.38459645  1
  In  In21  1  0.17125748  0.34633487  0.86626141  1
  In  In22  1  0.16859796  0.65237970  0.38244067  1
  In  In23  1  0.15594397  0.65547829  0.86552043  1
  In  In24  1  0.50173019  0.00140042  0.39152232  1
  In  In25  1  0.50773574  0.00989937  0.85694121  1
  In  In26  1  0.51007107  0.32664203  0.38479001  1
  In  In27  1  0.51738921  0.36427205  0.84454845  1
  In  In28  1  0.49494261  0.67946547  0.38139681  1
  In  In29  1  0.51073068  0.66250109  0.85949779  1
  In  In30  1  0.84463229  -0.00274318  0.39144857  1
  In  In31  1  0.82146612  -0.00509590  0.85755939  1
  In  In32  1  0.82703482  0.32539304  0.37294738  1
  In  In33  1  0.84446617  0.33996304  0.85841975  1
  In  In34  1  0.83682299  0.67132356  0.38309988  1
  In  In35  1  0.83658022  0.66165051  0.86972001  1
  In  In36  1  -0.00258974  0.16932317  0.38125170  1
  In  In37  1  -0.01089793  0.16750556  0.85577457  1
  In  In38  1  0.01540923  0.49688896  0.38084258  1
  In  In39  1  -0.00287542  0.50133280  0.86889899  1
  In  In40  1  -0.01724545  0.83449810  0.38359148  1
  In  In41  1  -0.01272453  0.82011012  0.86228141  1
  In  In42  1  0.33871236  0.16514485  0.39031767  1
  In  In43  1  0.34382653  0.17703588  0.85625598  1
  In  In44  1  0.32313170  0.49888704  0.37766241  1
  In  In45  1  0.32885275  0.49697242  0.86413127  1
  In  In46  1  0.33868508  0.83325923  0.38110217  1
  In  In47  1  0.33238324  0.83119521  0.86019418  1
  In  In48  1  0.66665744  0.17401608  0.38740012  1
  In  In49  1  0.68883246  0.17750248  0.84808693  1
  In  In50  1  0.67810783  0.49225136  0.37453687  1
  In  In51  1  0.68765809  0.51053586  0.84789263  1
  In  In52  1  0.66460396  0.83703035  0.38709794  1
  In  In53  1  0.67243771  0.83199200  0.86872959  1
  In  In54  1  0.15544171  -0.01629632  0.12862541  1
  In  In55  1  0.14769357  0.01695752  0.62564406  1
  In  In56  1  0.15622540  0.32714828  0.12059186  1
  In  In57  1  0.16523358  0.33210996  0.61989458  1
  In  In58  1  0.17718882  0.66475377  0.12462708  1
  In  In59  1  0.17834599  0.65419636  0.62608061  1
  In  In60  1  0.49854008  0.00260820  0.12426711  1
  In  In61  1  0.50477675  -0.00204038  0.62401018  1
  In  In62  1  0.51060143  0.34894935  0.12337471  1
  In  In63  1  0.51015383  0.32684270  0.63845257  1
  In  In64  1  0.49302003  0.65717421  0.12485760  1
  In  In65  1  0.49282811  0.67271547  0.63338290  1
  In  In66  1  0.84207734  0.00408341  0.12349962  1
  In  In67  1  0.83817247  0.00081075  0.62422067  1
  In  In68  1  0.83432411  0.33860691  0.13094068  1
  In  In69  1  0.86236647  0.30272068  0.67110301  1
  In  In70  1  0.83138708  0.66585334  0.10853207  1
  In  In71  1  0.82672490  0.67101781  0.64137905  1
  In  In72  1  0.83453204  0.49568831  0.51717057  1
  In  In73  1  0.16817233  0.83357607  0.50661616  1
  In  In74  1  0.16203294  0.16905982  -0.00294815  1
  In  In75  1  0.51688241  0.50556376  -0.01365351  1
  In  In76  1  0.83830186  0.17065699  -0.01306530  1
  In  In77  1  0.66849220  0.00288598  0.26210279  1
  In  In78  1  0.15713261  0.82404953  -0.00299891  1
  In  In79  1  0.50296053  0.83203377  -0.01968469  1
  In  In80  1  0.49916035  0.50502587  0.51965573  1
  In  In81  1  0.32929024  0.33469366  0.25725536  1
  In  In82  1  0.66369238  0.66179712  0.24167543  1
  In  In83  1  0.32538692  0.00479738  0.26678067  1
  In  In84  1  0.50587678  0.17343576  -0.00823987  1
  In  In85  1  -0.00118336  0.66293497  0.25023831  1
  Cu  Cu86  1  -0.00757371  0.33416579  0.50982138  1
  Cu  Cu87  1  -0.00433970  0.65961415  -0.01112049  1
  Cu  Cu88  1  0.50212146  0.50389172  0.25101840  1
  Cu  Cu89  1  0.00025907  0.33650563  -0.00758443  1
  Cu  Cu90  1  0.66581058  0.33177508  0.51390046  1
  Cu  Cu91  1  0.83479201  0.83434562  0.74841595  1
  Cu  Cu92  1  0.16790673  0.49800807  0.25349899  1
  Cu  Cu93  1  0.84251134  0.16973186  0.25350383  1
  Cu  Cu94  1  0.66945066  0.00272503  0.50931625  1
  Cu  Cu95  1  0.16230350  0.16871447  0.74252832  1
  Cu  Cu96  1  0.48213752  0.83372128  0.25397118  1
  Cu  Cu97  1  0.49040674  0.15211922  0.74157724  1
  Cu  Cu98  1  0.33395029  0.34332467  -0.01395056  1
  Cu  Cu99  1  0.16297897  0.49755110  0.74783857  1
  Cu  Cu100  1  0.66943926  -0.00325594  -0.01404329  1
  Cu  Cu101  1  0.50809629  0.83552299  0.74639623  1
  Cu  Cu102  1  0.33160754  0.66444509  -0.00116186  1
  Cu  Cu103  1  -0.00089201  0.66821077  0.50570740  1
  Cu  Cu104  1  0.32661949  0.00652626  -0.01239686  1
  Cu  Cu105  1  -0.00480394  -0.00895875  -0.00291123  1
  Cu  Cu106  1  0.51397040  0.17653192  0.25610260  1
  Cu  Cu107  1  0.15550730  0.82598908  0.25172100  1
  Cu  Cu108  1  0.82926466  0.83417989  0.25667496  1
  Cu  Cu109  1  0.84264966  0.48973177  0.24924695  1
  Cu  Cu110  1  0.66982530  0.67040892  0.50974925  1
  Cu  Cu111  1  0.33314247  0.33145206  0.50385607  1
  Cu  Cu112  1  0.33720651  -0.00276156  0.50868018  1
  Cu  Cu113  1  0.16045094  0.16195687  0.25644346  1
  Cu  Cu114  1  0.17213276  0.83486205  0.73773935  1
  Se  Se115  1  0.07433063  0.07179604  0.05767247  1
  Se  Se116  1  0.07877176  0.08859577  0.54570105  1
  Se  Se117  1  0.08606088  0.41417839  0.04933234  1
  Se  Se118  1  0.07766022  0.42143352  0.55714273  1
  Se  Se119  1  0.06854144  0.73510115  0.06108409  1
  Se  Se120  1  0.07830098  0.74672611  0.56846518  1
  Se  Se121  1  0.40727094  0.08012529  0.05199124  1
  Se  Se122  1  0.42086626  0.08469624  0.55722705  1
  Se  Se123  1  0.41759230  0.41729116  0.04979825  1
  Se  Se124  1  0.41022150  0.40591309  0.56950122  1
  Se  Se125  1  0.41129058  0.75129234  0.05495999  1
  Se  Se126  1  0.42356621  0.73952952  0.55062007  1
  Se  Se127  1  0.74659183  0.07688432  0.05030598  1
  Se  Se128  1  0.75146117  0.08916766  0.55976741  1
  Se  Se129  1  0.75399694  0.40771446  0.05594268  1
  Se  Se130  1  0.74846852  0.40503525  0.57528018  1
  Se  Se131  1  0.75204471  0.75874606  0.04957077  1
  Se  Se132  1  0.75822690  0.74897041  0.56152336  1
  Se  Se133  1  0.26346690  0.26003567  0.05182047  1
  Se  Se134  1  0.24633761  0.24572790  0.55145876  1
  Se  Se135  1  0.25102935  0.58027056  0.05268988  1
  Se  Se136  1  0.25435753  0.57749805  0.55125209  1
  Se  Se137  1  0.25201051  0.92458617  0.05079382  1
  Se  Se138  1  0.25381257  0.92243806  0.56944880  1
  Se  Se139  1  0.59533144  0.26044443  0.05558966  1
  Se  Se140  1  0.58049528  0.24623245  0.56152130  1
  Se  Se141  1  0.59448654  0.59508393  0.05813137  1
  Se  Se142  1  0.60141747  0.58622214  0.57323083  1
  Se  Se143  1  0.58410848  0.92565643  0.05008747  1
  Se  Se144  1  0.58455265  0.91256565  0.55370854  1
  Se  Se145  1  0.92771644  0.25098636  0.05595957  1
  Se  Se146  1  0.90589826  0.26251757  0.56918394  1
  Se  Se147  1  0.91354481  0.57724564  0.04599845  1
  Se  Se148  1  0.92337813  0.59046100  0.57131072  1
  Se  Se149  1  0.91092012  0.91266403  0.05295566  1
  Se  Se150  1  0.91331588  0.91816452  0.55090420  1
  Se  Se151  1  0.07776790  0.25506125  0.45193630  1
  Se  Se152  1  0.07318828  0.25131558  0.93165886  1
  Se  Se153  1  0.08181577  0.58271359  0.45529739  1
  Se  Se154  1  0.08478686  0.57777292  0.94266463  1
  Se  Se155  1  0.07287259  0.92063073  0.44864805  1
  Se  Se156  1  0.07712156  0.91809240  0.93453359  1
  Se  Se157  1  0.42304191  0.25166352  0.45366448  1
  Se  Se158  1  0.41755875  0.26216954  0.93188161  1
  Se  Se159  1  0.41629377  0.58061023  0.44369675  1
  Se  Se160  1  0.41300052  0.59160288  0.93416522  1
  Se  Se161  1  0.41701665  0.91291737  0.45301792  1
  Se  Se162  1  0.40965927  0.92864330  0.92985917  1
  Se  Se163  1  0.75121537  0.25811804  0.45370384  1
  Se  Se164  1  0.74608958  0.25904693  0.93197359  1
  Se  Se165  1  0.74520897  0.58631440  0.44875222  1
  Se  Se166  1  0.74914833  0.57598257  0.93336118  1
  Se  Se167  1  0.74943596  0.91763863  0.45257119  1
  Se  Se168  1  0.75608280  0.91482598  0.93750787  1
  Se  Se169  1  0.25390266  0.07943822  0.45348481  1
  Se  Se170  1  0.24961231  0.08774200  0.92918832  1
  Se  Se171  1  0.25139542  0.41505393  0.45005357  1
  Se  Se172  1  0.24508433  0.42662359  0.94133387  1
  Se  Se173  1  0.25618524  0.74103845  0.44702567  1
  Se  Se174  1  0.25501141  0.74448699  0.93631848  1
  Se  Se175  1  0.58672592  0.08639265  0.45429269  1
  Se  Se176  1  0.59608936  0.08548449  0.92992627  1
  Se  Se177  1  0.59316349  0.41943190  0.45321756  1
  Se  Se178  1  0.59922816  0.41090669  0.93056729  1
  Se  Se179  1  0.58538613  0.74715327  0.45210779  1
  Se  Se180  1  0.59628512  0.73293218  0.93724126  1
  Se  Se181  1  0.90584641  0.10154001  0.45171038  1
  Se  Se182  1  0.92389030  0.07225976  0.93195189  1
  Se  Se183  1  0.91770455  0.41502274  0.44316357  1
  Se  Se184  1  0.91434779  0.41489800  0.93768515  1
  Se  Se185  1  0.91111296  0.75004444  0.45714192  1
  Se  Se186  1  0.91474942  0.74967083  0.94233448  1
  Se  Se187  1  0.24588671  0.23781672  0.31642682  1
  Se  Se188  1  0.24183206  0.25110879  0.79929756  1
  Se  Se189  1  0.25015498  0.58391168  0.30446747  1
  Se  Se190  1  0.24913516  0.58506742  0.79751284  1
  Se  Se191  1  0.23283093  0.90635177  0.31623770  1
  Se  Se192  1  0.25412532  0.91845941  0.79322511  1
  Se  Se193  1  0.59542638  0.25775704  0.31029196  1
  Se  Se194  1  0.55788112  0.22739399  0.81299012  1
  Se  Se195  1  0.58117300  0.58101580  0.31477873  1
  Se  Se196  1  0.56615178  0.55679756  0.79500084  1
  Se  Se197  1  0.56865910  0.90867545  0.31242593  1
  Se  Se198  1  0.59258471  0.91763643  0.79978522  1
  Se  Se199  1  0.92338873  0.25522785  0.30681641  1
  Se  Se200  1  0.91424600  0.25210110  0.78593773  1
  Se  Se201  1  0.90956361  0.57427351  0.31423519  1
  Se  Se202  1  0.93995758  0.60463897  0.80260696  1
  Se  Se203  1  0.91081704  0.91780438  0.30966685  1
  Se  Se204  1  0.92192865  0.92060014  0.79764486  1
  Se  Se205  1  0.07752811  0.08104135  0.31054328  1
  Se  Se206  1  0.08072502  0.08365564  0.79587525  1
  Se  Se207  1  0.08507427  0.41421306  0.30552189  1
  Se  Se208  1  0.07590102  0.41387057  0.79850057  1
  Se  Se209  1  0.08146302  0.75001955  0.31836104  1
  Se  Se210  1  0.09396058  0.75848557  0.80125787  1
  Se  Se211  1  0.43179690  0.09422121  0.31338781  1
  Se  Se212  1  0.40217130  0.06966624  0.79393325  1
  Se  Se213  1  0.42778625  0.42098693  0.31500693  1
  Se  Se214  1  0.38752361  0.39168092  0.80076256  1
  Se  Se215  1  0.40635713  0.74551642  0.30661718  1
  Se  Se216  1  0.42400984  0.74995054  0.79848385  1
  Se  Se217  1  0.76050413  0.09337585  0.31663912  1
  Se  Se218  1  0.76125559  0.08666180  0.78333877  1
  Se  Se219  1  0.75188365  0.41292233  0.30095640  1
  Se  Se220  1  0.72797383  0.38478203  0.79750489  1
  Se  Se221  1  0.74682465  0.75154112  0.31114912  1
  Se  Se222  1  0.75289898  0.74777680  0.80102728  1
  Se  Se223  1  0.24195353  0.08712291  0.19146924  1
  Se  Se224  1  0.24654721  0.08330552  0.69239932  1
  Se  Se225  1  0.24769071  0.42074540  0.18839296  1
  Se  Se226  1  0.24446719  0.41600790  0.69188319  1
  Se  Se227  1  0.24533185  0.74781531  0.20139745  1
  Se  Se228  1  0.25630932  0.74690036  0.69138200  1
  Se  Se229  1  0.58224674  0.09032733  0.19175770  1
  Se  Se230  1  0.58690033  0.07699491  0.69603631  1
  Se  Se231  1  0.58784139  0.42439397  0.19755173  1
  Se  Se232  1  0.55931957  0.43741454  0.70237137  1
  Se  Se233  1  0.56803143  0.76141209  0.19182889  1
  Se  Se234  1  0.59009502  0.74771972  0.69626039  1
  Se  Se235  1  0.91742118  0.07889703  0.19992202  1
  Se  Se236  1  0.91083001  0.09047191  0.69417920  1
  Se  Se237  1  0.93021209  0.41226032  0.19592195  1
  Se  Se238  1  0.89393219  0.44017617  0.70401429  1
  Se  Se239  1  0.90195081  0.75069418  0.19373335  1
  Se  Se240  1  0.92403141  0.75342773  0.69917068  1
  Se  Se241  1  0.08778402  0.24916785  0.19847609  1
  Se  Se242  1  0.07959778  0.25080588  0.68785533  1
  Se  Se243  1  0.08840062  0.57505221  0.18957737  1
  Se  Se244  1  0.08496941  0.58732543  0.69668453  1
  Se  Se245  1  0.07302783  0.91217733  0.20222080  1
  Se  Se246  1  0.08236002  0.92224203  0.69609557  1
  Se  Se247  1  0.42817798  0.25043335  0.19484064  1
  Se  Se248  1  0.41166167  0.24536264  0.69557799  1
  Se  Se249  1  0.41491756  0.58571142  0.20131075  1
  Se  Se250  1  0.42094288  0.58102096  0.70122673  1
  Se  Se251  1  0.40894850  0.91964167  0.19279253  1
  Se  Se252  1  0.42074261  0.91299953  0.69218201  1
  Se  Se253  1  0.75557603  0.24992710  0.19990074  1
  Se  Se254  1  0.72157421  0.27442346  0.70198021  1
  Se  Se255  1  0.76603112  0.57550601  0.19054071  1
  Se  Se256  1  0.75985565  0.57939814  0.71209958  1
  Se  Se257  1  0.75030795  0.91303327  0.19355815  1
  Se  Se258  1  0.75251998  0.91802005  0.69403715  1
