# generated using pymatgen
data_In86Cu29Se144
_symmetry_space_group_name_H-M   'P 1'
_cell_length_a   17.58710053
_cell_length_b   17.58721894
_cell_length_c   23.44880076
_cell_angle_alpha   89.98083307
_cell_angle_beta   90.00044506
_cell_angle_gamma   89.99356420
_symmetry_Int_Tables_number   1
_chemical_formula_structural   In86Cu29Se144
_chemical_formula_sum   'In86 Cu29 Se144'
_cell_volume   7252.90561227
_cell_formula_units_Z   1
loop_
 _symmetry_equiv_pos_site_id
 _symmetry_equiv_pos_as_xyz
  1  'x, y, z'
loop_
 _atom_site_type_symbol
 _atom_site_label
 _atom_site_symmetry_multiplicity
 _atom_site_fract_x
 _atom_site_fract_y
 _atom_site_fract_z
 _atom_site_occupancy
  In  In0  1  0.00012179  0.16506390  0.13743951  1
  In  In1  1  -0.00936783  0.16767912  0.62418745  1
  In  In2  1  0.01155540  0.49190337  0.13097754  1
  In  In3  1  0.00019131  0.49204302  0.62208348  1
  In  In4  1  -0.00046728  0.83304213  0.12654418  1
  In  In5  1  0.01067823  0.83927991  0.61898877  1
  In  In6  1  0.34035621  0.16296411  0.14153399  1
  In  In7  1  0.34891843  0.16936806  0.62075092  1
  In  In8  1  0.32316570  0.50937439  0.12986320  1
  In  In9  1  0.31772769  0.51056823  0.63845389  1
  In  In10  1  0.32842349  0.83257920  0.12330326  1
  In  In11  1  0.31635951  0.83141203  0.62196286  1
  In  In12  1  0.67084370  0.16731299  0.13217025  1
  In  In13  1  0.65191342  0.15096534  0.60525534  1
  In  In14  1  0.66325757  0.50421454  0.13833726  1
  In  In15  1  0.67203363  0.49939293  0.62095047  1
  In  In16  1  0.65990087  0.82278067  0.11254526  1
  In  In17  1  0.68354314  0.83161517  0.62094245  1
  In  In18  1  0.15615703  -0.00915707  0.36631307  1
  In  In19  1  0.15719506  0.00209004  0.87651839  1
  In  In20  1  0.17539636  0.34791160  0.37162713  1
  In  In21  1  0.17041902  0.34123681  0.86279052  1
  In  In22  1  0.16256863  0.66753107  0.37638317  1
  In  In23  1  0.17718461  0.65847162  0.88452200  1
  In  In24  1  0.50047101  0.03064980  0.37167766  1
  In  In25  1  0.49819994  -0.01863875  0.87251155  1
  In  In26  1  0.50073334  0.32555761  0.37036250  1
  In  In27  1  0.49319556  0.34670422  0.87877615  1
  In  In28  1  0.49479254  0.66097632  0.35979357  1
  In  In29  1  0.49236608  0.68454847  0.88071049  1
  In  In30  1  0.83031106  -0.01154014  0.38668010  1
  In  In31  1  0.82962676  -0.00146308  0.86691505  1
  In  In32  1  0.82629007  0.32398587  0.37226677  1
  In  In33  1  0.84074937  0.32195314  0.87406068  1
  In  In34  1  0.84869701  0.68408567  0.36430338  1
  In  In35  1  0.84276381  0.67117364  0.88073767  1
  In  In36  1  -0.01263461  0.15434716  0.37063995  1
  In  In37  1  0.00245573  0.16404062  0.86445980  1
  In  In38  1  0.01287437  0.51378471  0.36974500  1
  In  In39  1  0.01987494  0.50377720  0.87100255  1
  In  In40  1  -0.00273370  0.83429691  0.37702354  1
  In  In41  1  -0.00631241  0.83979219  0.88111062  1
  In  In42  1  0.34453127  0.17517511  0.36174315  1
  In  In43  1  0.32142098  0.16517775  0.87372402  1
  In  In44  1  0.32282724  0.49776467  0.37203727  1
  In  In45  1  0.31617167  0.49393087  0.86757342  1
  In  In46  1  0.32358294  0.82316449  0.36515224  1
  In  In47  1  0.34238787  0.82644747  0.88415061  1
  In  In48  1  0.65381721  0.17737637  0.40151534  1
  In  In49  1  0.68165331  0.16483815  0.87373261  1
  In  In50  1  0.66592514  0.49872222  0.36512187  1
  In  In51  1  0.67695294  0.50266875  0.87574892  1
  In  In52  1  0.68069453  0.83964199  0.37464089  1
  In  In53  1  0.65574653  0.84100315  0.88184623  1
  In  In54  1  0.17615551  -0.01635240  0.13471631  1
  In  In55  1  0.16614441  -0.01675871  0.62241676  1
  In  In56  1  0.16578266  0.33669621  0.13266624  1
  In  In57  1  0.15977056  0.34099607  0.62902533  1
  In  In58  1  0.16641134  0.66770741  0.12463122  1
  In  In59  1  0.16427842  0.66920883  0.62200952  1
  In  In60  1  0.49960603  -0.01246293  0.12467941  1
  In  In61  1  0.49443603  0.01381944  0.62326687  1
  In  In62  1  0.48837602  0.34138132  0.14253411  1
  In  In63  1  0.49750005  0.32022534  0.61945753  1
  In  In64  1  0.49663817  0.67342594  0.13251263  1
  In  In65  1  0.49486219  0.65421468  0.62437038  1
  In  In66  1  0.84356155  -0.00444379  0.12897408  1
  In  In67  1  0.83150057  0.00230538  0.62351606  1
  In  In68  1  0.83679557  0.33137711  0.13796926  1
  In  In69  1  0.84060306  0.32967563  0.61674689  1
  In  In70  1  0.82621135  0.67784668  0.13357213  1
  In  In71  1  0.83408111  0.66648790  0.61682882  1
  In  In72  1  0.50295162  0.84045671  0.49119168  1
  In  In73  1  0.66478791  0.00369354  0.25528405  1
  In  In74  1  0.49214616  0.51111731  0.01434333  1
  In  In75  1  0.83737360  0.16420674  0.00787862  1
  In  In76  1  0.83960830  0.51087026  -0.00090292  1
  In  In77  1  0.16675686  0.15862907  0.00044345  1
  In  In78  1  0.66152712  0.32794925  0.73685314  1
  In  In79  1  0.16784734  0.16563522  0.49151410  1
  In  In80  1  0.65805117  0.67380902  0.75965308  1
  In  In81  1  0.33039956  0.00129798  0.75090616  1
  In  In82  1  0.50261215  0.16101726  0.01253164  1
  In  In83  1  0.49450553  0.49249589  0.48971750  1
  In  In84  1  0.83795134  0.49838802  0.49965786  1
  In  In85  1  0.00373745  0.66490323  0.74730764  1
  Cu  Cu86  1  0.33523488  0.33358610  0.49450636  1
  Cu  Cu87  1  0.83496447  0.83754219  0.25237118  1
  Cu  Cu88  1  0.66603687  0.34499488  0.01028076  1
  Cu  Cu89  1  0.16356086  0.82875907  0.74903941  1
  Cu  Cu90  1  0.50686619  0.16958936  0.74606275  1
  Cu  Cu91  1  0.66504456  -0.00734133  -0.00593581  1
  Cu  Cu92  1  0.16238785  0.17147415  0.25626483  1
  Cu  Cu93  1  0.32408892  0.32769072  -0.00309767  1
  Cu  Cu94  1  0.32427627  0.67450229  0.50013109  1
  Cu  Cu95  1  0.00078863  -0.00630300  0.00270930  1
  Cu  Cu96  1  0.83412873  0.49525324  0.74263564  1
  Cu  Cu97  1  0.82823745  0.16569764  0.25739985  1
  Cu  Cu98  1  0.49624214  0.83665814  0.24774450  1
  Cu  Cu99  1  0.48606226  0.50129653  0.75225995  1
  Cu  Cu100  1  0.00703848  0.33721557  0.49697698  1
  Cu  Cu101  1  0.00586477  0.67191791  0.00392643  1
  Cu  Cu102  1  0.67354337  0.66636815  0.49067540  1
  Cu  Cu103  1  0.83481316  0.16055171  0.74501232  1
  Cu  Cu104  1  0.01243711  0.33872008  0.00156755  1
  Cu  Cu105  1  0.17010100  0.50576506  0.25075802  1
  Cu  Cu106  1  -0.00099204  -0.00670408  0.49862334  1
  Cu  Cu107  1  0.83730730  0.84287319  0.74942801  1
  Cu  Cu108  1  0.33060237  0.66808968  0.00475329  1
  Cu  Cu109  1  0.49986461  0.83546588  0.75318827  1
  Cu  Cu110  1  0.16501478  0.16927811  0.74551906  1
  Cu  Cu111  1  0.84059357  0.50044768  0.25377306  1
  Cu  Cu112  1  0.16091760  0.82843702  0.24708415  1
  Cu  Cu113  1  0.50334780  0.49693061  0.25132059  1
  Cu  Cu114  1  0.33363309  0.00123623  0.49419275  1
  Se  Se115  1  0.07543242  0.07606411  0.06448998  1
  Se  Se116  1  0.08171093  0.07664567  0.55663255  1
  Se  Se117  1  0.09458645  0.41900417  0.05598470  1
  Se  Se118  1  0.08826390  0.41896614  0.55112059  1
  Se  Se119  1  0.08745519  0.75649565  0.05691480  1
  Se  Se120  1  0.08822562  0.75358423  0.55284264  1
  Se  Se121  1  0.40292289  0.07410025  0.06181704  1
  Se  Se122  1  0.41720540  0.08527364  0.54532685  1
  Se  Se123  1  0.40376053  0.40633554  0.06043262  1
  Se  Se124  1  0.40799505  0.41576292  0.56059215  1
  Se  Se125  1  0.41721661  0.74783728  0.05751453  1
  Se  Se126  1  0.41525280  0.74810661  0.55638914  1
  Se  Se127  1  0.73949509  0.07170430  0.05957231  1
  Se  Se128  1  0.76908272  0.09911115  0.55368320  1
  Se  Se129  1  0.75479317  0.41933848  0.06504934  1
  Se  Se130  1  0.73963395  0.40541290  0.55171237  1
  Se  Se131  1  0.76471047  0.75744480  0.05369435  1
  Se  Se132  1  0.75402352  0.74800173  0.54664176  1
  Se  Se133  1  0.25458566  0.24710039  0.06347394  1
  Se  Se134  1  0.25445502  0.25327555  0.55635299  1
  Se  Se135  1  0.24603702  0.58158943  0.05321366  1
  Se  Se136  1  0.25222487  0.58460191  0.55655808  1
  Se  Se137  1  0.24385884  0.91329459  0.05427468  1
  Se  Se138  1  0.25121728  0.91728046  0.54660075  1
  Se  Se139  1  0.58655926  0.26308902  0.06727964  1
  Se  Se140  1  0.58230928  0.25403065  0.54699838  1
  Se  Se141  1  0.59545346  0.59443265  0.06359567  1
  Se  Se142  1  0.59043912  0.58752129  0.54984177  1
  Se  Se143  1  0.57926966  0.91493124  0.04948045  1
  Se  Se144  1  0.58441920  0.91886228  0.56376409  1
  Se  Se145  1  0.92948327  0.26015019  0.06067319  1
  Se  Se146  1  0.92418283  0.25085463  0.54682066  1
  Se  Se147  1  0.92730909  0.59065110  0.06620984  1
  Se  Se148  1  0.93186962  0.59225175  0.55298819  1
  Se  Se149  1  0.91384348  0.91338817  0.05470261  1
  Se  Se150  1  0.91509511  0.91513844  0.55638383  1
  Se  Se151  1  0.07867614  0.25516702  0.43187912  1
  Se  Se152  1  0.08063203  0.25097239  0.93878984  1
  Se  Se153  1  0.09670947  0.57387817  0.44722486  1
  Se  Se154  1  0.08320902  0.58257206  0.95058910  1
  Se  Se155  1  0.08623446  0.91494805  0.44547826  1
  Se  Se156  1  0.08641808  0.91496381  0.94819923  1
  Se  Se157  1  0.41597896  0.24836928  0.44257302  1
  Se  Se158  1  0.41311331  0.24973069  0.94415209  1
  Se  Se159  1  0.40732373  0.59576285  0.44046581  1
  Se  Se160  1  0.40619783  0.58495157  0.94045038  1
  Se  Se161  1  0.40950786  0.92207798  0.42964382  1
  Se  Se162  1  0.42128667  0.91559459  0.94933762  1
  Se  Se163  1  0.76781118  0.24027404  0.45149774  1
  Se  Se164  1  0.74337111  0.26104393  0.95063581  1
  Se  Se165  1  0.75345432  0.58544510  0.43258953  1
  Se  Se166  1  0.73930599  0.59918082  0.94633181  1
  Se  Se167  1  0.73950749  0.91620065  0.45557477  1
  Se  Se168  1  0.75585747  0.91797639  0.94124427  1
  Se  Se169  1  0.25580540  0.07845537  0.42954963  1
  Se  Se170  1  0.26156657  0.06746082  0.94474686  1
  Se  Se171  1  0.24969449  0.42177911  0.45022211  1
  Se  Se172  1  0.24410575  0.41215493  0.94327356  1
  Se  Se173  1  0.24463237  0.75690938  0.44443248  1
  Se  Se174  1  0.24878990  0.75278878  0.95035763  1
  Se  Se175  1  0.59429070  0.06046776  0.45149320  1
  Se  Se176  1  0.58858079  0.08252440  0.93886394  1
  Se  Se177  1  0.59510158  0.40781937  0.43892874  1
  Se  Se178  1  0.58808531  0.42192086  0.94857593  1
  Se  Se179  1  0.58449825  0.73929638  0.43321012  1
  Se  Se180  1  0.58696753  0.74682482  0.94800982  1
  Se  Se181  1  0.91624870  0.07949766  0.44884101  1
  Se  Se182  1  0.92446808  0.07943996  0.94192067  1
  Se  Se183  1  0.92491467  0.41362932  0.43420449  1
  Se  Se184  1  0.92459055  0.41135337  0.94127270  1
  Se  Se185  1  0.91088723  0.75559167  0.44617173  1
  Se  Se186  1  0.91847824  0.75242217  0.95215502  1
  Se  Se187  1  0.24918362  0.25712458  0.30311931  1
  Se  Se188  1  0.25120780  0.24740708  0.80039259  1
  Se  Se189  1  0.25133625  0.59106448  0.30479012  1
  Se  Se190  1  0.24073148  0.58512348  0.80274698  1
  Se  Se191  1  0.24556057  0.91361101  0.29882779  1
  Se  Se192  1  0.24477310  0.90857445  0.81104165  1
  Se  Se193  1  0.58754061  0.23339310  0.31344523  1
  Se  Se194  1  0.57931882  0.24955598  0.81381773  1
  Se  Se195  1  0.58946938  0.58629000  0.29628466  1
  Se  Se196  1  0.57055765  0.57416952  0.81471246  1
  Se  Se197  1  0.57234508  0.91250353  0.31423207  1
  Se  Se198  1  0.58941027  0.91750517  0.79991101  1
  Se  Se199  1  0.91800291  0.25038384  0.30350433  1
  Se  Se200  1  0.91528759  0.24664986  0.79874835  1
  Se  Se201  1  0.92386060  0.58907338  0.30085416  1
  Se  Se202  1  0.90781217  0.57477732  0.80755579  1
  Se  Se203  1  0.91325823  0.92115449  0.30933429  1
  Se  Se204  1  0.92416913  0.92075522  0.80376345  1
  Se  Se205  1  0.07756905  0.08183968  0.30133842  1
  Se  Se206  1  0.08736295  0.08029839  0.79866967  1
  Se  Se207  1  0.08532980  0.42042284  0.30178185  1
  Se  Se208  1  0.06659801  0.40352787  0.80055134  1
  Se  Se209  1  0.07969801  0.75084222  0.30713088  1
  Se  Se210  1  0.08576351  0.75245808  0.81445509  1
  Se  Se211  1  0.40603118  0.07369314  0.29592645  1
  Se  Se212  1  0.42649914  0.09060377  0.80951153  1
  Se  Se213  1  0.41975670  0.42078587  0.31023191  1
  Se  Se214  1  0.40901914  0.41193679  0.80427345  1
  Se  Se215  1  0.41209930  0.74771369  0.29573393  1
  Se  Se216  1  0.41309901  0.75289913  0.80288435  1
  Se  Se217  1  0.75131916  0.08747908  0.32027615  1
  Se  Se218  1  0.74712559  0.08191423  0.79804908  1
  Se  Se219  1  0.75418429  0.41488903  0.30234361  1
  Se  Se220  1  0.75404395  0.41431228  0.80362560  1
  Se  Se221  1  0.74712610  0.75246248  0.30052078  1
  Se  Se222  1  0.75989588  0.75922962  0.81067091  1
  Se  Se223  1  0.24004618  0.08669903  0.19896509  1
  Se  Se224  1  0.24552003  0.08921065  0.68395050  1
  Se  Se225  1  0.25323825  0.41765515  0.19950502  1
  Se  Se226  1  0.26074497  0.40008518  0.69541631  1
  Se  Se227  1  0.24944515  0.74867718  0.19465437  1
  Se  Se228  1  0.24724722  0.74710328  0.69576412  1
  Se  Se229  1  0.57194085  0.08822938  0.19186074  1
  Se  Se230  1  0.58628671  0.08498297  0.69226370  1
  Se  Se231  1  0.59030091  0.41033893  0.20353368  1
  Se  Se232  1  0.56997173  0.42988214  0.68805330  1
  Se  Se233  1  0.58624738  0.75781101  0.19585293  1
  Se  Se234  1  0.57581430  0.75557557  0.68707825  1
  Se  Se235  1  0.91077773  0.08335368  0.20161126  1
  Se  Se236  1  0.92120519  0.07679365  0.69492735  1
  Se  Se237  1  0.92338981  0.41572739  0.20045247  1
  Se  Se238  1  0.91561352  0.41136807  0.69057526  1
  Se  Se239  1  0.91868196  0.75286010  0.19951029  1
  Se  Se240  1  0.90961570  0.75424557  0.69013433  1
  Se  Se241  1  0.08060267  0.25518825  0.20048899  1
  Se  Se242  1  0.07914350  0.24771356  0.69076687  1
  Se  Se243  1  0.08490391  0.58635069  0.19644317  1
  Se  Se244  1  0.09135614  0.57058311  0.69216533  1
  Se  Se245  1  0.07582238  0.91771521  0.19940027  1
  Se  Se246  1  0.08228034  0.91587635  0.69836286  1
  Se  Se247  1  0.41500981  0.25140921  0.20788058  1
  Se  Se248  1  0.41823989  0.25103974  0.69766304  1
  Se  Se249  1  0.42012540  0.57887737  0.19578896  1
  Se  Se250  1  0.41028398  0.59261635  0.70094450  1
  Se  Se251  1  0.41069558  0.91656494  0.19460602  1
  Se  Se252  1  0.41845734  0.91068546  0.68819421  1
  Se  Se253  1  0.74772827  0.24995197  0.20219014  1
  Se  Se254  1  0.75453015  0.23855434  0.68269408  1
  Se  Se255  1  0.75509737  0.58345430  0.20074305  1
  Se  Se256  1  0.75099366  0.58428871  0.69420914  1
  Se  Se257  1  0.74873267  0.91226015  0.19121890  1
  Se  Se258  1  0.74906405  0.91870315  0.69491171  1
