# generated using pymatgen
data_In86Cu29Se144
_symmetry_space_group_name_H-M   'P 1'
_cell_length_a   17.59079021
_cell_length_b   17.58698317
_cell_length_c   23.44831891
_cell_angle_alpha   89.98871019
_cell_angle_beta   89.97698362
_cell_angle_gamma   90.01176848
_symmetry_Int_Tables_number   1
_chemical_formula_structural   In86Cu29Se144
_chemical_formula_sum   'In86 Cu29 Se144'
_cell_volume   7254.18048454
_cell_formula_units_Z   1
loop_
 _symmetry_equiv_pos_site_id
 _symmetry_equiv_pos_as_xyz
  1  'x, y, z'
loop_
 _atom_site_type_symbol
 _atom_site_label
 _atom_site_symmetry_multiplicity
 _atom_site_fract_x
 _atom_site_fract_y
 _atom_site_fract_z
 _atom_site_occupancy
  In  In0  1  0.00429798  0.16751053  0.13484046  1
  In  In1  1  -0.00587409  0.16122207  0.61528165  1
  In  In2  1  -0.00144132  0.49456631  0.12662663  1
  In  In3  1  -0.00480238  0.49066024  0.61508322  1
  In  In4  1  -0.00115240  0.84134630  0.12891982  1
  In  In5  1  -0.00977830  0.84796814  0.62737029  1
  In  In6  1  0.33781226  0.16619570  0.13008894  1
  In  In7  1  0.33377699  0.16637539  0.62062435  1
  In  In8  1  0.32556523  0.49638180  0.12920107  1
  In  In9  1  0.33356846  0.49288431  0.62436924  1
  In  In10  1  0.34103258  0.84303711  0.12835401  1
  In  In11  1  0.32962811  0.83830438  0.63201187  1
  In  In12  1  0.66006599  0.17524008  0.13274679  1
  In  In13  1  0.66741999  0.16582232  0.62180441  1
  In  In14  1  0.67249982  0.47925845  0.13212272  1
  In  In15  1  0.65105749  0.48822017  0.61319129  1
  In  In16  1  0.67270520  0.84332326  0.12996372  1
  In  In17  1  0.68481659  0.84681879  0.61872858  1
  In  In18  1  0.17793804  0.01523834  0.37064892  1
  In  In19  1  0.16780056  0.00675208  0.86261322  1
  In  In20  1  0.16653631  0.33535333  0.37304542  1
  In  In21  1  0.17770366  0.32805629  0.87506266  1
  In  In22  1  0.16138981  0.65944202  0.37844560  1
  In  In23  1  0.15947587  0.64584833  0.87241399  1
  In  In24  1  0.51711875  0.01680941  0.36394120  1
  In  In25  1  0.50706727  0.00981746  0.86876367  1
  In  In26  1  0.49667178  0.33541244  0.37333034  1
  In  In27  1  0.49261758  0.32251000  0.86975665  1
  In  In28  1  0.49217188  0.66202448  0.37964105  1
  In  In29  1  0.49917328  0.67772871  0.87126511  1
  In  In30  1  0.83244988  0.00587731  0.38009016  1
  In  In31  1  0.83652991  0.00498903  0.85878102  1
  In  In32  1  0.83257203  0.33066230  0.37579969  1
  In  In33  1  0.83339171  0.34566815  0.87105754  1
  In  In34  1  0.83068007  0.66868129  0.38324298  1
  In  In35  1  0.82759139  0.66092629  0.87533333  1
  In  In36  1  0.00174976  0.16889552  0.37473529  1
  In  In37  1  0.00914310  0.15439801  0.86854161  1
  In  In38  1  0.01336138  0.48340840  0.38310322  1
  In  In39  1  -0.00326211  0.49925435  0.88366593  1
  In  In40  1  -0.01704635  0.84127023  0.38065496  1
  In  In41  1  -0.00215961  0.85203591  0.87194708  1
  In  In42  1  0.33513754  0.17143193  0.37874739  1
  In  In43  1  0.33754998  0.17888929  0.86464740  1
  In  In44  1  0.34115325  0.48543187  0.37818535  1
  In  In45  1  0.32423673  0.48530298  0.86777050  1
  In  In46  1  0.33339422  0.84029832  0.37144526  1
  In  In47  1  0.34070191  0.83633975  0.86438470  1
  In  In48  1  0.66378524  0.16522675  0.38168061  1
  In  In49  1  0.65662734  0.15922062  0.86641838  1
  In  In50  1  0.66873270  0.49288566  0.37720112  1
  In  In51  1  0.67695155  0.49944211  0.87406330  1
  In  In52  1  0.66083650  0.87521536  0.38581885  1
  In  In53  1  0.66261904  0.83792495  0.87036556  1
  In  In54  1  0.16188721  0.01043806  0.13307105  1
  In  In55  1  0.15911215  0.01291016  0.63268112  1
  In  In56  1  0.16386666  0.34526329  0.14299264  1
  In  In57  1  0.17329022  0.33818165  0.61805135  1
  In  In58  1  0.17524528  0.65528857  0.12337927  1
  In  In59  1  0.17876012  0.66313671  0.62617576  1
  In  In60  1  0.48499983  0.01310695  0.13784657  1
  In  In61  1  0.49300816  0.01144709  0.62446533  1
  In  In62  1  0.51437951  0.32749193  0.13860171  1
  In  In63  1  0.49899319  0.32976256  0.62247650  1
  In  In64  1  0.49635653  0.66884599  0.12438083  1
  In  In65  1  0.49947468  0.65220133  0.62461356  1
  In  In66  1  0.83179249  0.00180702  0.13209432  1
  In  In67  1  0.82795144  0.00609950  0.62250585  1
  In  In68  1  0.82677283  0.33700742  0.13503433  1
  In  In69  1  0.82053075  0.32049079  0.61251772  1
  In  In70  1  0.84743134  0.66082925  0.12660994  1
  In  In71  1  0.83401900  0.66457209  0.61605705  1
  In  In72  1  0.00217708  0.32354295  0.74695243  1
  In  In73  1  0.50448812  0.83522949  0.00152412  1
  In  In74  1  0.00145660  0.66841949  0.25006199  1
  In  In75  1  0.16784983  0.82904775  -0.00452134  1
  In  In76  1  0.50108502  0.83444065  0.50595283  1
  In  In77  1  0.83476836  0.83289565  -0.00661633  1
  In  In78  1  0.49979795  0.49653692  0.00385687  1
  In  In79  1  0.16587526  0.16819363  0.00006517  1
  In  In80  1  0.66335333  0.66754871  0.74839125  1
  In  In81  1  0.66404504  0.67303847  0.25605472  1
  In  In82  1  0.83513375  0.16958083  -0.00867190  1
  In  In83  1  0.16044837  0.83115285  0.50781278  1
  In  In84  1  0.00391024  0.66973173  0.74287293  1
  In  In85  1  0.33238632  0.66328728  0.25195491  1
  Cu  Cu86  1  0.66253633  0.01197669  -0.00244500  1
  Cu  Cu87  1  0.82394456  0.84962168  0.25917873  1
  Cu  Cu88  1  0.49356573  0.49335187  0.74366541  1
  Cu  Cu89  1  0.17128478  0.83394279  0.74842760  1
  Cu  Cu90  1  0.16992363  0.16903050  0.25511189  1
  Cu  Cu91  1  0.66475134  0.66532431  0.49902381  1
  Cu  Cu92  1  -0.00052259  0.00402730  0.50106983  1
  Cu  Cu93  1  0.17474699  0.49171276  0.74906600  1
  Cu  Cu94  1  -0.00086672  0.33680198  0.00674833  1
  Cu  Cu95  1  0.66537207  0.33080595  0.00700847  1
  Cu  Cu96  1  0.83789822  0.49795031  0.25617997  1
  Cu  Cu97  1  0.00258654  0.65698261  0.00155100  1
  Cu  Cu98  1  0.32685876  0.65479038  -0.00508300  1
  Cu  Cu99  1  0.50310417  0.83632273  0.74560161  1
  Cu  Cu100  1  0.67899994  0.65426560  0.00189058  1
  Cu  Cu101  1  0.83273165  0.16620164  0.25715049  1
  Cu  Cu102  1  0.16348430  0.84238960  0.25172392  1
  Cu  Cu103  1  0.33658539  0.00918935  0.49879091  1
  Cu  Cu104  1  0.32825997  0.65573805  0.50058100  1
  Cu  Cu105  1  0.49965340  0.16837629  0.25679694  1
  Cu  Cu106  1  0.50033707  0.16938825  0.74381933  1
  Cu  Cu107  1  0.00072255  0.33113796  0.49450514  1
  Cu  Cu108  1  0.33669482  0.33277658  0.49940197  1
  Cu  Cu109  1  -0.00218796  0.65815557  0.49954693  1
  Cu  Cu110  1  0.82872585  0.16651444  0.73855220  1
  Cu  Cu111  1  0.33624414  0.00699283  0.00440788  1
  Cu  Cu112  1  0.66422175  0.33212062  0.49636299  1
  Cu  Cu113  1  0.33246948  0.33030748  -0.00134101  1
  Cu  Cu114  1  0.82832885  0.49721985  0.74498883  1
  Se  Se115  1  0.07257074  0.07825527  0.05699725  1
  Se  Se116  1  0.08941953  0.08366660  0.55090630  1
  Se  Se117  1  0.08721005  0.41219790  0.06145614  1
  Se  Se118  1  0.08440667  0.41401962  0.54910165  1
  Se  Se119  1  0.07640922  0.74207437  0.06178034  1
  Se  Se120  1  0.07019865  0.73876053  0.56650293  1
  Se  Se121  1  0.42004486  0.08882223  0.05633111  1
  Se  Se122  1  0.42322605  0.09265514  0.54818256  1
  Se  Se123  1  0.41357779  0.40496690  0.06323665  1
  Se  Se124  1  0.41940581  0.41730685  0.55333547  1
  Se  Se125  1  0.40232997  0.74234065  0.05285674  1
  Se  Se126  1  0.40448587  0.74179863  0.56024200  1
  Se  Se127  1  0.74731651  0.08540327  0.05871371  1
  Se  Se128  1  0.76343518  0.10087370  0.55285709  1
  Se  Se129  1  0.75418588  0.41279668  0.05518378  1
  Se  Se130  1  0.74877375  0.41824561  0.54843088  1
  Se  Se131  1  0.74889986  0.74430285  0.06157935  1
  Se  Se132  1  0.74816946  0.74863564  0.55126484  1
  Se  Se133  1  0.25031936  0.25707551  0.06350392  1
  Se  Se134  1  0.25126181  0.24926708  0.55077683  1
  Se  Se135  1  0.24941512  0.57216092  0.05151898  1
  Se  Se136  1  0.24560174  0.57385874  0.55469549  1
  Se  Se137  1  0.25227847  0.92437814  0.05857234  1
  Se  Se138  1  0.25627279  0.92502632  0.55720177  1
  Se  Se139  1  0.57972146  0.24930157  0.05756198  1
  Se  Se140  1  0.58316255  0.24956607  0.55295504  1
  Se  Se141  1  0.59427653  0.58506552  0.06426895  1
  Se  Se142  1  0.57660819  0.58236318  0.54706876  1
  Se  Se143  1  0.58840138  0.92966144  0.06074337  1
  Se  Se144  1  0.59096683  0.93101119  0.55712190  1
  Se  Se145  1  0.91924925  0.25227293  0.06221513  1
  Se  Se146  1  0.91616846  0.24892136  0.54782283  1
  Se  Se147  1  0.91713648  0.57597603  0.05434856  1
  Se  Se148  1  0.91069636  0.57488048  0.54971376  1
  Se  Se149  1  0.91903947  0.92430417  0.05608366  1
  Se  Se150  1  0.91349432  0.92119015  0.55205579  1
  Se  Se151  1  0.08758982  0.24912417  0.44356608  1
  Se  Se152  1  0.07054864  0.25692664  0.94041441  1
  Se  Se153  1  0.08662238  0.57797618  0.45051235  1
  Se  Se154  1  0.08836086  0.57305260  0.95169940  1
  Se  Se155  1  0.08300749  0.92367520  0.44104586  1
  Se  Se156  1  0.08375988  0.92945772  0.94300455  1
  Se  Se157  1  0.42211418  0.25021703  0.44701620  1
  Se  Se158  1  0.41418826  0.24695019  0.94518226  1
  Se  Se159  1  0.41543324  0.57707416  0.44800145  1
  Se  Se160  1  0.41595898  0.58399195  0.93605395  1
  Se  Se161  1  0.41431693  0.92296122  0.44229495  1
  Se  Se162  1  0.41233029  0.92334951  0.94214233  1
  Se  Se163  1  0.75154544  0.24900033  0.44685225  1
  Se  Se164  1  0.73986130  0.25857188  0.93650284  1
  Se  Se165  1  0.74733975  0.58059074  0.44601499  1
  Se  Se166  1  0.76030973  0.57267430  0.94821120  1
  Se  Se167  1  0.77009774  0.90816851  0.45110483  1
  Se  Se168  1  0.74259612  0.92977579  0.93940456  1
  Se  Se169  1  0.24844539  0.09063278  0.44889587  1
  Se  Se170  1  0.25591328  0.07962060  0.93940459  1
  Se  Se171  1  0.24927503  0.41439611  0.44686079  1
  Se  Se172  1  0.24891725  0.41470623  0.94751825  1
  Se  Se173  1  0.25544212  0.74622655  0.44305535  1
  Se  Se174  1  0.25701816  0.74133057  0.93298107  1
  Se  Se175  1  0.58528510  0.07539880  0.44837706  1
  Se  Se176  1  0.57665647  0.09184205  0.94545879  1
  Se  Se177  1  0.57962726  0.41685621  0.44529557  1
  Se  Se178  1  0.58818439  0.41001687  0.94056503  1
  Se  Se179  1  0.58921278  0.75005053  0.43823008  1
  Se  Se180  1  0.59896286  0.73866757  0.94522772  1
  Se  Se181  1  0.91906987  0.08908543  0.44645896  1
  Se  Se182  1  0.92328483  0.07120673  0.93933578  1
  Se  Se183  1  0.91272240  0.41638336  0.44623357  1
  Se  Se184  1  0.91347492  0.41345339  0.94905834  1
  Se  Se185  1  0.91799911  0.74835474  0.45092742  1
  Se  Se186  1  0.93106043  0.74038523  0.93729873  1
  Se  Se187  1  0.25390128  0.25190977  0.30724087  1
  Se  Se188  1  0.23228430  0.23718988  0.80151049  1
  Se  Se189  1  0.24413171  0.57433530  0.31124995  1
  Se  Se190  1  0.25199923  0.58192803  0.80165297  1
  Se  Se191  1  0.25141694  0.92162647  0.30343362  1
  Se  Se192  1  0.25431124  0.91917818  0.80058662  1
  Se  Se193  1  0.58536808  0.24948086  0.30995213  1
  Se  Se194  1  0.58351127  0.25235839  0.79963131  1
  Se  Se195  1  0.57520625  0.57745856  0.30951130  1
  Se  Se196  1  0.57286382  0.57291807  0.80779082  1
  Se  Se197  1  0.57422769  0.90760661  0.30295596  1
  Se  Se198  1  0.58400555  0.91922541  0.80128434  1
  Se  Se199  1  0.91813192  0.25198395  0.30557157  1
  Se  Se200  1  0.90589885  0.23861451  0.80874004  1
  Se  Se201  1  0.91607374  0.58097425  0.31481582  1
  Se  Se202  1  0.91266942  0.57491346  0.80366876  1
  Se  Se203  1  0.91804987  0.92710623  0.30615746  1
  Se  Se204  1  0.91192914  0.91058575  0.79698330  1
  Se  Se205  1  0.08241069  0.08406832  0.30375540  1
  Se  Se206  1  0.07842173  0.07733621  0.79314456  1
  Se  Se207  1  0.08167798  0.41474975  0.30273443  1
  Se  Se208  1  0.08399093  0.42135449  0.80932664  1
  Se  Se209  1  0.08748284  0.76126977  0.31332322  1
  Se  Se210  1  0.09026029  0.75631888  0.81096864  1
  Se  Se211  1  0.41154597  0.08491387  0.30634989  1
  Se  Se212  1  0.41855850  0.08710853  0.80184464  1
  Se  Se213  1  0.41179370  0.41133013  0.30081228  1
  Se  Se214  1  0.41396061  0.40964641  0.80162834  1
  Se  Se215  1  0.42520382  0.75630028  0.30684986  1
  Se  Se216  1  0.41996221  0.74930606  0.79625137  1
  Se  Se217  1  0.74772420  0.08449824  0.30996155  1
  Se  Se218  1  0.74591762  0.08563100  0.79699261  1
  Se  Se219  1  0.75056811  0.41503723  0.30528317  1
  Se  Se220  1  0.74496151  0.41494076  0.79863580  1
  Se  Se221  1  0.74981448  0.76325700  0.31774101  1
  Se  Se222  1  0.75862922  0.75641500  0.80635241  1
  Se  Se223  1  0.25180986  0.08561145  0.19867314  1
  Se  Se224  1  0.27098571  0.06772302  0.68920912  1
  Se  Se225  1  0.26726800  0.40923247  0.20533989  1
  Se  Se226  1  0.25460168  0.40746351  0.69545357  1
  Se  Se227  1  0.24051577  0.75853011  0.19111227  1
  Se  Se228  1  0.25249623  0.74649559  0.69811683  1
  Se  Se229  1  0.58299550  0.08596931  0.20025954  1
  Se  Se230  1  0.58463610  0.08452370  0.69316675  1
  Se  Se231  1  0.58635033  0.41910478  0.20606472  1
  Se  Se232  1  0.58237677  0.41396734  0.69335080  1
  Se  Se233  1  0.57479300  0.76027208  0.19042785  1
  Se  Se234  1  0.58049134  0.75738500  0.68254509  1
  Se  Se235  1  0.91493771  0.08537955  0.19860844  1
  Se  Se236  1  0.91864004  0.08459205  0.69163036  1
  Se  Se237  1  0.91883926  0.41608820  0.19931571  1
  Se  Se238  1  0.90891340  0.41317930  0.68853586  1
  Se  Se239  1  0.90256139  0.76490872  0.19890009  1
  Se  Se240  1  0.90347469  0.75479105  0.69154664  1
  Se  Se241  1  0.08279214  0.25169664  0.20345753  1
  Se  Se242  1  0.08988442  0.24190891  0.68268816  1
  Se  Se243  1  0.09365596  0.57565117  0.19627095  1
  Se  Se244  1  0.08834928  0.56751202  0.68950099  1
  Se  Se245  1  0.07843893  0.92276306  0.19800441  1
  Se  Se246  1  0.08577394  0.91342427  0.69479055  1
  Se  Se247  1  0.41826214  0.24956712  0.19941071  1
  Se  Se248  1  0.41382004  0.25099328  0.69234726  1
  Se  Se249  1  0.42680480  0.57530250  0.19268495  1
  Se  Se250  1  0.41149778  0.58155057  0.69531920  1
  Se  Se251  1  0.41683172  0.91562574  0.20234422  1
  Se  Se252  1  0.41937193  0.92061800  0.69409299  1
  Se  Se253  1  0.74912004  0.24908720  0.20176243  1
  Se  Se254  1  0.74464698  0.25515970  0.69347897  1
  Se  Se255  1  0.75908992  0.58219529  0.19645658  1
  Se  Se256  1  0.74797159  0.57638503  0.68516749  1
  Se  Se257  1  0.74202437  0.92926044  0.20233431  1
  Se  Se258  1  0.75275162  0.92223709  0.69607700  1
