# generated using pymatgen
data_In86Cu29Se144
_symmetry_space_group_name_H-M   'P 1'
_cell_length_a   17.57836101
_cell_length_b   17.57814190
_cell_length_c   23.42274839
_cell_angle_alpha   90.01367458
_cell_angle_beta   90.01481112
_cell_angle_gamma   90.00909173
_symmetry_Int_Tables_number   1
_chemical_formula_structural   In86Cu29Se144
_chemical_formula_sum   'In86 Cu29 Se144'
_cell_volume   7237.50982641
_cell_formula_units_Z   1
loop_
 _symmetry_equiv_pos_site_id
 _symmetry_equiv_pos_as_xyz
  1  'x, y, z'
loop_
 _atom_site_type_symbol
 _atom_site_label
 _atom_site_symmetry_multiplicity
 _atom_site_fract_x
 _atom_site_fract_y
 _atom_site_fract_z
 _atom_site_occupancy
  In  In0  1  0.00270091  0.16476255  0.11917416  1
  In  In1  1  0.00142009  0.15674148  0.62428704  1
  In  In2  1  0.00055227  0.50752265  0.12358698  1
  In  In3  1  -0.00627538  0.51407257  0.62991748  1
  In  In4  1  0.00022573  0.83184537  0.11705035  1
  In  In5  1  -0.00399072  0.83425773  0.64221607  1
  In  In6  1  0.32351515  0.16413685  0.12295833  1
  In  In7  1  0.34288206  0.17100487  0.62458401  1
  In  In8  1  0.33590055  0.49293230  0.11572810  1
  In  In9  1  0.33288095  0.49095274  0.64141459  1
  In  In10  1  0.33773348  0.84614066  0.11369787  1
  In  In11  1  0.32166979  0.82967222  0.63254096  1
  In  In12  1  0.67220149  0.14917425  0.10455095  1
  In  In13  1  0.65376541  0.16952944  0.63117696  1
  In  In14  1  0.66858704  0.50314579  0.11428033  1
  In  In15  1  0.67193003  0.49891182  0.62399103  1
  In  In16  1  0.66613796  0.83519079  0.10611074  1
  In  In17  1  0.67982471  0.82551754  0.64936076  1
  In  In18  1  0.19213015  0.03006792  0.34226021  1
  In  In19  1  0.15472208  0.00348264  0.88005381  1
  In  In20  1  0.16996485  0.31787814  0.37300439  1
  In  In21  1  0.18861644  0.32588365  0.89292536  1
  In  In22  1  0.16285555  0.67978284  0.37062693  1
  In  In23  1  0.16664595  0.66481286  0.88251057  1
  In  In24  1  0.50822527  0.01447268  0.37355980  1
  In  In25  1  0.52138390  -0.01438931  0.90063401  1
  In  In26  1  0.47452169  0.33106381  0.36508726  1
  In  In27  1  0.48542175  0.33799376  0.89167964  1
  In  In28  1  0.50614356  0.66364167  0.37312787  1
  In  In29  1  0.50396232  0.66948682  0.87245346  1
  In  In30  1  0.83235476  -0.01036772  0.36972140  1
  In  In31  1  0.83723887  -0.00511749  0.87579060  1
  In  In32  1  0.83908535  0.34571903  0.37352987  1
  In  In33  1  0.83108960  0.33553702  0.88684257  1
  In  In34  1  0.83701653  0.65309153  0.37298680  1
  In  In35  1  0.83224200  0.67006166  0.86895326  1
  In  In36  1  0.01304079  0.17263669  0.36818541  1
  In  In37  1  0.01141700  0.15497528  0.87897102  1
  In  In38  1  -0.01216535  0.50277326  0.37086395  1
  In  In39  1  -0.00835723  0.51290030  0.88501139  1
  In  In40  1  0.00399161  0.83921214  0.36255595  1
  In  In41  1  -0.00274219  0.83366187  0.87347845  1
  In  In42  1  0.33688398  0.16866728  0.36981346  1
  In  In43  1  0.33460976  0.17206149  0.88415880  1
  In  In44  1  0.34339423  0.48111132  0.36508550  1
  In  In45  1  0.33067640  0.49974554  0.88437880  1
  In  In46  1  0.31792309  0.83175376  0.36980868  1
  In  In47  1  0.34261968  0.82025540  0.88408578  1
  In  In48  1  0.66188577  0.15074428  0.37796206  1
  In  In49  1  0.67417882  0.15629788  0.89091927  1
  In  In50  1  0.67458379  0.50939934  0.37166791  1
  In  In51  1  0.65804748  0.51066104  0.87819146  1
  In  In52  1  0.66533627  0.83165507  0.37781236  1
  In  In53  1  0.67581791  0.83864929  0.87532626  1
  In  In54  1  0.16695728  0.00300770  0.12014063  1
  In  In55  1  0.15925274  0.00320918  0.62470430  1
  In  In56  1  0.17858503  0.33573613  0.11768525  1
  In  In57  1  0.17965175  0.33266488  0.62764166  1
  In  In58  1  0.15279635  0.65560552  0.11564327  1
  In  In59  1  0.15778339  0.66914498  0.64266617  1
  In  In60  1  0.49207103  -0.01032255  0.11568614  1
  In  In61  1  0.49942192  0.01645383  0.62960362  1
  In  In62  1  0.48398757  0.32465786  0.11101755  1
  In  In63  1  0.49532061  0.31708379  0.62897542  1
  In  In64  1  0.49956529  0.66586150  0.11043721  1
  In  In65  1  0.49991612  0.65959301  0.63738299  1
  In  In66  1  0.84378588  0.00751516  0.10793425  1
  In  In67  1  0.84396759  -0.01190002  0.64446626  1
  In  In68  1  0.83951095  0.33680178  0.11408905  1
  In  In69  1  0.81812683  0.33730677  0.62370835  1
  In  In70  1  0.83580447  0.67067107  0.11754062  1
  In  In71  1  0.83663154  0.66564806  0.63557531  1
  In  In72  1  0.16106743  0.50349276  0.50367279  1
  In  In73  1  0.66790989  0.66813614  0.24926128  1
  In  In74  1  0.66047516  0.33271461  0.23979867  1
  In  In75  1  0.66569139  -0.00335639  0.23914910  1
  In  In76  1  0.83026403  0.16593140  0.50404534  1
  In  In77  1  0.00814656  0.33540769  0.76133517  1
  In  In78  1  0.65749103  0.33360301  0.75399362  1
  In  In79  1  0.33770190  0.00051532  0.75974567  1
  In  In80  1  0.50451375  0.49144722  0.49829284  1
  In  In81  1  0.32531982  0.66181273  0.23442258  1
  In  In82  1  0.15985546  0.84108733  0.50288909  1
  In  In83  1  0.50405700  0.84004185  0.50066852  1
  In  In84  1  0.83510752  0.83085328  0.51496483  1
  In  In85  1  0.00901446  0.33482553  0.23626555  1
  Cu  Cu86  1  0.00382458  0.32916993  0.00060884  1
  Cu  Cu87  1  0.00947610  0.00801827  0.49426293  1
  Cu  Cu88  1  0.33664428  0.01031681  0.49188742  1
  Cu  Cu89  1  0.83327860  0.50310548  0.75270780  1
  Cu  Cu90  1  0.83483282  0.15929813  0.75993683  1
  Cu  Cu91  1  0.66181963  0.33478712  0.49810760  1
  Cu  Cu92  1  0.33700799  0.65839338  0.50904894  1
  Cu  Cu93  1  0.49220819  0.49964693  0.76074733  1
  Cu  Cu94  1  0.49262789  0.16895735  0.24448451  1
  Cu  Cu95  1  -0.01213397  0.66876874  0.50446977  1
  Cu  Cu96  1  0.66345984  0.00339991  0.51152685  1
  Cu  Cu97  1  0.49356871  0.82936071  0.24223754  1
  Cu  Cu98  1  0.50037433  0.16591513  0.76122824  1
  Cu  Cu99  1  0.16920820  0.49915754  0.76253038  1
  Cu  Cu100  1  0.16745463  0.82761278  0.75854191  1
  Cu  Cu101  1  0.32983428  0.32255890  0.49861123  1
  Cu  Cu102  1  0.00114197  0.33825630  0.49330053  1
  Cu  Cu103  1  0.16060934  0.83959784  0.23952648  1
  Cu  Cu104  1  0.84288909  0.83246984  0.23958870  1
  Cu  Cu105  1  0.67007090  0.33518879  -0.00047053  1
  Cu  Cu106  1  -0.00328020  0.66681171  -0.00379265  1
  Cu  Cu107  1  0.67074453  0.66686040  -0.01065831  1
  Cu  Cu108  1  0.16796129  0.49849395  0.24204291  1
  Cu  Cu109  1  0.33745085  0.66974528  -0.00128219  1
  Cu  Cu110  1  0.83663311  0.16970342  0.23887272  1
  Cu  Cu111  1  0.50255261  0.83648975  0.76147738  1
  Cu  Cu112  1  0.17116666  0.16715354  0.76008598  1
  Cu  Cu113  1  -0.00247642  -0.00391094  -0.00147075  1
  Cu  Cu114  1  0.32434077  0.00527392  -0.00171967  1
  Se  Se115  1  0.08250773  0.08235771  0.04830535  1
  Se  Se116  1  0.09055166  0.08976288  0.55067780  1
  Se  Se117  1  0.07869401  0.41404886  0.05975769  1
  Se  Se118  1  0.07345106  0.41158008  0.56553712  1
  Se  Se119  1  0.08298949  0.74900040  0.04764969  1
  Se  Se120  1  0.07281065  0.74611777  0.56439808  1
  Se  Se121  1  0.41044147  0.08219423  0.05453630  1
  Se  Se122  1  0.41884868  0.08569129  0.55247501  1
  Se  Se123  1  0.42405088  0.42507904  0.04317845  1
  Se  Se124  1  0.40714135  0.40794447  0.56008667  1
  Se  Se125  1  0.42082875  0.75812477  0.04810209  1
  Se  Se126  1  0.41310166  0.74832808  0.56277491  1
  Se  Se127  1  0.73668554  0.05189873  0.03764709  1
  Se  Se128  1  0.75015348  0.07709048  0.57151757  1
  Se  Se129  1  0.75626019  0.42166028  0.04849839  1
  Se  Se130  1  0.74668577  0.41795767  0.54885702  1
  Se  Se131  1  0.75298258  0.74800355  0.04571441  1
  Se  Se132  1  0.73789946  0.74197364  0.56534313  1
  Se  Se133  1  0.25388120  0.25059252  0.04796067  1
  Se  Se134  1  0.24848946  0.24336340  0.55635283  1
  Se  Se135  1  0.25597274  0.58805120  0.05467042  1
  Se  Se136  1  0.25230039  0.58581284  0.57006792  1
  Se  Se137  1  0.24163923  0.91583733  0.04754959  1
  Se  Se138  1  0.26241788  0.92932595  0.55695825  1
  Se  Se139  1  0.59048854  0.25172390  0.05492192  1
  Se  Se140  1  0.58403630  0.25170963  0.55492545  1
  Se  Se141  1  0.58695987  0.58495205  0.04495102  1
  Se  Se142  1  0.58422509  0.58873031  0.55855767  1
  Se  Se143  1  0.58156155  0.92086853  0.04493765  1
  Se  Se144  1  0.58998806  0.91795418  0.57158673  1
  Se  Se145  1  0.91683139  0.24490256  0.05045211  1
  Se  Se146  1  0.92261032  0.26062397  0.56100257  1
  Se  Se147  1  0.91549022  0.58138672  0.05088001  1
  Se  Se148  1  0.90695449  0.58368980  0.55715935  1
  Se  Se149  1  0.91345343  0.90702528  0.04577329  1
  Se  Se150  1  0.93320179  0.92891837  0.56048875  1
  Se  Se151  1  0.08304529  0.24971782  0.44690536  1
  Se  Se152  1  0.08513618  0.24693496  0.94637950  1
  Se  Se153  1  0.07548081  0.59798400  0.44300119  1
  Se  Se154  1  0.08772623  0.57937866  0.95347914  1
  Se  Se155  1  0.08561403  0.92740173  0.43212604  1
  Se  Se156  1  0.08141725  0.91134627  0.94700769  1
  Se  Se157  1  0.41906678  0.24630457  0.44475494  1
  Se  Se158  1  0.40830632  0.25210740  0.96032303  1
  Se  Se159  1  0.40909730  0.58424550  0.44050265  1
  Se  Se160  1  0.42188171  0.58872117  0.94377984  1
  Se  Se161  1  0.40947270  0.92061411  0.43452368  1
  Se  Se162  1  0.40979914  0.91762642  0.95118007  1
  Se  Se163  1  0.74418172  0.25524521  0.43685591  1
  Se  Se164  1  0.75641453  0.24596840  0.95454094  1
  Se  Se165  1  0.74542699  0.59061733  0.44444293  1
  Se  Se166  1  0.75745098  0.58098439  0.94040206  1
  Se  Se167  1  0.74298262  0.92361475  0.44957734  1
  Se  Se168  1  0.74055660  0.93271778  0.94796702  1
  Se  Se169  1  0.24819999  0.08447796  0.43611110  1
  Se  Se170  1  0.24174709  0.08723901  0.94431028  1
  Se  Se171  1  0.25485515  0.41409068  0.44365093  1
  Se  Se172  1  0.25805316  0.41837273  0.96000150  1
  Se  Se173  1  0.25553078  0.74138889  0.45042030  1
  Se  Se174  1  0.24648482  0.75190833  0.95130386  1
  Se  Se175  1  0.58078830  0.08386777  0.45512186  1
  Se  Se176  1  0.55819688  0.11155660  0.94984150  1
  Se  Se177  1  0.58683865  0.40574638  0.42827316  1
  Se  Se178  1  0.58682764  0.41849619  0.94635255  1
  Se  Se179  1  0.59239944  0.73854565  0.44750060  1
  Se  Se180  1  0.58679976  0.75331072  0.94040633  1
  Se  Se181  1  0.91738629  0.08000630  0.43760073  1
  Se  Se182  1  0.91716413  0.08337987  0.94514554  1
  Se  Se183  1  0.91551742  0.42421112  0.44803986  1
  Se  Se184  1  0.91980462  0.41662903  0.95060011  1
  Se  Se185  1  0.92055739  0.75518904  0.43976156  1
  Se  Se186  1  0.91371598  0.74955356  0.94222164  1
  Se  Se187  1  0.25821411  0.25528009  0.30137838  1
  Se  Se188  1  0.25478981  0.25139182  0.80995533  1
  Se  Se189  1  0.24464461  0.57701908  0.31001536  1
  Se  Se190  1  0.25265515  0.58474685  0.81236208  1
  Se  Se191  1  0.25373510  0.91257673  0.29236587  1
  Se  Se192  1  0.24774472  0.90956842  0.81772492  1
  Se  Se193  1  0.58051508  0.23867896  0.30737843  1
  Se  Se194  1  0.57671822  0.24975434  0.82185525  1
  Se  Se195  1  0.57234528  0.57139624  0.30047578  1
  Se  Se196  1  0.58396297  0.58469655  0.80068696  1
  Se  Se197  1  0.57685304  0.90707753  0.30469163  1
  Se  Se198  1  0.58292470  0.92398405  0.81156286  1
  Se  Se199  1  0.91044756  0.25054983  0.30219984  1
  Se  Se200  1  0.91131026  0.24600266  0.81580372  1
  Se  Se201  1  0.92432615  0.59173391  0.29896456  1
  Se  Se202  1  0.92097540  0.58342428  0.80365921  1
  Se  Se203  1  0.91697422  0.92155894  0.29616091  1
  Se  Se204  1  0.92218842  0.92153938  0.80415689  1
  Se  Se205  1  0.06604611  0.07410502  0.29910551  1
  Se  Se206  1  0.08294457  0.07868255  0.80021714  1
  Se  Se207  1  0.09103172  0.42122177  0.30960297  1
  Se  Se208  1  0.09271331  0.42015927  0.82641517  1
  Se  Se209  1  0.08422354  0.75181470  0.29537828  1
  Se  Se210  1  0.08372676  0.74440125  0.81011569  1
  Se  Se211  1  0.41945125  0.07995098  0.30167347  1
  Se  Se212  1  0.42787533  0.08145938  0.82316381  1
  Se  Se213  1  0.42442871  0.42012247  0.28699763  1
  Se  Se214  1  0.41276828  0.41426144  0.81305186  1
  Se  Se215  1  0.41685261  0.74854763  0.30494230  1
  Se  Se216  1  0.41450984  0.74919022  0.80392122  1
  Se  Se217  1  0.75689239  0.09009727  0.30101329  1
  Se  Se218  1  0.74629491  0.08212005  0.81200886  1
  Se  Se219  1  0.75461930  0.42264718  0.30011211  1
  Se  Se220  1  0.75451526  0.41974470  0.81051573  1
  Se  Se221  1  0.75953532  0.76291149  0.30659291  1
  Se  Se222  1  0.74202704  0.74770485  0.80365171  1
  Se  Se223  1  0.25470549  0.07208144  0.19341549  1
  Se  Se224  1  0.24900170  0.08731836  0.69447432  1
  Se  Se225  1  0.25444104  0.41886764  0.19127101  1
  Se  Se226  1  0.24563166  0.41054376  0.70741378  1
  Se  Se227  1  0.24066047  0.75831541  0.17812891  1
  Se  Se228  1  0.25267510  0.74506929  0.70589382  1
  Se  Se229  1  0.57550446  0.09083383  0.18382534  1
  Se  Se230  1  0.58352522  0.08520742  0.70534272  1
  Se  Se231  1  0.57467804  0.41873795  0.17709846  1
  Se  Se232  1  0.56879385  0.42369172  0.69115613  1
  Se  Se233  1  0.58056078  0.75651577  0.18433817  1
  Se  Se234  1  0.57820155  0.74776643  0.70461375  1
  Se  Se235  1  0.91555187  0.08239043  0.18674865  1
  Se  Se236  1  0.92297836  0.08747351  0.70149952  1
  Se  Se237  1  0.90662513  0.42416781  0.19132758  1
  Se  Se238  1  0.90975537  0.41543514  0.69500536  1
  Se  Se239  1  0.92229438  0.74493689  0.18914284  1
  Se  Se240  1  0.90633901  0.75632684  0.70407535  1
  Se  Se241  1  0.10008902  0.23899991  0.18771668  1
  Se  Se242  1  0.09012054  0.24360935  0.69498226  1
  Se  Se243  1  0.08169912  0.58496217  0.19770336  1
  Se  Se244  1  0.08099096  0.57606712  0.70603499  1
  Se  Se245  1  0.07680560  0.92054535  0.18638432  1
  Se  Se246  1  0.09501081  0.91430312  0.69848197  1
  Se  Se247  1  0.41106320  0.25034109  0.19005014  1
  Se  Se248  1  0.41579317  0.24505893  0.70448661  1
  Se  Se249  1  0.42828644  0.57874126  0.18532287  1
  Se  Se250  1  0.41005276  0.58384303  0.70413787  1
  Se  Se251  1  0.41350712  0.91826835  0.19321380  1
  Se  Se252  1  0.42403029  0.91082802  0.69272774  1
  Se  Se253  1  0.75025887  0.24063854  0.17926151  1
  Se  Se254  1  0.75685384  0.24128421  0.69894654  1
  Se  Se255  1  0.75526029  0.57962112  0.18890520  1
  Se  Se256  1  0.74532511  0.57983938  0.69754210  1
  Se  Se257  1  0.75810209  0.90955117  0.18043422  1
  Se  Se258  1  0.74640222  0.92562046  0.70986044  1
