# generated using pymatgen
data_In86Cu29Se144
_symmetry_space_group_name_H-M   'P 1'
_cell_length_a   17.56141931
_cell_length_b   17.56631773
_cell_length_c   23.42476743
_cell_angle_alpha   89.99314700
_cell_angle_beta   90.02386058
_cell_angle_gamma   89.98255369
_symmetry_Int_Tables_number   1
_chemical_formula_structural   In86Cu29Se144
_chemical_formula_sum   'In86 Cu29 Se144'
_cell_volume   7226.29310947
_cell_formula_units_Z   1
loop_
 _symmetry_equiv_pos_site_id
 _symmetry_equiv_pos_as_xyz
  1  'x, y, z'
loop_
 _atom_site_type_symbol
 _atom_site_label
 _atom_site_symmetry_multiplicity
 _atom_site_fract_x
 _atom_site_fract_y
 _atom_site_fract_z
 _atom_site_occupancy
  In  In0  1  0.01207653  0.18065857  0.11653708  1
  In  In1  1  -0.00696409  0.17634948  0.63445394  1
  In  In2  1  0.01121564  0.49963584  0.12437947  1
  In  In3  1  0.00428609  0.50045303  0.61878968  1
  In  In4  1  -0.00988084  0.82470528  0.11200220  1
  In  In5  1  0.00265869  0.83214997  0.62648660  1
  In  In6  1  0.33789402  0.18446617  0.10652574  1
  In  In7  1  0.33285657  0.17627287  0.63458198  1
  In  In8  1  0.32649956  0.49919653  0.12702140  1
  In  In9  1  0.31628044  0.51270653  0.63348148  1
  In  In10  1  0.32075933  0.82556952  0.12346642  1
  In  In11  1  0.30655589  0.83256692  0.62580419  1
  In  In12  1  0.65478802  0.17554959  0.14107417  1
  In  In13  1  0.67199445  0.15291296  0.62645263  1
  In  In14  1  0.66793809  0.49871158  0.13716352  1
  In  In15  1  0.68147407  0.48894440  0.62292083  1
  In  In16  1  0.67675737  0.82610646  0.13649011  1
  In  In17  1  0.67637877  0.81980520  0.62460501  1
  In  In18  1  0.15213453  -0.00324789  0.37289662  1
  In  In19  1  0.15301556  0.00945867  0.87692295  1
  In  In20  1  0.17555203  0.34797497  0.36727141  1
  In  In21  1  0.16318917  0.33476977  0.88216401  1
  In  In22  1  0.16359563  0.66092441  0.37658137  1
  In  In23  1  0.15592496  0.65559747  0.88069114  1
  In  In24  1  0.50588145  -0.00888007  0.36870981  1
  In  In25  1  0.50522177  0.01627540  0.88222620  1
  In  In26  1  0.50075158  0.32704106  0.36108324  1
  In  In27  1  0.47281829  0.33351570  0.88641255  1
  In  In28  1  0.49257747  0.65913758  0.36422061  1
  In  In29  1  0.48940896  0.67537641  0.87794774  1
  In  In30  1  0.83543859  0.00243216  0.38041297  1
  In  In31  1  0.84147897  -0.01227549  0.88296750  1
  In  In32  1  0.84002870  0.33386543  0.36929612  1
  In  In33  1  0.83949497  0.32312129  0.87361239  1
  In  In34  1  0.84218262  0.66486841  0.37849814  1
  In  In35  1  0.86469117  0.67116998  0.87750262  1
  In  In36  1  -0.01031050  0.16188351  0.37122980  1
  In  In37  1  0.03496372  0.19071021  0.84403763  1
  In  In38  1  0.00500270  0.50406232  0.37863674  1
  In  In39  1  0.01419490  0.50877981  0.87237105  1
  In  In40  1  0.01087867  0.80975645  0.39358135  1
  In  In41  1  -0.00451340  0.82953223  0.87774645  1
  In  In42  1  0.33021275  0.17898784  0.36891768  1
  In  In43  1  0.30281645  0.20433294  0.91422671  1
  In  In44  1  0.32724403  0.49597518  0.37087610  1
  In  In45  1  0.30434033  0.47457366  0.86882459  1
  In  In46  1  0.33036067  0.82174760  0.37085872  1
  In  In47  1  0.32476599  0.81242874  0.87281500  1
  In  In48  1  0.68072798  0.17897263  0.35557861  1
  In  In49  1  0.65858085  0.14937554  0.88944010  1
  In  In50  1  0.67577825  0.50664826  0.36328071  1
  In  In51  1  0.67373475  0.49230852  0.87670750  1
  In  In52  1  0.68130295  0.84071687  0.36804454  1
  In  In53  1  0.68228792  0.84744361  0.88240668  1
  In  In54  1  0.16288634  -0.00638082  0.11368078  1
  In  In55  1  0.16390906  -0.01771489  0.62926185  1
  In  In56  1  0.16517780  0.34353018  0.12028383  1
  In  In57  1  0.14793458  0.34673781  0.63995875  1
  In  In58  1  0.16383463  0.66896601  0.12758898  1
  In  In59  1  0.15789009  0.66849903  0.62393907  1
  In  In60  1  0.50939887  0.01613583  0.12642304  1
  In  In61  1  0.50119779  0.01136228  0.62583645  1
  In  In62  1  0.49257893  0.32700657  0.13220692  1
  In  In63  1  0.49497556  0.32647036  0.62767888  1
  In  In64  1  0.50154975  0.66621348  0.13142543  1
  In  In65  1  0.49319831  0.65657805  0.62396241  1
  In  In66  1  0.83074972  -0.01073134  0.12544168  1
  In  In67  1  0.83711012  0.01062079  0.61789590  1
  In  In68  1  0.83732265  0.33220173  0.12955696  1
  In  In69  1  0.85027127  0.34619317  0.60908362  1
  In  In70  1  0.83306350  0.66833075  0.13412108  1
  In  In71  1  0.87458329  0.69208126  0.58805663  1
  In  In72  1  0.33039665  0.00239199  0.75877917  1
  In  In73  1  0.66595094  0.33124980  0.74971317  1
  In  In74  1  0.67014877  0.65936047  0.74514873  1
  In  In75  1  0.67101837  -0.00048880  0.75844443  1
  In  In76  1  0.50778867  0.16960436  0.49517000  1
  In  In77  1  0.49692435  0.83539177  0.00717463  1
  In  In78  1  0.33773607  0.00407219  0.23866581  1
  In  In79  1  0.50561942  0.83498902  0.49626525  1
  In  In80  1  0.83978029  0.16027705  0.00392975  1
  In  In81  1  -0.00622276  -0.00341704  0.24655374  1
  In  In82  1  0.15947040  0.16864316  0.50599428  1
  In  In83  1  0.49247831  0.50043554  0.01150370  1
  In  In84  1  0.84545157  0.50439030  -0.00109972  1
  In  In85  1  0.50522311  0.49929067  0.49189793  1
  Cu  Cu86  1  0.68076807  0.32656289  0.48899066  1
  Cu  Cu87  1  0.50299087  0.82890110  0.24916312  1
  Cu  Cu88  1  0.66078500  0.33058674  0.00972331  1
  Cu  Cu89  1  0.15709530  0.82001015  0.75258902  1
  Cu  Cu90  1  0.67942069  0.67570537  0.00498671  1
  Cu  Cu91  1  -0.00244625  -0.00794782  0.50141529  1
  Cu  Cu92  1  0.48704497  0.83489696  0.75362859  1
  Cu  Cu93  1  0.84957687  0.50273027  0.73889850  1
  Cu  Cu94  1  0.84001716  0.82360339  0.74979343  1
  Cu  Cu95  1  0.33528332  -0.00764888  -0.00123967  1
  Cu  Cu96  1  0.83958185  0.16907211  0.74747957  1
  Cu  Cu97  1  -0.00227410  0.00297764  -0.00850373  1
  Cu  Cu98  1  0.16966874  0.50221972  0.75026018  1
  Cu  Cu99  1  0.67784913  0.00082159  0.49570506  1
  Cu  Cu100  1  0.32178546  0.00215524  0.50096225  1
  Cu  Cu101  1  0.31920312  0.67307635  0.50206497  1
  Cu  Cu102  1  0.83925845  0.50097701  0.25271315  1
  Cu  Cu103  1  0.67450233  0.66346161  0.48928137  1
  Cu  Cu104  1  0.32206321  0.65250073  -0.00487421  1
  Cu  Cu105  1  0.83417516  0.16723534  0.24784409  1
  Cu  Cu106  1  0.48749769  0.18100770  0.76296995  1
  Cu  Cu107  1  0.49311230  0.49678259  0.24687684  1
  Cu  Cu108  1  0.32599493  0.34817813  0.50250425  1
  Cu  Cu109  1  0.16587829  0.82608638  0.25011399  1
  Cu  Cu110  1  0.00269515  0.32989513  0.49744117  1
  Cu  Cu111  1  0.48678632  0.50652963  0.75298562  1
  Cu  Cu112  1  0.16428978  0.50545704  0.24964046  1
  Cu  Cu113  1  0.17012903  0.17763826  0.23989807  1
  Cu  Cu114  1  0.84406012  0.82897165  0.25365713  1
  Se  Se115  1  0.07771732  0.08146912  0.05136336  1
  Se  Se116  1  0.07438584  0.07393322  0.56477524  1
  Se  Se117  1  0.09601974  0.43505497  0.04778910  1
  Se  Se118  1  0.08752425  0.41057244  0.55253303  1
  Se  Se119  1  0.10406520  0.76900065  0.05835905  1
  Se  Se120  1  0.07595141  0.74784974  0.55405686  1
  Se  Se121  1  0.41294759  0.07572455  0.05571381  1
  Se  Se122  1  0.40553432  0.08504426  0.55561677  1
  Se  Se123  1  0.40151382  0.40169683  0.05778258  1
  Se  Se124  1  0.41446230  0.42120814  0.56218142  1
  Se  Se125  1  0.40678265  0.73244867  0.05463849  1
  Se  Se126  1  0.40905985  0.75067791  0.55847119  1
  Se  Se127  1  0.74406479  0.08832974  0.07031298  1
  Se  Se128  1  0.75402357  0.09187080  0.54769005  1
  Se  Se129  1  0.74604817  0.41708244  0.05894911  1
  Se  Se130  1  0.75388286  0.41739803  0.54338493  1
  Se  Se131  1  0.76002601  0.75556820  0.06067177  1
  Se  Se132  1  0.74951446  0.75284487  0.54485333  1
  Se  Se133  1  0.22249124  0.23793291  0.05318090  1
  Se  Se134  1  0.25363418  0.25950595  0.56160166  1
  Se  Se135  1  0.24261556  0.57951151  0.05839632  1
  Se  Se136  1  0.24297040  0.58368553  0.55457284  1
  Se  Se137  1  0.25016168  0.90883575  0.04966125  1
  Se  Se138  1  0.24011591  0.91381785  0.54846099  1
  Se  Se139  1  0.57885721  0.24841449  0.06240636  1
  Se  Se140  1  0.59811038  0.25913941  0.55877043  1
  Se  Se141  1  0.59658110  0.59137322  0.05942845  1
  Se  Se142  1  0.59526690  0.58920929  0.55603603  1
  Se  Se143  1  0.59252437  0.91544576  0.06684796  1
  Se  Se144  1  0.59364114  0.92742656  0.55980110  1
  Se  Se145  1  0.92421466  0.26913139  0.05030730  1
  Se  Se146  1  0.92210045  0.24257215  0.55007514  1
  Se  Se147  1  0.92658303  0.59707434  0.06051453  1
  Se  Se148  1  0.89749376  0.55635345  0.55394209  1
  Se  Se149  1  0.91608742  0.92346356  0.05008599  1
  Se  Se150  1  0.91347809  0.91371956  0.55789465  1
  Se  Se151  1  0.08240575  0.25339017  0.43348825  1
  Se  Se152  1  0.07927241  0.23817965  0.94100182  1
  Se  Se153  1  0.07660192  0.59207115  0.44971890  1
  Se  Se154  1  0.07643904  0.58028152  0.95619931  1
  Se  Se155  1  0.08668526  0.91504498  0.44893579  1
  Se  Se156  1  0.08243450  0.91449516  0.94319638  1
  Se  Se157  1  0.40844857  0.26422848  0.44503113  1
  Se  Se158  1  0.43684904  0.22762984  0.95624476  1
  Se  Se159  1  0.40597707  0.59406463  0.44457307  1
  Se  Se160  1  0.40799692  0.57768547  0.93712765  1
  Se  Se161  1  0.40723339  0.92530700  0.44096715  1
  Se  Se162  1  0.41062041  0.91371111  0.93485393  1
  Se  Se163  1  0.76041210  0.24107423  0.43638465  1
  Se  Se164  1  0.74178861  0.25496294  0.94599014  1
  Se  Se165  1  0.75483534  0.57383318  0.44125256  1
  Se  Se166  1  0.74923337  0.59353967  0.93845386  1
  Se  Se167  1  0.75803732  0.91049651  0.44705343  1
  Se  Se168  1  0.73830349  0.94244582  0.95349902  1
  Se  Se169  1  0.24963417  0.08379983  0.43691365  1
  Se  Se170  1  0.24863775  0.07440435  0.94742009  1
  Se  Se171  1  0.24305415  0.42740828  0.44673953  1
  Se  Se172  1  0.24513531  0.41319413  0.95628676  1
  Se  Se173  1  0.24272332  0.75638660  0.44355923  1
  Se  Se174  1  0.24198283  0.74373197  0.94696988  1
  Se  Se175  1  0.59463486  0.07811992  0.43473815  1
  Se  Se176  1  0.58797291  0.06823099  0.96334891  1
  Se  Se177  1  0.59179353  0.40451811  0.43326426  1
  Se  Se178  1  0.58501732  0.41252927  0.94630248  1
  Se  Se179  1  0.58669109  0.74100387  0.43252702  1
  Se  Se180  1  0.59237625  0.74814704  0.94375140  1
  Se  Se181  1  0.92166315  0.08272435  0.44884280  1
  Se  Se182  1  0.92870808  0.09227755  0.93006752  1
  Se  Se183  1  0.91988261  0.41276103  0.44195505  1
  Se  Se184  1  0.92552155  0.41044313  0.93682570  1
  Se  Se185  1  0.91018270  0.74530434  0.45767321  1
  Se  Se186  1  0.89866891  0.77117617  0.95151318  1
  Se  Se187  1  0.25111443  0.25797496  0.29812167  1
  Se  Se188  1  0.25715581  0.25473069  0.81808832  1
  Se  Se189  1  0.25002237  0.58633888  0.30480544  1
  Se  Se190  1  0.24746914  0.58483697  0.80906759  1
  Se  Se191  1  0.24469552  0.91690631  0.30379545  1
  Se  Se192  1  0.23817916  0.90473620  0.81091497  1
  Se  Se193  1  0.57491464  0.23805379  0.29518446  1
  Se  Se194  1  0.58164475  0.25007172  0.82072203  1
  Se  Se195  1  0.58017233  0.58006677  0.29869537  1
  Se  Se196  1  0.57647094  0.57708503  0.81322586  1
  Se  Se197  1  0.58826933  0.91275719  0.29947083  1
  Se  Se198  1  0.57225241  0.90890569  0.81362437  1
  Se  Se199  1  0.92184303  0.24906323  0.29871443  1
  Se  Se200  1  0.92018958  0.25981422  0.79507938  1
  Se  Se201  1  0.92164539  0.58420015  0.30631263  1
  Se  Se202  1  0.92425182  0.58374729  0.80130405  1
  Se  Se203  1  0.92306430  0.90631614  0.31806220  1
  Se  Se204  1  0.91497090  0.91305252  0.80496557  1
  Se  Se205  1  0.09121399  0.09327434  0.29879585  1
  Se  Se206  1  0.07951036  0.06909699  0.79325487  1
  Se  Se207  1  0.08035156  0.42137238  0.30314828  1
  Se  Se208  1  0.08853709  0.41703928  0.80542317  1
  Se  Se209  1  0.08146820  0.74864879  0.30781666  1
  Se  Se210  1  0.07502693  0.74083273  0.81041645  1
  Se  Se211  1  0.42064514  0.08820342  0.30836535  1
  Se  Se212  1  0.41066218  0.09648160  0.82077803  1
  Se  Se213  1  0.41100304  0.41469590  0.30266109  1
  Se  Se214  1  0.41263220  0.41537792  0.80625469  1
  Se  Se215  1  0.41300150  0.74861244  0.29832360  1
  Se  Se216  1  0.40911366  0.74103382  0.79887838  1
  Se  Se217  1  0.76011347  0.07553793  0.30193327  1
  Se  Se218  1  0.75983959  0.09505788  0.81389497  1
  Se  Se219  1  0.75299957  0.41284457  0.29997900  1
  Se  Se220  1  0.76512729  0.42634947  0.80107696  1
  Se  Se221  1  0.75836611  0.74553220  0.30660498  1
  Se  Se222  1  0.75360504  0.75113503  0.81164247  1
  Se  Se223  1  0.24097486  0.08788740  0.18210715  1
  Se  Se224  1  0.24218325  0.08489236  0.69173158  1
  Se  Se225  1  0.24562780  0.41743934  0.19748255  1
  Se  Se226  1  0.25327796  0.41330879  0.70049582  1
  Se  Se227  1  0.25380938  0.74396088  0.20008794  1
  Se  Se228  1  0.24453235  0.74299256  0.69859489  1
  Se  Se229  1  0.58778324  0.07638238  0.20641133  1
  Se  Se230  1  0.57169039  0.09759354  0.70448778  1
  Se  Se231  1  0.57887314  0.41274552  0.19682942  1
  Se  Se232  1  0.57431514  0.42896240  0.69284198  1
  Se  Se233  1  0.58835102  0.74236680  0.20022594  1
  Se  Se234  1  0.57181426  0.75668821  0.69285797  1
  Se  Se235  1  0.91503158  0.09396389  0.18278914  1
  Se  Se236  1  0.91610317  0.07765115  0.69621564  1
  Se  Se237  1  0.91920567  0.42303075  0.19157570  1
  Se  Se238  1  0.92699139  0.40908882  0.69011710  1
  Se  Se239  1  0.92686403  0.75140264  0.19593829  1
  Se  Se240  1  0.91536463  0.74071393  0.68910502  1
  Se  Se241  1  0.08083775  0.26152654  0.19263321  1
  Se  Se242  1  0.09408150  0.23689206  0.69939809  1
  Se  Se243  1  0.08031978  0.58893045  0.19772120  1
  Se  Se244  1  0.08266071  0.57873033  0.69342254  1
  Se  Se245  1  0.08787731  0.90823704  0.19017143  1
  Se  Se246  1  0.07897939  0.91126395  0.70232223  1
  Se  Se247  1  0.40542810  0.24042780  0.19413275  1
  Se  Se248  1  0.40967157  0.26260765  0.70406876  1
  Se  Se249  1  0.41296988  0.58262131  0.19359857  1
  Se  Se250  1  0.40822018  0.59180662  0.69894518  1
  Se  Se251  1  0.42621776  0.90570648  0.18343940  1
  Se  Se252  1  0.41718181  0.91533309  0.68750489  1
  Se  Se253  1  0.75140793  0.25679015  0.19963574  1
  Se  Se254  1  0.75754833  0.24772347  0.68577006  1
  Se  Se255  1  0.75123361  0.58425059  0.20202153  1
  Se  Se256  1  0.76531125  0.58314680  0.68212722  1
  Se  Se257  1  0.75830212  0.91418222  0.20390960  1
  Se  Se258  1  0.75692823  0.90845450  0.69333591  1
