# generated using pymatgen
data_In86Cu29Se144
_symmetry_space_group_name_H-M   'P 1'
_cell_length_a   17.57239436
_cell_length_b   17.57152166
_cell_length_c   23.43114049
_cell_angle_alpha   89.99986177
_cell_angle_beta   89.97557611
_cell_angle_gamma   90.00729027
_symmetry_Int_Tables_number   1
_chemical_formula_structural   In86Cu29Se144
_chemical_formula_sum   'In86 Cu29 Se144'
_cell_volume   7234.91941606
_cell_formula_units_Z   1
loop_
 _symmetry_equiv_pos_site_id
 _symmetry_equiv_pos_as_xyz
  1  'x, y, z'
loop_
 _atom_site_type_symbol
 _atom_site_label
 _atom_site_symmetry_multiplicity
 _atom_site_fract_x
 _atom_site_fract_y
 _atom_site_fract_z
 _atom_site_occupancy
  In  In0  1  0.00631965  0.15592577  0.13629890  1
  In  In1  1  -0.00509180  0.14694401  0.59831336  1
  In  In2  1  -0.00083503  0.48344879  0.13444661  1
  In  In3  1  -0.00112186  0.49660701  0.62438450  1
  In  In4  1  0.00155898  0.84032205  0.12536261  1
  In  In5  1  0.00979423  0.84655500  0.61078994  1
  In  In6  1  0.32247088  0.17733054  0.13460446  1
  In  In7  1  0.33825455  0.16999900  0.61793269  1
  In  In8  1  0.33571743  0.49948086  0.11589706  1
  In  In9  1  0.33897777  0.49502493  0.64375378  1
  In  In10  1  0.32974016  0.83018714  0.12793036  1
  In  In11  1  0.33060980  0.82477214  0.63007004  1
  In  In12  1  0.66128289  0.15239857  0.12848517  1
  In  In13  1  0.64917292  0.16184817  0.61303034  1
  In  In14  1  0.66436410  0.52389309  0.12642257  1
  In  In15  1  0.66377105  0.50959470  0.62775559  1
  In  In16  1  0.66358221  0.83195690  0.12509477  1
  In  In17  1  0.67232081  0.82974697  0.62566270  1
  In  In18  1  0.16839774  -0.00181213  0.37436295  1
  In  In19  1  0.17376671  -0.00339768  0.88766055  1
  In  In20  1  0.15773099  0.31779929  0.36238119  1
  In  In21  1  0.18677782  0.32135201  0.89186506  1
  In  In22  1  0.17776663  0.67471774  0.37003794  1
  In  In23  1  0.17169215  0.65888366  0.88711359  1
  In  In24  1  0.50773154  0.00833501  0.36781293  1
  In  In25  1  0.50234888  -0.01184273  0.87857809  1
  In  In26  1  0.49394782  0.33490361  0.37304231  1
  In  In27  1  0.48544009  0.35597403  0.88494035  1
  In  In28  1  0.50479095  0.66660171  0.36379563  1
  In  In29  1  0.49949347  0.66749604  0.87059415  1
  In  In30  1  0.83477464  0.00173023  0.37233600  1
  In  In31  1  0.82095500  -0.00660780  0.87221826  1
  In  In32  1  0.83041105  0.31380669  0.37529459  1
  In  In33  1  0.83693256  0.32697561  0.87791399  1
  In  In34  1  0.83713023  0.69220159  0.36803473  1
  In  In35  1  0.83779204  0.68587588  0.87672917  1
  In  In36  1  -0.00099644  0.15624488  0.37639062  1
  In  In37  1  0.01123053  0.17652060  0.87397451  1
  In  In38  1  0.01427130  0.49942393  0.36471221  1
  In  In39  1  0.00772124  0.51310021  0.88277688  1
  In  In40  1  -0.01346904  0.86504657  0.39297424  1
  In  In41  1  0.00224268  0.82723208  0.88916703  1
  In  In42  1  0.33472613  0.16597172  0.37089379  1
  In  In43  1  0.31839625  0.16163698  0.87467669  1
  In  In44  1  0.33905571  0.49952855  0.36125671  1
  In  In45  1  0.33365526  0.50022844  0.87448500  1
  In  In46  1  0.32388404  0.82501718  0.36840379  1
  In  In47  1  0.33769651  0.83306556  0.88472975  1
  In  In48  1  0.68519032  0.15846706  0.39295878  1
  In  In49  1  0.67382704  0.16030059  0.86900378  1
  In  In50  1  0.65971613  0.50123383  0.36866149  1
  In  In51  1  0.64074216  0.51351604  0.87943150  1
  In  In52  1  0.69612029  0.85643755  0.34244190  1
  In  In53  1  0.66925588  0.83202775  0.87343563  1
  In  In54  1  0.16426527  0.00202319  0.12864726  1
  In  In55  1  0.16706864  -0.00779416  0.61198575  1
  In  In56  1  0.17324763  0.32973615  0.12047911  1
  In  In57  1  0.17660318  0.32902799  0.62512012  1
  In  In58  1  0.17740960  0.68044292  0.11839509  1
  In  In59  1  0.17499688  0.67545380  0.62839584  1
  In  In60  1  0.51038464  -0.01441155  0.13442913  1
  In  In61  1  0.49934041  0.01924456  0.62342964  1
  In  In62  1  0.47327694  0.33875088  0.12033872  1
  In  In63  1  0.49373503  0.32204076  0.62436211  1
  In  In64  1  0.49546396  0.66705900  0.11907986  1
  In  In65  1  0.50126561  0.66429571  0.63868486  1
  In  In66  1  0.84329568  -0.01917892  0.14557932  1
  In  In67  1  0.82631721  -0.01268428  0.61181438  1
  In  In68  1  0.84426996  0.34806915  0.13676293  1
  In  In69  1  0.83663735  0.32664381  0.61676285  1
  In  In70  1  0.80768357  0.66894224  0.13846258  1
  In  In71  1  0.81972280  0.67579020  0.62531342  1
  In  In72  1  0.00204609  0.67311454  0.24765199  1
  In  In73  1  0.83938752  0.50807162  0.00757609  1
  In  In74  1  0.66568446  0.32842406  0.25028787  1
  In  In75  1  0.00301213  -0.00433884  0.73767662  1
  In  In76  1  0.50040744  0.49523836  0.50114242  1
  In  In77  1  0.82973577  0.49996306  0.50149248  1
  In  In78  1  0.84167184  0.15857256  0.00342561  1
  In  In79  1  0.00477469  0.33160033  0.74177935  1
  In  In80  1  0.65278590  0.34018512  0.74837561  1
  In  In81  1  0.50222901  0.83468498  0.49281392  1
  In  In82  1  0.00336442  0.67059754  0.75304521  1
  In  In83  1  0.33421413  -0.00342052  0.75178178  1
  In  In84  1  0.16928053  0.49637451  0.49881106  1
  In  In85  1  0.49292480  0.16296780  0.00144869  1
  Cu  Cu86  1  0.81558828  0.50386098  0.75359534  1
  Cu  Cu87  1  0.66125687  0.67307442  -0.00081391  1
  Cu  Cu88  1  0.33287998  0.00027599  0.01109277  1
  Cu  Cu89  1  -0.00416771  0.32522405  0.48689742  1
  Cu  Cu90  1  0.16837500  0.16554261  0.74900253  1
  Cu  Cu91  1  0.66815537  -0.00315639  0.49254760  1
  Cu  Cu92  1  0.49158382  0.81963101  0.24512198  1
  Cu  Cu93  1  0.51042153  0.83726464  0.75383363  1
  Cu  Cu94  1  -0.00059562  0.00253408  0.00841917  1
  Cu  Cu95  1  0.82219614  0.15994725  0.74255247  1
  Cu  Cu96  1  0.00165845  0.67664772  0.49747304  1
  Cu  Cu97  1  -0.00290349  0.67128581  0.01080004  1
  Cu  Cu98  1  0.33594037  0.66927842  -0.00172080  1
  Cu  Cu99  1  0.16087963  0.84062587  0.24999183  1
  Cu  Cu100  1  0.49966772  0.17327013  0.74804727  1
  Cu  Cu101  1  0.50203470  0.16377258  0.25015799  1
  Cu  Cu102  1  0.66295737  0.33565867  0.00586670  1
  Cu  Cu103  1  0.49952549  0.50004780  0.24114329  1
  Cu  Cu104  1  0.01162887  0.32932248  0.00637118  1
  Cu  Cu105  1  0.83593526  0.16448025  0.25839509  1
  Cu  Cu106  1  0.66960726  -0.01429345  0.00316726  1
  Cu  Cu107  1  0.83364014  0.83569055  0.74724666  1
  Cu  Cu108  1  0.32547932  0.32702215  0.49449514  1
  Cu  Cu109  1  0.67141776  0.67868823  0.49343920  1
  Cu  Cu110  1  0.17645746  0.49752986  0.24255234  1
  Cu  Cu111  1  0.17063290  0.49589849  0.76142707  1
  Cu  Cu112  1  0.33256693  0.66695069  0.49970382  1
  Cu  Cu113  1  0.33271271  0.00120215  0.49550793  1
  Cu  Cu114  1  0.16882789  0.16703124  0.25189520  1
  Se  Se115  1  0.08357056  0.08752687  0.05706632  1
  Se  Se116  1  0.09373909  0.07484150  0.54069752  1
  Se  Se117  1  0.08561504  0.42109344  0.05836289  1
  Se  Se118  1  0.07204283  0.40379898  0.55376304  1
  Se  Se119  1  0.08335946  0.75923878  0.05585078  1
  Se  Se120  1  0.09106360  0.74695923  0.55487397  1
  Se  Se121  1  0.41493820  0.07769624  0.07196666  1
  Se  Se122  1  0.41678188  0.08582182  0.54736442  1
  Se  Se123  1  0.41772794  0.42276534  0.04233473  1
  Se  Se124  1  0.39910264  0.41209157  0.55770557  1
  Se  Se125  1  0.41405975  0.75567995  0.05396387  1
  Se  Se126  1  0.42035853  0.74136638  0.55797418  1
  Se  Se127  1  0.74981228  0.06969070  0.06127091  1
  Se  Se128  1  0.74444647  0.08229470  0.55170443  1
  Se  Se129  1  0.74803181  0.41311367  0.06293405  1
  Se  Se130  1  0.73536170  0.41286245  0.56006572  1
  Se  Se131  1  0.74788259  0.74760094  0.05621923  1
  Se  Se132  1  0.75439108  0.75992580  0.54843903  1
  Se  Se133  1  0.25798936  0.24868492  0.05242115  1
  Se  Se134  1  0.24435664  0.24434241  0.55061639  1
  Se  Se135  1  0.25031365  0.58800272  0.05157380  1
  Se  Se136  1  0.25976665  0.58162325  0.56184382  1
  Se  Se137  1  0.24613329  0.91641833  0.06046236  1
  Se  Se138  1  0.26503884  0.91089034  0.55492940  1
  Se  Se139  1  0.58545580  0.25223022  0.06390228  1
  Se  Se140  1  0.57683099  0.25750155  0.54981059  1
  Se  Se141  1  0.58042604  0.58433342  0.04871728  1
  Se  Se142  1  0.58817216  0.60015716  0.55367502  1
  Se  Se143  1  0.57712121  0.90952134  0.05310441  1
  Se  Se144  1  0.58619344  0.92456495  0.55885924  1
  Se  Se145  1  0.92210050  0.25614825  0.06482813  1
  Se  Se146  1  0.91113846  0.24543052  0.54372762  1
  Se  Se147  1  0.92220733  0.59307067  0.07519287  1
  Se  Se148  1  0.92323005  0.59522978  0.55906863  1
  Se  Se149  1  0.91139434  0.92109251  0.05818222  1
  Se  Se150  1  0.92695093  0.92817966  0.54563782  1
  Se  Se151  1  0.08723275  0.24441105  0.44152106  1
  Se  Se152  1  0.08993059  0.24176980  0.95246589  1
  Se  Se153  1  0.08027906  0.59209414  0.44078552  1
  Se  Se154  1  0.08169659  0.58732913  0.95929353  1
  Se  Se155  1  0.10847021  0.90169902  0.44595157  1
  Se  Se156  1  0.08207630  0.91888517  0.95217515  1
  Se  Se157  1  0.41601604  0.25061588  0.44252246  1
  Se  Se158  1  0.40429463  0.25228988  0.94185902  1
  Se  Se159  1  0.41247871  0.58696221  0.43904035  1
  Se  Se160  1  0.41679761  0.58733331  0.94174553  1
  Se  Se161  1  0.41034997  0.92167426  0.43337489  1
  Se  Se162  1  0.41616993  0.92250994  0.95272463  1
  Se  Se163  1  0.74837897  0.26069414  0.45595718  1
  Se  Se164  1  0.74232223  0.25169234  0.94760449  1
  Se  Se165  1  0.74712134  0.59072762  0.43605703  1
  Se  Se166  1  0.74804248  0.59103964  0.94100026  1
  Se  Se167  1  0.74646933  0.91222161  0.43705333  1
  Se  Se168  1  0.75576181  0.90815826  0.94718975  1
  Se  Se169  1  0.25184597  0.08532377  0.44139235  1
  Se  Se170  1  0.25292287  0.08341500  0.95470997  1
  Se  Se171  1  0.25410829  0.41142486  0.43147734  1
  Se  Se172  1  0.23336878  0.43955781  0.94329785  1
  Se  Se173  1  0.24991038  0.75102045  0.44841194  1
  Se  Se174  1  0.24774907  0.75470054  0.95092031  1
  Se  Se175  1  0.57948554  0.08249341  0.44687606  1
  Se  Se176  1  0.59613230  0.07682370  0.94543864  1
  Se  Se177  1  0.59265852  0.40895258  0.44188742  1
  Se  Se178  1  0.58168259  0.42071360  0.95359871  1
  Se  Se179  1  0.59187018  0.75244740  0.42907898  1
  Se  Se180  1  0.58153890  0.75247639  0.94056356  1
  Se  Se181  1  0.90352631  0.08982517  0.44425743  1
  Se  Se182  1  0.92696471  0.07467227  0.93390346  1
  Se  Se183  1  0.92289908  0.41858612  0.43496741  1
  Se  Se184  1  0.92673768  0.40953318  0.94653453  1
  Se  Se185  1  0.91331868  0.75764042  0.44866663  1
  Se  Se186  1  0.91187350  0.75289212  0.95747990  1
  Se  Se187  1  0.25864099  0.25258654  0.29839929  1
  Se  Se188  1  0.24646018  0.25083236  0.80414676  1
  Se  Se189  1  0.24973555  0.58453454  0.30058321  1
  Se  Se190  1  0.24842459  0.58908384  0.80818528  1
  Se  Se191  1  0.25202331  0.91871008  0.30144367  1
  Se  Se192  1  0.24381980  0.91086556  0.81195304  1
  Se  Se193  1  0.58424613  0.23812622  0.31456924  1
  Se  Se194  1  0.57271802  0.24901850  0.81755468  1
  Se  Se195  1  0.58442923  0.58041289  0.29491722  1
  Se  Se196  1  0.58159443  0.58841262  0.79852714  1
  Se  Se197  1  0.56893864  0.90606061  0.30158321  1
  Se  Se198  1  0.59146542  0.92373938  0.80535428  1
  Se  Se199  1  0.92411432  0.24809594  0.30594079  1
  Se  Se200  1  0.90787684  0.23832555  0.80139440  1
  Se  Se201  1  0.91370028  0.58313920  0.31048121  1
  Se  Se202  1  0.90735812  0.57762953  0.81051706  1
  Se  Se203  1  0.90963342  0.90830973  0.30612457  1
  Se  Se204  1  0.91915182  0.90975699  0.80840822  1
  Se  Se205  1  0.08607014  0.08238909  0.30463422  1
  Se  Se206  1  0.09082939  0.08154173  0.80755288  1
  Se  Se207  1  0.09060932  0.41569252  0.29516767  1
  Se  Se208  1  0.08149277  0.41568322  0.81509167  1
  Se  Se209  1  0.08190298  0.76335726  0.31414501  1
  Se  Se210  1  0.09119883  0.75530549  0.81622294  1
  Se  Se211  1  0.41459812  0.08094745  0.30058049  1
  Se  Se212  1  0.42451888  0.08936260  0.81144722  1
  Se  Se213  1  0.42225776  0.41326738  0.29616098  1
  Se  Se214  1  0.41346701  0.41761196  0.80341298  1
  Se  Se215  1  0.40760595  0.73946022  0.30137836  1
  Se  Se216  1  0.42011313  0.76442076  0.80833083  1
  Se  Se217  1  0.74404442  0.08605128  0.30757450  1
  Se  Se218  1  0.74527946  0.07398645  0.79754196  1
  Se  Se219  1  0.75707484  0.41607548  0.31052315  1
  Se  Se220  1  0.74692957  0.41888149  0.81713479  1
  Se  Se221  1  0.73462153  0.72969121  0.29558487  1
  Se  Se222  1  0.75238924  0.75101534  0.80127734  1
  Se  Se223  1  0.25017357  0.08089187  0.19888465  1
  Se  Se224  1  0.24576993  0.08297384  0.68744096  1
  Se  Se225  1  0.25774894  0.41446134  0.18831146  1
  Se  Se226  1  0.24505189  0.40983786  0.70172873  1
  Se  Se227  1  0.24411672  0.75261443  0.20081318  1
  Se  Se228  1  0.25712775  0.74416616  0.70260832  1
  Se  Se229  1  0.58668372  0.07555061  0.20350312  1
  Se  Se230  1  0.58445409  0.08935602  0.69728156  1
  Se  Se231  1  0.58082107  0.41636523  0.18290057  1
  Se  Se232  1  0.56347725  0.42941306  0.68805778  1
  Se  Se233  1  0.58076660  0.74309998  0.19096619  1
  Se  Se234  1  0.58968988  0.75328090  0.69755296  1
  Se  Se235  1  0.91878309  0.07960652  0.20505752  1
  Se  Se236  1  0.90994461  0.08858160  0.68291060  1
  Se  Se237  1  0.92466302  0.41359182  0.21319508  1
  Se  Se238  1  0.89942496  0.42472941  0.69345772  1
  Se  Se239  1  0.90497586  0.76042121  0.19266103  1
  Se  Se240  1  0.91941622  0.76075596  0.68611939  1
  Se  Se241  1  0.08927065  0.25137948  0.19401316  1
  Se  Se242  1  0.08301483  0.23221780  0.68198029  1
  Se  Se243  1  0.09353392  0.58300694  0.18755590  1
  Se  Se244  1  0.08961590  0.57101897  0.69496808  1
  Se  Se245  1  0.07648940  0.92308909  0.19834424  1
  Se  Se246  1  0.10215976  0.90251132  0.69126017  1
  Se  Se247  1  0.42046423  0.25044397  0.19917031  1
  Se  Se248  1  0.40866916  0.24867634  0.69667076  1
  Se  Se249  1  0.41410951  0.58278235  0.18897213  1
  Se  Se250  1  0.40376163  0.59809545  0.70277462  1
  Se  Se251  1  0.41237532  0.91297578  0.19756113  1
  Se  Se252  1  0.43036182  0.91379749  0.68931628  1
  Se  Se253  1  0.76026978  0.23894262  0.18950625  1
  Se  Se254  1  0.74598759  0.25017127  0.68775445  1
  Se  Se255  1  0.76977279  0.55201504  0.19820816  1
  Se  Se256  1  0.74357886  0.59166593  0.69740412  1
  Se  Se257  1  0.73011662  0.92209371  0.19861728  1
  Se  Se258  1  0.75153905  0.91948500  0.69285008  1
