# generated using pymatgen
data_In86Cu29Se144
_symmetry_space_group_name_H-M   'P 1'
_cell_length_a   17.58268912
_cell_length_b   17.58398940
_cell_length_c   23.44459912
_cell_angle_alpha   90.00027878
_cell_angle_beta   89.99712900
_cell_angle_gamma   89.97487554
_symmetry_Int_Tables_number   1
_chemical_formula_structural   In86Cu29Se144
_chemical_formula_sum   'In86 Cu29 Se144'
_cell_volume   7248.45554010
_cell_formula_units_Z   1
loop_
 _symmetry_equiv_pos_site_id
 _symmetry_equiv_pos_as_xyz
  1  'x, y, z'
loop_
 _atom_site_type_symbol
 _atom_site_label
 _atom_site_symmetry_multiplicity
 _atom_site_fract_x
 _atom_site_fract_y
 _atom_site_fract_z
 _atom_site_occupancy
  In  In0  1  -0.00744440  0.16958400  0.11898023  1
  In  In1  1  0.01631681  0.15839324  0.63102054  1
  In  In2  1  -0.00299584  0.49341166  0.12019071  1
  In  In3  1  -0.00925159  0.51001393  0.63055671  1
  In  In4  1  -0.00157149  0.84215026  0.11650463  1
  In  In5  1  0.00096949  0.82257668  0.62425407  1
  In  In6  1  0.35396383  0.15563047  0.14636208  1
  In  In7  1  0.33809141  0.16476998  0.62100969  1
  In  In8  1  0.34156494  0.48961180  0.13847722  1
  In  In9  1  0.34939114  0.49996972  0.61982141  1
  In  In10  1  0.33929229  0.82837475  0.13836188  1
  In  In11  1  0.33715753  0.83077719  0.62164110  1
  In  In12  1  0.65643426  0.16286016  0.13118862  1
  In  In13  1  0.65168195  0.15643931  0.62287197  1
  In  In14  1  0.65425620  0.51025995  0.13108971  1
  In  In15  1  0.67507385  0.49967331  0.61693932  1
  In  In16  1  0.66936037  0.82521961  0.12923974  1
  In  In17  1  0.65176259  0.84225466  0.63223504  1
  In  In18  1  0.19258342  -0.01868614  0.38795322  1
  In  In19  1  0.17362601  -0.01121361  0.87084678  1
  In  In20  1  0.16687340  0.32186809  0.37513079  1
  In  In21  1  0.16727614  0.35076935  0.87203106  1
  In  In22  1  0.18310295  0.67569895  0.37081334  1
  In  In23  1  0.17348630  0.67318319  0.86466723  1
  In  In24  1  0.49509932  -0.00055509  0.37275586  1
  In  In25  1  0.50724428  0.01213291  0.86073738  1
  In  In26  1  0.50225240  0.33145592  0.37193751  1
  In  In27  1  0.51456249  0.33117762  0.89292315  1
  In  In28  1  0.50157805  0.66742780  0.37835796  1
  In  In29  1  0.49279843  0.65930536  0.86716579  1
  In  In30  1  0.82680850  0.00979087  0.37465903  1
  In  In31  1  0.82228264  0.01663348  0.88792441  1
  In  In32  1  0.82539463  0.34317278  0.37860495  1
  In  In33  1  0.82747456  0.32016582  0.87757952  1
  In  In34  1  0.81292214  0.66436491  0.37449182  1
  In  In35  1  0.83996866  0.67888157  0.86985445  1
  In  In36  1  0.00667204  0.17961746  0.37751320  1
  In  In37  1  -0.01872911  0.16156518  0.87157617  1
  In  In38  1  -0.00722385  0.48674744  0.38136820  1
  In  In39  1  0.00280834  0.50713196  0.86485154  1
  In  In40  1  0.00404636  0.84351804  0.38121958  1
  In  In41  1  0.00517304  0.82868430  0.87310631  1
  In  In42  1  0.34228323  0.16120180  0.37267867  1
  In  In43  1  0.35001525  0.16825825  0.87508820  1
  In  In44  1  0.34191416  0.51987938  0.36384142  1
  In  In45  1  0.34373410  0.50929546  0.87525130  1
  In  In46  1  0.33675953  0.83631887  0.37450785  1
  In  In47  1  0.33371989  0.83415002  0.86890728  1
  In  In48  1  0.63305081  0.14458731  0.34676063  1
  In  In49  1  0.66852540  0.16603587  0.88229288  1
  In  In50  1  0.66162683  0.49953653  0.37598369  1
  In  In51  1  0.64783633  0.49967790  0.87761411  1
  In  In52  1  0.65516148  0.81849723  0.36769671  1
  In  In53  1  0.67293966  0.84362073  0.86952930  1
  In  In54  1  0.17495306  0.00386432  0.12996172  1
  In  In55  1  0.18638920  0.01052277  0.61684997  1
  In  In56  1  0.18873364  0.33072638  0.13451980  1
  In  In57  1  0.16735012  0.32049911  0.62318689  1
  In  In58  1  0.18319881  0.66057474  0.13543154  1
  In  In59  1  0.16188775  0.67471952  0.62480818  1
  In  In60  1  0.49784707  0.00825934  0.13542497  1
  In  In61  1  0.50169703  -0.00227332  0.62497040  1
  In  In62  1  0.50060715  0.33006845  0.13163243  1
  In  In63  1  0.49898951  0.32854360  0.61427389  1
  In  In64  1  0.49946645  0.66355980  0.12893227  1
  In  In65  1  0.49958803  0.66377635  0.62543993  1
  In  In66  1  0.82192477  -0.01315598  0.11394241  1
  In  In67  1  0.82448708  -0.00917058  0.62836561  1
  In  In68  1  0.82459713  0.31635801  0.11789478  1
  In  In69  1  0.82916046  0.34582029  0.62768190  1
  In  In70  1  0.81938050  0.66644162  0.12089446  1
  In  In71  1  0.83696295  0.66275448  0.63091038  1
  In  In72  1  0.82478328  0.49760942  -0.00024954  1
  In  In73  1  -0.00021954  -0.00635645  0.75188057  1
  In  In74  1  0.00222157  0.66633243  0.25270393  1
  In  In75  1  0.49805513  0.83276204  0.00167227  1
  In  In76  1  0.66765615  0.33492514  0.75633568  1
  In  In77  1  0.33648242  0.33394736  0.74317921  1
  In  In78  1  0.16905681  0.50068733  0.49171740  1
  In  In79  1  0.17069375  0.49633699  0.00854200  1
  In  In80  1  0.00056817  0.33093361  0.24593835  1
  In  In81  1  0.16816322  0.83159164  -0.00626460  1
  In  In82  1  0.16334461  0.16482591  0.00403408  1
  In  In83  1  0.83122762  0.17877587  0.49674389  1
  In  In84  1  0.83107133  0.83068847  0.50564932  1
  In  In85  1  0.00383493  0.00095129  0.24901711  1
  Cu  Cu86  1  0.34136554  0.00059983  0.49939716  1
  Cu  Cu87  1  -0.00400293  0.66225293  0.50446653  1
  Cu  Cu88  1  0.17238821  0.83295862  0.74465951  1
  Cu  Cu89  1  0.01502421  0.00612020  0.50174384  1
  Cu  Cu90  1  0.82588521  0.16729660  0.75660857  1
  Cu  Cu91  1  0.16398653  0.50620529  0.74617253  1
  Cu  Cu92  1  0.49927857  0.49935355  0.74874047  1
  Cu  Cu93  1  0.82438211  0.16505065  0.24599687  1
  Cu  Cu94  1  -0.00457862  0.32641071  -0.00498901  1
  Cu  Cu95  1  0.00495195  0.67196300  -0.00631007  1
  Cu  Cu96  1  0.17413043  0.15811210  0.25659228  1
  Cu  Cu97  1  0.65862186  -0.00251994  0.49472104  1
  Cu  Cu98  1  0.50059512  0.83366403  0.25427611  1
  Cu  Cu99  1  0.49516875  0.82776391  0.74708146  1
  Cu  Cu100  1  0.33901948  0.67043688  0.49677109  1
  Cu  Cu101  1  0.66159517  0.32766935  0.49211135  1
  Cu  Cu102  1  0.16845600  0.17105663  0.74502335  1
  Cu  Cu103  1  0.66746391  0.67594369  0.00049182  1
  Cu  Cu104  1  0.66086738  0.66109253  0.50090054  1
  Cu  Cu105  1  0.82244455  0.49992135  0.24990967  1
  Cu  Cu106  1  0.34677799  0.33205956  0.00929605  1
  Cu  Cu107  1  0.50246715  0.50399657  0.25372011  1
  Cu  Cu108  1  0.00088073  0.33356089  0.50434207  1
  Cu  Cu109  1  0.33869819  0.33155979  0.49501446  1
  Cu  Cu110  1  0.82641121  0.83331137  0.75093166  1
  Cu  Cu111  1  0.65964383  0.00619098  0.00029621  1
  Cu  Cu112  1  0.82775815  0.83367320  0.24500362  1
  Cu  Cu113  1  0.83413911  0.50767711  0.74923962  1
  Cu  Cu114  1  0.34032169  0.00354994  0.00500077  1
  Se  Se115  1  0.07488869  0.06863586  0.06009576  1
  Se  Se116  1  0.09534954  0.09274152  0.55283588  1
  Se  Se117  1  0.07936979  0.39458722  0.06024526  1
  Se  Se118  1  0.08142255  0.41870869  0.56089133  1
  Se  Se119  1  0.08671435  0.73889073  0.06148778  1
  Se  Se120  1  0.08200701  0.74974737  0.54935046  1
  Se  Se121  1  0.41904402  0.08661295  0.06087418  1
  Se  Se122  1  0.42372135  0.08395282  0.55388457  1
  Se  Se123  1  0.42291847  0.42139511  0.06166247  1
  Se  Se124  1  0.42128181  0.41692565  0.54677228  1
  Se  Se125  1  0.40648669  0.74381291  0.05923923  1
  Se  Se126  1  0.42301677  0.74928933  0.55360907  1
  Se  Se127  1  0.74275951  0.08626406  0.05754147  1
  Se  Se128  1  0.74773410  0.07395860  0.55181306  1
  Se  Se129  1  0.73699083  0.41428756  0.06267274  1
  Se  Se130  1  0.74727457  0.40674446  0.54832676  1
  Se  Se131  1  0.75269899  0.75893398  0.05064538  1
  Se  Se132  1  0.73863857  0.74354507  0.56396894  1
  Se  Se133  1  0.26285791  0.24603739  0.06153096  1
  Se  Se134  1  0.25687373  0.25189058  0.55302554  1
  Se  Se135  1  0.26498667  0.58491036  0.06122265  1
  Se  Se136  1  0.25594344  0.58857980  0.55599275  1
  Se  Se137  1  0.25913079  0.91807747  0.05921447  1
  Se  Se138  1  0.25585132  0.91529607  0.55096167  1
  Se  Se139  1  0.57087535  0.24025733  0.06149254  1
  Se  Se140  1  0.58440985  0.24341850  0.54959838  1
  Se  Se141  1  0.58561463  0.59325420  0.05466267  1
  Se  Se142  1  0.57930037  0.57709014  0.55532617  1
  Se  Se143  1  0.58506347  0.92331835  0.06332285  1
  Se  Se144  1  0.58094605  0.91378011  0.55176370  1
  Se  Se145  1  0.91036060  0.24364689  0.04570840  1
  Se  Se146  1  0.92452907  0.25171416  0.56662950  1
  Se  Se147  1  0.92378966  0.59134364  0.05388927  1
  Se  Se148  1  0.90935888  0.58124889  0.55441722  1
  Se  Se149  1  0.91491181  0.91560388  0.04754615  1
  Se  Se150  1  0.92716347  0.92787675  0.55844888  1
  Se  Se151  1  0.08665840  0.25187562  0.45270602  1
  Se  Se152  1  0.08229218  0.25420885  0.93451064  1
  Se  Se153  1  0.07529498  0.59262883  0.43557625  1
  Se  Se154  1  0.08719666  0.58765637  0.94003929  1
  Se  Se155  1  0.09099317  0.91379668  0.45218892  1
  Se  Se156  1  0.07534944  0.92833345  0.94243664  1
  Se  Se157  1  0.42198918  0.24749799  0.44241059  1
  Se  Se158  1  0.42163860  0.24578791  0.95169746  1
  Se  Se159  1  0.41849372  0.58133932  0.44642557  1
  Se  Se160  1  0.43084723  0.57716802  0.94613500  1
  Se  Se161  1  0.42154376  0.91444707  0.44567442  1
  Se  Se162  1  0.41368987  0.92468398  0.93892544  1
  Se  Se163  1  0.73406352  0.24396938  0.42905773  1
  Se  Se164  1  0.73527855  0.26285813  0.94907826  1
  Se  Se165  1  0.74728501  0.57911266  0.44879716  1
  Se  Se166  1  0.74519549  0.59434088  0.93778780  1
  Se  Se167  1  0.74459754  0.91667237  0.43906388  1
  Se  Se168  1  0.74296832  0.92018042  0.94829917  1
  Se  Se169  1  0.25690535  0.08706367  0.44728189  1
  Se  Se170  1  0.25520765  0.07683790  0.94259658  1
  Se  Se171  1  0.26110729  0.41253238  0.43396308  1
  Se  Se172  1  0.26450554  0.40854142  0.94693193  1
  Se  Se173  1  0.25322708  0.75441472  0.44714022  1
  Se  Se174  1  0.26312801  0.73859568  0.94199829  1
  Se  Se175  1  0.58159960  0.08520727  0.44043245  1
  Se  Se176  1  0.57468898  0.08279379  0.94382193  1
  Se  Se177  1  0.57865396  0.41742272  0.44492898  1
  Se  Se178  1  0.58088097  0.42829618  0.95757693  1
  Se  Se179  1  0.58311190  0.75116407  0.44942546  1
  Se  Se180  1  0.58627464  0.74914889  0.93583162  1
  Se  Se181  1  0.92671224  0.08009512  0.44330822  1
  Se  Se182  1  0.91953559  0.08634907  0.95154281  1
  Se  Se183  1  0.91107151  0.41217982  0.45383297  1
  Se  Se184  1  0.92424478  0.41727337  0.93822214  1
  Se  Se185  1  0.91748547  0.74215433  0.43952123  1
  Se  Se186  1  0.91898102  0.75506300  0.94499931  1
  Se  Se187  1  0.25372012  0.24712056  0.30646575  1
  Se  Se188  1  0.24615533  0.24922536  0.81004995  1
  Se  Se189  1  0.23995532  0.58238619  0.29924979  1
  Se  Se190  1  0.25237991  0.57751544  0.80417410  1
  Se  Se191  1  0.25419789  0.91653700  0.30301758  1
  Se  Se192  1  0.25494205  0.91733373  0.79714937  1
  Se  Se193  1  0.59635466  0.26983088  0.29913749  1
  Se  Se194  1  0.57444988  0.24498742  0.81090001  1
  Se  Se195  1  0.58599228  0.58867797  0.30676655  1
  Se  Se196  1  0.58492967  0.58287248  0.79969516  1
  Se  Se197  1  0.58521892  0.91765939  0.30528801  1
  Se  Se198  1  0.57867073  0.91164660  0.80048111  1
  Se  Se199  1  0.90635151  0.24368525  0.30714019  1
  Se  Se200  1  0.91333000  0.25370894  0.80158562  1
  Se  Se201  1  0.90858521  0.57375978  0.30990787  1
  Se  Se202  1  0.91901806  0.59246844  0.80083619  1
  Se  Se203  1  0.90744933  0.91011683  0.30806312  1
  Se  Se204  1  0.90450020  0.91475407  0.81403984  1
  Se  Se205  1  0.08938076  0.08413192  0.31687918  1
  Se  Se206  1  0.09074260  0.09036902  0.80890400  1
  Se  Se207  1  0.08592399  0.42024012  0.30923516  1
  Se  Se208  1  0.08282826  0.41931449  0.79804194  1
  Se  Se209  1  0.08707413  0.76355097  0.30892471  1
  Se  Se210  1  0.08515576  0.75363397  0.79891443  1
  Se  Se211  1  0.43051388  0.09211602  0.30024660  1
  Se  Se212  1  0.40076948  0.07511893  0.80075452  1
  Se  Se213  1  0.41827806  0.42014357  0.30580490  1
  Se  Se214  1  0.42759849  0.41296654  0.81090639  1
  Se  Se215  1  0.41855850  0.74835175  0.30788917  1
  Se  Se216  1  0.41100706  0.74579258  0.80109993  1
  Se  Se217  1  0.74704290  0.07493768  0.29735964  1
  Se  Se218  1  0.74367589  0.08298591  0.80823023  1
  Se  Se219  1  0.74408286  0.41573307  0.30486617  1
  Se  Se220  1  0.75794618  0.42936991  0.81437103  1
  Se  Se221  1  0.74732459  0.74704144  0.29801085  1
  Se  Se222  1  0.74388114  0.74742679  0.80268023  1
  Se  Se223  1  0.25682768  0.07375004  0.20428329  1
  Se  Se224  1  0.25489064  0.08885152  0.69507471  1
  Se  Se225  1  0.23760908  0.43004072  0.20380816  1
  Se  Se226  1  0.24357301  0.42628381  0.68469764  1
  Se  Se227  1  0.24520382  0.75573114  0.20255171  1
  Se  Se228  1  0.25409820  0.74704650  0.69205293  1
  Se  Se229  1  0.57305882  0.09257475  0.20720366  1
  Se  Se230  1  0.58891048  0.07211708  0.69689661  1
  Se  Se231  1  0.58254082  0.41889501  0.19907240  1
  Se  Se232  1  0.57864529  0.41731158  0.68859547  1
  Se  Se233  1  0.58042675  0.74975056  0.19673431  1
  Se  Se234  1  0.58218032  0.74431216  0.69673472  1
  Se  Se235  1  0.90904516  0.08568712  0.18861178  1
  Se  Se236  1  0.90688686  0.08815724  0.69328882  1
  Se  Se237  1  0.90241052  0.41980759  0.18886231  1
  Se  Se238  1  0.91505199  0.41890265  0.69858408  1
  Se  Se239  1  0.91278375  0.75409764  0.18814217  1
  Se  Se240  1  0.91401571  0.75498063  0.69709485  1
  Se  Se241  1  0.09363191  0.23336564  0.19151750  1
  Se  Se242  1  0.08046231  0.25581992  0.69949713  1
  Se  Se243  1  0.08370753  0.56998573  0.19066798  1
  Se  Se244  1  0.08064700  0.59097450  0.69399651  1
  Se  Se245  1  0.09081667  0.90556721  0.19157295  1
  Se  Se246  1  0.09249312  0.91586377  0.68494292  1
  Se  Se247  1  0.38992560  0.27947035  0.19638091  1
  Se  Se248  1  0.43152147  0.24196711  0.69242241  1
  Se  Se249  1  0.41635468  0.58737768  0.20131088  1
  Se  Se250  1  0.41436016  0.58240474  0.69676016  1
  Se  Se251  1  0.41824045  0.91873070  0.20150833  1
  Se  Se252  1  0.41575463  0.91442828  0.69245748  1
  Se  Se253  1  0.74411242  0.25223685  0.19579267  1
  Se  Se254  1  0.75058253  0.24325692  0.68923711  1
  Se  Se255  1  0.74656158  0.58940046  0.19666783  1
  Se  Se256  1  0.74483668  0.58113607  0.69372359  1
  Se  Se257  1  0.74538767  0.92017535  0.19445454  1
  Se  Se258  1  0.74280771  0.91859400  0.70069920  1
