# generated using pymatgen
data_In86Cu29Se144
_symmetry_space_group_name_H-M   'P 1'
_cell_length_a   17.73441685
_cell_length_b   17.74426944
_cell_length_c   23.57826240
_cell_angle_alpha   89.96546362
_cell_angle_beta   90.06576995
_cell_angle_gamma   89.96961378
_symmetry_Int_Tables_number   1
_chemical_formula_structural   In86Cu29Se144
_chemical_formula_sum   'In86 Cu29 Se144'
_cell_volume   7419.70103337
_cell_formula_units_Z   1
loop_
 _symmetry_equiv_pos_site_id
 _symmetry_equiv_pos_as_xyz
  1  'x, y, z'
loop_
 _atom_site_type_symbol
 _atom_site_label
 _atom_site_symmetry_multiplicity
 _atom_site_fract_x
 _atom_site_fract_y
 _atom_site_fract_z
 _atom_site_occupancy
  In  In0  1  0.00812751  0.16117650  0.13265497  1
  In  In1  1  -0.00578697  0.17734942  0.62467305  1
  In  In2  1  0.00496033  0.49188542  0.11954572  1
  In  In3  1  -0.01396890  0.49574020  0.63610419  1
  In  In4  1  0.02469242  0.80948058  0.17718084  1
  In  In5  1  -0.01689688  0.82806023  0.61015566  1
  In  In6  1  0.32972152  0.17510588  0.12887060  1
  In  In7  1  0.33677637  0.15866124  0.63023302  1
  In  In8  1  0.32209960  0.50131064  0.11980776  1
  In  In9  1  0.31982656  0.49443657  0.62967439  1
  In  In10  1  0.34262015  0.83778141  0.13186358  1
  In  In11  1  0.34241612  0.84377227  0.61201328  1
  In  In12  1  0.68187453  0.17391718  0.12963665  1
  In  In13  1  0.66436916  0.16658143  0.61310330  1
  In  In14  1  0.69344627  0.47583916  0.14666382  1
  In  In15  1  0.67470120  0.48716919  0.63368206  1
  In  In16  1  0.67076640  0.82756190  0.13300337  1
  In  In17  1  0.67690495  0.84699658  0.60664991  1
  In  In18  1  0.14401600  -0.02704089  0.34671210  1
  In  In19  1  0.17475592  0.00321989  0.87265621  1
  In  In20  1  0.15980904  0.32677125  0.36609580  1
  In  In21  1  0.16641424  0.32868412  0.88074855  1
  In  In22  1  0.14415077  0.68419579  0.36812730  1
  In  In23  1  0.14869526  0.66766541  0.87761745  1
  In  In24  1  0.49447455  0.01187449  0.39164590  1
  In  In25  1  0.51486506  0.01310060  0.86534381  1
  In  In26  1  0.49887461  0.32792518  0.37475124  1
  In  In27  1  0.50544317  0.32799864  0.86384835  1
  In  In28  1  0.51297666  0.66644743  0.37442231  1
  In  In29  1  0.50450926  0.68250997  0.87081079  1
  In  In30  1  0.83967421  -0.00570302  0.39402213  1
  In  In31  1  0.83280980  0.01372892  0.86461551  1
  In  In32  1  0.83085513  0.33406569  0.37768382  1
  In  In33  1  0.87937309  0.38246734  0.82452758  1
  In  In34  1  0.83332048  0.66942431  0.37382502  1
  In  In35  1  0.83574996  0.64945018  0.87811051  1
  In  In36  1  -0.01862342  0.15482464  0.36392706  1
  In  In37  1  -0.00906660  0.18063948  0.87390902  1
  In  In38  1  -0.02753499  0.48268806  0.35474466  1
  In  In39  1  0.00814631  0.50355895  0.88526977  1
  In  In40  1  -0.00523298  0.82894393  0.37065647  1
  In  In41  1  0.00486871  0.82753697  0.86937741  1
  In  In42  1  0.33373518  0.16884824  0.37418754  1
  In  In43  1  0.33072940  0.15854119  0.86897004  1
  In  In44  1  0.33313611  0.49123966  0.36771428  1
  In  In45  1  0.33454812  0.48293965  0.87646460  1
  In  In46  1  0.31066312  0.84978325  0.38559787  1
  In  In47  1  0.33421176  0.84964393  0.86645971  1
  In  In48  1  0.66008533  0.16928852  0.39051620  1
  In  In49  1  0.73323410  0.21710443  0.81965916  1
  In  In50  1  0.68429442  0.51060971  0.36140461  1
  In  In51  1  0.68585816  0.49219388  0.88125040  1
  In  In52  1  0.67696611  0.83284764  0.39295387  1
  In  In53  1  0.66843592  0.84037408  0.86946939  1
  In  In54  1  0.15705351  0.00335877  0.13536718  1
  In  In55  1  0.17535986  0.00397519  0.62577914  1
  In  In56  1  0.16700183  0.33487620  0.12117698  1
  In  In57  1  0.16218609  0.32902714  0.63468234  1
  In  In58  1  0.17076441  0.65908317  0.11849761  1
  In  In59  1  0.14650515  0.66287087  0.62416691  1
  In  In60  1  0.50294640  -0.00681462  0.13000871  1
  In  In61  1  0.49838013  -0.00168813  0.61749378  1
  In  In62  1  0.50683495  0.32870138  0.13391526  1
  In  In63  1  0.50926722  0.32230032  0.63181330  1
  In  In64  1  0.51349464  0.66969228  0.13001656  1
  In  In65  1  0.49950146  0.67929422  0.61828709  1
  In  In66  1  0.84908749  0.00539994  0.13374725  1
  In  In67  1  0.82251214  -0.00063991  0.61147430  1
  In  In68  1  0.83784162  0.33391964  0.13221587  1
  In  In69  1  0.82799999  0.33133630  0.62526302  1
  In  In70  1  0.87135203  0.61775309  0.17756830  1
  In  In71  1  0.83607934  0.66531533  0.62241004  1
  In  In72  1  0.15520328  0.50059897  0.49126983  1
  In  In73  1  0.49517422  0.50235905  -0.00067332  1
  In  In74  1  0.66259196  0.00662243  0.27214041  1
  In  In75  1  0.32049760  0.65984709  0.74361466  1
  In  In76  1  0.50315053  0.16093889  -0.00657025  1
  In  In77  1  -0.00589567  0.00389135  0.73428306  1
  In  In78  1  0.16224672  0.16437463  0.49509059  1
  In  In79  1  0.66816912  0.66484346  0.75150197  1
  In  In80  1  0.50282333  0.49644427  0.50522460  1
  In  In81  1  0.33934744  0.66633509  0.24932824  1
  In  In82  1  0.83188636  0.17553620  -0.00502333  1
  In  In83  1  0.50417740  0.83460068  -0.00102882  1
  In  In84  1  0.83790390  0.83402960  0.01337604  1
  In  In85  1  0.16654301  0.83153290  0.00323217  1
  Cu  Cu86  1  0.16658930  0.83256147  0.74671900  1
  Cu  Cu87  1  0.16280878  0.48904787  0.75480785  1
  Cu  Cu88  1  0.49758164  0.50237519  0.75321173  1
  Cu  Cu89  1  0.49288501  0.84075977  0.25869225  1
  Cu  Cu90  1  0.67435260  0.33182884  -0.00038146  1
  Cu  Cu91  1  0.50395010  0.49287305  0.25316969  1
  Cu  Cu92  1  0.32781652  0.00564788  0.50058685  1
  Cu  Cu93  1  0.67205127  0.66212257  0.49717202  1
  Cu  Cu94  1  -0.01018754  0.34096923  0.50027527  1
  Cu  Cu95  1  0.33166659  0.67125719  -0.00403347  1
  Cu  Cu96  1  0.32549634  0.65976690  0.49074443  1
  Cu  Cu97  1  -0.00611152  0.66212284  0.49687789  1
  Cu  Cu98  1  -0.00017269  0.33486693  -0.00518679  1
  Cu  Cu99  1  0.17196478  0.50128433  0.24340789  1
  Cu  Cu100  1  0.67454167  0.65622106  0.00578044  1
  Cu  Cu101  1  0.82296420  0.83865159  0.26008272  1
  Cu  Cu102  1  0.50329122  0.16145557  0.25908433  1
  Cu  Cu103  1  0.00474466  0.00286821  0.00743057  1
  Cu  Cu104  1  0.49678810  0.84145019  0.73925273  1
  Cu  Cu105  1  0.67370338  0.00386717  -0.00569699  1
  Cu  Cu106  1  -0.00625695  0.66824373  0.01233061  1
  Cu  Cu107  1  0.33518549  0.32634096  0.49969508  1
  Cu  Cu108  1  0.15990609  0.17024122  0.75267747  1
  Cu  Cu109  1  0.32909690  0.32954335  0.00069833  1
  Cu  Cu110  1  0.17761418  0.17514875  0.24585114  1
  Cu  Cu111  1  0.33090954  0.00314059  -0.00168793  1
  Cu  Cu112  1  0.83321952  0.83344919  0.73770134  1
  Cu  Cu113  1  0.66856491  0.34341341  0.50067762  1
  Cu  Cu114  1  0.49967486  0.16234175  0.74403266  1
  Se  Se115  1  0.08825401  0.08473989  0.05879783  1
  Se  Se116  1  0.07721403  0.08172809  0.56290508  1
  Se  Se117  1  0.08608427  0.41434065  0.04830002  1
  Se  Se118  1  0.07766332  0.41179334  0.56131887  1
  Se  Se119  1  0.07204063  0.75538476  0.06859765  1
  Se  Se120  1  0.07702814  0.74454292  0.55001588  1
  Se  Se121  1  0.41676284  0.07545988  0.05936798  1
  Se  Se122  1  0.41216427  0.08672342  0.55334909  1
  Se  Se123  1  0.41435133  0.40499693  0.06038598  1
  Se  Se124  1  0.40724856  0.40941564  0.56266410  1
  Se  Se125  1  0.41359374  0.74287457  0.05823029  1
  Se  Se126  1  0.40533635  0.74042350  0.54860991  1
  Se  Se127  1  0.75288859  0.07648239  0.05916978  1
  Se  Se128  1  0.72194766  0.06389229  0.54332238  1
  Se  Se129  1  0.75375878  0.40965982  0.05943836  1
  Se  Se130  1  0.75281336  0.42199759  0.55569085  1
  Se  Se131  1  0.74731820  0.74125040  0.06490821  1
  Se  Se132  1  0.75410798  0.74502352  0.55246038  1
  Se  Se133  1  0.24898841  0.24663817  0.05452481  1
  Se  Se134  1  0.25009330  0.25340147  0.56052945  1
  Se  Se135  1  0.25180598  0.58423139  0.04574523  1
  Se  Se136  1  0.24885718  0.58424847  0.55566509  1
  Se  Se137  1  0.25772583  0.92171223  0.06123771  1
  Se  Se138  1  0.24521485  0.92018048  0.55180345  1
  Se  Se139  1  0.59245279  0.25204646  0.05769805  1
  Se  Se140  1  0.58171823  0.25891004  0.54972412  1
  Se  Se141  1  0.58898631  0.57980660  0.06214172  1
  Se  Se142  1  0.59488459  0.58737831  0.56360493  1
  Se  Se143  1  0.59775313  0.92410822  0.05694313  1
  Se  Se144  1  0.55457602  0.88783004  0.55801743  1
  Se  Se145  1  0.92668868  0.25375345  0.05862449  1
  Se  Se146  1  0.91201327  0.25385647  0.55354368  1
  Se  Se147  1  0.91355033  0.59105167  0.07133252  1
  Se  Se148  1  0.92096668  0.57878958  0.55851068  1
  Se  Se149  1  0.93281363  0.92060313  0.06790514  1
  Se  Se150  1  0.92412107  0.93315219  0.55042555  1
  Se  Se151  1  0.07444685  0.26239939  0.44319997  1
  Se  Se152  1  0.07956145  0.24489870  0.94597201  1
  Se  Se153  1  0.06450385  0.58396385  0.42952242  1
  Se  Se154  1  0.08157013  0.59244277  0.95662366  1
  Se  Se155  1  0.08861770  0.90700431  0.43305303  1
  Se  Se156  1  0.07765160  0.92246982  0.94101101  1
  Se  Se157  1  0.41768485  0.24737236  0.44511334  1
  Se  Se158  1  0.41240008  0.25594246  0.93908367  1
  Se  Se159  1  0.41162278  0.58040054  0.43846647  1
  Se  Se160  1  0.41274253  0.59638006  0.93376161  1
  Se  Se161  1  0.40916023  0.91767871  0.44954555  1
  Se  Se162  1  0.41735559  0.92887355  0.93964699  1
  Se  Se163  1  0.74941127  0.25618256  0.45008996  1
  Se  Se164  1  0.74486188  0.25652399  0.93229806  1
  Se  Se165  1  0.75355789  0.58181861  0.44232029  1
  Se  Se166  1  0.75860636  0.57554165  0.95348597  1
  Se  Se167  1  0.73898061  0.93126628  0.45953710  1
  Se  Se168  1  0.75564352  0.91982175  0.94052399  1
  Se  Se169  1  0.24799483  0.07585292  0.43478219  1
  Se  Se170  1  0.24948799  0.08510800  0.94461849  1
  Se  Se171  1  0.25414863  0.40707332  0.44171659  1
  Se  Se172  1  0.24895265  0.41561415  0.94846215  1
  Se  Se173  1  0.24048995  0.74169179  0.43937040  1
  Se  Se174  1  0.25773950  0.75277077  0.93387411  1
  Se  Se175  1  0.59514701  0.07240348  0.45841241  1
  Se  Se176  1  0.60261419  0.08726733  0.93449942  1
  Se  Se177  1  0.58966918  0.41974031  0.43677786  1
  Se  Se178  1  0.58539471  0.40808789  0.94323306  1
  Se  Se179  1  0.58404747  0.74472105  0.45002153  1
  Se  Se180  1  0.60202155  0.74204805  0.94514119  1
  Se  Se181  1  0.92221668  0.09044694  0.45021722  1
  Se  Se182  1  0.92384114  0.07496408  0.94260097  1
  Se  Se183  1  0.91142685  0.42515949  0.44481193  1
  Se  Se184  1  0.91464116  0.40620795  0.93214237  1
  Se  Se185  1  0.91465246  0.74984557  0.44386582  1
  Se  Se186  1  0.92347942  0.74691680  0.94407431  1
  Se  Se187  1  0.25791465  0.25574287  0.30404786  1
  Se  Se188  1  0.24563423  0.24778039  0.80857139  1
  Se  Se189  1  0.24200341  0.58372241  0.30945368  1
  Se  Se190  1  0.24030872  0.57540453  0.81370575  1
  Se  Se191  1  0.25732874  0.91182740  0.29614147  1
  Se  Se192  1  0.24482149  0.92032717  0.79787938  1
  Se  Se193  1  0.58629089  0.24354306  0.31152314  1
  Se  Se194  1  0.58313949  0.23691690  0.80316979  1
  Se  Se195  1  0.58232594  0.58308087  0.30155592  1
  Se  Se196  1  0.57897309  0.57612857  0.81541192  1
  Se  Se197  1  0.57373719  0.91039519  0.32410485  1
  Se  Se198  1  0.58105870  0.91270440  0.80087931  1
  Se  Se199  1  0.93933454  0.27690483  0.31553165  1
  Se  Se200  1  0.89092005  0.23547057  0.80486954  1
  Se  Se201  1  0.91368262  0.59465984  0.29762282  1
  Se  Se202  1  0.92978456  0.58543856  0.81288038  1
  Se  Se203  1  0.90634780  0.91979302  0.31224521  1
  Se  Se204  1  0.91247881  0.91104787  0.80313383  1
  Se  Se205  1  0.09891428  0.10255528  0.31023649  1
  Se  Se206  1  0.07773367  0.08580116  0.80838209  1
  Se  Se207  1  0.09023972  0.42594539  0.30358894  1
  Se  Se208  1  0.08225063  0.41331886  0.81445202  1
  Se  Se209  1  0.06557200  0.75000596  0.29008855  1
  Se  Se210  1  0.08508951  0.74865999  0.79897530  1
  Se  Se211  1  0.42001803  0.08049894  0.31141895  1
  Se  Se212  1  0.41745563  0.08121226  0.80132953  1
  Se  Se213  1  0.41864760  0.41075025  0.30330785  1
  Se  Se214  1  0.41721883  0.41469971  0.80296870  1
  Se  Se215  1  0.41702493  0.75469008  0.31710252  1
  Se  Se216  1  0.41719420  0.75730365  0.79786066  1
  Se  Se217  1  0.75824206  0.09055022  0.32563225  1
  Se  Se218  1  0.72855077  0.07092513  0.80558872  1
  Se  Se219  1  0.74881825  0.40813557  0.30322277  1
  Se  Se220  1  0.73679941  0.40651125  0.80332771  1
  Se  Se221  1  0.74219543  0.75563703  0.31283688  1
  Se  Se222  1  0.76342661  0.75578304  0.80863488  1
  Se  Se223  1  0.25310835  0.08442785  0.19400080  1
  Se  Se224  1  0.24376694  0.08858323  0.69918599  1
  Se  Se225  1  0.25280041  0.41639607  0.19122143  1
  Se  Se226  1  0.24851489  0.41054927  0.70132672  1
  Se  Se227  1  0.24621471  0.75312644  0.18928766  1
  Se  Se228  1  0.24260801  0.75488687  0.68177354  1
  Se  Se229  1  0.58442469  0.08844495  0.19344346  1
  Se  Se230  1  0.57891263  0.08597322  0.68282146  1
  Se  Se231  1  0.58824967  0.40706732  0.20338372  1
  Se  Se232  1  0.57767308  0.41948264  0.69760165  1
  Se  Se233  1  0.57500920  0.76242727  0.20120339  1
  Se  Se234  1  0.58301268  0.75642801  0.69039660  1
  Se  Se235  1  0.90994126  0.10037139  0.20106174  1
  Se  Se236  1  0.89664100  0.09220586  0.68475951  1
  Se  Se237  1  0.91448617  0.42910165  0.19295637  1
  Se  Se238  1  0.91197071  0.40366927  0.70194507  1
  Se  Se239  1  0.88680479  0.76757920  0.18497732  1
  Se  Se240  1  0.91838715  0.74976525  0.69008176  1
  Se  Se241  1  0.08969587  0.25349946  0.19318851  1
  Se  Se242  1  0.07418834  0.25020120  0.70036242  1
  Se  Se243  1  0.08977507  0.57951751  0.18689999  1
  Se  Se244  1  0.08534155  0.57124567  0.69595661  1
  Se  Se245  1  0.07469107  0.93664443  0.21125825  1
  Se  Se246  1  0.08524336  0.90778668  0.68400094  1
  Se  Se247  1  0.42512408  0.24129610  0.19691837  1
  Se  Se248  1  0.41456888  0.24876177  0.69579496  1
  Se  Se249  1  0.42615005  0.57171068  0.18846951  1
  Se  Se250  1  0.42357223  0.57941203  0.68740774  1
  Se  Se251  1  0.41670256  0.92342423  0.20162724  1
  Se  Se252  1  0.41012351  0.92217873  0.68985314  1
  Se  Se253  1  0.77765666  0.23117997  0.19723864  1
  Se  Se254  1  0.73772988  0.24880149  0.68749167  1
  Se  Se255  1  0.72733670  0.60170913  0.19260829  1
  Se  Se256  1  0.76203039  0.57582495  0.69805093  1
  Se  Se257  1  0.74729398  0.92568992  0.19844647  1
  Se  Se258  1  0.75014341  0.91596818  0.68669324  1
