# generated using pymatgen
data_In86Cu29Se144
_symmetry_space_group_name_H-M   'P 1'
_cell_length_a   17.59291433
_cell_length_b   17.59707357
_cell_length_c   23.44847720
_cell_angle_alpha   89.99686914
_cell_angle_beta   90.00345954
_cell_angle_gamma   89.97509268
_symmetry_Int_Tables_number   1
_chemical_formula_structural   In86Cu29Se144
_chemical_formula_sum   'In86 Cu29 Se144'
_cell_volume   7259.26814768
_cell_formula_units_Z   1
loop_
 _symmetry_equiv_pos_site_id
 _symmetry_equiv_pos_as_xyz
  1  'x, y, z'
loop_
 _atom_site_type_symbol
 _atom_site_label
 _atom_site_symmetry_multiplicity
 _atom_site_fract_x
 _atom_site_fract_y
 _atom_site_fract_z
 _atom_site_occupancy
  In  In0  1  -0.01773897  0.18315987  0.13709288  1
  In  In1  1  0.01123275  0.17755780  0.61539028  1
  In  In2  1  -0.00903336  0.50322140  0.13364338  1
  In  In3  1  -0.00496778  0.49932897  0.61816672  1
  In  In4  1  0.00363460  0.82631425  0.13808827  1
  In  In5  1  -0.01138437  0.82939107  0.62786142  1
  In  In6  1  0.34252596  0.15925989  0.13940758  1
  In  In7  1  0.32454584  0.16722379  0.62370004  1
  In  In8  1  0.32877555  0.50142137  0.13334668  1
  In  In9  1  0.35668449  0.54494919  0.57622141  1
  In  In10  1  0.35140622  0.83294688  0.12657418  1
  In  In11  1  0.36066367  0.80919774  0.63895723  1
  In  In12  1  0.67393679  0.16769986  0.12865060  1
  In  In13  1  0.66840954  0.15421245  0.62072929  1
  In  In14  1  0.67552460  0.47083930  0.13452017  1
  In  In15  1  0.68882004  0.52208423  0.60336952  1
  In  In16  1  0.66092874  0.84223358  0.12565115  1
  In  In17  1  0.65458135  0.83686193  0.63489331  1
  In  In18  1  0.17700288  0.00919006  0.37381344  1
  In  In19  1  0.16486136  -0.01000196  0.87352350  1
  In  In20  1  0.16060804  0.33155867  0.37461547  1
  In  In21  1  0.16690981  0.35133236  0.87322353  1
  In  In22  1  0.15638265  0.66827707  0.38443265  1
  In  In23  1  0.16852047  0.66304650  0.85871675  1
  In  In24  1  0.49739811  -0.01114409  0.36381032  1
  In  In25  1  0.49501409  -0.01161033  0.86485833  1
  In  In26  1  0.51127521  0.35323220  0.35752581  1
  In  In27  1  0.50359470  0.34474224  0.87546506  1
  In  In28  1  0.50194138  0.66891019  0.39906013  1
  In  In29  1  0.51522953  0.68310116  0.85318606  1
  In  In30  1  0.84339890  0.00801024  0.36516781  1
  In  In31  1  0.82867569  0.01513516  0.87615760  1
  In  In32  1  0.83151879  0.33441076  0.37428801  1
  In  In33  1  0.83967363  0.32175700  0.88026003  1
  In  In34  1  0.83255326  0.65006009  0.38709909  1
  In  In35  1  0.82953163  0.65741663  0.86894534  1
  In  In36  1  -0.00160609  0.16824912  0.37448114  1
  In  In37  1  -0.01979628  0.16549931  0.87795489  1
  In  In38  1  0.00236999  0.50025316  0.38084691  1
  In  In39  1  -0.00096912  0.48861234  0.86098660  1
  In  In40  1  -0.00509073  0.82819713  0.36855726  1
  In  In41  1  0.00858882  0.83063755  0.87130981  1
  In  In42  1  0.32496598  0.16131351  0.37642611  1
  In  In43  1  0.34894269  0.16432984  0.87626071  1
  In  In44  1  0.34404882  0.49465463  0.38740640  1
  In  In45  1  0.33027523  0.50593927  0.86878136  1
  In  In46  1  0.34015571  0.83959214  0.37979506  1
  In  In47  1  0.34735092  0.84360795  0.85359101  1
  In  In48  1  0.67305182  0.17469542  0.36779602  1
  In  In49  1  0.68314537  0.16634749  0.87265099  1
  In  In50  1  0.67156915  0.50288119  0.38734632  1
  In  In51  1  0.66676000  0.50813438  0.87475423  1
  In  In52  1  0.64671348  0.83129249  0.37685877  1
  In  In53  1  0.65719945  0.82707065  0.86617465  1
  In  In54  1  0.16888026  -0.00345188  0.13589914  1
  In  In55  1  0.17493594  0.01510567  0.61976784  1
  In  In56  1  0.16515904  0.32998222  0.13648447  1
  In  In57  1  0.16396407  0.33155688  0.61715861  1
  In  In58  1  0.16672820  0.65738948  0.12956386  1
  In  In59  1  0.16756422  0.65947074  0.61839501  1
  In  In60  1  0.50685186  -0.01047293  0.13551595  1
  In  In61  1  0.50836844  -0.01438823  0.63571634  1
  In  In62  1  0.51172133  0.32596685  0.14782948  1
  In  In63  1  0.48858028  0.34557733  0.62300589  1
  In  In64  1  0.49704293  0.67195408  0.12057049  1
  In  In65  1  0.50434153  0.66789259  0.62129328  1
  In  In66  1  0.81864898  0.01044874  0.13434140  1
  In  In67  1  0.82162866  -0.00058312  0.62089486  1
  In  In68  1  0.83409364  0.33923812  0.12573323  1
  In  In69  1  0.84230495  0.34395163  0.61478369  1
  In  In70  1  0.84608031  0.66024779  0.12511309  1
  In  In71  1  0.84337252  0.65668748  0.63319995  1
  In  In72  1  0.50691071  0.50144481  0.00416751  1
  In  In73  1  -0.00528555  -0.00171066  0.75284412  1
  In  In74  1  0.16667364  0.82946731  -0.00652895  1
  In  In75  1  0.50062677  0.16960959  0.49469769  1
  In  In76  1  0.17195961  0.83739740  0.50762680  1
  In  In77  1  0.82568487  0.82852059  0.49642703  1
  In  In78  1  0.66605687  0.33263442  0.74888574  1
  In  In79  1  0.82962978  0.83607645  0.00216564  1
  In  In80  1  0.31598221  0.33564484  0.74170289  1
  In  In81  1  0.66538886  0.66703734  0.26043774  1
  In  In82  1  0.51254358  0.16098210  0.01488253  1
  In  In83  1  0.33501617  0.66908404  0.26204949  1
  In  In84  1  0.16053369  0.16597170  0.00555924  1
  In  In85  1  0.16814312  0.50166647  0.00456432  1
  Cu  Cu86  1  0.32866434  0.32367234  0.49516902  1
  Cu  Cu87  1  0.82499283  0.82624269  0.74774709  1
  Cu  Cu88  1  0.83865912  0.16969655  0.74717898  1
  Cu  Cu89  1  0.17075773  0.83196515  0.26059135  1
  Cu  Cu90  1  0.16288255  0.17249530  0.74714807  1
  Cu  Cu91  1  -0.00672014  0.32946174  0.49443822  1
  Cu  Cu92  1  -0.01141858  0.00658626  0.01252194  1
  Cu  Cu93  1  0.83453911  0.49737195  0.25847054  1
  Cu  Cu94  1  0.49385657  0.50489262  0.73514516  1
  Cu  Cu95  1  0.66361728  0.66829598  -0.00612737  1
  Cu  Cu96  1  0.83352227  0.83078809  0.25155174  1
  Cu  Cu97  1  0.00123894  0.00355612  0.49259168  1
  Cu  Cu98  1  0.83446668  0.17068985  0.25033872  1
  Cu  Cu99  1  0.34671779  -0.00333099  0.50059621  1
  Cu  Cu100  1  0.34520179  0.67603914  -0.00916090  1
  Cu  Cu101  1  -0.00635285  0.33256590  0.00010302  1
  Cu  Cu102  1  0.49788506  0.15829840  0.74948187  1
  Cu  Cu103  1  0.16256276  0.16470703  0.25437206  1
  Cu  Cu104  1  0.49548760  0.16653592  0.25673828  1
  Cu  Cu105  1  0.16615274  0.49747150  0.73375102  1
  Cu  Cu106  1  0.83304387  0.50020872  0.74324414  1
  Cu  Cu107  1  0.00029985  0.65953881  -0.00290111  1
  Cu  Cu108  1  0.34411349  0.33013922  0.01114426  1
  Cu  Cu109  1  0.66457845  0.33128523  0.49331701  1
  Cu  Cu110  1  0.16505807  0.83247011  0.74398592  1
  Cu  Cu111  1  0.33430302  -0.00881532  -0.00542849  1
  Cu  Cu112  1  0.16187125  0.49813523  0.25490062  1
  Cu  Cu113  1  0.66669299  0.00139213  0.49836439  1
  Cu  Cu114  1  0.65833841  -0.00015183  0.00336288  1
  Se  Se115  1  0.07424036  0.08082031  0.07031446  1
  Se  Se116  1  0.08493907  0.08296490  0.54899303  1
  Se  Se117  1  0.07857065  0.40743973  0.06087376  1
  Se  Se118  1  0.07502807  0.41028046  0.55126634  1
  Se  Se119  1  0.07819284  0.74060024  0.05749444  1
  Se  Se120  1  0.07117412  0.74862214  0.55694184  1
  Se  Se121  1  0.40799439  0.07232667  0.05954949  1
  Se  Se122  1  0.42068800  0.08150575  0.56245193  1
  Se  Se123  1  0.42069797  0.41244117  0.07027725  1
  Se  Se124  1  0.41076977  0.41086887  0.54517038  1
  Se  Se125  1  0.42383935  0.75733876  0.04807670  1
  Se  Se126  1  0.42360374  0.75332249  0.55072708  1
  Se  Se127  1  0.74514494  0.08152793  0.05449764  1
  Se  Se128  1  0.75335341  0.08532685  0.54612250  1
  Se  Se129  1  0.76795457  0.43564216  0.05638232  1
  Se  Se130  1  0.75136927  0.41388161  0.54466498  1
  Se  Se131  1  0.74339226  0.74204096  0.06130930  1
  Se  Se132  1  0.75047396  0.75111258  0.57240696  1
  Se  Se133  1  0.25796097  0.25058338  0.06477690  1
  Se  Se134  1  0.24585043  0.24303171  0.54999441  1
  Se  Se135  1  0.26688605  0.59792529  0.05474908  1
  Se  Se136  1  0.21935823  0.56996985  0.53822050  1
  Se  Se137  1  0.25209521  0.91829805  0.05760700  1
  Se  Se138  1  0.26759583  0.92110079  0.56573581  1
  Se  Se139  1  0.59425588  0.26723306  0.06346581  1
  Se  Se140  1  0.58676285  0.25835606  0.56137331  1
  Se  Se141  1  0.59835001  0.58824494  0.06461371  1
  Se  Se142  1  0.56619142  0.56466844  0.55467687  1
  Se  Se143  1  0.57539060  0.91494442  0.05336968  1
  Se  Se144  1  0.58772989  0.91998314  0.55624309  1
  Se  Se145  1  0.91197414  0.25053593  0.05472455  1
  Se  Se146  1  0.91202233  0.24475711  0.55015633  1
  Se  Se147  1  0.92074353  0.57700012  0.05227206  1
  Se  Se148  1  0.90269743  0.57644723  0.55322976  1
  Se  Se149  1  0.91812112  0.91657182  0.06972598  1
  Se  Se150  1  0.92102549  0.92391466  0.55339078  1
  Se  Se151  1  0.08216631  0.24633547  0.44581172  1
  Se  Se152  1  0.07975469  0.25895155  0.93881223  1
  Se  Se153  1  0.09239757  0.57304251  0.45362047  1
  Se  Se154  1  0.08283370  0.58503629  0.93566948  1
  Se  Se155  1  0.08132792  0.91746648  0.43787993  1
  Se  Se156  1  0.06678868  0.92942726  0.94834739  1
  Se  Se157  1  0.41708329  0.25854386  0.43128450  1
  Se  Se158  1  0.42297730  0.25510783  0.94854744  1
  Se  Se159  1  0.40174621  0.59269837  0.45865438  1
  Se  Se160  1  0.42066090  0.58494228  0.93594364  1
  Se  Se161  1  0.43013012  0.91672075  0.44711420  1
  Se  Se162  1  0.41467315  0.91070110  0.93832322  1
  Se  Se163  1  0.75064259  0.24747294  0.44425598  1
  Se  Se164  1  0.74575036  0.25101543  0.94672236  1
  Se  Se165  1  0.73278818  0.59929505  0.45721043  1
  Se  Se166  1  0.75116670  0.58488949  0.94595577  1
  Se  Se167  1  0.74715038  0.92526671  0.43445205  1
  Se  Se168  1  0.74007300  0.92311815  0.94009611  1
  Se  Se169  1  0.25577170  0.07815865  0.45289750  1
  Se  Se170  1  0.25380298  0.07756110  0.94145619  1
  Se  Se171  1  0.24765991  0.41135145  0.44377020  1
  Se  Se172  1  0.26666535  0.41062615  0.94788292  1
  Se  Se173  1  0.25824234  0.74741268  0.44506715  1
  Se  Se174  1  0.25547503  0.74377638  0.93132822  1
  Se  Se175  1  0.58831326  0.07908492  0.43489145  1
  Se  Se176  1  0.58498089  0.07944398  0.93655432  1
  Se  Se177  1  0.57708194  0.41466930  0.44510239  1
  Se  Se178  1  0.59802838  0.40837968  0.94587406  1
  Se  Se179  1  0.59875252  0.74691491  0.45797361  1
  Se  Se180  1  0.57907428  0.74869523  0.94053994  1
  Se  Se181  1  0.91302885  0.08537828  0.44371558  1
  Se  Se182  1  0.90853678  0.08525879  0.95370934  1
  Se  Se183  1  0.91173580  0.41793536  0.44457309  1
  Se  Se184  1  0.92203294  0.41780932  0.93934351  1
  Se  Se185  1  0.92722547  0.74130614  0.44620574  1
  Se  Se186  1  0.92291178  0.74729910  0.94103495  1
  Se  Se187  1  0.24649420  0.24739202  0.30734942  1
  Se  Se188  1  0.24434940  0.24334041  0.81543000  1
  Se  Se189  1  0.24170493  0.57804993  0.31559943  1
  Se  Se190  1  0.24929361  0.57466865  0.79312751  1
  Se  Se191  1  0.25626586  0.91663877  0.30904545  1
  Se  Se192  1  0.24317047  0.91906343  0.79807917  1
  Se  Se193  1  0.58582824  0.25251737  0.29921769  1
  Se  Se194  1  0.57367077  0.24201730  0.81049221  1
  Se  Se195  1  0.57258239  0.58222255  0.32048221  1
  Se  Se196  1  0.58044748  0.57205836  0.79891907  1
  Se  Se197  1  0.59624562  0.92090831  0.29933241  1
  Se  Se198  1  0.59150085  0.92310453  0.79938079  1
  Se  Se199  1  0.91654398  0.25283516  0.30578783  1
  Se  Se200  1  0.91992290  0.25293162  0.80148378  1
  Se  Se201  1  0.91633419  0.58298082  0.31104817  1
  Se  Se202  1  0.91775678  0.58196826  0.79977331  1
  Se  Se203  1  0.92087529  0.91637109  0.29936646  1
  Se  Se204  1  0.90169864  0.90725193  0.81267523  1
  Se  Se205  1  0.08132218  0.07974001  0.30748304  1
  Se  Se206  1  0.08627855  0.09289840  0.81231573  1
  Se  Se207  1  0.07688372  0.41588136  0.30697771  1
  Se  Se208  1  0.08946603  0.41333093  0.79275187  1
  Se  Se209  1  0.08505717  0.74453528  0.30583736  1
  Se  Se210  1  0.08052056  0.75023648  0.79733202  1
  Se  Se211  1  0.41208679  0.08279892  0.30696305  1
  Se  Se212  1  0.41047622  0.07880552  0.80117958  1
  Se  Se213  1  0.40531289  0.42337824  0.30251056  1
  Se  Se214  1  0.42103216  0.42040443  0.79889570  1
  Se  Se215  1  0.43319173  0.75415415  0.31566438  1
  Se  Se216  1  0.39324415  0.72436309  0.80179660  1
  Se  Se217  1  0.75018540  0.08487685  0.30005201  1
  Se  Se218  1  0.75257312  0.08436122  0.79637149  1
  Se  Se219  1  0.74374986  0.42200066  0.31087664  1
  Se  Se220  1  0.75773634  0.41995033  0.80902639  1
  Se  Se221  1  0.75986113  0.75477151  0.31927524  1
  Se  Se222  1  0.74559546  0.74237777  0.80345927  1
  Se  Se223  1  0.24928313  0.08206895  0.20231686  1
  Se  Se224  1  0.24863002  0.08812691  0.69900771  1
  Se  Se225  1  0.24724288  0.41833890  0.20035508  1
  Se  Se226  1  0.25313615  0.42957889  0.67200492  1
  Se  Se227  1  0.24705509  0.75542698  0.19236483  1
  Se  Se228  1  0.24328634  0.74747817  0.68860941  1
  Se  Se229  1  0.57790088  0.09316441  0.19295986  1
  Se  Se230  1  0.58730169  0.08385947  0.69588082  1
  Se  Se231  1  0.57381178  0.43367904  0.20621407  1
  Se  Se232  1  0.58463012  0.42424722  0.68498706  1
  Se  Se233  1  0.57721357  0.75444435  0.19459212  1
  Se  Se234  1  0.57108349  0.75094346  0.69868636  1
  Se  Se235  1  0.91620213  0.08029205  0.19949348  1
  Se  Se236  1  0.91579301  0.08773569  0.68516708  1
  Se  Se237  1  0.91651162  0.41439291  0.20181560  1
  Se  Se238  1  0.91699919  0.41560563  0.69280435  1
  Se  Se239  1  0.91539665  0.74248517  0.20084270  1
  Se  Se240  1  0.91885788  0.74722960  0.70232165  1
  Se  Se241  1  0.07905469  0.25125955  0.20323552  1
  Se  Se242  1  0.08291356  0.25511087  0.69303962  1
  Se  Se243  1  0.08188357  0.58326232  0.19897054  1
  Se  Se244  1  0.07866961  0.58299190  0.68746141  1
  Se  Se245  1  0.08714363  0.91190619  0.20259797  1
  Se  Se246  1  0.08649493  0.91849024  0.68637316  1
  Se  Se247  1  0.41025445  0.25400683  0.20664319  1
  Se  Se248  1  0.42084248  0.24510405  0.69330197  1
  Se  Se249  1  0.42343051  0.58419493  0.19475480  1
  Se  Se250  1  0.40645685  0.57943732  0.67850316  1
  Se  Se251  1  0.40886867  0.92199954  0.20051534  1
  Se  Se252  1  0.40201517  0.92617894  0.69684175  1
  Se  Se253  1  0.75253478  0.25526073  0.19563968  1
  Se  Se254  1  0.75654861  0.24693389  0.68517562  1
  Se  Se255  1  0.75565858  0.57924837  0.19592690  1
  Se  Se256  1  0.74349243  0.58212796  0.69550350  1
  Se  Se257  1  0.74844804  0.91105544  0.19770033  1
  Se  Se258  1  0.75103660  0.91851950  0.69578940  1
