# generated using pymatgen
data_In86Cu29Se144
_symmetry_space_group_name_H-M   'P 1'
_cell_length_a   17.58062204
_cell_length_b   17.58225907
_cell_length_c   23.44158023
_cell_angle_alpha   89.99209993
_cell_angle_beta   90.01426518
_cell_angle_gamma   89.95400716
_symmetry_Int_Tables_number   1
_chemical_formula_structural   In86Cu29Se144
_chemical_formula_sum   'In86 Cu29 Se144'
_cell_volume   7245.95511711
_cell_formula_units_Z   1
loop_
 _symmetry_equiv_pos_site_id
 _symmetry_equiv_pos_as_xyz
  1  'x, y, z'
loop_
 _atom_site_type_symbol
 _atom_site_label
 _atom_site_symmetry_multiplicity
 _atom_site_fract_x
 _atom_site_fract_y
 _atom_site_fract_z
 _atom_site_occupancy
  In  In0  1  0.00076659  0.16074532  0.13545114  1
  In  In1  1  0.01358620  0.16786171  0.62992052  1
  In  In2  1  0.01023354  0.49771874  0.13313725  1
  In  In3  1  -0.00287198  0.49518037  0.62369488  1
  In  In4  1  -0.00335392  0.83186348  0.12176780  1
  In  In5  1  0.00000280  0.83239327  0.65069772  1
  In  In6  1  0.33975754  0.18042020  0.13381912  1
  In  In7  1  0.34085331  0.16897763  0.61252295  1
  In  In8  1  0.32016676  0.49734512  0.13360985  1
  In  In9  1  0.32226419  0.49985700  0.60586597  1
  In  In10  1  0.33035955  0.82660187  0.11335956  1
  In  In11  1  0.33031243  0.82894617  0.63022941  1
  In  In12  1  0.67795645  0.15176854  0.15488104  1
  In  In13  1  0.66485119  0.17179018  0.62510035  1
  In  In14  1  0.67026918  0.49949134  0.13517500  1
  In  In15  1  0.66654108  0.49684138  0.61711178  1
  In  In16  1  0.66944790  0.83119164  0.12062624  1
  In  In17  1  0.68104359  0.82560484  0.64346713  1
  In  In18  1  0.16691849  0.01340153  0.37578230  1
  In  In19  1  0.12359804  -0.02329465  0.85211872  1
  In  In20  1  0.15987576  0.34007951  0.37529252  1
  In  In21  1  0.16716355  0.34289554  0.87695598  1
  In  In22  1  0.15293426  0.66309045  0.37444422  1
  In  In23  1  0.14966816  0.67751301  0.88351896  1
  In  In24  1  0.51653225  0.00254619  0.37320872  1
  In  In25  1  0.49889937  -0.01275167  0.87746780  1
  In  In26  1  0.50231945  0.33374251  0.37558288  1
  In  In27  1  0.50617530  0.32346683  0.87575304  1
  In  In28  1  0.50235162  0.65064690  0.37892095  1
  In  In29  1  0.51813051  0.67060505  0.87041577  1
  In  In30  1  0.83610253  0.01357920  0.35812521  1
  In  In31  1  0.82387720  -0.01922093  0.85751002  1
  In  In32  1  0.85100232  0.33978819  0.36450747  1
  In  In33  1  0.83390134  0.33218848  0.86731914  1
  In  In34  1  0.82416753  0.65899124  0.37015071  1
  In  In35  1  0.85308604  0.69370683  0.85098822  1
  In  In36  1  0.00984058  0.17908271  0.36761388  1
  In  In37  1  -0.00326037  0.15363570  0.86384297  1
  In  In38  1  -0.00052363  0.49982535  0.37716482  1
  In  In39  1  0.00221017  0.50976515  0.87100219  1
  In  In40  1  -0.00794736  0.83052561  0.36560249  1
  In  In41  1  0.00072394  0.82968776  0.87737231  1
  In  In42  1  0.32183617  0.18107879  0.38358196  1
  In  In43  1  0.33195130  0.17081600  0.87669105  1
  In  In44  1  0.34046433  0.49983880  0.38465924  1
  In  In45  1  0.32240920  0.48970992  0.87720267  1
  In  In46  1  0.32902350  0.83311865  0.37215995  1
  In  In47  1  0.33338369  0.83218304  0.88571999  1
  In  In48  1  0.65950717  0.16331343  0.36696932  1
  In  In49  1  0.67414197  0.16790223  0.86785735  1
  In  In50  1  0.66917557  0.49542112  0.37623909  1
  In  In51  1  0.67592054  0.50618688  0.86516474  1
  In  In52  1  0.67292048  0.84366548  0.36537028  1
  In  In53  1  0.66894440  0.83247443  0.87609533  1
  In  In54  1  0.16288689  -0.01112629  0.12095304  1
  In  In55  1  0.15630007  0.00424427  0.62690142  1
  In  In56  1  0.15631034  0.34598212  0.14048888  1
  In  In57  1  0.16010280  0.32888445  0.61682180  1
  In  In58  1  0.15761454  0.65836904  0.11704836  1
  In  In59  1  0.16015860  0.65556121  0.62669311  1
  In  In60  1  0.51400277  -0.00324778  0.12531847  1
  In  In61  1  0.50665675  0.01103418  0.62121012  1
  In  In62  1  0.50480096  0.32005286  0.14637429  1
  In  In63  1  0.50569940  0.34004584  0.61086362  1
  In  In64  1  0.50560129  0.67345097  0.12217935  1
  In  In65  1  0.50815533  0.66584286  0.62010148  1
  In  In66  1  0.84169703  -0.00610811  0.12882990  1
  In  In67  1  0.83745899  -0.00437096  0.63744192  1
  In  In68  1  0.83454291  0.32542920  0.14358801  1
  In  In69  1  0.82511517  0.33988139  0.62394592  1
  In  In70  1  0.82603618  0.67461702  0.12806194  1
  In  In71  1  0.84320688  0.65891383  0.63348108  1
  In  In72  1  0.49465392  0.50097364  0.00383346  1
  In  In73  1  0.83592811  0.17195402  0.49372465  1
  In  In74  1  0.33240336  0.33645844  0.74433339  1
  In  In75  1  0.50488088  0.83347559  0.50806406  1
  In  In76  1  0.33380531  0.00526080  0.24751208  1
  In  In77  1  0.33251324  0.00433867  0.75469631  1
  In  In78  1  0.32976439  0.66119491  0.25517742  1
  In  In79  1  0.83427724  0.50707856  -0.00015487  1
  In  In80  1  0.16913692  0.16198810  -0.00794794  1
  In  In81  1  0.50399292  0.16424563  0.01446927  1
  In  In82  1  0.16539356  0.82884054  0.50553036  1
  In  In83  1  0.33147143  0.66090240  0.74287817  1
  In  In84  1  0.83437645  0.83422221  0.51108547  1
  In  In85  1  0.83574250  0.16271751  0.00820218  1
  Cu  Cu86  1  0.82751423  0.49238498  0.74357310  1
  Cu  Cu87  1  0.32789471  0.33799510  0.00921327  1
  Cu  Cu88  1  0.51328484  0.16942997  0.74571062  1
  Cu  Cu89  1  0.66640235  0.33443589  0.49639320  1
  Cu  Cu90  1  0.15561214  0.50307040  0.75034678  1
  Cu  Cu91  1  0.16025265  0.17008747  0.25547178  1
  Cu  Cu92  1  0.33735771  0.00438182  0.49586597  1
  Cu  Cu93  1  0.00608375  0.00244735  0.50168005  1
  Cu  Cu94  1  0.50709712  0.49165418  0.74137316  1
  Cu  Cu95  1  0.32836716  -0.00324022  -0.00196870  1
  Cu  Cu96  1  0.15471796  0.83228957  0.24359991  1
  Cu  Cu97  1  0.33318470  0.66093252  -0.00002951  1
  Cu  Cu98  1  0.83459738  0.83374452  0.24416628  1
  Cu  Cu99  1  0.66363861  0.66005785  0.49613906  1
  Cu  Cu100  1  0.66594005  0.33755927  0.00484064  1
  Cu  Cu101  1  0.84100905  0.50892965  0.25224864  1
  Cu  Cu102  1  0.50527156  0.83442111  0.75236355  1
  Cu  Cu103  1  0.33319807  0.33343660  0.49263787  1
  Cu  Cu104  1  -0.00015354  0.66962526  -0.00381416  1
  Cu  Cu105  1  0.50236708  0.49993255  0.25858886  1
  Cu  Cu106  1  0.00613371  0.33886997  0.00466671  1
  Cu  Cu107  1  0.00213044  0.33770069  0.49639015  1
  Cu  Cu108  1  0.84014223  0.16909536  0.74379270  1
  Cu  Cu109  1  0.67316267  0.67624304  -0.00422637  1
  Cu  Cu110  1  -0.00508368  -0.00929092  -0.00484877  1
  Cu  Cu111  1  0.50759504  0.82895371  0.24444322  1
  Cu  Cu112  1  0.66728057  -0.00621710  -0.00192196  1
  Cu  Cu113  1  0.67341538  0.00192140  0.49723192  1
  Cu  Cu114  1  -0.00554425  0.66180146  0.50263639  1
  Se  Se115  1  0.07121132  0.07819479  0.05377818  1
  Se  Se116  1  0.08743464  0.08892843  0.55228622  1
  Se  Se117  1  0.08919176  0.41937545  0.05815478  1
  Se  Se118  1  0.08470789  0.42194534  0.55126205  1
  Se  Se119  1  0.08311801  0.75209329  0.05212206  1
  Se  Se120  1  0.06468046  0.74954510  0.56465198  1
  Se  Se121  1  0.40186341  0.07499332  0.06400283  1
  Se  Se122  1  0.42609729  0.08426040  0.54703605  1
  Se  Se123  1  0.41848936  0.40637992  0.06890379  1
  Se  Se124  1  0.41563084  0.41868984  0.54585503  1
  Se  Se125  1  0.41979473  0.74417854  0.04977105  1
  Se  Se126  1  0.40473683  0.74302170  0.55756930  1
  Se  Se127  1  0.73601990  0.07822504  0.06351524  1
  Se  Se128  1  0.75654821  0.07700969  0.55951343  1
  Se  Se129  1  0.75259175  0.41144657  0.06357504  1
  Se  Se130  1  0.75251451  0.41714311  0.54710327  1
  Se  Se131  1  0.75820127  0.75526882  0.05033703  1
  Se  Se132  1  0.74005889  0.73860308  0.56102471  1
  Se  Se133  1  0.24607614  0.25184870  0.06265758  1
  Se  Se134  1  0.25221518  0.25292405  0.55068260  1
  Se  Se135  1  0.25369526  0.57825070  0.05562119  1
  Se  Se136  1  0.24181718  0.59516831  0.54904076  1
  Se  Se137  1  0.24412886  0.91230044  0.04945974  1
  Se  Se138  1  0.26007356  0.92514446  0.55927809  1
  Se  Se139  1  0.59721205  0.25448513  0.06905537  1
  Se  Se140  1  0.58680280  0.24605478  0.54900680  1
  Se  Se141  1  0.59888571  0.58748960  0.05464204  1
  Se  Se142  1  0.57844199  0.57836506  0.54870969  1
  Se  Se143  1  0.58178350  0.91209837  0.05110397  1
  Se  Se144  1  0.60388419  0.91858182  0.56344117  1
  Se  Se145  1  0.92527616  0.25956196  0.06329816  1
  Se  Se146  1  0.92451625  0.25567232  0.55878339  1
  Se  Se147  1  0.92545538  0.59034441  0.06271687  1
  Se  Se148  1  0.91078877  0.57899043  0.55551875  1
  Se  Se149  1  0.91075495  0.91315340  0.05202544  1
  Se  Se150  1  0.93293544  0.92229374  0.56506348  1
  Se  Se151  1  0.08461493  0.24949953  0.44660008  1
  Se  Se152  1  0.07224563  0.25319025  0.93894340  1
  Se  Se153  1  0.08056509  0.58239150  0.44951314  1
  Se  Se154  1  0.08183903  0.57790241  0.94935637  1
  Se  Se155  1  0.07828666  0.91629774  0.43947937  1
  Se  Se156  1  0.08753145  0.91153865  0.94716353  1
  Se  Se157  1  0.42259607  0.24884676  0.44677360  1
  Se  Se158  1  0.41120024  0.25699014  0.95121025  1
  Se  Se159  1  0.41092550  0.59443475  0.45142879  1
  Se  Se160  1  0.41239984  0.58781776  0.93406266  1
  Se  Se161  1  0.41541719  0.91897896  0.43970534  1
  Se  Se162  1  0.41989207  0.91420392  0.95197545  1
  Se  Se163  1  0.74555180  0.25776771  0.43307633  1
  Se  Se164  1  0.74673090  0.25600025  0.94581003  1
  Se  Se165  1  0.75266518  0.57977866  0.44627878  1
  Se  Se166  1  0.75188437  0.59575968  0.93495188  1
  Se  Se167  1  0.75756881  0.92428960  0.43973990  1
  Se  Se168  1  0.75404216  0.91737261  0.94298150  1
  Se  Se169  1  0.24639735  0.08642510  0.44978306  1
  Se  Se170  1  0.25227865  0.06830477  0.93131023  1
  Se  Se171  1  0.24571740  0.41846048  0.44552716  1
  Se  Se172  1  0.24465065  0.41792176  0.95379062  1
  Se  Se173  1  0.25269467  0.74374309  0.44016554  1
  Se  Se174  1  0.24839484  0.74581387  0.94873678  1
  Se  Se175  1  0.58848388  0.08514126  0.44730057  1
  Se  Se176  1  0.58944719  0.08272666  0.94192926  1
  Se  Se177  1  0.58081759  0.42025964  0.44623255  1
  Se  Se178  1  0.58997045  0.41548351  0.94185522  1
  Se  Se179  1  0.59340330  0.75275585  0.43880958  1
  Se  Se180  1  0.58055801  0.75478618  0.94739886  1
  Se  Se181  1  0.92541157  0.07645424  0.43839659  1
  Se  Se182  1  0.91351209  0.07505171  0.93879526  1
  Se  Se183  1  0.91313259  0.41779312  0.44650425  1
  Se  Se184  1  0.92068355  0.41046854  0.94211285  1
  Se  Se185  1  0.91740927  0.74670979  0.44340676  1
  Se  Se186  1  0.91152557  0.74868032  0.94367764  1
  Se  Se187  1  0.24390043  0.25315480  0.30721379  1
  Se  Se188  1  0.24501726  0.24801916  0.80639608  1
  Se  Se189  1  0.24095046  0.57089578  0.31218876  1
  Se  Se190  1  0.24104384  0.57939525  0.81023998  1
  Se  Se191  1  0.23807482  0.91111197  0.30355063  1
  Se  Se192  1  0.24824953  0.90518060  0.80914988  1
  Se  Se193  1  0.58894321  0.26134114  0.30402151  1
  Se  Se194  1  0.59060703  0.25503724  0.80231026  1
  Se  Se195  1  0.58974385  0.58456973  0.30602826  1
  Se  Se196  1  0.58180405  0.57897225  0.79851395  1
  Se  Se197  1  0.58345636  0.91945741  0.29694136  1
  Se  Se198  1  0.58628816  0.91919619  0.80586612  1
  Se  Se199  1  0.89623226  0.22317916  0.30638992  1
  Se  Se200  1  0.91976166  0.24977967  0.80230978  1
  Se  Se201  1  0.92436142  0.59094987  0.30675293  1
  Se  Se202  1  0.90914385  0.57524125  0.80032578  1
  Se  Se203  1  0.91700277  0.91936128  0.29761203  1
  Se  Se204  1  0.95151962  0.94185646  0.81200004  1
  Se  Se205  1  0.07906402  0.07826510  0.30213837  1
  Se  Se206  1  0.10691395  0.10364166  0.80120314  1
  Se  Se207  1  0.06057664  0.40180297  0.30762260  1
  Se  Se208  1  0.07995626  0.41593762  0.80643261  1
  Se  Se209  1  0.08008954  0.74734651  0.30162473  1
  Se  Se210  1  0.07039837  0.73951795  0.80520656  1
  Se  Se211  1  0.41173675  0.08580310  0.31942735  1
  Se  Se212  1  0.43123828  0.09600743  0.81026267  1
  Se  Se213  1  0.41538350  0.42038692  0.31011852  1
  Se  Se214  1  0.42606496  0.42237838  0.80876126  1
  Se  Se215  1  0.42700681  0.75512461  0.30866879  1
  Se  Se216  1  0.41824339  0.75387106  0.80713783  1
  Se  Se217  1  0.72503736  0.06578831  0.29959834  1
  Se  Se218  1  0.75596928  0.08710145  0.79931007  1
  Se  Se219  1  0.75827551  0.42371117  0.30459677  1
  Se  Se220  1  0.74555094  0.40968641  0.80008887  1
  Se  Se221  1  0.75312949  0.75336214  0.30239510  1
  Se  Se222  1  0.72544249  0.73167876  0.80703859  1
  Se  Se223  1  0.23609005  0.09179174  0.18850673  1
  Se  Se224  1  0.25381923  0.09304390  0.68652995  1
  Se  Se225  1  0.26570876  0.39889633  0.20225040  1
  Se  Se226  1  0.24258073  0.43068241  0.68896088  1
  Se  Se227  1  0.24595394  0.75396532  0.19055718  1
  Se  Se228  1  0.23406572  0.75601663  0.69547632  1
  Se  Se229  1  0.55013996  0.10269957  0.19423578  1
  Se  Se230  1  0.59174421  0.07980833  0.69502924  1
  Se  Se231  1  0.58529345  0.41922679  0.20221852  1
  Se  Se232  1  0.58769583  0.40844861  0.68745590  1
  Se  Se233  1  0.59168281  0.74519225  0.19323354  1
  Se  Se234  1  0.57860821  0.74528801  0.69666462  1
  Se  Se235  1  0.89410837  0.10016096  0.19418597  1
  Se  Se236  1  0.92671337  0.08446582  0.69535274  1
  Se  Se237  1  0.91992762  0.41987731  0.19952378  1
  Se  Se238  1  0.91650789  0.41109162  0.69354712  1
  Se  Se239  1  0.91998252  0.74823204  0.19423638  1
  Se  Se240  1  0.88909497  0.76651115  0.70065329  1
  Se  Se241  1  0.07547715  0.25230860  0.20133340  1
  Se  Se242  1  0.08415594  0.26326629  0.69562996  1
  Se  Se243  1  0.09936310  0.57875592  0.19727199  1
  Se  Se244  1  0.07125876  0.58447221  0.69645623  1
  Se  Se245  1  0.07489588  0.92066136  0.19248915  1
  Se  Se246  1  0.09654085  0.91783046  0.70191267  1
  Se  Se247  1  0.41240372  0.24811828  0.21279442  1
  Se  Se248  1  0.42760621  0.24630567  0.68836973  1
  Se  Se249  1  0.42652541  0.57858106  0.19156421  1
  Se  Se250  1  0.42033420  0.56880153  0.68412446  1
  Se  Se251  1  0.41818368  0.90531708  0.18839608  1
  Se  Se252  1  0.42566175  0.91430990  0.69131155  1
  Se  Se253  1  0.73220789  0.26652888  0.20768508  1
  Se  Se254  1  0.75135715  0.24997535  0.69316887  1
  Se  Se255  1  0.75225307  0.58738810  0.19885035  1
  Se  Se256  1  0.74528525  0.57746608  0.69045437  1
  Se  Se257  1  0.74777225  0.91533396  0.19150171  1
  Se  Se258  1  0.75090669  0.92143420  0.70619285  1
