# generated using pymatgen
data_In86Cu29Se144
_symmetry_space_group_name_H-M   'P 1'
_cell_length_a   17.56474975
_cell_length_b   17.56137335
_cell_length_c   23.41567553
_cell_angle_alpha   89.97561536
_cell_angle_beta   89.98654083
_cell_angle_gamma   89.99162873
_symmetry_Int_Tables_number   1
_chemical_formula_structural   In86Cu29Se144
_chemical_formula_sum   'In86 Cu29 Se144'
_cell_volume   7222.82476073
_cell_formula_units_Z   1
loop_
 _symmetry_equiv_pos_site_id
 _symmetry_equiv_pos_as_xyz
  1  'x, y, z'
loop_
 _atom_site_type_symbol
 _atom_site_label
 _atom_site_symmetry_multiplicity
 _atom_site_fract_x
 _atom_site_fract_y
 _atom_site_fract_z
 _atom_site_occupancy
  In  In0  1  0.00498098  0.16971693  0.12311194  1
  In  In1  1  -0.01905583  0.16630936  0.62320505  1
  In  In2  1  -0.02388809  0.48349712  0.09876690  1
  In  In3  1  0.00515496  0.49902324  0.62999592  1
  In  In4  1  -0.00324130  0.82840957  0.10985492  1
  In  In5  1  0.02015255  0.83716402  0.62278241  1
  In  In6  1  0.32255702  0.15987413  0.12287299  1
  In  In7  1  0.36295703  0.13829582  0.65491126  1
  In  In8  1  0.33736933  0.49908649  0.11099190  1
  In  In9  1  0.35799277  0.48227138  0.65514430  1
  In  In10  1  0.32711642  0.84774100  0.12451994  1
  In  In11  1  0.33312878  0.84010657  0.62737412  1
  In  In12  1  0.67399461  0.16504726  0.12858105  1
  In  In13  1  0.66894459  0.16082585  0.62736041  1
  In  In14  1  0.66221804  0.48399027  0.10837375  1
  In  In15  1  0.64879627  0.49978652  0.64781699  1
  In  In16  1  0.67348112  0.83453365  0.12237434  1
  In  In17  1  0.65651622  0.85349204  0.63701201  1
  In  In18  1  0.16129932  -0.01446757  0.38090068  1
  In  In19  1  0.16469892  0.00657002  0.87154447  1
  In  In20  1  0.16610831  0.33955659  0.36961197  1
  In  In21  1  0.16893869  0.33037489  0.88144202  1
  In  In22  1  0.18015910  0.67355804  0.37316520  1
  In  In23  1  0.17476478  0.66328966  0.88884623  1
  In  In24  1  0.50191997  0.00253681  0.37545970  1
  In  In25  1  0.49944898  0.01535335  0.85240682  1
  In  In26  1  0.49830033  0.31664047  0.37843639  1
  In  In27  1  0.51658676  0.34976643  0.84984853  1
  In  In28  1  0.50964110  0.68095992  0.37838832  1
  In  In29  1  0.48587154  0.64344535  0.85499634  1
  In  In30  1  0.83404229  0.02631733  0.37904112  1
  In  In31  1  0.83188854  -0.00222488  0.87762167  1
  In  In32  1  0.80112618  0.29310017  0.33574099  1
  In  In33  1  0.80556145  0.34251843  0.89644122  1
  In  In34  1  0.83175242  0.66147852  0.37194126  1
  In  In35  1  0.82836976  0.67566828  0.88283672  1
  In  In36  1  -0.02261944  0.16346532  0.37458522  1
  In  In37  1  -0.00121453  0.16227990  0.87989334  1
  In  In38  1  0.00491467  0.48194320  0.36964130  1
  In  In39  1  -0.00095087  0.51071200  0.89172716  1
  In  In40  1  0.01394991  0.85774973  0.37804670  1
  In  In41  1  -0.00948407  0.83924121  0.88757073  1
  In  In42  1  0.35317327  0.16290137  0.38402078  1
  In  In43  1  0.32705001  0.16537633  0.86132439  1
  In  In44  1  0.32647619  0.50028947  0.37707383  1
  In  In45  1  0.33634182  0.49810175  0.87457765  1
  In  In46  1  0.32035253  0.85157039  0.39538355  1
  In  In47  1  0.33380615  0.83312600  0.86773064  1
  In  In48  1  0.66154373  0.16608050  0.37601893  1
  In  In49  1  0.66786939  0.17641067  0.86678508  1
  In  In50  1  0.68473816  0.49704928  0.37512831  1
  In  In51  1  0.66163845  0.49710801  0.87366672  1
  In  In52  1  0.64515239  0.84122679  0.38302276  1
  In  In53  1  0.67214580  0.83660916  0.86962713  1
  In  In54  1  0.16627726  0.00126671  0.11936486  1
  In  In55  1  0.17517398  -0.01280102  0.63303855  1
  In  In56  1  0.15956411  0.31841627  0.11179206  1
  In  In57  1  0.16866082  0.34349427  0.62424614  1
  In  In58  1  0.15645528  0.66412220  0.10263116  1
  In  In59  1  0.17902859  0.68299291  0.62532843  1
  In  In60  1  0.49807906  0.00442845  0.12994256  1
  In  In61  1  0.50248905  0.00614760  0.62573541  1
  In  In62  1  0.50434963  0.34183590  0.11928815  1
  In  In63  1  0.52493892  0.29948184  0.65702142  1
  In  In64  1  0.51392672  0.66117761  0.11802294  1
  In  In65  1  0.48765768  0.67802637  0.64334425  1
  In  In66  1  0.83225158  0.00263694  0.12280612  1
  In  In67  1  0.82206355  0.01316568  0.63415147  1
  In  In68  1  0.83147033  0.32800125  0.12067374  1
  In  In69  1  0.82330740  0.31494654  0.62245519  1
  In  In70  1  0.82983813  0.66396808  0.10619863  1
  In  In71  1  0.83044979  0.65536094  0.63283763  1
  In  In72  1  0.49627359  0.49975726  0.50410263  1
  In  In73  1  0.83619730  0.83903469  0.50602496  1
  In  In74  1  0.00053880  0.67615894  0.76016594  1
  In  In75  1  -0.00205174  0.00561889  0.24650618  1
  In  In76  1  -0.00562314  0.33164857  0.75778129  1
  In  In77  1  0.33331735  0.66864847  0.24923226  1
  In  In78  1  0.49596584  0.82718848  -0.01175922  1
  In  In79  1  0.17042284  0.50963544  0.50525880  1
  In  In80  1  0.16871268  0.15907374  0.50652870  1
  In  In81  1  0.83583760  0.49048685  0.50448667  1
  In  In82  1  0.66671974  0.66688259  0.24544055  1
  In  In83  1  -0.00247967  0.66325506  0.23508927  1
  In  In84  1  0.50271775  0.17466395  -0.01226908  1
  In  In85  1  0.33766342  0.32304094  0.24766557  1
  Cu  Cu86  1  0.16811674  0.83285620  0.25153782  1
  Cu  Cu87  1  0.66198407  0.65743031  -0.00939506  1
  Cu  Cu88  1  0.33933795  0.66742871  -0.00876087  1
  Cu  Cu89  1  0.33562458  0.33581097  -0.00791150  1
  Cu  Cu90  1  -0.00124883  0.00461175  -0.00065839  1
  Cu  Cu91  1  -0.01024828  0.32536056  0.49018780  1
  Cu  Cu92  1  0.66000512  0.67439125  0.51251085  1
  Cu  Cu93  1  0.16909401  0.50962428  0.76145666  1
  Cu  Cu94  1  0.15824324  0.16897001  0.75246752  1
  Cu  Cu95  1  0.32937747  0.00346932  -0.00778475  1
  Cu  Cu96  1  0.15836517  0.48599077  0.23452362  1
  Cu  Cu97  1  0.66635323  0.01016156  0.50356633  1
  Cu  Cu98  1  0.49349236  0.84815125  0.25481513  1
  Cu  Cu99  1  0.83745102  0.48913602  0.23424663  1
  Cu  Cu100  1  0.83844512  0.83625229  0.75607948  1
  Cu  Cu101  1  0.50798736  0.83349894  0.74796721  1
  Cu  Cu102  1  0.00186883  0.67557421  0.49576185  1
  Cu  Cu103  1  0.17085019  0.83719870  0.75237334  1
  Cu  Cu104  1  0.82893828  0.16803457  0.75528944  1
  Cu  Cu105  1  0.17076188  0.15735040  0.24693643  1
  Cu  Cu106  1  0.82558816  0.84149050  0.24714280  1
  Cu  Cu107  1  0.00198045  0.32549910  -0.00086521  1
  Cu  Cu108  1  0.33323574  0.67287854  0.51190913  1
  Cu  Cu109  1  0.82703757  0.49138272  0.75974361  1
  Cu  Cu110  1  0.66935084  -0.00648885  -0.00225413  1
  Cu  Cu111  1  0.50635475  0.49400398  0.24644401  1
  Cu  Cu112  1  0.50958078  0.16362161  0.25237717  1
  Cu  Cu113  1  0.66666528  0.32567510  0.50200793  1
  Cu  Cu114  1  0.34049851  0.32535529  0.51206533  1
  Se  Se115  1  0.08478012  0.08595659  0.05308693  1
  Se  Se116  1  0.07860145  0.07657925  0.57008201  1
  Se  Se117  1  0.08814843  0.41442072  0.04670088  1
  Se  Se118  1  0.06877349  0.40963165  0.54971824  1
  Se  Se119  1  0.10033713  0.77377054  0.04479598  1
  Se  Se120  1  0.09008879  0.74859708  0.55108852  1
  Se  Se121  1  0.41528703  0.08038520  0.05172856  1
  Se  Se122  1  0.41393388  0.08809072  0.56038144  1
  Se  Se123  1  0.42260525  0.41575853  0.04563248  1
  Se  Se124  1  0.42090552  0.40711081  0.56958874  1
  Se  Se125  1  0.41087756  0.74525714  0.06109404  1
  Se  Se126  1  0.42206279  0.75300119  0.56210458  1
  Se  Se127  1  0.74507253  0.08082237  0.05348041  1
  Se  Se128  1  0.75610628  0.09033860  0.55281239  1
  Se  Se129  1  0.77396473  0.43005263  0.05143538  1
  Se  Se130  1  0.73401280  0.41477378  0.56569886  1
  Se  Se131  1  0.73710398  0.74762393  0.04663163  1
  Se  Se132  1  0.74764920  0.74926088  0.56940245  1
  Se  Se133  1  0.25841803  0.24716666  0.04803595  1
  Se  Se134  1  0.25442489  0.24877135  0.56806498  1
  Se  Se135  1  0.25473000  0.58370093  0.04530778  1
  Se  Se136  1  0.26707139  0.57974148  0.57229841  1
  Se  Se137  1  0.24945005  0.92015968  0.04810616  1
  Se  Se138  1  0.24327048  0.90870602  0.55568571  1
  Se  Se139  1  0.59131576  0.25278675  0.05612165  1
  Se  Se140  1  0.58373894  0.25077113  0.56246932  1
  Se  Se141  1  0.57905136  0.57473088  0.04465702  1
  Se  Se142  1  0.58258794  0.58797021  0.56879667  1
  Se  Se143  1  0.57984174  0.91853358  0.05495775  1
  Se  Se144  1  0.58671948  0.92217643  0.55555121  1
  Se  Se145  1  0.91705088  0.24406185  0.05315098  1
  Se  Se146  1  0.90709223  0.24568121  0.54690278  1
  Se  Se147  1  0.93703162  0.60680896  0.04581775  1
  Se  Se148  1  0.92925110  0.59147189  0.55698702  1
  Se  Se149  1  0.91249521  0.92122060  0.05179816  1
  Se  Se150  1  0.91963008  0.92612839  0.56981185  1
  Se  Se151  1  0.08441164  0.25083584  0.43878030  1
  Se  Se152  1  0.08681480  0.24297624  0.94635407  1
  Se  Se153  1  0.07751207  0.58799779  0.43467924  1
  Se  Se154  1  0.08725782  0.58797626  0.95638047  1
  Se  Se155  1  0.08626166  0.91715466  0.46120356  1
  Se  Se156  1  0.08484686  0.92515606  0.94459252  1
  Se  Se157  1  0.42581015  0.24596662  0.45786521  1
  Se  Se158  1  0.41117391  0.25932802  0.92717012  1
  Se  Se159  1  0.40665257  0.59549301  0.44278985  1
  Se  Se160  1  0.42325876  0.58055620  0.94319584  1
  Se  Se161  1  0.44115247  0.90025760  0.44221717  1
  Se  Se162  1  0.41740551  0.93251274  0.93248969  1
  Se  Se163  1  0.75067408  0.25736411  0.43724134  1
  Se  Se164  1  0.74876990  0.22835713  0.95067010  1
  Se  Se165  1  0.74322570  0.59525482  0.45206970  1
  Se  Se166  1  0.75242300  0.57565547  0.94239042  1
  Se  Se167  1  0.74547164  0.92599913  0.44223403  1
  Se  Se168  1  0.75227486  0.90784400  0.94656441  1
  Se  Se169  1  0.25806388  0.07420632  0.44188528  1
  Se  Se170  1  0.25034855  0.09160310  0.93928968  1
  Se  Se171  1  0.25799026  0.40439964  0.45034868  1
  Se  Se172  1  0.24831323  0.42226503  0.94528249  1
  Se  Se173  1  0.24554024  0.74855117  0.45387366  1
  Se  Se174  1  0.25875897  0.76039129  0.94622087  1
  Se  Se175  1  0.57963886  0.08797102  0.44758435  1
  Se  Se176  1  0.58720021  0.07057980  0.93608712  1
  Se  Se177  1  0.59196360  0.41336053  0.44115491  1
  Se  Se178  1  0.58693843  0.40091094  0.93729861  1
  Se  Se179  1  0.57723378  0.75574464  0.45852818  1
  Se  Se180  1  0.58321393  0.73761123  0.92830430  1
  Se  Se181  1  0.94048100  0.06322870  0.44935182  1
  Se  Se182  1  0.91027374  0.08412977  0.94770746  1
  Se  Se183  1  0.90762408  0.40473618  0.43153570  1
  Se  Se184  1  0.91910005  0.41049951  0.94721778  1
  Se  Se185  1  0.92060590  0.75121364  0.43532249  1
  Se  Se186  1  0.92338612  0.74012403  0.95172586  1
  Se  Se187  1  0.24909056  0.23644325  0.31220872  1
  Se  Se188  1  0.23979770  0.25745067  0.80132535  1
  Se  Se189  1  0.23525076  0.56773102  0.29906335  1
  Se  Se190  1  0.25369637  0.59338395  0.81121143  1
  Se  Se191  1  0.24908836  0.91308219  0.30886844  1
  Se  Se192  1  0.25270717  0.92442173  0.80454260  1
  Se  Se193  1  0.58458894  0.25535342  0.30330372  1
  Se  Se194  1  0.55809841  0.22357384  0.80125113  1
  Se  Se195  1  0.57870091  0.57630678  0.31182215  1
  Se  Se196  1  0.59952717  0.58891000  0.80000262  1
  Se  Se197  1  0.58837844  0.92395934  0.30278444  1
  Se  Se198  1  0.58893922  0.91946127  0.80098265  1
  Se  Se199  1  0.93889368  0.26861857  0.30523758  1
  Se  Se200  1  0.90171017  0.25094882  0.81941174  1
  Se  Se201  1  0.91107515  0.57066285  0.30091642  1
  Se  Se202  1  0.91127021  0.57590074  0.81182280  1
  Se  Se203  1  0.90773784  0.91540393  0.31003072  1
  Se  Se204  1  0.92192640  0.91792156  0.80913386  1
  Se  Se205  1  0.08899159  0.08753615  0.31318378  1
  Se  Se206  1  0.07423223  0.08504102  0.80344480  1
  Se  Se207  1  0.08083153  0.40550372  0.29384615  1
  Se  Se208  1  0.08185684  0.42925728  0.81511663  1
  Se  Se209  1  0.08157071  0.75161717  0.30700581  1
  Se  Se210  1  0.09416584  0.76060339  0.81887485  1
  Se  Se211  1  0.41990712  0.08544862  0.30439092  1
  Se  Se212  1  0.40868653  0.09076905  0.78725893  1
  Se  Se213  1  0.42045229  0.42214340  0.30947679  1
  Se  Se214  1  0.40510291  0.41581037  0.79822821  1
  Se  Se215  1  0.41684677  0.76014195  0.31226983  1
  Se  Se216  1  0.41992737  0.75366668  0.80008608  1
  Se  Se217  1  0.75418558  0.09633514  0.30529956  1
  Se  Se218  1  0.74814760  0.07926649  0.80735119  1
  Se  Se219  1  0.74723396  0.42046879  0.29413083  1
  Se  Se220  1  0.74425615  0.40351404  0.80737136  1
  Se  Se221  1  0.74993956  0.75961899  0.31116277  1
  Se  Se222  1  0.75474380  0.74783062  0.80349013  1
  Se  Se223  1  0.25144133  0.07222082  0.19489096  1
  Se  Se224  1  0.24166523  0.08234977  0.70244401  1
  Se  Se225  1  0.25292676  0.41284279  0.18219606  1
  Se  Se226  1  0.23785520  0.42089163  0.70195848  1
  Se  Se227  1  0.23948242  0.75024000  0.18585767  1
  Se  Se228  1  0.25683660  0.75390142  0.70153272  1
  Se  Se229  1  0.58849717  0.08063887  0.19519312  1
  Se  Se230  1  0.58507051  0.08429546  0.69724308  1
  Se  Se231  1  0.58972870  0.41527600  0.19163803  1
  Se  Se232  1  0.57603944  0.41265790  0.71586870  1
  Se  Se233  1  0.56975979  0.76299145  0.19231022  1
  Se  Se234  1  0.59563404  0.74733624  0.69977539  1
  Se  Se235  1  0.90646773  0.09853082  0.19327758  1
  Se  Se236  1  0.91507062  0.08734531  0.70264861  1
  Se  Se237  1  0.92707105  0.40882598  0.18615618  1
  Se  Se238  1  0.90580232  0.42026737  0.69045762  1
  Se  Se239  1  0.90097702  0.75888646  0.18550368  1
  Se  Se240  1  0.91513386  0.75796506  0.68939973  1
  Se  Se241  1  0.09317053  0.24485397  0.19390805  1
  Se  Se242  1  0.08082825  0.24946778  0.68817791  1
  Se  Se243  1  0.08498349  0.57167788  0.17556795  1
  Se  Se244  1  0.08998311  0.58650701  0.69561150  1
  Se  Se245  1  0.08302688  0.90683733  0.18888728  1
  Se  Se246  1  0.08064108  0.91715232  0.70314368  1
  Se  Se247  1  0.42879121  0.23714420  0.18502117  1
  Se  Se248  1  0.38637269  0.27598824  0.68822137  1
  Se  Se249  1  0.42527071  0.57673197  0.18927739  1
  Se  Se250  1  0.42157007  0.58644633  0.71360856  1
  Se  Se251  1  0.40949529  0.92416297  0.19636680  1
  Se  Se252  1  0.42381762  0.91612571  0.69468889  1
  Se  Se253  1  0.74319100  0.26154808  0.19495887  1
  Se  Se254  1  0.74490337  0.24994426  0.70085328  1
  Se  Se255  1  0.75460192  0.57876240  0.18250141  1
  Se  Se256  1  0.74953917  0.57958107  0.70427564  1
  Se  Se257  1  0.74395202  0.92356116  0.19280576  1
  Se  Se258  1  0.75346833  0.92036878  0.70381487  1
