# generated using pymatgen
data_In86Cu29Se144
_symmetry_space_group_name_H-M   'P 1'
_cell_length_a   17.56449601
_cell_length_b   17.56513060
_cell_length_c   23.42444848
_cell_angle_alpha   89.98894630
_cell_angle_beta   90.00050625
_cell_angle_gamma   89.99655493
_symmetry_Int_Tables_number   1
_chemical_formula_structural   In86Cu29Se144
_chemical_formula_sum   'In86 Cu29 Se144'
_cell_volume   7226.97315537
_cell_formula_units_Z   1
loop_
 _symmetry_equiv_pos_site_id
 _symmetry_equiv_pos_as_xyz
  1  'x, y, z'
loop_
 _atom_site_type_symbol
 _atom_site_label
 _atom_site_symmetry_multiplicity
 _atom_site_fract_x
 _atom_site_fract_y
 _atom_site_fract_z
 _atom_site_occupancy
  In  In0  1  -0.02152667  0.14117047  0.12129450  1
  In  In1  1  -0.01477458  0.18209942  0.62970181  1
  In  In2  1  -0.01028710  0.51632529  0.12449510  1
  In  In3  1  -0.00173663  0.49355281  0.61688048  1
  In  In4  1  0.01289515  0.84715748  0.11296679  1
  In  In5  1  -0.00820726  0.84916919  0.62571001  1
  In  In6  1  0.31571278  0.13871077  0.09628792  1
  In  In7  1  0.34003438  0.14718275  0.62559864  1
  In  In8  1  0.34531253  0.50441328  0.12532478  1
  In  In9  1  0.34672851  0.51561261  0.61824444  1
  In  In10  1  0.33432510  0.83554362  0.12794473  1
  In  In11  1  0.33927174  0.81933419  0.62955351  1
  In  In12  1  0.65954366  0.16150168  0.11496377  1
  In  In13  1  0.66723727  0.16757783  0.62516283  1
  In  In14  1  0.66723606  0.49779451  0.11335564  1
  In  In15  1  0.65669233  0.49099379  0.62412888  1
  In  In16  1  0.67715751  0.84982583  0.11665639  1
  In  In17  1  0.66427868  0.83394816  0.61889076  1
  In  In18  1  0.16664490  -0.00834333  0.35690672  1
  In  In19  1  0.18351756  -0.01218599  0.90405882  1
  In  In20  1  0.17930570  0.33881962  0.37442893  1
  In  In21  1  0.16065445  0.32695508  0.87981409  1
  In  In22  1  0.16304117  0.66572770  0.37406778  1
  In  In23  1  0.18401747  0.66324627  0.87486079  1
  In  In24  1  0.49979129  0.00354562  0.37055702  1
  In  In25  1  0.51088537  -0.01886830  0.88661555  1
  In  In26  1  0.51017693  0.32041137  0.38460812  1
  In  In27  1  0.52622054  0.31527607  0.89044069  1
  In  In28  1  0.49733105  0.67204259  0.37779709  1
  In  In29  1  0.48637343  0.67641246  0.87998964  1
  In  In30  1  0.82937330  0.00072068  0.37177293  1
  In  In31  1  0.82148594  0.00914370  0.88420656  1
  In  In32  1  0.83125807  0.33538551  0.37561602  1
  In  In33  1  0.81725117  0.33543774  0.88651168  1
  In  In34  1  0.83198558  0.67251825  0.38045477  1
  In  In35  1  0.83322284  0.67030391  0.88738436  1
  In  In36  1  -0.00796921  0.15506124  0.36439752  1
  In  In37  1  -0.00168208  0.16890519  0.88686423  1
  In  In38  1  -0.00618780  0.51106180  0.37942060  1
  In  In39  1  -0.00048018  0.49250517  0.87584244  1
  In  In40  1  -0.00910904  0.83649037  0.37285781  1
  In  In41  1  -0.01071134  0.84321959  0.89173620  1
  In  In42  1  0.34296133  0.16192567  0.37156004  1
  In  In43  1  0.35209347  0.13889246  0.89985942  1
  In  In44  1  0.32971719  0.50298567  0.38084219  1
  In  In45  1  0.34149192  0.51711665  0.87208582  1
  In  In46  1  0.34430327  0.84403763  0.35570425  1
  In  In47  1  0.35085210  0.82342430  0.89642995  1
  In  In48  1  0.68223381  0.14083628  0.39261073  1
  In  In49  1  0.66948393  0.15883530  0.87396557  1
  In  In50  1  0.66914959  0.49669854  0.38446345  1
  In  In51  1  0.67145490  0.48938594  0.88056379  1
  In  In52  1  0.64800714  0.85815460  0.39242936  1
  In  In53  1  0.65508135  0.84254355  0.87856532  1
  In  In54  1  0.16521843  -0.00954538  0.13121810  1
  In  In55  1  0.16948897  0.00023322  0.62197618  1
  In  In56  1  0.17950813  0.33123493  0.12654903  1
  In  In57  1  0.15020927  0.33172352  0.62523458  1
  In  In58  1  0.17419020  0.72423814  0.11971646  1
  In  In59  1  0.18758766  0.67232528  0.62503921  1
  In  In60  1  0.49975662  -0.00079517  0.12035186  1
  In  In61  1  0.52161475  0.01760824  0.60308714  1
  In  In62  1  0.50499743  0.32579647  0.11133000  1
  In  In63  1  0.50831300  0.34287382  0.62656257  1
  In  In64  1  0.48755340  0.66609488  0.12552422  1
  In  In65  1  0.49941254  0.66439965  0.62335400  1
  In  In66  1  0.83235529  0.00419630  0.13348515  1
  In  In67  1  0.80333120  -0.01709284  0.59836951  1
  In  In68  1  0.81779284  0.32584949  0.10959749  1
  In  In69  1  0.81737659  0.31932094  0.61579256  1
  In  In70  1  0.84446084  0.66941382  0.10466062  1
  In  In71  1  0.83811326  0.66604981  0.62090385  1
  In  In72  1  0.16411442  0.82713109  0.49629177  1
  In  In73  1  -0.00791154  0.33234797  0.76116087  1
  In  In74  1  0.66118214  0.32136641  0.24135458  1
  In  In75  1  0.00389619  0.68066180  0.24351314  1
  In  In76  1  0.35093788  -0.01651373  0.75967453  1
  In  In77  1  0.65993754  0.67057065  0.75098811  1
  In  In78  1  0.16539276  0.50426762  0.00017247  1
  In  In79  1  0.16525139  0.17178454  0.49758263  1
  In  In80  1  0.66975085  0.67300519  0.24779821  1
  In  In81  1  0.34428557  0.32338303  0.24706413  1
  In  In82  1  0.00188738  0.66349669  0.75816895  1
  In  In83  1  0.33415982  0.33565693  0.75580741  1
  In  In84  1  -0.00477502  0.01209102  0.75336822  1
  In  In85  1  -0.00050501  0.33071052  0.25114816  1
  Cu  Cu86  1  0.66124302  0.33637378  0.50333737  1
  Cu  Cu87  1  0.66925633  -0.00572019  0.00210534  1
  Cu  Cu88  1  0.82013583  0.15687336  0.74820382  1
  Cu  Cu89  1  0.65488231  0.66636806  0.00004670  1
  Cu  Cu90  1  0.67232647  0.66293932  0.50262389  1
  Cu  Cu91  1  0.49695248  0.50014543  0.25290025  1
  Cu  Cu92  1  0.00390824  0.66247821  0.49930858  1
  Cu  Cu93  1  0.33166714  0.33780593  0.50173821  1
  Cu  Cu94  1  0.82344814  0.48880280  0.74936174  1
  Cu  Cu95  1  0.17024591  0.82869462  0.75620297  1
  Cu  Cu96  1  0.33809690  0.33694833  -0.00060686  1
  Cu  Cu97  1  0.00336378  0.32707589  0.00558009  1
  Cu  Cu98  1  0.49813022  0.15489165  0.24245814  1
  Cu  Cu99  1  0.83199297  0.83983497  0.24955274  1
  Cu  Cu100  1  0.17907050  0.50767169  0.74166159  1
  Cu  Cu101  1  0.49964008  0.50067215  0.75077422  1
  Cu  Cu102  1  0.82308275  0.84171616  0.74770511  1
  Cu  Cu103  1  0.00015549  -0.00233875  0.00744589  1
  Cu  Cu104  1  0.50477505  0.83844892  0.24783169  1
  Cu  Cu105  1  -0.00127748  0.34042680  0.49599571  1
  Cu  Cu106  1  0.34020439  -0.00531411  0.49021380  1
  Cu  Cu107  1  0.16671394  0.15764769  0.23616685  1
  Cu  Cu108  1  0.51103881  0.16996751  0.74942546  1
  Cu  Cu109  1  0.83045107  0.50013049  0.24315705  1
  Cu  Cu110  1  0.33737403  0.66637904  0.49879347  1
  Cu  Cu111  1  0.32925062  0.66950019  0.00520322  1
  Cu  Cu112  1  0.17489206  0.15994597  0.76718762  1
  Cu  Cu113  1  -0.01023560  0.00830146  0.49541974  1
  Cu  Cu114  1  0.16837365  0.51368090  0.25239618  1
  Se  Se115  1  0.08553769  0.07899267  0.06164381  1
  Se  Se116  1  0.07135534  0.08322866  0.56009319  1
  Se  Se117  1  0.07860370  0.41269475  0.06415765  1
  Se  Se118  1  0.08794513  0.41735239  0.54864121  1
  Se  Se119  1  0.05358154  0.72302148  0.06023054  1
  Se  Se120  1  0.07569852  0.74464408  0.56630767  1
  Se  Se121  1  0.44514433  0.10637961  0.05385475  1
  Se  Se122  1  0.41520928  0.08619877  0.54314697  1
  Se  Se123  1  0.41848295  0.42002265  0.05403824  1
  Se  Se124  1  0.41879255  0.41700186  0.55646788  1
  Se  Se125  1  0.41609216  0.75511956  0.05415122  1
  Se  Se126  1  0.41945221  0.75023716  0.55282381  1
  Se  Se127  1  0.75273323  0.07741393  0.05546665  1
  Se  Se128  1  0.76189797  0.10710503  0.55222548  1
  Se  Se129  1  0.75446009  0.42431771  0.04452077  1
  Se  Se130  1  0.74861393  0.42084665  0.55380983  1
  Se  Se131  1  0.74208695  0.74839246  0.05143353  1
  Se  Se132  1  0.75351500  0.74871209  0.55536227  1
  Se  Se133  1  0.24943690  0.25564588  0.04884071  1
  Se  Se134  1  0.25668531  0.25315235  0.56558254  1
  Se  Se135  1  0.24687448  0.59277253  0.06794353  1
  Se  Se136  1  0.24987783  0.58397775  0.55016181  1
  Se  Se137  1  0.24411427  0.90918456  0.05899447  1
  Se  Se138  1  0.25818084  0.91932543  0.55458910  1
  Se  Se139  1  0.61668149  0.27543874  0.05156828  1
  Se  Se140  1  0.58010440  0.25202374  0.55806835  1
  Se  Se141  1  0.57411161  0.58514312  0.05740529  1
  Se  Se142  1  0.58440115  0.58275881  0.55622114  1
  Se  Se143  1  0.57733531  0.91249014  0.04880569  1
  Se  Se144  1  0.59220010  0.91667673  0.54399488  1
  Se  Se145  1  0.91699904  0.24323738  0.05495359  1
  Se  Se146  1  0.91668213  0.25313037  0.54859452  1
  Se  Se147  1  0.90686989  0.56485873  0.04274385  1
  Se  Se148  1  0.91677297  0.58094982  0.55186248  1
  Se  Se149  1  0.90760021  0.91977629  0.05856882  1
  Se  Se150  1  0.91509930  0.91352340  0.54592167  1
  Se  Se151  1  0.07499848  0.25757850  0.43259562  1
  Se  Se152  1  0.08938715  0.24518014  0.95412687  1
  Se  Se153  1  0.08889525  0.58197200  0.44649915  1
  Se  Se154  1  0.07691078  0.59173234  0.93668528  1
  Se  Se155  1  0.07978412  0.92942909  0.44116093  1
  Se  Se156  1  0.08547887  0.90780293  0.96118064  1
  Se  Se157  1  0.40744923  0.25014395  0.44592237  1
  Se  Se158  1  0.42288186  0.24868249  0.95213280  1
  Se  Se159  1  0.42081590  0.58175960  0.44548325  1
  Se  Se160  1  0.41405618  0.58725274  0.95226994  1
  Se  Se161  1  0.42023992  0.90956012  0.43693558  1
  Se  Se162  1  0.38374067  0.95459982  0.93991963  1
  Se  Se163  1  0.74246305  0.25863312  0.44337697  1
  Se  Se164  1  0.76090315  0.22730414  0.94539337  1
  Se  Se165  1  0.75630968  0.58152007  0.44739103  1
  Se  Se166  1  0.74185412  0.58600449  0.94655207  1
  Se  Se167  1  0.76256954  0.91235160  0.44624420  1
  Se  Se168  1  0.75127126  0.90930842  0.94717649  1
  Se  Se169  1  0.24798794  0.07322396  0.43697271  1
  Se  Se170  1  0.23469055  0.10280103  0.95968528  1
  Se  Se171  1  0.24672749  0.42008198  0.45052112  1
  Se  Se172  1  0.25793433  0.41688243  0.93761045  1
  Se  Se173  1  0.26184758  0.74938347  0.43599342  1
  Se  Se174  1  0.24368345  0.75074925  0.95179536  1
  Se  Se175  1  0.56287375  0.09491876  0.44444000  1
  Se  Se176  1  0.58680271  0.07857406  0.94648974  1
  Se  Se177  1  0.57731567  0.41984361  0.44967708  1
  Se  Se178  1  0.57053188  0.43135287  0.94813053  1
  Se  Se179  1  0.58825814  0.74403488  0.44683910  1
  Se  Se180  1  0.57637172  0.75447600  0.94670844  1
  Se  Se181  1  0.90950960  0.09173630  0.44172142  1
  Se  Se182  1  0.91783566  0.07880038  0.95036686  1
  Se  Se183  1  0.91238244  0.42126842  0.44263251  1
  Se  Se184  1  0.92450068  0.40562823  0.94374495  1
  Se  Se185  1  0.92384920  0.74966477  0.44653843  1
  Se  Se186  1  0.91441730  0.75038356  0.95501308  1
  Se  Se187  1  0.24123197  0.23775035  0.30290623  1
  Se  Se188  1  0.25842812  0.23985013  0.82247354  1
  Se  Se189  1  0.25506407  0.58825112  0.30888308  1
  Se  Se190  1  0.25937253  0.58970634  0.79713034  1
  Se  Se191  1  0.25201104  0.91537992  0.28993449  1
  Se  Se192  1  0.24608953  0.90953386  0.81861181  1
  Se  Se193  1  0.57453596  0.23597797  0.30558884  1
  Se  Se194  1  0.59311151  0.25092242  0.80492434  1
  Se  Se195  1  0.58535175  0.57611534  0.30885905  1
  Se  Se196  1  0.57678300  0.58079064  0.81510691  1
  Se  Se197  1  0.58675066  0.91994136  0.30363452  1
  Se  Se198  1  0.56945176  0.90776858  0.80321558  1
  Se  Se199  1  0.89934014  0.24310877  0.30187925  1
  Se  Se200  1  0.90277625  0.23365709  0.81165127  1
  Se  Se201  1  0.90938701  0.58492151  0.30156130  1
  Se  Se202  1  0.90236562  0.57145224  0.80936676  1
  Se  Se203  1  0.91838865  0.92210615  0.30206801  1
  Se  Se204  1  0.90883163  0.91477232  0.81061765  1
  Se  Se205  1  0.08300013  0.08318257  0.29618935  1
  Se  Se206  1  0.09163580  0.07864335  0.82383266  1
  Se  Se207  1  0.08849196  0.42866317  0.30902809  1
  Se  Se208  1  0.10041222  0.42636730  0.80394244  1
  Se  Se209  1  0.09353533  0.76582981  0.30738163  1
  Se  Se210  1  0.08369701  0.75924016  0.81820862  1
  Se  Se211  1  0.41098110  0.07682287  0.29756125  1
  Se  Se212  1  0.42986423  0.09119065  0.81069523  1
  Se  Se213  1  0.42518796  0.41352896  0.31377204  1
  Se  Se214  1  0.42869138  0.41784092  0.81666658  1
  Se  Se215  1  0.42660154  0.74604927  0.29828084  1
  Se  Se216  1  0.41545143  0.76432524  0.80923807  1
  Se  Se217  1  0.74064139  0.07950009  0.30464217  1
  Se  Se218  1  0.74226437  0.06856437  0.80176755  1
  Se  Se219  1  0.74792810  0.42160975  0.30198913  1
  Se  Se220  1  0.74441760  0.40687900  0.80554845  1
  Se  Se221  1  0.75242220  0.76218288  0.31274510  1
  Se  Se222  1  0.75573790  0.75515565  0.81118780  1
  Se  Se223  1  0.25967149  0.08080596  0.18819832  1
  Se  Se224  1  0.24716031  0.07948181  0.70130234  1
  Se  Se225  1  0.24925834  0.42511079  0.19847453  1
  Se  Se226  1  0.24989632  0.41758881  0.68398337  1
  Se  Se227  1  0.26865181  0.74030049  0.20010089  1
  Se  Se228  1  0.25641361  0.74766114  0.70459916  1
  Se  Se229  1  0.58822869  0.07823527  0.19000871  1
  Se  Se230  1  0.58352124  0.08129932  0.69198712  1
  Se  Se231  1  0.57443729  0.42356332  0.18808821  1
  Se  Se232  1  0.58623879  0.41532137  0.70375574  1
  Se  Se233  1  0.58233850  0.75963200  0.18454786  1
  Se  Se234  1  0.57277569  0.76129927  0.69225362  1
  Se  Se235  1  0.91781728  0.07700355  0.20720484  1
  Se  Se236  1  0.90113312  0.08219323  0.68404210  1
  Se  Se237  1  0.90881588  0.41579564  0.18626135  1
  Se  Se238  1  0.90974175  0.41460691  0.68925613  1
  Se  Se239  1  0.90449950  0.75911535  0.18488925  1
  Se  Se240  1  0.91237384  0.75855235  0.69693264  1
  Se  Se241  1  0.08521596  0.24461082  0.18444455  1
  Se  Se242  1  0.08999030  0.23788532  0.70486829  1
  Se  Se243  1  0.09353928  0.58757277  0.18607495  1
  Se  Se244  1  0.08682545  0.58116774  0.68687605  1
  Se  Se245  1  0.08163889  0.90562855  0.19753499  1
  Se  Se246  1  0.09292843  0.91350584  0.69751849  1
  Se  Se247  1  0.42291312  0.23696374  0.17942477  1
  Se  Se248  1  0.42027965  0.24165067  0.69184258  1
  Se  Se249  1  0.41432835  0.58553083  0.20240986  1
  Se  Se250  1  0.41890019  0.58667701  0.69863475  1
  Se  Se251  1  0.42010871  0.92016026  0.19392202  1
  Se  Se252  1  0.42470583  0.92452396  0.67488306  1
  Se  Se253  1  0.75843360  0.23538073  0.18761570  1
  Se  Se254  1  0.74569858  0.25256034  0.69816098  1
  Se  Se255  1  0.75593331  0.58400306  0.18283487  1
  Se  Se256  1  0.75347365  0.58056496  0.69200476  1
  Se  Se257  1  0.74254490  0.92113322  0.19967586  1
  Se  Se258  1  0.74474531  0.92018895  0.68868699  1
