# generated using pymatgen
data_In86Cu29Se144
_symmetry_space_group_name_H-M   'P 1'
_cell_length_a   17.58340045
_cell_length_b   17.57984569
_cell_length_c   23.44194594
_cell_angle_alpha   89.99969893
_cell_angle_beta   89.97810846
_cell_angle_gamma   89.98745756
_symmetry_Int_Tables_number   1
_chemical_formula_structural   In86Cu29Se144
_chemical_formula_sum   'In86 Cu29 Se144'
_cell_volume   7246.22046966
_cell_formula_units_Z   1
loop_
 _symmetry_equiv_pos_site_id
 _symmetry_equiv_pos_as_xyz
  1  'x, y, z'
loop_
 _atom_site_type_symbol
 _atom_site_label
 _atom_site_symmetry_multiplicity
 _atom_site_fract_x
 _atom_site_fract_y
 _atom_site_fract_z
 _atom_site_occupancy
  In  In0  1  -0.00400515  0.17453551  0.11677577  1
  In  In1  1  -0.00633428  0.17555661  0.62992333  1
  In  In2  1  0.00205626  0.51165904  0.12234940  1
  In  In3  1  0.01169456  0.49098200  0.62952391  1
  In  In4  1  -0.01099841  0.82576314  0.12509919  1
  In  In5  1  -0.00166750  0.83141345  0.62557172  1
  In  In6  1  0.33045867  0.15580568  0.12644733  1
  In  In7  1  0.32564440  0.16733396  0.63317468  1
  In  In8  1  0.34784670  0.51142299  0.13002821  1
  In  In9  1  0.33633506  0.50061760  0.61640775  1
  In  In10  1  0.33872778  0.82511367  0.13109082  1
  In  In11  1  0.33484740  0.83364292  0.62570518  1
  In  In12  1  0.67396073  0.15813483  0.13066723  1
  In  In13  1  0.67643562  0.15446683  0.62200795  1
  In  In14  1  0.66675360  0.49380871  0.14176268  1
  In  In15  1  0.66519105  0.51957308  0.62323089  1
  In  In16  1  0.65915803  0.84659527  0.13301638  1
  In  In17  1  0.65344172  0.81634064  0.61331355  1
  In  In18  1  0.16800243  -0.01652626  0.38076033  1
  In  In19  1  0.16361511  0.00120518  0.86822409  1
  In  In20  1  0.17474973  0.34684712  0.38721565  1
  In  In21  1  0.16344823  0.32975786  0.86196288  1
  In  In22  1  0.16872955  0.66696535  0.38047780  1
  In  In23  1  0.17196273  0.67436500  0.86277145  1
  In  In24  1  0.49228141  -0.01138814  0.36943678  1
  In  In25  1  0.48406938  -0.01385188  0.87290421  1
  In  In26  1  0.50779562  0.33131096  0.37932415  1
  In  In27  1  0.49490207  0.34442822  0.87163132  1
  In  In28  1  0.50084133  0.66756110  0.37610829  1
  In  In29  1  0.50598237  0.67462644  0.86472426  1
  In  In30  1  0.82357586  0.00269629  0.37759961  1
  In  In31  1  0.84696795  0.00743058  0.87621960  1
  In  In32  1  0.81911688  0.34113983  0.37927691  1
  In  In33  1  0.85241130  0.32524101  0.89051501  1
  In  In34  1  0.83890982  0.67163947  0.37190721  1
  In  In35  1  0.82774715  0.66001840  0.86835266  1
  In  In36  1  -0.00276002  0.15559900  0.37858441  1
  In  In37  1  -0.00429339  0.16633925  0.87008866  1
  In  In38  1  -0.00076883  0.51253432  0.38077782  1
  In  In39  1  -0.00671533  0.49560382  0.86391648  1
  In  In40  1  0.00973836  0.82158180  0.38489430  1
  In  In41  1  0.00355355  0.84016437  0.86099167  1
  In  In42  1  0.34614993  0.16756598  0.37462533  1
  In  In43  1  0.32359393  0.15884159  0.86544697  1
  In  In44  1  0.32130486  0.50876459  0.39076417  1
  In  In45  1  0.33452627  0.50171660  0.86382114  1
  In  In46  1  0.33562938  0.83182982  0.37962944  1
  In  In47  1  0.34728276  0.84198986  0.86080123  1
  In  In48  1  0.67151145  0.17282505  0.36960999  1
  In  In49  1  0.67355338  0.17893516  0.88114201  1
  In  In50  1  0.65440126  0.49564244  0.36405671  1
  In  In51  1  0.67242893  0.51540066  0.87434222  1
  In  In52  1  0.66548791  0.83193191  0.37479381  1
  In  In53  1  0.66075732  0.82039589  0.87381065  1
  In  In54  1  0.17329159  0.00328098  0.12805462  1
  In  In55  1  0.17430665  -0.01262561  0.63197475  1
  In  In56  1  0.15997641  0.34246338  0.12234596  1
  In  In57  1  0.16147117  0.34434972  0.62124122  1
  In  In58  1  0.16900462  0.66795515  0.13451795  1
  In  In59  1  0.16751557  0.66684553  0.62373325  1
  In  In60  1  0.50248972  -0.00959611  0.12653357  1
  In  In61  1  0.49318284  -0.02007237  0.62385025  1
  In  In62  1  0.50928887  0.34950036  0.13009277  1
  In  In63  1  0.48393607  0.33605355  0.61959619  1
  In  In64  1  0.49386294  0.67060926  0.14058183  1
  In  In65  1  0.50022578  0.66886936  0.62235217  1
  In  In66  1  0.82510106  -0.00433817  0.12211312  1
  In  In67  1  0.84105400  0.00489058  0.62102749  1
  In  In68  1  0.82325800  0.32585803  0.11978457  1
  In  In69  1  0.85480341  0.33163154  0.61793928  1
  In  In70  1  0.83600330  0.66118288  0.13171449  1
  In  In71  1  0.82056054  0.67600488  0.63032882  1
  In  In72  1  0.50285902  0.16201760  0.00322818  1
  In  In73  1  -0.00162538  -0.00940630  0.24398972  1
  In  In74  1  -0.00289932  0.33307717  0.24646304  1
  In  In75  1  0.15925722  0.16026887  -0.01126315  1
  In  In76  1  0.16955861  0.83668552  -0.00908525  1
  In  In77  1  0.66871164  0.33971902  0.75486665  1
  In  In78  1  0.34310979  0.33703843  0.25365443  1
  In  In79  1  0.50592279  0.50125563  0.00593380  1
  In  In80  1  0.15792414  0.49944351  -0.00180961  1
  In  In81  1  0.83051823  0.83542472  -0.00262930  1
  In  In82  1  0.66413104  -0.00615959  0.74901985  1
  In  In83  1  0.50488855  0.16646612  0.49539053  1
  In  In84  1  0.83541539  0.50333609  0.50211320  1
  In  In85  1  0.15993458  0.16913943  0.50788128  1
  Cu  Cu86  1  0.33286107  0.67349251  0.50305767  1
  Cu  Cu87  1  0.83432391  0.82943760  0.25204804  1
  Cu  Cu88  1  0.50546785  0.16055998  0.25048017  1
  Cu  Cu89  1  0.82691172  0.17056429  0.24998572  1
  Cu  Cu90  1  0.49489812  0.50133676  0.74510996  1
  Cu  Cu91  1  0.66332095  0.66869907  0.49518439  1
  Cu  Cu92  1  0.67262152  -0.00672435  0.49964114  1
  Cu  Cu93  1  0.34309165  0.66684428  0.00320699  1
  Cu  Cu94  1  0.50115304  0.83473060  0.25482921  1
  Cu  Cu95  1  0.17518195  0.16039251  0.25278947  1
  Cu  Cu96  1  0.82992967  0.83510727  0.74729364  1
  Cu  Cu97  1  0.66559335  0.00174347  0.00386778  1
  Cu  Cu98  1  0.83785635  0.17228298  0.74988099  1
  Cu  Cu99  1  0.17084575  0.50346808  0.74279048  1
  Cu  Cu100  1  0.49129752  0.16399021  0.74782553  1
  Cu  Cu101  1  0.16554227  0.16799716  0.74588538  1
  Cu  Cu102  1  0.17612805  0.82612540  0.25878357  1
  Cu  Cu103  1  0.16292382  0.82995828  0.74303583  1
  Cu  Cu104  1  0.83816758  0.50150092  0.74556318  1
  Cu  Cu105  1  0.32660254  0.32594581  -0.00503364  1
  Cu  Cu106  1  -0.00401255  -0.00688390  0.50246370  1
  Cu  Cu107  1  0.33094293  -0.00077972  0.50188925  1
  Cu  Cu108  1  0.67214257  0.33222850  0.49628767  1
  Cu  Cu109  1  0.00369302  0.66557035  0.50483378  1
  Cu  Cu110  1  -0.00288382  0.66879077  -0.00258253  1
  Cu  Cu111  1  0.83134514  0.50297230  0.25525588  1
  Cu  Cu112  1  0.66480616  0.67124592  0.00074125  1
  Cu  Cu113  1  0.16808597  0.50676895  0.25497596  1
  Cu  Cu114  1  0.67700671  0.33815528  0.00573118  1
  Se  Se115  1  0.07737240  0.07239342  0.05848824  1
  Se  Se116  1  0.07687938  0.07156967  0.56512780  1
  Se  Se117  1  0.06357815  0.40646915  0.05203033  1
  Se  Se118  1  0.07109253  0.41023182  0.54972694  1
  Se  Se119  1  0.08213886  0.74403142  0.05667059  1
  Se  Se120  1  0.08514682  0.75323883  0.55585627  1
  Se  Se121  1  0.40825649  0.07062504  0.05510663  1
  Se  Se122  1  0.41199484  0.08218935  0.55974031  1
  Se  Se123  1  0.40520270  0.40673432  0.05689950  1
  Se  Se124  1  0.42845500  0.42828752  0.54719045  1
  Se  Se125  1  0.42341723  0.74623073  0.06059456  1
  Se  Se126  1  0.41937880  0.75581931  0.55427672  1
  Se  Se127  1  0.75110429  0.08503769  0.05284863  1
  Se  Se128  1  0.75550161  0.08139566  0.54800895  1
  Se  Se129  1  0.74736544  0.42866892  0.06205673  1
  Se  Se130  1  0.74455277  0.41224235  0.56343036  1
  Se  Se131  1  0.74494976  0.74981159  0.06329056  1
  Se  Se132  1  0.75243329  0.74765722  0.54779753  1
  Se  Se133  1  0.24853630  0.25057514  0.05833989  1
  Se  Se134  1  0.25931370  0.25683263  0.55822826  1
  Se  Se135  1  0.25546685  0.58696686  0.05800355  1
  Se  Se136  1  0.24853800  0.58631192  0.55234823  1
  Se  Se137  1  0.25637840  0.91678357  0.06002935  1
  Se  Se138  1  0.24904912  0.91413061  0.55426224  1
  Se  Se139  1  0.58884478  0.25912303  0.06115547  1
  Se  Se140  1  0.59307665  0.25438600  0.56091566  1
  Se  Se141  1  0.59084405  0.59190573  0.06688225  1
  Se  Se142  1  0.58035917  0.58533932  0.54869883  1
  Se  Se143  1  0.58345094  0.91424967  0.05214935  1
  Se  Se144  1  0.58189880  0.91554610  0.55003549  1
  Se  Se145  1  0.91648436  0.25793234  0.05184487  1
  Se  Se146  1  0.91325849  0.23536361  0.54914114  1
  Se  Se147  1  0.91508594  0.58945597  0.05380150  1
  Se  Se148  1  0.92059925  0.59022986  0.56692808  1
  Se  Se149  1  0.92592971  0.92430937  0.05493874  1
  Se  Se150  1  0.91166354  0.90920216  0.55448540  1
  Se  Se151  1  0.07553353  0.25451822  0.43983065  1
  Se  Se152  1  0.07621774  0.26370906  0.93900949  1
  Se  Se153  1  0.08730308  0.58251470  0.45151716  1
  Se  Se154  1  0.08010251  0.59474915  0.93468382  1
  Se  Se155  1  0.08494395  0.91196590  0.45324693  1
  Se  Se156  1  0.07074033  0.92648887  0.94019770  1
  Se  Se157  1  0.40718332  0.26192315  0.44827288  1
  Se  Se158  1  0.41240533  0.25010902  0.93784776  1
  Se  Se159  1  0.41674523  0.59107097  0.44912054  1
  Se  Se160  1  0.41553055  0.58256922  0.94052141  1
  Se  Se161  1  0.41744783  0.91864865  0.44866447  1
  Se  Se162  1  0.41585192  0.90321721  0.94645748  1
  Se  Se163  1  0.75255036  0.24385524  0.44663261  1
  Se  Se164  1  0.75613286  0.24986637  0.95417172  1
  Se  Se165  1  0.74470418  0.58470466  0.43725940  1
  Se  Se166  1  0.75146641  0.59050793  0.94891561  1
  Se  Se167  1  0.75427120  0.90865368  0.44545696  1
  Se  Se168  1  0.74088609  0.92485751  0.93529970  1
  Se  Se169  1  0.25398773  0.08338362  0.44228320  1
  Se  Se170  1  0.25966302  0.06837976  0.94256529  1
  Se  Se171  1  0.25037378  0.41956990  0.46143977  1
  Se  Se172  1  0.25254465  0.41241448  0.93712504  1
  Se  Se173  1  0.24729991  0.75501411  0.44861983  1
  Se  Se174  1  0.26062668  0.73980911  0.94039874  1
  Se  Se175  1  0.59171178  0.07329023  0.43699123  1
  Se  Se176  1  0.58827550  0.07556324  0.93568979  1
  Se  Se177  1  0.58951434  0.41769233  0.44586117  1
  Se  Se178  1  0.59475732  0.41077550  0.94172373  1
  Se  Se179  1  0.57940075  0.75586226  0.44590995  1
  Se  Se180  1  0.57677988  0.74701891  0.94662771  1
  Se  Se181  1  0.91544300  0.07604684  0.44695263  1
  Se  Se182  1  0.91461136  0.09556483  0.94621258  1
  Se  Se183  1  0.92311023  0.40967599  0.44266231  1
  Se  Se184  1  0.90857781  0.44019402  0.94360802  1
  Se  Se185  1  0.91696436  0.74398811  0.44960827  1
  Se  Se186  1  0.92270809  0.75061991  0.93508382  1
  Se  Se187  1  0.24426380  0.24945580  0.31217263  1
  Se  Se188  1  0.25344425  0.25116702  0.79745391  1
  Se  Se189  1  0.25255213  0.58478434  0.31028845  1
  Se  Se190  1  0.25286967  0.58600041  0.79742608  1
  Se  Se191  1  0.25469897  0.91708827  0.30750207  1
  Se  Se192  1  0.24190347  0.91148591  0.80308626  1
  Se  Se193  1  0.58070488  0.25060663  0.30381368  1
  Se  Se194  1  0.57380285  0.24168785  0.80804770  1
  Se  Se195  1  0.59345642  0.60113134  0.30472713  1
  Se  Se196  1  0.58163480  0.57804860  0.80166508  1
  Se  Se197  1  0.58864636  0.91938255  0.30339413  1
  Se  Se198  1  0.57205045  0.90223449  0.80341875  1
  Se  Se199  1  0.91047288  0.24480521  0.31093941  1
  Se  Se200  1  0.91687581  0.25847734  0.80430550  1
  Se  Se201  1  0.92040222  0.58332468  0.30470686  1
  Se  Se202  1  0.91881068  0.58955465  0.79819072  1
  Se  Se203  1  0.91610055  0.90793122  0.31337399  1
  Se  Se204  1  0.91067468  0.92230942  0.79966127  1
  Se  Se205  1  0.08929451  0.08035806  0.30726700  1
  Se  Se206  1  0.08193864  0.08729673  0.80216688  1
  Se  Se207  1  0.08809761  0.42032324  0.30982620  1
  Se  Se208  1  0.08605108  0.42092311  0.79780270  1
  Se  Se209  1  0.08492649  0.74661473  0.30782818  1
  Se  Se210  1  0.07800875  0.74712922  0.79641013  1
  Se  Se211  1  0.41660885  0.08245755  0.30269447  1
  Se  Se212  1  0.41474472  0.07747204  0.80293510  1
  Se  Se213  1  0.41723494  0.42559203  0.32183901  1
  Se  Se214  1  0.41371222  0.41330286  0.79635282  1
  Se  Se215  1  0.41639647  0.75224823  0.30774552  1
  Se  Se216  1  0.39830980  0.72902429  0.80296550  1
  Se  Se217  1  0.74846799  0.08148602  0.30227933  1
  Se  Se218  1  0.75134103  0.09357479  0.80647631  1
  Se  Se219  1  0.74732450  0.41343646  0.30099404  1
  Se  Se220  1  0.76326346  0.42338820  0.81353431  1
  Se  Se221  1  0.74895072  0.74854251  0.30511484  1
  Se  Se222  1  0.74895904  0.75119003  0.80265397  1
  Se  Se223  1  0.25726524  0.07552350  0.20150937  1
  Se  Se224  1  0.25000995  0.07814915  0.69993739  1
  Se  Se225  1  0.24512475  0.42429443  0.19267775  1
  Se  Se226  1  0.25270158  0.41943491  0.68827718  1
  Se  Se227  1  0.25765723  0.74280266  0.20184001  1
  Se  Se228  1  0.25047021  0.74846172  0.69315223  1
  Se  Se229  1  0.58452949  0.07679905  0.19374337  1
  Se  Se230  1  0.57412029  0.08725572  0.68809030  1
  Se  Se231  1  0.56985331  0.42734267  0.20889778  1
  Se  Se232  1  0.58018219  0.42109761  0.68759446  1
  Se  Se233  1  0.58702975  0.75420787  0.20049026  1
  Se  Se234  1  0.58718711  0.74445712  0.69333215  1
  Se  Se235  1  0.91111057  0.09248348  0.19066187  1
  Se  Se236  1  0.91575692  0.08418426  0.69662778  1
  Se  Se237  1  0.90908353  0.42561483  0.18900903  1
  Se  Se238  1  0.91917460  0.41311080  0.69604885  1
  Se  Se239  1  0.91962525  0.74576988  0.20041603  1
  Se  Se240  1  0.91431924  0.75004321  0.69621390  1
  Se  Se241  1  0.09477660  0.23918839  0.19208481  1
  Se  Se242  1  0.08660524  0.25446645  0.69212380  1
  Se  Se243  1  0.08201119  0.58334491  0.19821529  1
  Se  Se244  1  0.08259459  0.58678321  0.69463554  1
  Se  Se245  1  0.09574977  0.89874578  0.19034411  1
  Se  Se246  1  0.07625156  0.91745041  0.69706769  1
  Se  Se247  1  0.42612554  0.24239441  0.18821771  1
  Se  Se248  1  0.41488076  0.25286888  0.69511900  1
  Se  Se249  1  0.42501774  0.57500569  0.20755498  1
  Se  Se250  1  0.41475737  0.58390581  0.68914785  1
  Se  Se251  1  0.41689070  0.91527180  0.19785639  1
  Se  Se252  1  0.40882351  0.91878936  0.69893193  1
  Se  Se253  1  0.74396986  0.25500553  0.19709410  1
  Se  Se254  1  0.75396980  0.24929274  0.69010730  1
  Se  Se255  1  0.74846842  0.58813090  0.20242214  1
  Se  Se256  1  0.74762049  0.58476056  0.70038714  1
  Se  Se257  1  0.75544561  0.91861537  0.19946849  1
  Se  Se258  1  0.75029211  0.91045545  0.68288076  1
