# generated using pymatgen
data_In86Cu29Se144
_symmetry_space_group_name_H-M   'P 1'
_cell_length_a   17.59370360
_cell_length_b   17.60808816
_cell_length_c   23.46928210
_cell_angle_alpha   90.02558583
_cell_angle_beta   89.99085133
_cell_angle_gamma   89.98977401
_symmetry_Int_Tables_number   1
_chemical_formula_structural   In86Cu29Se144
_chemical_formula_sum   'In86 Cu29 Se144'
_cell_volume   7270.58279523
_cell_formula_units_Z   1
loop_
 _symmetry_equiv_pos_site_id
 _symmetry_equiv_pos_as_xyz
  1  'x, y, z'
loop_
 _atom_site_type_symbol
 _atom_site_label
 _atom_site_symmetry_multiplicity
 _atom_site_fract_x
 _atom_site_fract_y
 _atom_site_fract_z
 _atom_site_occupancy
  In  In0  1  -0.02203576  0.16345036  0.11451955  1
  In  In1  1  0.00146077  0.16570656  0.62150049  1
  In  In2  1  -0.00393960  0.50257213  0.12659467  1
  In  In3  1  -0.00545645  0.49373559  0.62429597  1
  In  In4  1  0.00143650  0.82833668  0.13045219  1
  In  In5  1  -0.02891968  0.85439979  0.64941058  1
  In  In6  1  0.32722930  0.16994890  0.13282214  1
  In  In7  1  0.33468680  0.17852374  0.62476921  1
  In  In8  1  0.32314300  0.49163297  0.13046447  1
  In  In9  1  0.31800060  0.49763813  0.62000756  1
  In  In10  1  0.34203019  0.84399587  0.12088684  1
  In  In11  1  0.32834452  0.83875110  0.62906798  1
  In  In12  1  0.67726769  0.15593686  0.13271062  1
  In  In13  1  0.67351779  0.16358051  0.62419831  1
  In  In14  1  0.68680057  0.48973916  0.14391761  1
  In  In15  1  0.67502036  0.48362817  0.62491024  1
  In  In16  1  0.67136910  0.84344817  0.13414453  1
  In  In17  1  0.69544370  0.82622138  0.62977692  1
  In  In18  1  0.15995183  0.00396372  0.36913381  1
  In  In19  1  0.14872860  -0.00477383  0.87742438  1
  In  In20  1  0.17037214  0.32441454  0.38470345  1
  In  In21  1  0.16041905  0.32904804  0.86307116  1
  In  In22  1  0.14966050  0.66833530  0.37514783  1
  In  In23  1  0.15393971  0.67981431  0.88311766  1
  In  In24  1  0.50443190  0.00663274  0.36695486  1
  In  In25  1  0.50667238  -0.00919857  0.88439440  1
  In  In26  1  0.50200700  0.33642508  0.36881214  1
  In  In27  1  0.50084503  0.33162266  0.86843293  1
  In  In28  1  0.51810733  0.65880002  0.37729214  1
  In  In29  1  0.51209982  0.68029428  0.88167499  1
  In  In30  1  0.83844227  0.00635357  0.37251213  1
  In  In31  1  0.85536389  0.01737925  0.86167178  1
  In  In32  1  0.81661994  0.34171910  0.39433190  1
  In  In33  1  0.83668669  0.33554306  0.87380660  1
  In  In34  1  0.83822167  0.66222580  0.36853870  1
  In  In35  1  0.83388904  0.65730155  0.87157696  1
  In  In36  1  0.00117200  0.16502136  0.38146128  1
  In  In37  1  -0.00859299  0.16495613  0.87204056  1
  In  In38  1  -0.01166190  0.50839834  0.38257759  1
  In  In39  1  -0.03536409  0.48131238  0.84491936  1
  In  In40  1  -0.02411783  0.81817678  0.35047250  1
  In  In41  1  0.00050965  0.84196779  0.86542603  1
  In  In42  1  0.32482459  0.16153654  0.36927400  1
  In  In43  1  0.32487633  0.17480335  0.87374787  1
  In  In44  1  0.33755320  0.48698151  0.37783177  1
  In  In45  1  0.33438748  0.49292754  0.87090567  1
  In  In46  1  0.32172590  0.83749902  0.36817996  1
  In  In47  1  0.33324834  0.83322366  0.88629362  1
  In  In48  1  0.67564627  0.17697903  0.37405342  1
  In  In49  1  0.68636097  0.18447393  0.86807497  1
  In  In50  1  0.68475341  0.50166658  0.36330251  1
  In  In51  1  0.68361452  0.49761773  0.87530273  1
  In  In52  1  0.71147784  0.85434932  0.33884576  1
  In  In53  1  0.65881544  0.83541044  0.88304786  1
  In  In54  1  0.17372623  -0.00178326  0.12892218  1
  In  In55  1  0.14592567  -0.00908489  0.62181687  1
  In  In56  1  0.16568752  0.34287121  0.13113855  1
  In  In57  1  0.16460272  0.33290191  0.62366956  1
  In  In58  1  0.14716175  0.66955528  0.13120883  1
  In  In59  1  0.14837768  0.65062819  0.61204201  1
  In  In60  1  0.50867545  -0.01106138  0.13130651  1
  In  In61  1  0.51253338  0.01221976  0.62193406  1
  In  In62  1  0.50272510  0.33057563  0.12790479  1
  In  In63  1  0.50680849  0.32348745  0.63240135  1
  In  In64  1  0.50763121  0.67960419  0.12011865  1
  In  In65  1  0.50835937  0.66189245  0.62214877  1
  In  In66  1  0.82981794  0.00023145  0.13503412  1
  In  In67  1  0.83197894  0.00462998  0.62527692  1
  In  In68  1  0.83313398  0.32739506  0.12088041  1
  In  In69  1  0.83859907  0.33463403  0.62221637  1
  In  In70  1  0.84691555  0.66149871  0.14540985  1
  In  In71  1  0.84358157  0.66680477  0.62257172  1
  In  In72  1  0.66685514  0.66057210  0.75207249  1
  In  In73  1  0.50588068  0.16092974  0.00883639  1
  In  In74  1  0.33273203  0.00739989  0.75681654  1
  In  In75  1  0.33825758  0.66478570  0.24841103  1
  In  In76  1  0.15786490  0.50490831  0.00377451  1
  In  In77  1  0.50829418  0.49857180  0.49758149  1
  In  In78  1  0.50971220  0.83239043  0.48999959  1
  In  In79  1  0.50606091  0.16822935  0.50173462  1
  In  In80  1  0.32202350  0.66406808  0.75045594  1
  In  In81  1  0.14661153  0.83290457  0.49384230  1
  In  In82  1  0.50354963  0.50893563  -0.00570002  1
  In  In83  1  0.15870166  0.16367214  -0.00753562  1
  In  In84  1  0.83124338  0.83689404  0.00349087  1
  In  In85  1  -0.00303005  0.33183303  0.25187883  1
  Cu  Cu86  1  -0.00531231  0.66770666  0.49806532  1
  Cu  Cu87  1  -0.00707014  0.66739337  0.00481738  1
  Cu  Cu88  1  -0.00888184  -0.00133422  0.49887121  1
  Cu  Cu89  1  0.49792827  0.83675870  0.24951603  1
  Cu  Cu90  1  0.32956786  0.33387427  0.50077479  1
  Cu  Cu91  1  0.49435708  0.16752556  0.24823010  1
  Cu  Cu92  1  0.68177974  0.33785435  0.00156971  1
  Cu  Cu93  1  0.49498748  0.49377492  0.74966587  1
  Cu  Cu94  1  0.83575910  0.17110077  0.74476704  1
  Cu  Cu95  1  0.67324881  0.00139883  0.00459100  1
  Cu  Cu96  1  0.67227246  0.66772775  0.00587038  1
  Cu  Cu97  1  0.16238904  0.49645406  0.74221405  1
  Cu  Cu98  1  0.51002679  0.16511067  0.75026812  1
  Cu  Cu99  1  0.33166944  0.66966472  0.50621943  1
  Cu  Cu100  1  0.16115148  0.16928077  0.25377064  1
  Cu  Cu101  1  0.33318655  -0.00819011  0.00392244  1
  Cu  Cu102  1  0.67875348  -0.01183476  0.49794233  1
  Cu  Cu103  1  0.50002458  0.49217623  0.24928173  1
  Cu  Cu104  1  0.68710458  0.67027950  0.49301012  1
  Cu  Cu105  1  0.15873412  0.82913359  0.75144014  1
  Cu  Cu106  1  0.00291364  0.33241487  0.50453735  1
  Cu  Cu107  1  0.83198898  0.17034334  0.25237064  1
  Cu  Cu108  1  0.33057276  0.33520872  0.00048837  1
  Cu  Cu109  1  0.32853358  0.67283481  0.00348543  1
  Cu  Cu110  1  0.32275775  0.00363129  0.49117954  1
  Cu  Cu111  1  0.50323520  0.83897896  0.75527458  1
  Cu  Cu112  1  0.16761327  0.84036596  0.24840501  1
  Cu  Cu113  1  0.16797104  0.16851873  0.74661171  1
  Cu  Cu114  1  0.16741779  0.49389364  0.25519221  1
  Se  Se115  1  0.07910434  0.07625076  0.05924734  1
  Se  Se116  1  0.08057666  0.07873085  0.54942842  1
  Se  Se117  1  0.07172399  0.40597685  0.05805650  1
  Se  Se118  1  0.08663444  0.41925029  0.55449996  1
  Se  Se119  1  0.08027836  0.74997756  0.05447702  1
  Se  Se120  1  0.06155849  0.75454569  0.56375655  1
  Se  Se121  1  0.40739279  0.07588459  0.06402833  1
  Se  Se122  1  0.40692679  0.07501653  0.55507665  1
  Se  Se123  1  0.41337482  0.41630582  0.05590987  1
  Se  Se124  1  0.41625388  0.40986192  0.55979121  1
  Se  Se125  1  0.41735240  0.75272173  0.05343453  1
  Se  Se126  1  0.41407769  0.75094206  0.56009403  1
  Se  Se127  1  0.75741383  0.08244439  0.05810415  1
  Se  Se128  1  0.74987532  0.08126526  0.55130436  1
  Se  Se129  1  0.75418077  0.42552970  0.05830730  1
  Se  Se130  1  0.75706984  0.41711837  0.55126966  1
  Se  Se131  1  0.75109494  0.74496828  0.06835638  1
  Se  Se132  1  0.76560185  0.75272103  0.55090484  1
  Se  Se133  1  0.24851099  0.25484333  0.05719186  1
  Se  Se134  1  0.24832036  0.24820206  0.55326516  1
  Se  Se135  1  0.25372084  0.59279358  0.06459493  1
  Se  Se136  1  0.24525806  0.58077803  0.54770041  1
  Se  Se137  1  0.24460019  0.91274991  0.05466096  1
  Se  Se138  1  0.24927246  0.91839502  0.55292830  1
  Se  Se139  1  0.59916527  0.25709522  0.05949806  1
  Se  Se140  1  0.59604158  0.26254112  0.55492017  1
  Se  Se141  1  0.59490870  0.58112996  0.06372117  1
  Se  Se142  1  0.60255808  0.59290899  0.55294874  1
  Se  Se143  1  0.59083527  0.91683536  0.05711039  1
  Se  Se144  1  0.59382920  0.91468600  0.56016053  1
  Se  Se145  1  0.91543723  0.25653088  0.04581392  1
  Se  Se146  1  0.91724340  0.24625673  0.55243719  1
  Se  Se147  1  0.91127686  0.58813345  0.06182932  1
  Se  Se148  1  0.91705965  0.57922130  0.55194223  1
  Se  Se149  1  0.92205123  0.92295400  0.06389049  1
  Se  Se150  1  0.91489392  0.91507668  0.55818552  1
  Se  Se151  1  0.08396718  0.24579644  0.45175603  1
  Se  Se152  1  0.07424340  0.26295197  0.93924780  1
  Se  Se153  1  0.08278594  0.58405746  0.44971135  1
  Se  Se154  1  0.06693437  0.58532957  0.94087649  1
  Se  Se155  1  0.06185378  0.91892825  0.42987325  1
  Se  Se156  1  0.08305010  0.90258133  0.94466720  1
  Se  Se157  1  0.41129722  0.25443776  0.44047394  1
  Se  Se158  1  0.41487443  0.25338547  0.94649275  1
  Se  Se159  1  0.41164156  0.59310499  0.44286324  1
  Se  Se160  1  0.40431016  0.59702546  0.93784328  1
  Se  Se161  1  0.40832489  0.92296334  0.43799743  1
  Se  Se162  1  0.42238245  0.91221426  0.95258219  1
  Se  Se163  1  0.75296026  0.23680589  0.45506854  1
  Se  Se164  1  0.76026749  0.25076405  0.94850121  1
  Se  Se165  1  0.75937827  0.57750671  0.44039821  1
  Se  Se166  1  0.75025162  0.58705711  0.94694375  1
  Se  Se167  1  0.75669481  0.91082894  0.43564745  1
  Se  Se168  1  0.75162551  0.92906447  0.93805663  1
  Se  Se169  1  0.23966412  0.08657661  0.44089329  1
  Se  Se170  1  0.25964294  0.07206950  0.93986492  1
  Se  Se171  1  0.24816758  0.42014659  0.44914159  1
  Se  Se172  1  0.24819729  0.41222404  0.94146337  1
  Se  Se173  1  0.25271080  0.74586524  0.44210793  1
  Se  Se174  1  0.24374849  0.75364687  0.95068612  1
  Se  Se175  1  0.59232669  0.07135786  0.44413553  1
  Se  Se176  1  0.59836539  0.08504227  0.94179929  1
  Se  Se177  1  0.59502204  0.41246705  0.43590334  1
  Se  Se178  1  0.58974327  0.40646395  0.94321698  1
  Se  Se179  1  0.60756477  0.75033032  0.43375758  1
  Se  Se180  1  0.58535114  0.75399426  0.95917776  1
  Se  Se181  1  0.91108279  0.08716232  0.44859093  1
  Se  Se182  1  0.92932411  0.07462253  0.94537249  1
  Se  Se183  1  0.91969360  0.41511371  0.45104442  1
  Se  Se184  1  0.91096796  0.43176172  0.93860460  1
  Se  Se185  1  0.91762437  0.74975385  0.43820484  1
  Se  Se186  1  0.91674785  0.74679290  0.94034224  1
  Se  Se187  1  0.24599697  0.25342829  0.30477309  1
  Se  Se188  1  0.25360195  0.25245429  0.79775397  1
  Se  Se189  1  0.24688761  0.58018601  0.31209272  1
  Se  Se190  1  0.23376147  0.57483716  0.81199325  1
  Se  Se191  1  0.24932746  0.92519491  0.30029985  1
  Se  Se192  1  0.24674867  0.90557896  0.80907441  1
  Se  Se193  1  0.57976988  0.24452014  0.30530464  1
  Se  Se194  1  0.58885716  0.25389611  0.80263131  1
  Se  Se195  1  0.58300190  0.57494561  0.30233550  1
  Se  Se196  1  0.56987547  0.57496952  0.81308604  1
  Se  Se197  1  0.58366952  0.91448047  0.30425803  1
  Se  Se198  1  0.58650114  0.92006379  0.80824462  1
  Se  Se199  1  0.90812537  0.24830469  0.31588626  1
  Se  Se200  1  0.91766831  0.25196821  0.80195460  1
  Se  Se201  1  0.92659860  0.58294198  0.30149462  1
  Se  Se202  1  0.91630603  0.59909516  0.79148600  1
  Se  Se203  1  0.91293031  0.92689874  0.29620325  1
  Se  Se204  1  0.90823997  0.91062899  0.79773020  1
  Se  Se205  1  0.07383414  0.08715629  0.30334876  1
  Se  Se206  1  0.08856417  0.08926609  0.80662857  1
  Se  Se207  1  0.08653168  0.41717323  0.31665609  1
  Se  Se208  1  0.07905665  0.41350527  0.79575150  1
  Se  Se209  1  0.08739271  0.74959669  0.29727893  1
  Se  Se210  1  0.07746059  0.74435022  0.80274122  1
  Se  Se211  1  0.41290017  0.08306273  0.30218920  1
  Se  Se212  1  0.43019971  0.09266321  0.81649656  1
  Se  Se213  1  0.41207887  0.41313261  0.30134807  1
  Se  Se214  1  0.41142447  0.41001029  0.80164394  1
  Se  Se215  1  0.42612320  0.75217038  0.31338416  1
  Se  Se216  1  0.41930246  0.75473951  0.80778023  1
  Se  Se217  1  0.74709757  0.08631502  0.30488263  1
  Se  Se218  1  0.75291104  0.08778060  0.80111683  1
  Se  Se219  1  0.75315164  0.39759090  0.30478848  1
  Se  Se220  1  0.74587325  0.40940029  0.80431232  1
  Se  Se221  1  0.73624961  0.72071011  0.29733258  1
  Se  Se222  1  0.74722661  0.75623468  0.81292708  1
  Se  Se223  1  0.24717198  0.08610907  0.20032492  1
  Se  Se224  1  0.24446876  0.08344696  0.68629298  1
  Se  Se225  1  0.25265543  0.41022368  0.20507607  1
  Se  Se226  1  0.25171935  0.41415215  0.69463397  1
  Se  Se227  1  0.24807836  0.75493734  0.18974513  1
  Se  Se228  1  0.23290424  0.75109450  0.68524723  1
  Se  Se229  1  0.57985287  0.08441350  0.19639120  1
  Se  Se230  1  0.59201453  0.08202398  0.69691753  1
  Se  Se231  1  0.58522734  0.40971293  0.19764830  1
  Se  Se232  1  0.58327201  0.41722543  0.69617821  1
  Se  Se233  1  0.58131342  0.75539062  0.19570025  1
  Se  Se234  1  0.57722396  0.75723710  0.69155095  1
  Se  Se235  1  0.91668327  0.08965014  0.19777901  1
  Se  Se236  1  0.91946901  0.08578662  0.69319265  1
  Se  Se237  1  0.90660857  0.42192306  0.19437780  1
  Se  Se238  1  0.92598343  0.40466212  0.69572174  1
  Se  Se239  1  0.92216207  0.75656501  0.20621302  1
  Se  Se240  1  0.91180541  0.74198397  0.70306762  1
  Se  Se241  1  0.08287051  0.24219039  0.18666888  1
  Se  Se242  1  0.08385531  0.24826710  0.69209183  1
  Se  Se243  1  0.08373382  0.57366046  0.19953942  1
  Se  Se244  1  0.07856613  0.58166736  0.69262660  1
  Se  Se245  1  0.08317456  0.92033588  0.19455839  1
  Se  Se246  1  0.08006685  0.92328678  0.70520132  1
  Se  Se247  1  0.41427541  0.25430078  0.19538558  1
  Se  Se248  1  0.41964068  0.24454591  0.69989988  1
  Se  Se249  1  0.42720788  0.57521992  0.18545566  1
  Se  Se250  1  0.41893466  0.57823663  0.68934753  1
  Se  Se251  1  0.41251001  0.92054676  0.19960404  1
  Se  Se252  1  0.42556097  0.91892968  0.69235001  1
  Se  Se253  1  0.75131073  0.25315863  0.19538516  1
  Se  Se254  1  0.75107503  0.25223681  0.69102988  1
  Se  Se255  1  0.73603896  0.60284340  0.20471681  1
  Se  Se256  1  0.75581616  0.57596399  0.69021776  1
  Se  Se257  1  0.75753928  0.91315123  0.20682839  1
  Se  Se258  1  0.74893273  0.92524119  0.69685210  1
