# generated using pymatgen
data_In86Cu29Se144
_symmetry_space_group_name_H-M   'P 1'
_cell_length_a   17.58437052
_cell_length_b   17.58352183
_cell_length_c   23.44515491
_cell_angle_alpha   90.00405041
_cell_angle_beta   89.99634359
_cell_angle_gamma   90.02924741
_symmetry_Int_Tables_number   1
_chemical_formula_structural   In86Cu29Se144
_chemical_formula_sum   'In86 Cu29 Se144'
_cell_volume   7249.12751338
_cell_formula_units_Z   1
loop_
 _symmetry_equiv_pos_site_id
 _symmetry_equiv_pos_as_xyz
  1  'x, y, z'
loop_
 _atom_site_type_symbol
 _atom_site_label
 _atom_site_symmetry_multiplicity
 _atom_site_fract_x
 _atom_site_fract_y
 _atom_site_fract_z
 _atom_site_occupancy
  In  In0  1  -0.01117788  0.18328345  0.12554061  1
  In  In1  1  0.01743729  0.16739812  0.62516572  1
  In  In2  1  -0.00295320  0.47503803  0.12189579  1
  In  In3  1  0.00160188  0.49950229  0.62652401  1
  In  In4  1  -0.00132895  0.84160427  0.12292152  1
  In  In5  1  -0.00996600  0.82292973  0.61722124  1
  In  In6  1  0.33532515  0.15007319  0.12397281  1
  In  In7  1  0.33787688  0.16953946  0.62523024  1
  In  In8  1  0.33060250  0.51146255  0.12504728  1
  In  In9  1  0.32237856  0.48922661  0.61491190  1
  In  In10  1  0.33480543  0.83147301  0.13310640  1
  In  In11  1  0.33334275  0.85068977  0.63156599  1
  In  In12  1  0.67713180  0.17626909  0.10818723  1
  In  In13  1  0.66672017  0.18283834  0.62463981  1
  In  In14  1  0.66731209  0.49758679  0.13698791  1
  In  In15  1  0.66900538  0.50370494  0.61491734  1
  In  In16  1  0.66453183  0.82045476  0.12579305  1
  In  In17  1  0.66738748  0.80116549  0.62653276  1
  In  In18  1  0.17582897  -0.00977953  0.38198235  1
  In  In19  1  0.17887179  -0.00213071  0.86876067  1
  In  In20  1  0.15602479  0.34309073  0.38252367  1
  In  In21  1  0.16954040  0.33592157  0.87078171  1
  In  In22  1  0.17490587  0.66013297  0.38538687  1
  In  In23  1  0.14950098  0.67449355  0.86552871  1
  In  In24  1  0.50008089  0.01551730  0.37686357  1
  In  In25  1  0.49964270  0.01163448  0.87708300  1
  In  In26  1  0.50727737  0.32478439  0.38244179  1
  In  In27  1  0.48956527  0.32635566  0.86591076  1
  In  In28  1  0.49721786  0.66200005  0.37754792  1
  In  In29  1  0.50108523  0.65025442  0.86747647  1
  In  In30  1  0.82289633  -0.00116926  0.37657653  1
  In  In31  1  0.81547751  0.00602242  0.89373479  1
  In  In32  1  0.84490985  0.33985277  0.36671539  1
  In  In33  1  0.82955701  0.33472034  0.86762373  1
  In  In34  1  0.81763930  0.66971084  0.38703981  1
  In  In35  1  0.83511264  0.67013941  0.86679210  1
  In  In36  1  -0.00064978  0.18610002  0.37243855  1
  In  In37  1  -0.01266411  0.16900534  0.87588167  1
  In  In38  1  0.00329511  0.49176291  0.38162264  1
  In  In39  1  0.00355307  0.50477193  0.86618642  1
  In  In40  1  -0.00085113  0.83442671  0.38289758  1
  In  In41  1  -0.00902297  0.82235997  0.86859026  1
  In  In42  1  0.34007210  0.15842206  0.37782602  1
  In  In43  1  0.33517192  0.16952243  0.87276856  1
  In  In44  1  0.32355484  0.50835888  0.38538710  1
  In  In45  1  0.33357278  0.48657213  0.87197927  1
  In  In46  1  0.33168350  0.82422980  0.37334939  1
  In  In47  1  0.32669824  0.84582559  0.86152852  1
  In  In48  1  0.65769427  0.16213496  0.37484689  1
  In  In49  1  0.65704380  0.17383206  0.87996178  1
  In  In50  1  0.66765706  0.49965762  0.38103687  1
  In  In51  1  0.66776836  0.50151134  0.86117156  1
  In  In52  1  0.67860560  0.83083933  0.38088562  1
  In  In53  1  0.67808348  0.83796398  0.87283331  1
  In  In54  1  0.17742460  0.00493403  0.12480211  1
  In  In55  1  0.17489094  0.01198536  0.61997740  1
  In  In56  1  0.15041364  0.33367191  0.12385621  1
  In  In57  1  0.17046740  0.33386332  0.62635255  1
  In  In58  1  0.17608205  0.66871003  0.12793153  1
  In  In59  1  0.15674609  0.65816972  0.61869337  1
  In  In60  1  0.48837743  0.00113830  0.12159714  1
  In  In61  1  0.48328124  -0.00561196  0.62919128  1
  In  In62  1  0.51593683  0.33179467  0.12548494  1
  In  In63  1  0.50012035  0.33440262  0.61971809  1
  In  In64  1  0.50024100  0.66752072  0.13719228  1
  In  In65  1  0.52361167  0.66461718  0.62501112  1
  In  In66  1  0.83046993  0.00023698  0.11139248  1
  In  In67  1  0.84563418  -0.00665563  0.62414083  1
  In  In68  1  0.83654336  0.31913762  0.14252136  1
  In  In69  1  0.82304765  0.34761112  0.63276589  1
  In  In70  1  0.82164776  0.65954690  0.12778582  1
  In  In71  1  0.83526028  0.66694032  0.62156050  1
  In  In72  1  0.00387230  -0.00340032  0.75395980  1
  In  In73  1  0.66488688  0.00332191  0.24897446  1
  In  In74  1  0.33171262  0.33447818  0.25744825  1
  In  In75  1  0.00314616  0.66137797  0.25736232  1
  In  In76  1  0.50146858  0.83344504  0.50775151  1
  In  In77  1  0.50479412  0.83681880  -0.00415660  1
  In  In78  1  0.33390835  0.66566307  0.73789153  1
  In  In79  1  0.66186365  -0.00215805  0.75622994  1
  In  In80  1  0.16425875  0.83437486  -0.00454677  1
  In  In81  1  0.50080553  0.49311023  0.00273308  1
  In  In82  1  0.00380516  0.00727888  0.24059025  1
  In  In83  1  0.83504040  0.49628010  0.00136986  1
  In  In84  1  0.83635631  0.16777921  0.49837255  1
  In  In85  1  0.16356628  0.16758553  -0.00253689  1
  Cu  Cu86  1  0.50016790  0.50351425  0.25671217  1
  Cu  Cu87  1  0.83633164  0.50438106  0.74400708  1
  Cu  Cu88  1  0.00657646  -0.00118579  0.50163790  1
  Cu  Cu89  1  0.49848005  0.17046742  0.75027248  1
  Cu  Cu90  1  0.18275090  0.83128808  0.25636617  1
  Cu  Cu91  1  0.66639709  0.33666627  0.50097375  1
  Cu  Cu92  1  0.16446917  0.50084502  0.25806158  1
  Cu  Cu93  1  0.83331988  0.83021038  0.25477752  1
  Cu  Cu94  1  0.00165254  0.33421292  0.50503341  1
  Cu  Cu95  1  0.33250340  0.32850609  0.50000717  1
  Cu  Cu96  1  0.50075159  0.83161285  0.25293714  1
  Cu  Cu97  1  0.16850788  0.49912495  0.74454671  1
  Cu  Cu98  1  0.33252228  0.32776789  -0.00585011  1
  Cu  Cu99  1  0.32669270  0.66905113  0.00204121  1
  Cu  Cu100  1  0.82580728  0.50030195  0.25464438  1
  Cu  Cu101  1  0.67034269  0.66759548  0.00196801  1
  Cu  Cu102  1  -0.00199293  0.66224361  -0.00933395  1
  Cu  Cu103  1  -0.00335269  0.00064832  -0.00121171  1
  Cu  Cu104  1  0.33328865  0.67135105  0.50324632  1
  Cu  Cu105  1  0.49892378  0.16707758  0.25135445  1
  Cu  Cu106  1  0.17606843  0.17332357  0.74603782  1
  Cu  Cu107  1  0.33402435  0.00534178  0.50270684  1
  Cu  Cu108  1  -0.00196764  0.66192932  0.49966707  1
  Cu  Cu109  1  0.16689404  0.16499649  0.24772661  1
  Cu  Cu110  1  0.50807943  0.49458792  0.74113006  1
  Cu  Cu111  1  0.66410771  -0.00244822  0.50085875  1
  Cu  Cu112  1  0.83204021  0.83075306  0.74896170  1
  Cu  Cu113  1  0.83468176  0.17549163  0.75058747  1
  Cu  Cu114  1  0.66824393  0.33164265  -0.00357614  1
  Se  Se115  1  0.07395846  0.07782927  0.06249138  1
  Se  Se116  1  0.08802466  0.08823458  0.54907640  1
  Se  Se117  1  0.09040091  0.42108380  0.04886425  1
  Se  Se118  1  0.08656237  0.41709431  0.55769723  1
  Se  Se119  1  0.07561157  0.74147827  0.05685329  1
  Se  Se120  1  0.08198746  0.74851593  0.54961820  1
  Se  Se121  1  0.41779846  0.08536996  0.04850819  1
  Se  Se122  1  0.42108910  0.08457121  0.55545806  1
  Se  Se123  1  0.40688732  0.40576352  0.06266938  1
  Se  Se124  1  0.41670037  0.41555952  0.54932831  1
  Se  Se125  1  0.41474496  0.74356999  0.05891981  1
  Se  Se126  1  0.41066701  0.74540553  0.56847044  1
  Se  Se127  1  0.74990449  0.08252281  0.04469165  1
  Se  Se128  1  0.74683615  0.07843526  0.56204285  1
  Se  Se129  1  0.74023382  0.41267781  0.06119883  1
  Se  Se130  1  0.75617787  0.41688012  0.54974748  1
  Se  Se131  1  0.75438621  0.74863658  0.05510952  1
  Se  Se132  1  0.76271591  0.75907722  0.55215371  1
  Se  Se133  1  0.25466799  0.25380702  0.06217992  1
  Se  Se134  1  0.24978550  0.24770132  0.55664924  1
  Se  Se135  1  0.24424907  0.58333014  0.05257002  1
  Se  Se136  1  0.24705829  0.58324067  0.55042081  1
  Se  Se137  1  0.25993348  0.91805076  0.05624102  1
  Se  Se138  1  0.25245162  0.91858990  0.55394433  1
  Se  Se139  1  0.57776691  0.25085979  0.04605566  1
  Se  Se140  1  0.58260906  0.24919519  0.54941228  1
  Se  Se141  1  0.58820427  0.58891007  0.06173273  1
  Se  Se142  1  0.58424130  0.58487872  0.54659296  1
  Se  Se143  1  0.59146659  0.92089276  0.06176140  1
  Se  Se144  1  0.59270619  0.92088634  0.56938887  1
  Se  Se145  1  0.91154965  0.26548803  0.05697647  1
  Se  Se146  1  0.91974219  0.25454172  0.56530794  1
  Se  Se147  1  0.92552874  0.58864472  0.06201778  1
  Se  Se148  1  0.91798065  0.57880929  0.55577293  1
  Se  Se149  1  0.91632865  0.91113942  0.04925374  1
  Se  Se150  1  0.91682533  0.91596976  0.54793431  1
  Se  Se151  1  0.08240285  0.24978235  0.45024136  1
  Se  Se152  1  0.07447261  0.25867754  0.94112172  1
  Se  Se153  1  0.08413433  0.57877460  0.44796538  1
  Se  Se154  1  0.08541586  0.58483806  0.93904711  1
  Se  Se155  1  0.08799944  0.91203903  0.44936408  1
  Se  Se156  1  0.07453268  0.92524090  0.93476727  1
  Se  Se157  1  0.41698145  0.24483728  0.44697622  1
  Se  Se158  1  0.41995737  0.24759837  0.94410007  1
  Se  Se159  1  0.41542719  0.58604850  0.45078944  1
  Se  Se160  1  0.40841893  0.58577352  0.94448118  1
  Se  Se161  1  0.41526429  0.92221914  0.44261450  1
  Se  Se162  1  0.40645215  0.92035061  0.93968949  1
  Se  Se163  1  0.74560941  0.25528245  0.43832335  1
  Se  Se164  1  0.75335466  0.25317171  0.94096248  1
  Se  Se165  1  0.75657453  0.57038188  0.45252710  1
  Se  Se166  1  0.74398752  0.58417681  0.93974685  1
  Se  Se167  1  0.75305126  0.91721990  0.45183163  1
  Se  Se168  1  0.75033505  0.90226982  0.95365994  1
  Se  Se169  1  0.24947658  0.08542693  0.44713494  1
  Se  Se170  1  0.25733885  0.07550513  0.94463017  1
  Se  Se171  1  0.24760396  0.41547180  0.45023358  1
  Se  Se172  1  0.25011409  0.41472209  0.94531172  1
  Se  Se173  1  0.25024765  0.75539753  0.45014365  1
  Se  Se174  1  0.25575177  0.74613149  0.93441505  1
  Se  Se175  1  0.58306807  0.08558422  0.45193197  1
  Se  Se176  1  0.60115142  0.06746978  0.94309929  1
  Se  Se177  1  0.57939532  0.41814872  0.44883602  1
  Se  Se178  1  0.58918975  0.41272814  0.93534679  1
  Se  Se179  1  0.58909314  0.74551898  0.44569756  1
  Se  Se180  1  0.58683083  0.73672359  0.93767992  1
  Se  Se181  1  0.92710135  0.07693802  0.43715677  1
  Se  Se182  1  0.91361455  0.08826726  0.94981548  1
  Se  Se183  1  0.91542616  0.41075925  0.44834466  1
  Se  Se184  1  0.92278142  0.41434059  0.93652349  1
  Se  Se185  1  0.91606115  0.74793009  0.44649593  1
  Se  Se186  1  0.91184763  0.74728293  0.94343360  1
  Se  Se187  1  0.24009160  0.24396242  0.31469835  1
  Se  Se188  1  0.25678879  0.25526734  0.80398578  1
  Se  Se189  1  0.24968405  0.58489894  0.30731025  1
  Se  Se190  1  0.24737340  0.58043146  0.80725078  1
  Se  Se191  1  0.26058358  0.92150013  0.30677574  1
  Se  Se192  1  0.23236627  0.90844589  0.79295423  1
  Se  Se193  1  0.58196696  0.24887359  0.30472462  1
  Se  Se194  1  0.58599171  0.25202280  0.80213178  1
  Se  Se195  1  0.58593514  0.58380078  0.31019383  1
  Se  Se196  1  0.58644915  0.58475456  0.79239961  1
  Se  Se197  1  0.57988806  0.91221755  0.31457254  1
  Se  Se198  1  0.57055003  0.90630801  0.81225666  1
  Se  Se199  1  0.91173856  0.24533494  0.29812369  1
  Se  Se200  1  0.92213921  0.25603187  0.80146048  1
  Se  Se201  1  0.90805503  0.57815600  0.31638024  1
  Se  Se202  1  0.91835252  0.58753534  0.79971828  1
  Se  Se203  1  0.91561911  0.91613237  0.30664742  1
  Se  Se204  1  0.89881217  0.92047412  0.81231256  1
  Se  Se205  1  0.08854848  0.08555747  0.31202558  1
  Se  Se206  1  0.09301458  0.09676563  0.80945295  1
  Se  Se207  1  0.07856770  0.41439876  0.30427152  1
  Se  Se208  1  0.08635909  0.41695151  0.80114791  1
  Se  Se209  1  0.09344778  0.75693452  0.31258489  1
  Se  Se210  1  0.08384754  0.76563762  0.79627596  1
  Se  Se211  1  0.41541500  0.08117783  0.30067350  1
  Se  Se212  1  0.41679912  0.08517346  0.80352284  1
  Se  Se213  1  0.42017333  0.42384945  0.31805225  1
  Se  Se214  1  0.41963260  0.41996867  0.79775683  1
  Se  Se215  1  0.41881508  0.74606073  0.30611128  1
  Se  Se216  1  0.41835411  0.74819423  0.80861546  1
  Se  Se217  1  0.75899827  0.09421227  0.30520932  1
  Se  Se218  1  0.75689513  0.09081458  0.80949572  1
  Se  Se219  1  0.74423984  0.41486252  0.30773071  1
  Se  Se220  1  0.75232803  0.41855420  0.79627924  1
  Se  Se221  1  0.74929694  0.74766999  0.30627077  1
  Se  Se222  1  0.74463451  0.74804773  0.80008189  1
  Se  Se223  1  0.25333981  0.08028850  0.20055891  1
  Se  Se224  1  0.25556720  0.08462152  0.69542946  1
  Se  Se225  1  0.24318397  0.42157075  0.19335552  1
  Se  Se226  1  0.25554812  0.41521866  0.69658507  1
  Se  Se227  1  0.25791433  0.74260894  0.20112710  1
  Se  Se228  1  0.23862608  0.75445275  0.68481570  1
  Se  Se229  1  0.57770121  0.09051527  0.18662198  1
  Se  Se230  1  0.57988398  0.09026782  0.69017387  1
  Se  Se231  1  0.57875143  0.41698572  0.20225203  1
  Se  Se232  1  0.59101268  0.41509453  0.68512331  1
  Se  Se233  1  0.58768979  0.74848952  0.20314063  1
  Se  Se234  1  0.56617126  0.76399799  0.69947837  1
  Se  Se235  1  0.90162552  0.08879418  0.18804058  1
  Se  Se236  1  0.91390371  0.09212252  0.69317935  1
  Se  Se237  1  0.91245904  0.41954357  0.20177595  1
  Se  Se238  1  0.92165634  0.41552413  0.69769916  1
  Se  Se239  1  0.91601500  0.75304970  0.19332003  1
  Se  Se240  1  0.91631252  0.74887000  0.69550014  1
  Se  Se241  1  0.08134317  0.24813932  0.19789535  1
  Se  Se242  1  0.08567051  0.25372645  0.69810931  1
  Se  Se243  1  0.08608033  0.57465900  0.18987827  1
  Se  Se244  1  0.08225370  0.58467429  0.69719198  1
  Se  Se245  1  0.09991098  0.90547226  0.19312701  1
  Se  Se246  1  0.07982886  0.91907052  0.67886051  1
  Se  Se247  1  0.41814263  0.24796314  0.19085797  1
  Se  Se248  1  0.41939455  0.25500466  0.69353737  1
  Se  Se249  1  0.41476861  0.58020634  0.19966242  1
  Se  Se250  1  0.42318361  0.57186305  0.68125646  1
  Se  Se251  1  0.42134828  0.91577828  0.19718148  1
  Se  Se252  1  0.41475992  0.91922208  0.70688913  1
  Se  Se253  1  0.72533977  0.25463262  0.19360266  1
  Se  Se254  1  0.74689753  0.25494133  0.69918025  1
  Se  Se255  1  0.74455182  0.58768237  0.20409920  1
  Se  Se256  1  0.75002052  0.58361967  0.68901991  1
  Se  Se257  1  0.75781955  0.91094165  0.19085999  1
  Se  Se258  1  0.75222861  0.91304827  0.68977350  1
