# generated using pymatgen
data_SrTaNO2
_symmetry_space_group_name_H-M   'P 1'
_cell_length_a   17.08233000
_cell_length_b   17.08233000
_cell_length_c   16.13160000
_cell_angle_alpha   90.00000000
_cell_angle_beta   90.00000000
_cell_angle_gamma   90.00000000
_symmetry_Int_Tables_number   1
_chemical_formula_structural   SrTaNO2
_chemical_formula_sum   'Sr72 Ta72 N72 O144.0'
_cell_volume   4707.29764103
_cell_formula_units_Z   72
loop_
 _symmetry_equiv_pos_site_id
 _symmetry_equiv_pos_as_xyz
  1  'x, y, z'
loop_
 _atom_site_type_symbol
 _atom_site_label
 _atom_site_symmetry_multiplicity
 _atom_site_fract_x
 _atom_site_fract_y
 _atom_site_fract_z
 _atom_site_occupancy
  Sr  Sr1  1  0.00000000  0.16666667  0.12500000  1.0
  Sr  Sr1  1  0.00000000  0.16666667  0.62500000  1.0
  Sr  Sr1  1  0.00000000  0.50000000  0.12500000  1.0
  Sr  Sr1  1  0.00000000  0.50000000  0.62500000  1.0
  Sr  Sr1  1  0.00000000  0.83333333  0.12500000  1.0
  Sr  Sr1  1  0.00000000  0.83333333  0.62500000  1.0
  Sr  Sr1  1  0.33333333  0.16666667  0.12500000  1.0
  Sr  Sr1  1  0.33333333  0.16666667  0.62500000  1.0
  Sr  Sr1  1  0.33333333  0.50000000  0.12500000  1.0
  Sr  Sr1  1  0.33333333  0.50000000  0.62500000  1.0
  Sr  Sr1  1  0.33333333  0.83333333  0.12500000  1.0
  Sr  Sr1  1  0.33333333  0.83333333  0.62500000  1.0
  Sr  Sr1  1  0.66666667  0.16666667  0.12500000  1.0
  Sr  Sr1  1  0.66666667  0.16666667  0.62500000  1.0
  Sr  Sr1  1  0.66666667  0.50000000  0.12500000  1.0
  Sr  Sr1  1  0.66666667  0.50000000  0.62500000  1.0
  Sr  Sr1  1  0.66666667  0.83333333  0.12500000  1.0
  Sr  Sr1  1  0.66666667  0.83333333  0.62500000  1.0
  Sr  Sr1  1  0.16666667  0.00000000  0.12500000  1.0
  Sr  Sr1  1  0.16666667  0.00000000  0.62500000  1.0
  Sr  Sr1  1  0.16666667  0.33333333  0.12500000  1.0
  Sr  Sr1  1  0.16666667  0.33333333  0.62500000  1.0
  Sr  Sr1  1  0.16666667  0.66666667  0.12500000  1.0
  Sr  Sr1  1  0.16666667  0.66666667  0.62500000  1.0
  Sr  Sr1  1  0.50000000  0.00000000  0.12500000  1.0
  Sr  Sr1  1  0.50000000  0.00000000  0.62500000  1.0
  Sr  Sr1  1  0.50000000  0.33333333  0.12500000  1.0
  Sr  Sr1  1  0.50000000  0.33333333  0.62500000  1.0
  Sr  Sr1  1  0.50000000  0.66666667  0.12500000  1.0
  Sr  Sr1  1  0.50000000  0.66666667  0.62500000  1.0
  Sr  Sr1  1  0.83333333  0.00000000  0.12500000  1.0
  Sr  Sr1  1  0.83333333  0.00000000  0.62500000  1.0
  Sr  Sr1  1  0.83333333  0.33333333  0.12500000  1.0
  Sr  Sr1  1  0.83333333  0.33333333  0.62500000  1.0
  Sr  Sr1  1  0.83333333  0.66666667  0.12500000  1.0
  Sr  Sr1  1  0.83333333  0.66666667  0.62500000  1.0
  Sr  Sr1  1  0.00000000  0.16666667  0.37500000  1.0
  Sr  Sr1  1  0.00000000  0.16666667  0.87500000  1.0
  Sr  Sr1  1  0.00000000  0.50000000  0.37500000  1.0
  Sr  Sr1  1  0.00000000  0.50000000  0.87500000  1.0
  Sr  Sr1  1  0.00000000  0.83333333  0.37500000  1.0
  Sr  Sr1  1  0.00000000  0.83333333  0.87500000  1.0
  Sr  Sr1  1  0.33333333  0.16666667  0.37500000  1.0
  Sr  Sr1  1  0.33333333  0.16666667  0.87500000  1.0
  Sr  Sr1  1  0.33333333  0.50000000  0.37500000  1.0
  Sr  Sr1  1  0.33333333  0.50000000  0.87500000  1.0
  Sr  Sr1  1  0.33333333  0.83333333  0.37500000  1.0
  Sr  Sr1  1  0.33333333  0.83333333  0.87500000  1.0
  Sr  Sr1  1  0.66666667  0.16666667  0.37500000  1.0
  Sr  Sr1  1  0.66666667  0.16666667  0.87500000  1.0
  Sr  Sr1  1  0.66666667  0.50000000  0.37500000  1.0
  Sr  Sr1  1  0.66666667  0.50000000  0.87500000  1.0
  Sr  Sr1  1  0.66666667  0.83333333  0.37500000  1.0
  Sr  Sr1  1  0.66666667  0.83333333  0.87500000  1.0
  Sr  Sr1  1  0.16666667  0.00000000  0.37500000  1.0
  Sr  Sr1  1  0.16666667  0.00000000  0.87500000  1.0
  Sr  Sr1  1  0.16666667  0.33333333  0.37500000  1.0
  Sr  Sr1  1  0.16666667  0.33333333  0.87500000  1.0
  Sr  Sr1  1  0.16666667  0.66666667  0.37500000  1.0
  Sr  Sr1  1  0.16666667  0.66666667  0.87500000  1.0
  Sr  Sr1  1  0.50000000  0.00000000  0.37500000  1.0
  Sr  Sr1  1  0.50000000  0.00000000  0.87500000  1.0
  Sr  Sr1  1  0.50000000  0.33333333  0.37500000  1.0
  Sr  Sr1  1  0.50000000  0.33333333  0.87500000  1.0
  Sr  Sr1  1  0.50000000  0.66666667  0.37500000  1.0
  Sr  Sr1  1  0.50000000  0.66666667  0.87500000  1.0
  Sr  Sr1  1  0.83333333  0.00000000  0.37500000  1.0
  Sr  Sr1  1  0.83333333  0.00000000  0.87500000  1.0
  Sr  Sr1  1  0.83333333  0.33333333  0.37500000  1.0
  Sr  Sr1  1  0.83333333  0.33333333  0.87500000  1.0
  Sr  Sr1  1  0.83333333  0.66666667  0.37500000  1.0
  Sr  Sr1  1  0.83333333  0.66666667  0.87500000  1.0
  Ta  Ta1  1  0.16666667  0.16666667  0.00000000  1.0
  Ta  Ta1  1  0.16666667  0.16666667  0.50000000  1.0
  Ta  Ta1  1  0.16666667  0.50000000  0.00000000  1.0
  Ta  Ta1  1  0.16666667  0.50000000  0.50000000  1.0
  Ta  Ta1  1  0.16666667  0.83333333  0.00000000  1.0
  Ta  Ta1  1  0.16666667  0.83333333  0.50000000  1.0
  Ta  Ta1  1  0.50000000  0.16666667  0.00000000  1.0
  Ta  Ta1  1  0.50000000  0.16666667  0.50000000  1.0
  Ta  Ta1  1  0.50000000  0.50000000  0.00000000  1.0
  Ta  Ta1  1  0.50000000  0.50000000  0.50000000  1.0
  Ta  Ta1  1  0.50000000  0.83333333  0.00000000  1.0
  Ta  Ta1  1  0.50000000  0.83333333  0.50000000  1.0
  Ta  Ta1  1  0.83333333  0.16666667  0.00000000  1.0
  Ta  Ta1  1  0.83333333  0.16666667  0.50000000  1.0
  Ta  Ta1  1  0.83333333  0.50000000  0.00000000  1.0
  Ta  Ta1  1  0.83333333  0.50000000  0.50000000  1.0
  Ta  Ta1  1  0.83333333  0.83333333  0.00000000  1.0
  Ta  Ta1  1  0.83333333  0.83333333  0.50000000  1.0
  Ta  Ta1  1  0.16666667  0.16666667  0.25000000  1.0
  Ta  Ta1  1  0.16666667  0.16666667  0.75000000  1.0
  Ta  Ta1  1  0.16666667  0.50000000  0.25000000  1.0
  Ta  Ta1  1  0.16666667  0.50000000  0.75000000  1.0
  Ta  Ta1  1  0.16666667  0.83333333  0.25000000  1.0
  Ta  Ta1  1  0.16666667  0.83333333  0.75000000  1.0
  Ta  Ta1  1  0.50000000  0.16666667  0.25000000  1.0
  Ta  Ta1  1  0.50000000  0.16666667  0.75000000  1.0
  Ta  Ta1  1  0.50000000  0.50000000  0.25000000  1.0
  Ta  Ta1  1  0.50000000  0.50000000  0.75000000  1.0
  Ta  Ta1  1  0.50000000  0.83333333  0.25000000  1.0
  Ta  Ta1  1  0.50000000  0.83333333  0.75000000  1.0
  Ta  Ta1  1  0.83333333  0.16666667  0.25000000  1.0
  Ta  Ta1  1  0.83333333  0.16666667  0.75000000  1.0
  Ta  Ta1  1  0.83333333  0.50000000  0.25000000  1.0
  Ta  Ta1  1  0.83333333  0.50000000  0.75000000  1.0
  Ta  Ta1  1  0.83333333  0.83333333  0.25000000  1.0
  Ta  Ta1  1  0.83333333  0.83333333  0.75000000  1.0
  Ta  Ta1  1  0.00000000  0.00000000  0.25000000  1.0
  Ta  Ta1  1  0.00000000  0.00000000  0.75000000  1.0
  Ta  Ta1  1  0.00000000  0.33333333  0.25000000  1.0
  Ta  Ta1  1  0.00000000  0.33333333  0.75000000  1.0
  Ta  Ta1  1  0.00000000  0.66666667  0.25000000  1.0
  Ta  Ta1  1  0.00000000  0.66666667  0.75000000  1.0
  Ta  Ta1  1  0.33333333  0.00000000  0.25000000  1.0
  Ta  Ta1  1  0.33333333  0.00000000  0.75000000  1.0
  Ta  Ta1  1  0.33333333  0.33333333  0.25000000  1.0
  Ta  Ta1  1  0.33333333  0.33333333  0.75000000  1.0
  Ta  Ta1  1  0.33333333  0.66666667  0.25000000  1.0
  Ta  Ta1  1  0.33333333  0.66666667  0.75000000  1.0
  Ta  Ta1  1  0.66666667  0.00000000  0.25000000  1.0
  Ta  Ta1  1  0.66666667  0.00000000  0.75000000  1.0
  Ta  Ta1  1  0.66666667  0.33333333  0.25000000  1.0
  Ta  Ta1  1  0.66666667  0.33333333  0.75000000  1.0
  Ta  Ta1  1  0.66666667  0.66666667  0.25000000  1.0
  Ta  Ta1  1  0.66666667  0.66666667  0.75000000  1.0
  Ta  Ta1  1  0.00000000  0.00000000  0.00000000  1.0
  Ta  Ta1  1  0.00000000  0.00000000  0.50000000  1.0
  Ta  Ta1  1  0.00000000  0.33333333  0.00000000  1.0
  Ta  Ta1  1  0.00000000  0.33333333  0.50000000  1.0
  Ta  Ta1  1  0.00000000  0.66666667  0.00000000  1.0
  Ta  Ta1  1  0.00000000  0.66666667  0.50000000  1.0
  Ta  Ta1  1  0.33333333  0.00000000  0.00000000  1.0
  Ta  Ta1  1  0.33333333  0.00000000  0.50000000  1.0
  Ta  Ta1  1  0.33333333  0.33333333  0.00000000  1.0
  Ta  Ta1  1  0.33333333  0.33333333  0.50000000  1.0
  Ta  Ta1  1  0.33333333  0.66666667  0.00000000  1.0
  Ta  Ta1  1  0.33333333  0.66666667  0.50000000  1.0
  Ta  Ta1  1  0.66666667  0.00000000  0.00000000  1.0
  Ta  Ta1  1  0.66666667  0.00000000  0.50000000  1.0
  Ta  Ta1  1  0.66666667  0.33333333  0.00000000  1.0
  Ta  Ta1  1  0.66666667  0.33333333  0.50000000  1.0
  Ta  Ta1  1  0.66666667  0.66666667  0.00000000  1.0
  Ta  Ta1  1  0.66666667  0.66666667  0.50000000  1.0
  N  O1  1  0.83333333  0.83333333  0.37500000  1.0
  N  O1  1  0.83333333  0.50000000  0.62500000  1.0
  N  O1  1  0.16666667  0.50000000  0.12500000  1.0
  N  O1  1  0.83333333  0.16666667  0.12500000  1.0
  N  O1  1  0.83333333  0.83333333  0.62500000  1.0
  N  O1  1  0.50000000  0.16666667  0.87500000  1.0
  N  O1  1  0.66666667  0.66666667  0.37500000  1.0
  N  O1  1  0.00000000  0.66666667  0.62500000  1.0
  N  O1  1  0.66666667  0.00000000  0.37500000  1.0
  N  O1  1  0.33333333  0.33333333  0.37500000  1.0
  N  O1  1  0.50000000  0.16666667  0.12500000  1.0
  N  O1  1  0.33333333  0.33333333  0.62500000  1.0
  N  O1  1  0.00000000  0.00000000  0.37500000  1.0
  N  O1  1  0.00000000  0.33333333  0.37500000  1.0
  N  O1  1  0.50000000  0.83333333  0.62500000  1.0
  N  O1  1  0.50000000  0.16666667  0.37500000  1.0
  N  O1  1  0.00000000  0.00000000  0.87500000  1.0
  N  O1  1  0.50000000  0.50000000  0.87500000  1.0
  N  O1  1  0.66666667  0.66666667  0.12500000  1.0
  N  O1  1  0.33333333  0.00000000  0.12500000  1.0
  N  O1  1  0.50000000  0.83333333  0.12500000  1.0
  N  O1  1  0.16666667  0.83333333  0.62500000  1.0
  N  O1  1  0.50000000  0.83333333  0.87500000  1.0
  N  O1  1  0.50000000  0.16666667  0.62500000  1.0
  N  O1  1  0.16666667  0.16666667  0.62500000  1.0
  N  O1  1  0.16666667  0.83333333  0.87500000  1.0
  N  O1  1  0.66666667  0.33333333  0.87500000  1.0
  N  O1  1  0.50000000  0.50000000  0.37500000  1.0
  N  O1  1  0.33333333  0.66666667  0.87500000  1.0
  N  O1  1  0.00000000  0.00000000  0.12500000  1.0
  N  O1  1  0.66666667  0.33333333  0.12500000  1.0
  N  O1  1  0.66666667  0.00000000  0.62500000  1.0
  N  O1  1  0.00000000  0.00000000  0.62500000  1.0
  O  O1  1  0.83333333  0.50000000  0.37500000  1.0
  O  O1  1  0.66666667  0.00000000  0.87500000  1.0
  O  O1  1  0.16666667  0.83333333  0.12500000  1.0
  O  O1  1  0.00000000  0.33333333  0.62500000  1.0
  O  O1  1  0.16666667  0.50000000  0.87500000  1.0
  O  O1  1  0.16666667  0.16666667  0.37500000  1.0
  O  O1  1  0.66666667  0.66666667  0.62500000  1.0
  O  O1  1  0.16666667  0.50000000  0.37500000  1.0
  O  O1  1  0.66666667  0.33333333  0.62500000  1.0
  O  O1  1  0.83333333  0.50000000  0.12500000  1.0
  O  O1  1  0.16666667  0.83333333  0.37500000  1.0
  O  O1  1  0.00000000  0.66666667  0.87500000  1.0
  O  O1  1  0.00000000  0.33333333  0.12500000  1.0
  O  O1  1  0.33333333  0.66666667  0.62500000  1.0
  O  O1  1  0.83333333  0.16666667  0.37500000  1.0
  O  O1  1  0.00000000  0.33333333  0.87500000  1.0
  O  O1  1  0.66666667  0.33333333  0.37500000  1.0
  O  O1  1  0.33333333  0.00000000  0.37500000  1.0
  O  O1  1  0.33333333  0.00000000  0.62500000  1.0
  O  O1  1  0.83333333  0.83333333  0.12500000  1.0
  O  O1  1  0.16666667  0.16666667  0.12500000  1.0
  O  O1  1  0.16666667  0.16666667  0.87500000  1.0
  O  O1  1  0.00000000  0.66666667  0.37500000  1.0
  O  O1  1  0.83333333  0.83333333  0.87500000  1.0
  O  O1  1  0.66666667  0.66666667  0.87500000  1.0
  O  O1  1  0.50000000  0.50000000  0.62500000  1.0
  O  O1  1  0.83333333  0.50000000  0.87500000  1.0
  O  O1  1  0.33333333  0.33333333  0.87500000  1.0
  O  O1  1  0.33333333  0.00000000  0.87500000  1.0
  O  O1  1  0.00000000  0.66666667  0.12500000  1.0
  O  O1  1  0.50000000  0.83333333  0.37500000  1.0
  O  O1  1  0.83333333  0.16666667  0.62500000  1.0
  O  O1  1  0.83333333  0.16666667  0.87500000  1.0
  O  O1  1  0.66666667  0.00000000  0.12500000  1.0
  O  O1  1  0.33333333  0.66666667  0.12500000  1.0
  O  O1  1  0.50000000  0.50000000  0.12500000  1.0
  O  O1  1  0.33333333  0.33333333  0.12500000  1.0
  O  O1  1  0.16666667  0.50000000  0.62500000  1.0
  O  O1  1  0.33333333  0.66666667  0.37500000  1.0
