# generated using pymatgen
data_Cs27Sn13Pb14I81
_symmetry_space_group_name_H-M   'P 1'
_cell_length_a   19.25891946
_cell_length_b   19.28062861
_cell_length_c   19.25329428
_cell_angle_alpha   89.98803168
_cell_angle_beta   90.02232127
_cell_angle_gamma   90.00341832
_symmetry_Int_Tables_number   1
_chemical_formula_structural   Cs27Sn13Pb14I81
_chemical_formula_sum   'Cs27 Sn13 Pb14 I81'
_cell_volume   7149.21095249
_cell_formula_units_Z   1
loop_
 _symmetry_equiv_pos_site_id
 _symmetry_equiv_pos_as_xyz
  1  'x, y, z'
loop_
 _atom_site_type_symbol
 _atom_site_label
 _atom_site_symmetry_multiplicity
 _atom_site_fract_x
 _atom_site_fract_y
 _atom_site_fract_z
 _atom_site_occupancy
  Cs  Cs0  1  -0.03909458  -0.00913742  0.00599090  1
  Cs  Cs1  1  0.01312937  -0.00397293  0.35853883  1
  Cs  Cs2  1  0.01324543  0.00901613  0.64598119  1
  Cs  Cs3  1  -0.01966261  0.33874439  0.02623298  1
  Cs  Cs4  1  0.01641203  0.33026321  0.30293221  1
  Cs  Cs5  1  0.01843068  0.36138808  0.66661735  1
  Cs  Cs6  1  -0.00751181  0.68216071  0.00653451  1
  Cs  Cs7  1  -0.00452840  0.67766157  0.36215796  1
  Cs  Cs8  1  -0.00037181  0.63969050  0.63992344  1
  Cs  Cs9  1  0.32695197  -0.00668437  -0.01930203  1
  Cs  Cs10  1  0.35738823  0.00258130  0.33185029  1
  Cs  Cs11  1  0.32161416  0.00477354  0.69651742  1
  Cs  Cs12  1  0.33663176  0.33131754  0.00494204  1
  Cs  Cs13  1  0.35847618  0.33742879  0.32818984  1
  Cs  Cs14  1  0.30552095  0.32423128  0.67969092  1
  Cs  Cs15  1  0.32444841  0.68737603  0.00084871  1
  Cs  Cs16  1  0.36532696  0.66411232  0.32632457  1
  Cs  Cs17  1  0.32705670  0.66689938  0.70932664  1
  Cs  Cs18  1  0.68960788  -0.00008415  -0.00866619  1
  Cs  Cs19  1  0.65251277  0.01245481  0.34315641  1
  Cs  Cs20  1  0.67080691  -0.00042767  0.65746305  1
  Cs  Cs21  1  0.67749368  0.34159504  -0.00370179  1
  Cs  Cs22  1  0.64994697  0.31273494  0.32942494  1
  Cs  Cs23  1  0.67003291  0.32837949  0.67958473  1
  Cs  Cs24  1  0.68076401  0.67704388  -0.00472011  1
  Cs  Cs25  1  0.64518134  0.66945338  0.33585412  1
  Cs  Cs26  1  0.68143669  0.65083947  0.66034824  1
  Sn  Sn27  1  0.50152397  0.49951630  0.16338995  1
  Sn  Sn28  1  0.17118729  0.16368052  0.16624235  1
  Sn  Sn29  1  0.50184059  0.49918448  0.50153359  1
  Sn  Sn30  1  0.83148668  0.82939281  0.17085312  1
  Sn  Sn31  1  0.49947614  0.16807569  0.50240981  1
  Sn  Sn32  1  0.83428390  0.16728254  0.82728419  1
  Sn  Sn33  1  0.83196664  0.50452894  0.17075442  1
  Sn  Sn34  1  0.49774807  0.16499833  0.16238857  1
  Sn  Sn35  1  0.83285554  0.83353007  0.82859355  1
  Sn  Sn36  1  0.83197779  0.16976427  0.49995417  1
  Sn  Sn37  1  0.16963755  0.50209158  0.16683298  1
  Sn  Sn38  1  0.50071014  0.83521017  0.16499348  1
  Sn  Sn39  1  0.49931892  0.83238435  0.50142122  1
  Pb  Pb40  1  0.15856061  0.83410758  0.83389887  1
  Pb  Pb41  1  0.83269640  0.16631809  0.16938395  1
  Pb  Pb42  1  0.83420125  0.49972455  0.83514438  1
  Pb  Pb43  1  0.16881428  0.16845061  0.49657636  1
  Pb  Pb44  1  0.50243129  0.16652554  0.83420766  1
  Pb  Pb45  1  0.17422805  0.83177055  0.49646098  1
  Pb  Pb46  1  0.83005925  0.49431633  0.49296002  1
  Pb  Pb47  1  0.50060200  0.49883142  0.83304421  1
  Pb  Pb48  1  0.50299107  0.83438272  0.83181534  1
  Pb  Pb49  1  0.16695694  0.83440326  0.16844157  1
  Pb  Pb50  1  0.83025187  0.83542652  0.49995883  1
  Pb  Pb51  1  0.16627254  0.49952468  0.84086652  1
  Pb  Pb52  1  0.15865608  0.16661270  0.84037668  1
  Pb  Pb53  1  0.17309004  0.49901483  0.49245398  1
  I  I54  1  0.17405730  0.00370696  0.17021912  1
  I  I55  1  0.15954121  -0.00103679  0.49658913  1
  I  I56  1  0.18215195  0.00031023  0.84034848  1
  I  I57  1  0.16749449  0.33267058  0.16528647  1
  I  I58  1  0.16297883  0.33288604  0.52724133  1
  I  I59  1  0.15724028  0.33144156  0.81235154  1
  I  I60  1  0.17173626  0.66391437  0.15203571  1
  I  I61  1  0.14607809  0.66646670  0.50061422  1
  I  I62  1  0.17508170  0.66757507  0.84571887  1
  I  I63  1  0.50201085  0.00032998  0.18645150  1
  I  I64  1  0.50827116  -0.00111158  0.48205163  1
  I  I65  1  0.47587562  0.00048247  0.83749428  1
  I  I66  1  0.49945897  0.33330607  0.18012574  1
  I  I67  1  0.51026294  0.33419132  0.48009490  1
  I  I68  1  0.51431317  0.33255381  0.83735341  1
  I  I69  1  0.50371931  0.66552756  0.17917766  1
  I  I70  1  0.49655196  0.66763510  0.48015256  1
  I  I71  1  0.49554711  0.66697529  0.82776928  1
  I  I72  1  0.82665587  -0.00088301  0.15716676  1
  I  I73  1  0.82108262  0.00146623  0.48824958  1
  I  I74  1  0.83028375  -0.00083876  0.84972977  1
  I  I75  1  0.83114083  0.33529019  0.16564882  1
  I  I76  1  0.81456640  0.33087056  0.52230640  1
  I  I77  1  0.82286262  0.32901566  0.82516738  1
  I  I78  1  0.83188208  0.66497811  0.13456346  1
  I  I79  1  0.84559027  0.66803593  0.51524585  1
  I  I80  1  0.82537332  0.67042089  0.84928566  1
  I  I81  1  0.19857486  0.17697376  0.00203960  1
  I  I82  1  0.14358864  0.17447807  0.33233855  1
  I  I83  1  0.17611123  0.15324313  0.66645214  1
  I  I84  1  0.18465569  0.48208156  0.00399416  1
  I  I85  1  0.14131023  0.48843950  0.33054944  1
  I  I86  1  0.16939689  0.51103749  0.66563878  1
  I  I87  1  0.19406097  0.83610206  0.00109980  1
  I  I88  1  0.12814445  0.83139240  0.33138746  1
  I  I89  1  0.18048460  0.84213110  0.66642782  1
  I  I90  1  0.47760405  0.17287287  0.00420128  1
  I  I91  1  0.50683333  0.16633300  0.33163775  1
  I  I92  1  0.51632748  0.16553670  0.66267059  1
  I  I93  1  0.49376871  0.49270667  0.00432773  1
  I  I94  1  0.50246546  0.50074813  0.32947837  1
  I  I95  1  0.51826565  0.50499355  0.66076945  1
  I  I96  1  0.48415148  0.82676389  0.00270499  1
  I  I97  1  0.51793354  0.83260710  0.32871310  1
  I  I98  1  0.50218314  0.83372819  0.66156362  1
  I  I99  1  0.84205445  0.16913342  -0.00089372  1
  I  I100  1  0.83261892  0.17511809  0.33658391  1
  I  I101  1  0.80675485  0.14817682  0.66672531  1
  I  I102  1  0.82642591  0.48159481  0.00120348  1
  I  I103  1  0.85420523  0.52420472  0.32990793  1
  I  I104  1  0.83041166  0.51129711  0.66672502  1
  I  I105  1  0.81815834  0.83825787  0.00300778  1
  I  I106  1  0.84752007  0.81754815  0.32979617  1
  I  I107  1  0.82187792  0.84910799  0.67088211  1
  I  I108  1  0.00158278  0.18426314  0.15725472  1
  I  I109  1  -0.00400893  0.15333425  0.50922567  1
  I  I110  1  -0.00312986  0.14260681  0.81156325  1
  I  I111  1  -0.00035452  0.49095486  0.15264540  1
  I  I112  1  -0.00180514  0.48872941  0.50782952  1
  I  I113  1  0.00017689  0.49762833  0.82575462  1
  I  I114  1  -0.00154558  0.83268212  0.13651633  1
  I  I115  1  -0.00129019  0.84207516  0.51252687  1
  I  I116  1  -0.00278944  0.84081294  0.87035833  1
  I  I117  1  0.33442756  0.17645116  0.19208111  1
  I  I118  1  0.33684498  0.16855467  0.48598170  1
  I  I119  1  0.33281262  0.17522322  0.82016460  1
  I  I120  1  0.33314203  0.49635218  0.18620629  1
  I  I121  1  0.33785880  0.49328525  0.47846668  1
  I  I122  1  0.33339115  0.49426186  0.81916668  1
  I  I123  1  0.33596087  0.82346325  0.18812944  1
  I  I124  1  0.33624646  0.83728928  0.46177763  1
  I  I125  1  0.33304971  0.82993495  0.82798139  1
  I  I126  1  0.66405668  0.17864440  0.16322988  1
  I  I127  1  0.66389612  0.16387040  0.48629468  1
  I  I128  1  0.66874360  0.15675216  0.85036958  1
  I  I129  1  0.66815721  0.49486132  0.17140342  1
  I  I130  1  0.66585224  0.52138516  0.48760237  1
  I  I131  1  0.66736851  0.50215589  0.84120953  1
  I  I132  1  0.66676050  0.82016034  0.16062779  1
  I  I133  1  0.66405604  0.81807062  0.49901808  1
  I  I134  1  0.66777059  0.84451945  0.84396038  1
