# generated using pymatgen
data_Cs27Sn13Pb14I81
_symmetry_space_group_name_H-M   'P 1'
_cell_length_a   18.97923113
_cell_length_b   18.97838366
_cell_length_c   18.97263072
_cell_angle_alpha   89.99797218
_cell_angle_beta   89.99941241
_cell_angle_gamma   89.99986786
_symmetry_Int_Tables_number   1
_chemical_formula_structural   Cs27Sn13Pb14I81
_chemical_formula_sum   'Cs27 Sn13 Pb14 I81'
_cell_volume   6833.84918409
_cell_formula_units_Z   1
loop_
 _symmetry_equiv_pos_site_id
 _symmetry_equiv_pos_as_xyz
  1  'x, y, z'
loop_
 _atom_site_type_symbol
 _atom_site_label
 _atom_site_symmetry_multiplicity
 _atom_site_fract_x
 _atom_site_fract_y
 _atom_site_fract_z
 _atom_site_occupancy
  Cs  Cs0  1  -0.00078571  0.00177800  -0.00202954  1
  Cs  Cs1  1  0.00186273  0.00025902  0.33381273  1
  Cs  Cs2  1  0.00016771  0.00044948  0.66594576  1
  Cs  Cs3  1  0.00074978  0.33620360  -0.00205779  1
  Cs  Cs4  1  -0.00031693  0.32899615  0.33476711  1
  Cs  Cs5  1  0.00002817  0.33310115  0.66816574  1
  Cs  Cs6  1  0.00095352  0.65917480  0.00428096  1
  Cs  Cs7  1  0.00176205  0.66967408  0.32708041  1
  Cs  Cs8  1  -0.00085583  0.66659966  0.66863005  1
  Cs  Cs9  1  0.34255693  0.00041179  -0.00274279  1
  Cs  Cs10  1  0.32689513  -0.00198768  0.33398588  1
  Cs  Cs11  1  0.33126463  -0.00129892  0.66777292  1
  Cs  Cs12  1  0.33276320  0.33250251  0.00188048  1
  Cs  Cs13  1  0.33811971  0.33562885  0.33450973  1
  Cs  Cs14  1  0.33378180  0.33579095  0.66576350  1
  Cs  Cs15  1  0.33162845  0.66773983  0.00610889  1
  Cs  Cs16  1  0.33159645  0.66448125  0.32661076  1
  Cs  Cs17  1  0.33560002  0.66513404  0.66679512  1
  Cs  Cs18  1  0.65972741  -0.00037274  -0.00095969  1
  Cs  Cs19  1  0.66943292  0.00061487  0.33398740  1
  Cs  Cs20  1  0.66766106  -0.00119784  0.66757133  1
  Cs  Cs21  1  0.66631241  0.33199488  0.00216460  1
  Cs  Cs22  1  0.66310071  0.33413327  0.33598100  1
  Cs  Cs23  1  0.66716728  0.33443248  0.66499701  1
  Cs  Cs24  1  0.66816336  0.66839287  0.00803611  1
  Cs  Cs25  1  0.66572756  0.66442006  0.33161016  1
  Cs  Cs26  1  0.66593519  0.66746110  0.66550816  1
  Sn  Sn27  1  0.50040823  0.50018717  0.83352273  1
  Sn  Sn28  1  0.16598594  0.16644109  0.16536863  1
  Sn  Sn29  1  0.50043160  0.83430282  0.50021434  1
  Sn  Sn30  1  0.83279568  0.83324020  0.50065462  1
  Sn  Sn31  1  0.50053880  0.16508909  0.50066879  1
  Sn  Sn32  1  0.83431973  0.83379125  0.83286134  1
  Sn  Sn33  1  0.16549206  0.50024457  0.50021519  1
  Sn  Sn34  1  0.16570410  0.83374281  0.83315721  1
  Sn  Sn35  1  0.16606664  0.16590015  0.83414989  1
  Sn  Sn36  1  0.83474480  0.50040710  0.50028615  1
  Sn  Sn37  1  0.83264941  0.16641396  0.50022124  1
  Sn  Sn38  1  0.83405657  0.16634564  0.16636831  1
  Sn  Sn39  1  0.83388819  0.16595211  0.83347649  1
  Pb  Pb40  1  0.50014170  0.49977036  0.16303423  1
  Pb  Pb41  1  0.49989735  0.16639748  0.16971577  1
  Pb  Pb42  1  0.16647239  0.16791053  0.50056054  1
  Pb  Pb43  1  0.83345774  0.83600795  0.16632517  1
  Pb  Pb44  1  0.50056741  0.83123979  0.83168826  1
  Pb  Pb45  1  0.50040220  0.50056784  0.50073150  1
  Pb  Pb46  1  0.83160613  0.50027654  0.83174300  1
  Pb  Pb47  1  0.50021613  0.16811215  0.83106314  1
  Pb  Pb48  1  0.16818384  0.49991963  0.83200633  1
  Pb  Pb49  1  0.16616481  0.83094315  0.50172671  1
  Pb  Pb50  1  0.16637971  0.49690488  0.16953325  1
  Pb  Pb51  1  0.50012725  0.83368100  0.17043192  1
  Pb  Pb52  1  0.16628538  0.83638632  0.16285175  1
  Pb  Pb53  1  0.83338512  0.49696068  0.16994512  1
  I  I54  1  0.16136891  0.00423904  0.17011293  1
  I  I55  1  0.16640168  -0.00003972  0.49824839  1
  I  I56  1  0.16318977  0.00108992  0.83453061  1
  I  I57  1  0.16189636  0.32908631  0.15978589  1
  I  I58  1  0.16338145  0.33553478  0.50212316  1
  I  I59  1  0.16301497  0.33005405  0.83491461  1
  I  I60  1  0.16827531  0.66671182  0.16655124  1
  I  I61  1  0.16388650  0.66345738  0.50428088  1
  I  I62  1  0.16365266  0.66936519  0.82803019  1
  I  I63  1  0.50015946  0.00042599  0.16257394  1
  I  I64  1  0.50810431  0.00041752  0.50156494  1
  I  I65  1  0.49916760  -0.00008298  0.83327150  1
  I  I66  1  0.50017659  0.33281090  0.17094764  1
  I  I67  1  0.50325042  0.33117677  0.50124736  1
  I  I68  1  0.49985034  0.33536129  0.82763831  1
  I  I69  1  0.49966948  0.66665796  0.16926658  1
  I  I70  1  0.50385272  0.66921800  0.50364413  1
  I  I71  1  0.49960212  0.66418320  0.82664262  1
  I  I72  1  0.83763719  0.00419081  0.17285658  1
  I  I73  1  0.82811491  0.00069861  0.50072446  1
  I  I74  1  0.83695088  0.00103194  0.82760447  1
  I  I75  1  0.83710056  0.32854125  0.16521946  1
  I  I76  1  0.83284147  0.33196976  0.50019931  1
  I  I77  1  0.83631491  0.32991616  0.83150779  1
  I  I78  1  0.83223792  0.66676636  0.16648061  1
  I  I79  1  0.83208879  0.66764536  0.50688085  1
  I  I80  1  0.83598707  0.66987807  0.82604616  1
  I  I81  1  0.15861847  0.16446165  -0.00125899  1
  I  I82  1  0.16371318  0.16993854  0.33176808  1
  I  I83  1  0.16358303  0.16491179  0.66950816  1
  I  I84  1  0.16949575  0.50158201  0.00001377  1
  I  I85  1  0.16427606  0.49906488  0.33758030  1
  I  I86  1  0.16372094  0.49608663  0.66413504  1
  I  I87  1  0.16055282  0.83233895  -0.00519578  1
  I  I88  1  0.16795157  0.83321501  0.33332076  1
  I  I89  1  0.16524199  0.84084020  0.66954461  1
  I  I90  1  0.50226410  0.16955880  -0.00021956  1
  I  I91  1  0.50411188  0.16564981  0.33788275  1
  I  I92  1  0.50418647  0.16483182  0.66309760  1
  I  I93  1  0.49939522  0.49862690  -0.00459163  1
  I  I94  1  0.49942857  0.49934931  0.33350665  1
  I  I95  1  0.49964910  0.49886812  0.66797969  1
  I  I96  1  0.50013729  0.83100162  -0.00028560  1
  I  I97  1  0.50663232  0.83625823  0.33886559  1
  I  I98  1  0.50229535  0.83653701  0.66360081  1
  I  I99  1  0.83810941  0.16265770  -0.00122002  1
  I  I100  1  0.83363418  0.16754660  0.33470870  1
  I  I101  1  0.83367574  0.16651894  0.66627876  1
  I  I102  1  0.83087723  0.50010462  -0.00001715  1
  I  I103  1  0.83505611  0.50078536  0.33855885  1
  I  I104  1  0.83542781  0.49454159  0.66330820  1
  I  I105  1  0.83675233  0.83752178  -0.00378449  1
  I  I106  1  0.82861165  0.83372275  0.33690106  1
  I  I107  1  0.83323778  0.83842083  0.66588108  1
  I  I108  1  -0.00098905  0.16673730  0.16942632  1
  I  I109  1  -0.00325555  0.16510850  0.49993738  1
  I  I110  1  -0.00099412  0.16418235  0.83079168  1
  I  I111  1  -0.00014130  0.50124242  0.16408284  1
  I  I112  1  -0.00142447  0.49729082  0.50253674  1
  I  I113  1  -0.00021996  0.49947135  0.83223285  1
  I  I114  1  -0.00010560  0.83277119  0.17359530  1
  I  I115  1  -0.00349497  0.83692935  0.50220579  1
  I  I116  1  -0.00114278  0.83822050  0.82544381  1
  I  I117  1  0.33028809  0.16710826  0.16295649  1
  I  I118  1  0.33548817  0.16559577  0.50041136  1
  I  I119  1  0.33051933  0.16418632  0.83571577  1
  I  I120  1  0.33310654  0.49689425  0.17105812  1
  I  I121  1  0.33170118  0.49772152  0.50288592  1
  I  I122  1  0.33559840  0.49886531  0.82679097  1
  I  I123  1  0.33307743  0.83573595  0.16704258  1
  I  I124  1  0.33555693  0.83705923  0.50275986  1
  I  I125  1  0.33096300  0.83719363  0.83089998  1
  I  I126  1  0.67000620  0.16674184  0.16480951  1
  I  I127  1  0.66878417  0.16913420  0.50014444  1
  I  I128  1  0.67014973  0.16381390  0.83450487  1
  I  I129  1  0.66693371  0.49730055  0.16947333  1
  I  I130  1  0.66958699  0.49838946  0.50213307  1
  I  I131  1  0.66433949  0.49841341  0.82734793  1
  I  I132  1  0.66697196  0.83609086  0.16147487  1
  I  I133  1  0.66841531  0.83305387  0.50614754  1
  I  I134  1  0.67010190  0.83784692  0.82973122  1
