# generated using pymatgen
data_Cs27Sn13Pb14I81
_symmetry_space_group_name_H-M   'P 1'
_cell_length_a   18.97207127
_cell_length_b   18.98166771
_cell_length_c   18.97686533
_cell_angle_alpha   89.99938708
_cell_angle_beta   90.00015747
_cell_angle_gamma   89.99985025
_symmetry_Int_Tables_number   1
_chemical_formula_structural   Cs27Sn13Pb14I81
_chemical_formula_sum   'Cs27 Sn13 Pb14 I81'
_cell_volume   6833.97820681
_cell_formula_units_Z   1
loop_
 _symmetry_equiv_pos_site_id
 _symmetry_equiv_pos_as_xyz
  1  'x, y, z'
loop_
 _atom_site_type_symbol
 _atom_site_label
 _atom_site_symmetry_multiplicity
 _atom_site_fract_x
 _atom_site_fract_y
 _atom_site_fract_z
 _atom_site_occupancy
  Cs  Cs0  1  -0.00106051  -0.00334974  0.00011028  1
  Cs  Cs1  1  -0.00184769  0.00125557  0.33596350  1
  Cs  Cs2  1  0.00109343  0.00134385  0.66261489  1
  Cs  Cs3  1  0.00182464  0.33390255  -0.00106316  1
  Cs  Cs4  1  -0.00098282  0.33133635  0.33286284  1
  Cs  Cs5  1  -0.00232122  0.33567005  0.66933331  1
  Cs  Cs6  1  0.00121681  0.66741885  0.00139285  1
  Cs  Cs7  1  -0.00023647  0.66814964  0.33133056  1
  Cs  Cs8  1  0.00089453  0.66367376  0.66687066  1
  Cs  Cs9  1  0.33478819  0.00203480  0.00053072  1
  Cs  Cs10  1  0.33332472  0.00722953  0.33907416  1
  Cs  Cs11  1  0.33883040  -0.00253273  0.66045324  1
  Cs  Cs12  1  0.33167967  0.33550365  0.00196285  1
  Cs  Cs13  1  0.33479465  0.32755489  0.33248334  1
  Cs  Cs14  1  0.33387296  0.33365892  0.66651656  1
  Cs  Cs15  1  0.33155577  0.66426150  0.00066934  1
  Cs  Cs16  1  0.33372732  0.66671974  0.33226734  1
  Cs  Cs17  1  0.33317903  0.66899027  0.66613198  1
  Cs  Cs18  1  0.66582994  -0.00202824  -0.00816985  1
  Cs  Cs19  1  0.67222916  0.00171004  0.33295298  1
  Cs  Cs20  1  0.66023421  -0.00084428  0.67491046  1
  Cs  Cs21  1  0.66528269  0.33108509  -0.00089008  1
  Cs  Cs22  1  0.66706108  0.33357268  0.33541693  1
  Cs  Cs23  1  0.66969422  0.33427501  0.66504066  1
  Cs  Cs24  1  0.66575343  0.67015448  0.00238698  1
  Cs  Cs25  1  0.66599062  0.66541458  0.33259733  1
  Cs  Cs26  1  0.66498814  0.66545844  0.66461024  1
  Sn  Sn27  1  0.49868243  0.83323238  0.16714078  1
  Sn  Sn28  1  0.49975435  0.50055495  0.16588142  1
  Sn  Sn29  1  0.83334197  0.49907966  0.16646624  1
  Sn  Sn30  1  0.49933153  0.50007636  0.83415583  1
  Sn  Sn31  1  0.83339832  0.16563627  0.49993399  1
  Sn  Sn32  1  0.83314855  0.83378037  0.50035579  1
  Sn  Sn33  1  0.16679242  0.49999855  0.49939132  1
  Sn  Sn34  1  0.83349749  0.16726450  0.16646853  1
  Sn  Sn35  1  0.16794031  0.83317367  0.16649934  1
  Sn  Sn36  1  0.16750755  0.50024839  0.83333388  1
  Sn  Sn37  1  0.16661431  0.83360841  0.83386058  1
  Sn  Sn38  1  0.16683454  0.50041047  0.16716572  1
  Sn  Sn39  1  0.16676841  0.16619887  0.83341450  1
  Pb  Pb40  1  0.83308039  0.50028938  0.83612737  1
  Pb  Pb41  1  0.50323220  0.16676413  0.50010687  1
  Pb  Pb42  1  0.83571479  0.83305712  0.83030119  1
  Pb  Pb43  1  0.50265079  0.83317681  0.49690760  1
  Pb  Pb44  1  0.50274140  0.16653164  0.16658763  1
  Pb  Pb45  1  0.49722520  0.83081794  0.83557314  1
  Pb  Pb46  1  0.16543710  0.83163546  0.49944216  1
  Pb  Pb47  1  0.49704572  0.16956493  0.83354512  1
  Pb  Pb48  1  0.49738758  0.50002555  0.49951027  1
  Pb  Pb49  1  0.83522649  0.16666955  0.83340816  1
  Pb  Pb50  1  0.83521871  0.49997655  0.49768996  1
  Pb  Pb51  1  0.16483639  0.16619413  0.16521866  1
  Pb  Pb52  1  0.16475819  0.16925541  0.50251290  1
  Pb  Pb53  1  0.83342362  0.83340385  0.16758904  1
  I  I54  1  0.16836549  -0.00315205  0.16138793  1
  I  I55  1  0.16587420  0.00011516  0.50043865  1
  I  I56  1  0.16249724  -0.00083570  0.83983052  1
  I  I57  1  0.16811848  0.33667522  0.16547577  1
  I  I58  1  0.16423593  0.33722713  0.49832626  1
  I  I59  1  0.16894375  0.33515979  0.83390169  1
  I  I60  1  0.16419316  0.66523984  0.16269803  1
  I  I61  1  0.16276931  0.66364603  0.50329663  1
  I  I62  1  0.16940703  0.66547422  0.83455746  1
  I  I63  1  0.49598501  -0.00313887  0.16770558  1
  I  I64  1  0.49607662  -0.00021449  0.49818110  1
  I  I65  1  0.49950955  -0.00031378  0.83483907  1
  I  I66  1  0.49683326  0.33698618  0.16319703  1
  I  I67  1  0.50141125  0.33377626  0.49814279  1
  I  I68  1  0.49421299  0.33772406  0.84053033  1
  I  I69  1  0.50149754  0.66511686  0.16308203  1
  I  I70  1  0.50414032  0.66647178  0.50160475  1
  I  I71  1  0.49403504  0.66287305  0.83569860  1
  I  I72  1  0.83506004  0.00215682  0.17015668  1
  I  I73  1  0.83636546  0.00066545  0.49138546  1
  I  I74  1  0.83591817  -0.00007455  0.83890866  1
  I  I75  1  0.83465277  0.33441186  0.17212151  1
  I  I76  1  0.83571280  0.33109578  0.49713257  1
  I  I77  1  0.83653976  0.33361437  0.82965859  1
  I  I78  1  0.83444470  0.66400349  0.16829863  1
  I  I79  1  0.83580443  0.66848577  0.49783168  1
  I  I80  1  0.83689917  0.66650178  0.83279564  1
  I  I81  1  0.16362406  0.17198535  -0.00263798  1
  I  I82  1  0.16646742  0.16739527  0.33342061  1
  I  I83  1  0.16343328  0.16771995  0.67037613  1
  I  I84  1  0.16665855  0.50022462  0.00043032  1
  I  I85  1  0.16520200  0.50542982  0.33153269  1
  I  I86  1  0.16962032  0.50009608  0.66808325  1
  I  I87  1  0.16802476  0.82783031  0.00073655  1
  I  I88  1  0.16774063  0.82674184  0.32997009  1
  I  I89  1  0.16280233  0.83065477  0.66932915  1
  I  I90  1  0.50398286  0.16516521  0.00012685  1
  I  I91  1  0.49652101  0.16950215  0.33297192  1
  I  I92  1  0.50176522  0.16855107  0.66702309  1
  I  I93  1  0.49492193  0.50269907  0.00130033  1
  I  I94  1  0.49987805  0.50381279  0.32940963  1
  I  I95  1  0.49460435  0.49910413  0.66961752  1
  I  I96  1  0.50109245  0.83075488  0.00365645  1
  I  I97  1  0.49316157  0.82445749  0.32875982  1
  I  I98  1  0.50009063  0.83214128  0.66690570  1
  I  I99  1  0.83485573  0.17209405  0.00290490  1
  I  I100  1  0.83514676  0.16711238  0.33273960  1
  I  I101  1  0.83646583  0.16348674  0.66379425  1
  I  I102  1  0.83856049  0.49526284  0.00451662  1
  I  I103  1  0.83391192  0.49930318  0.32943695  1
  I  I104  1  0.83451933  0.49901343  0.66655565  1
  I  I105  1  0.83243939  0.83369382  0.00018863  1
  I  I106  1  0.83636226  0.83419848  0.33522562  1
  I  I107  1  0.83614129  0.83891127  0.66250610  1
  I  I108  1  -0.00300930  0.17121578  0.16940576  1
  I  I109  1  -0.00299903  0.16348809  0.49526587  1
  I  I110  1  0.00342855  0.17150028  0.83404088  1
  I  I111  1  0.00130652  0.50054875  0.16662959  1
  I  I112  1  0.00324651  0.50019978  0.50123623  1
  I  I113  1  0.00380717  0.49969074  0.83396944  1
  I  I114  1  0.00290028  0.82899832  0.16390772  1
  I  I115  1  -0.00239021  0.83614765  0.49684102  1
  I  I116  1  0.00440341  0.82907340  0.84111361  1
  I  I117  1  0.33316156  0.16914733  0.16506088  1
  I  I118  1  0.33290636  0.16779490  0.50051170  1
  I  I119  1  0.32888516  0.16613701  0.83526788  1
  I  I120  1  0.33229291  0.50503389  0.16504866  1
  I  I121  1  0.32917667  0.50138641  0.49707107  1
  I  I122  1  0.33136899  0.49943871  0.83848002  1
  I  I123  1  0.33211678  0.82339980  0.16236229  1
  I  I124  1  0.33324049  0.83138425  0.50189853  1
  I  I125  1  0.32891908  0.83413128  0.83379947  1
  I  I126  1  0.67077991  0.17145981  0.17135108  1
  I  I127  1  0.67159273  0.16560327  0.49458664  1
  I  I128  1  0.66652069  0.16818194  0.83277802  1
  I  I129  1  0.66619912  0.50092291  0.16274021  1
  I  I130  1  0.66684274  0.49928298  0.50037243  1
  I  I131  1  0.66349863  0.49980440  0.83789613  1
  I  I132  1  0.66453104  0.82844972  0.17004542  1
  I  I133  1  0.67066152  0.83581370  0.49685501  1
  I  I134  1  0.66612616  0.83248660  0.83445143  1
