# generated using pymatgen
data_Cs27Sn13Pb14I81
_symmetry_space_group_name_H-M   'P 1'
_cell_length_a   18.98515969
_cell_length_b   19.00102297
_cell_length_c   18.99116593
_cell_angle_alpha   89.99883479
_cell_angle_beta   89.99956863
_cell_angle_gamma   90.00016699
_symmetry_Int_Tables_number   1
_chemical_formula_structural   Cs27Sn13Pb14I81
_chemical_formula_sum   'Cs27 Sn13 Pb14 I81'
_cell_volume   6850.82486936
_cell_formula_units_Z   1
loop_
 _symmetry_equiv_pos_site_id
 _symmetry_equiv_pos_as_xyz
  1  'x, y, z'
loop_
 _atom_site_type_symbol
 _atom_site_label
 _atom_site_symmetry_multiplicity
 _atom_site_fract_x
 _atom_site_fract_y
 _atom_site_fract_z
 _atom_site_occupancy
  Cs  Cs0  1  -0.00204808  0.00268680  0.00352391  1
  Cs  Cs1  1  0.00660329  -0.00091420  0.33007897  1
  Cs  Cs2  1  -0.00221729  -0.00141498  0.66671294  1
  Cs  Cs3  1  -0.01038950  0.33369251  0.00068575  1
  Cs  Cs4  1  0.00304995  0.32991363  0.33102756  1
  Cs  Cs5  1  0.00351059  0.33757771  0.66878631  1
  Cs  Cs6  1  0.00357311  0.66384253  -0.00997814  1
  Cs  Cs7  1  0.00141466  0.67051454  0.33516716  1
  Cs  Cs8  1  0.00840064  0.66245469  0.67426217  1
  Cs  Cs9  1  0.33307901  -0.00055035  0.00029272  1
  Cs  Cs10  1  0.32987194  -0.00022295  0.33185823  1
  Cs  Cs11  1  0.33497945  0.00241648  0.66834378  1
  Cs  Cs12  1  0.33582663  0.33339556  -0.00152536  1
  Cs  Cs13  1  0.33336213  0.33309924  0.33252668  1
  Cs  Cs14  1  0.33352905  0.33240330  0.66800119  1
  Cs  Cs15  1  0.33087030  0.66768184  -0.00030124  1
  Cs  Cs16  1  0.33207560  0.66682306  0.33128246  1
  Cs  Cs17  1  0.32796476  0.66521052  0.67049349  1
  Cs  Cs18  1  0.66738808  -0.00094642  -0.00237705  1
  Cs  Cs19  1  0.66616285  -0.00288439  0.33618352  1
  Cs  Cs20  1  0.66613107  -0.00058045  0.66501632  1
  Cs  Cs21  1  0.67165131  0.33516631  0.00319173  1
  Cs  Cs22  1  0.66547609  0.33534115  0.33394773  1
  Cs  Cs23  1  0.66428978  0.33156875  0.66409353  1
  Cs  Cs24  1  0.66885747  0.66663278  0.00182250  1
  Cs  Cs25  1  0.66659420  0.66741477  0.33391138  1
  Cs  Cs26  1  0.66611739  0.66989921  0.66288252  1
  Sn  Sn27  1  0.50092563  0.83416676  0.16752578  1
  Sn  Sn28  1  0.16703138  0.16655111  0.83355342  1
  Sn  Sn29  1  0.83247119  0.83302120  0.16740597  1
  Sn  Sn30  1  0.50043856  0.16658294  0.49963396  1
  Sn  Sn31  1  0.50064734  0.49945310  0.83267657  1
  Sn  Sn32  1  0.49977346  0.83330397  0.49915613  1
  Sn  Sn33  1  0.83281185  0.16665248  0.49975281  1
  Sn  Sn34  1  0.49965591  0.16769286  0.83358554  1
  Sn  Sn35  1  0.16649969  0.49966905  0.16685996  1
  Sn  Sn36  1  0.50035264  0.16591502  0.16684295  1
  Sn  Sn37  1  0.83279599  0.83308451  0.49925766  1
  Sn  Sn38  1  0.50039679  0.50023286  0.50083920  1
  Sn  Sn39  1  0.83285339  0.50025632  0.49979241  1
  Pb  Pb40  1  0.16710815  0.49983857  0.49842459  1
  Pb  Pb41  1  0.16685040  0.83674620  0.83348843  1
  Pb  Pb42  1  0.83004065  0.49996541  0.83044755  1
  Pb  Pb43  1  0.16667948  0.83163028  0.16661760  1
  Pb  Pb44  1  0.16928239  0.49743919  0.83573406  1
  Pb  Pb45  1  0.16686519  0.16670291  0.50184114  1
  Pb  Pb46  1  0.83311747  0.83331030  0.83276346  1
  Pb  Pb47  1  0.83232341  0.16668239  0.83072053  1
  Pb  Pb48  1  0.16903881  0.16862065  0.16422660  1
  Pb  Pb49  1  0.16684305  0.83346537  0.50019685  1
  Pb  Pb50  1  0.83562413  0.50280909  0.16946931  1
  Pb  Pb51  1  0.49937632  0.50043889  0.16695737  1
  Pb  Pb52  1  0.83063401  0.16452250  0.16959173  1
  Pb  Pb53  1  0.50003964  0.83338991  0.83320060  1
  I  I54  1  0.16534415  0.00017710  0.16505358  1
  I  I55  1  0.16700106  0.00014584  0.50045178  1
  I  I56  1  0.17653361  0.00438903  0.83278239  1
  I  I57  1  0.17001344  0.33591501  0.16867968  1
  I  I58  1  0.16620675  0.33329336  0.49887203  1
  I  I59  1  0.17154042  0.33019893  0.83190507  1
  I  I60  1  0.17117772  0.66419774  0.16740572  1
  I  I61  1  0.16754445  0.66657864  0.49996961  1
  I  I62  1  0.16719639  0.66613928  0.83413275  1
  I  I63  1  0.50238377  0.00005332  0.16953327  1
  I  I64  1  0.50543931  0.00040829  0.50047919  1
  I  I65  1  0.49619470  0.00326416  0.83073177  1
  I  I66  1  0.49627706  0.33098377  0.16926708  1
  I  I67  1  0.50526449  0.33290006  0.50041699  1
  I  I68  1  0.49536681  0.33233553  0.82908922  1
  I  I69  1  0.50167376  0.66951610  0.17008129  1
  I  I70  1  0.50619387  0.66672380  0.49930828  1
  I  I71  1  0.50076246  0.66385844  0.82971184  1
  I  I72  1  0.83274429  -0.00326005  0.17233479  1
  I  I73  1  0.82564361  -0.00027888  0.49798210  1
  I  I74  1  0.83205806  0.00019536  0.83034313  1
  I  I75  1  0.83387886  0.33337315  0.16752952  1
  I  I76  1  0.82554720  0.33330835  0.50169511  1
  I  I77  1  0.83590170  0.33328199  0.83293128  1
  I  I78  1  0.82427972  0.67036670  0.17376032  1
  I  I79  1  0.82458211  0.66706277  0.49500642  1
  I  I80  1  0.83226922  0.66648530  0.83191609  1
  I  I81  1  0.17485562  0.16689711  -0.00330819  1
  I  I82  1  0.16736822  0.16716000  0.33305766  1
  I  I83  1  0.17441778  0.16834205  0.66939928  1
  I  I84  1  0.17017527  0.50141763  0.00287780  1
  I  I85  1  0.17082477  0.49979185  0.33105984  1
  I  I86  1  0.16444089  0.49985303  0.66700602  1
  I  I87  1  0.16778140  0.83123336  0.00029303  1
  I  I88  1  0.16761683  0.83397381  0.33326777  1
  I  I89  1  0.16642874  0.83101004  0.66673358  1
  I  I90  1  0.49370177  0.16647684  -0.00010221  1
  I  I91  1  0.50465050  0.16712530  0.33430521  1
  I  I92  1  0.49968162  0.16699278  0.66572237  1
  I  I93  1  0.49552449  0.49638282  -0.00207405  1
  I  I94  1  0.50228272  0.49729153  0.33655869  1
  I  I95  1  0.50314415  0.49641058  0.66526171  1
  I  I96  1  0.50349218  0.83630246  0.00320508  1
  I  I97  1  0.50364112  0.83579675  0.33415664  1
  I  I98  1  0.50536443  0.83590947  0.66316197  1
  I  I99  1  0.83326162  0.16450413  0.00021233  1
  I  I100  1  0.82735607  0.16976201  0.33756093  1
  I  I101  1  0.82664785  0.16307651  0.66245445  1
  I  I102  1  0.83380958  0.50165636  0.00015329  1
  I  I103  1  0.82448635  0.49769745  0.33741061  1
  I  I104  1  0.83304841  0.50261863  0.66198325  1
  I  I105  1  0.82770195  0.83392250  0.00335597  1
  I  I106  1  0.82741354  0.83301790  0.33475278  1
  I  I107  1  0.82679026  0.83511022  0.66218101  1
  I  I108  1  -0.00025238  0.16581291  0.16612579  1
  I  I109  1  -0.00327962  0.16608066  0.50212803  1
  I  I110  1  0.00224651  0.16557516  0.83103167  1
  I  I111  1  0.00302765  0.50031388  0.16851809  1
  I  I112  1  -0.00316628  0.50027484  0.49685582  1
  I  I113  1  0.00006948  0.49930327  0.83262218  1
  I  I114  1  -0.00321365  0.83224211  0.17378495  1
  I  I115  1  -0.00394970  0.83486217  0.49457042  1
  I  I116  1  -0.00005046  0.83413919  0.83275843  1
  I  I117  1  0.33761783  0.16087151  0.17252904  1
  I  I118  1  0.33744645  0.16703471  0.49847381  1
  I  I119  1  0.33611139  0.17050705  0.83049561  1
  I  I120  1  0.33200799  0.50144379  0.16849402  1
  I  I121  1  0.33725682  0.49932791  0.50271521  1
  I  I122  1  0.33709324  0.49838654  0.82574722  1
  I  I123  1  0.33685618  0.83619175  0.17129899  1
  I  I124  1  0.33762989  0.83386282  0.49550368  1
  I  I125  1  0.33395273  0.83026156  0.83319233  1
  I  I126  1  0.66231773  0.16792000  0.16089524  1
  I  I127  1  0.66481706  0.16647625  0.50237985  1
  I  I128  1  0.66265240  0.16981886  0.83424504  1
  I  I129  1  0.66673000  0.49804781  0.16385412  1
  I  I130  1  0.66525734  0.49962183  0.50317814  1
  I  I131  1  0.66220603  0.49196986  0.83418289  1
  I  I132  1  0.66530385  0.83640623  0.17168490  1
  I  I133  1  0.66555947  0.83339342  0.49627637  1
  I  I134  1  0.66622353  0.83614216  0.83396804  1
