# generated using pymatgen
data_Cs27Sn13Pb14I81
_symmetry_space_group_name_H-M   'P 1'
_cell_length_a   18.98548035
_cell_length_b   18.97783326
_cell_length_c   18.96900937
_cell_angle_alpha   89.99833893
_cell_angle_beta   90.00075758
_cell_angle_gamma   90.00034969
_symmetry_Int_Tables_number   1
_chemical_formula_structural   Cs27Sn13Pb14I81
_chemical_formula_sum   'Cs27 Sn13 Pb14 I81'
_cell_volume   6834.59629858
_cell_formula_units_Z   1
loop_
 _symmetry_equiv_pos_site_id
 _symmetry_equiv_pos_as_xyz
  1  'x, y, z'
loop_
 _atom_site_type_symbol
 _atom_site_label
 _atom_site_symmetry_multiplicity
 _atom_site_fract_x
 _atom_site_fract_y
 _atom_site_fract_z
 _atom_site_occupancy
  Cs  Cs0  1  0.00091846  0.00027268  -0.00079903  1
  Cs  Cs1  1  0.00098174  -0.00942088  0.33009938  1
  Cs  Cs2  1  -0.00142713  0.00110713  0.66790998  1
  Cs  Cs3  1  -0.00180962  0.33896844  0.00277085  1
  Cs  Cs4  1  0.00314643  0.33497799  0.33222210  1
  Cs  Cs5  1  -0.00103416  0.33245827  0.66668157  1
  Cs  Cs6  1  -0.00275674  0.66135920  0.00674638  1
  Cs  Cs7  1  -0.00295699  0.67272642  0.32798500  1
  Cs  Cs8  1  0.00279756  0.66670083  0.66584112  1
  Cs  Cs9  1  0.33471405  0.00103022  -0.00074476  1
  Cs  Cs10  1  0.33270772  -0.00101300  0.33435209  1
  Cs  Cs11  1  0.33299632  -0.00039954  0.66777770  1
  Cs  Cs12  1  0.33283284  0.33209161  0.00058429  1
  Cs  Cs13  1  0.33367719  0.33269620  0.33364144  1
  Cs  Cs14  1  0.33184676  0.33443974  0.66587938  1
  Cs  Cs15  1  0.33600335  0.66542677  -0.00344479  1
  Cs  Cs16  1  0.33388888  0.66792909  0.33597249  1
  Cs  Cs17  1  0.33231658  0.66639585  0.66760983  1
  Cs  Cs18  1  0.66547934  0.00074282  -0.00067425  1
  Cs  Cs19  1  0.66689144  0.00123112  0.33821904  1
  Cs  Cs20  1  0.66910499  0.00235150  0.66301600  1
  Cs  Cs21  1  0.66729957  0.33191770  -0.00053697  1
  Cs  Cs22  1  0.66510775  0.33260580  0.33433075  1
  Cs  Cs23  1  0.67180802  0.33190514  0.66638374  1
  Cs  Cs24  1  0.66562312  0.66663996  0.00044244  1
  Cs  Cs25  1  0.66801246  0.66660962  0.33249931  1
  Cs  Cs26  1  0.66563904  0.66585649  0.66744479  1
  Sn  Sn27  1  0.50012436  0.49970757  0.49950378  1
  Sn  Sn28  1  0.49999021  0.83390501  0.16623037  1
  Sn  Sn29  1  0.16736096  0.16633428  0.83271516  1
  Sn  Sn30  1  0.49978559  0.49975193  0.16739150  1
  Sn  Sn31  1  0.49950382  0.16602250  0.83358685  1
  Sn  Sn32  1  0.50092763  0.16633504  0.16620419  1
  Sn  Sn33  1  0.16666846  0.16687522  0.50045267  1
  Sn  Sn34  1  0.50023642  0.83453659  0.83382655  1
  Sn  Sn35  1  0.83356633  0.50006168  0.49996948  1
  Sn  Sn36  1  0.83283993  0.16652497  0.16678797  1
  Sn  Sn37  1  0.16644246  0.49946000  0.49991569  1
  Sn  Sn38  1  0.16653512  0.83383842  0.83357081  1
  Sn  Sn39  1  0.83317752  0.83316356  0.83339957  1
  Pb  Pb40  1  0.83060083  0.83552002  0.16446118  1
  Pb  Pb41  1  0.49839486  0.16856953  0.50034914  1
  Pb  Pb42  1  0.83325466  0.83117568  0.50222486  1
  Pb  Pb43  1  0.50007210  0.49931168  0.83333838  1
  Pb  Pb44  1  0.16673683  0.83361006  0.50210290  1
  Pb  Pb45  1  0.83653993  0.16819328  0.49733536  1
  Pb  Pb46  1  0.16942351  0.83327875  0.16337012  1
  Pb  Pb47  1  0.16663092  0.49949812  0.83169429  1
  Pb  Pb48  1  0.83358177  0.16521487  0.83494697  1
  Pb  Pb49  1  0.83074027  0.49805406  0.16882499  1
  Pb  Pb50  1  0.16928280  0.50022648  0.16947757  1
  Pb  Pb51  1  0.83335846  0.50251584  0.83147833  1
  Pb  Pb52  1  0.16706255  0.16660454  0.16628734  1
  Pb  Pb53  1  0.50009982  0.83111204  0.50052356  1
  I  I54  1  0.16799859  0.00014144  0.17321802  1
  I  I55  1  0.16815684  0.00303982  0.50219895  1
  I  I56  1  0.16860410  0.00062579  0.82718969  1
  I  I57  1  0.16891645  0.33321900  0.16215415  1
  I  I58  1  0.16786331  0.33343924  0.50621285  1
  I  I59  1  0.17302709  0.32976131  0.83110748  1
  I  I60  1  0.16773985  0.66676798  0.16662145  1
  I  I61  1  0.16819578  0.66362359  0.50192186  1
  I  I62  1  0.16951128  0.66974007  0.83136536  1
  I  I63  1  0.50308033  0.00056607  0.16023968  1
  I  I64  1  0.49769998  0.00022238  0.49751702  1
  I  I65  1  0.49835458  -0.00004117  0.84114040  1
  I  I66  1  0.50316139  0.33263773  0.16686692  1
  I  I67  1  0.50057548  0.33670265  0.49623518  1
  I  I68  1  0.49458703  0.32989678  0.83644940  1
  I  I69  1  0.49824028  0.66684846  0.16616081  1
  I  I70  1  0.49711952  0.66267585  0.49687910  1
  I  I71  1  0.49899292  0.66970708  0.83572677  1
  I  I72  1  0.82791948  0.00318345  0.16707198  1
  I  I73  1  0.83446643  0.00020716  0.49958712  1
  I  I74  1  0.83258934  -0.00285602  0.83385841  1
  I  I75  1  0.82747602  0.33033982  0.16488355  1
  I  I76  1  0.82995427  0.33631939  0.50069880  1
  I  I77  1  0.83272840  0.33307143  0.83359490  1
  I  I78  1  0.83241352  0.66675541  0.16677583  1
  I  I79  1  0.83486321  0.66278377  0.50021265  1
  I  I80  1  0.83171375  0.67084080  0.83283512  1
  I  I81  1  0.16914521  0.16095930  -0.00331292  1
  I  I82  1  0.16767251  0.17353331  0.33591789  1
  I  I83  1  0.17236854  0.16706974  0.66771696  1
  I  I84  1  0.16797205  0.49950873  0.00011752  1
  I  I85  1  0.16591955  0.49228615  0.33783872  1
  I  I86  1  0.17100978  0.49937328  0.66319949  1
  I  I87  1  0.16560500  0.84128623  -0.00478186  1
  I  I88  1  0.16780337  0.83364731  0.33318249  1
  I  I89  1  0.17113764  0.83369993  0.67045282  1
  I  I90  1  0.49776354  0.16804380  -0.00009800  1
  I  I91  1  0.50190365  0.16497195  0.33045169  1
  I  I92  1  0.49734731  0.16295857  0.66971963  1
  I  I93  1  0.50047910  0.50044184  0.00289589  1
  I  I94  1  0.49930008  0.49948663  0.33303326  1
  I  I95  1  0.49901735  0.50077657  0.66371916  1
  I  I96  1  0.49927523  0.83151000  -0.00072387  1
  I  I97  1  0.50034989  0.83566248  0.33022139  1
  I  I98  1  0.49921777  0.83608466  0.67057218  1
  I  I99  1  0.83184264  0.16639374  0.00275358  1
  I  I100  1  0.82519109  0.16762267  0.32983254  1
  I  I101  1  0.83095539  0.16687333  0.66662136  1
  I  I102  1  0.83229939  0.50005191  0.00048524  1
  I  I103  1  0.83545116  0.49945006  0.33682426  1
  I  I104  1  0.82942119  0.49902656  0.66303113  1
  I  I105  1  0.83536581  0.83343375  -0.00354420  1
  I  I106  1  0.83247437  0.83316911  0.33290293  1
  I  I107  1  0.82968974  0.83442593  0.67056898  1
  I  I108  1  -0.00225331  0.16768009  0.16678475  1
  I  I109  1  0.00415217  0.17321202  0.50636485  1
  I  I110  1  0.00296481  0.16219686  0.83031469  1
  I  I111  1  -0.00028988  0.49791064  0.16728606  1
  I  I112  1  0.00070658  0.49481406  0.50433055  1
  I  I113  1  0.00010147  0.49977048  0.83089543  1
  I  I114  1  -0.00028049  0.83465325  0.16593745  1
  I  I115  1  0.00012430  0.83090091  0.50184187  1
  I  I116  1  0.00080828  0.83811212  0.82907453  1
  I  I117  1  0.33694654  0.16710999  0.16537496  1
  I  I118  1  0.33059772  0.17286228  0.50013455  1
  I  I119  1  0.33401548  0.15964922  0.83490734  1
  I  I120  1  0.33781214  0.49676524  0.17111990  1
  I  I121  1  0.33344734  0.49645698  0.49622833  1
  I  I122  1  0.33357575  0.50447856  0.83075057  1
  I  I123  1  0.33785933  0.83632259  0.16230344  1
  I  I124  1  0.33348898  0.82989961  0.50142261  1
  I  I125  1  0.33415633  0.83716874  0.83671779  1
  I  I126  1  0.66418240  0.16759204  0.16081835  1
  I  I127  1  0.66669804  0.16902854  0.50251157  1
  I  I128  1  0.66361577  0.16321610  0.83586671  1
  I  I129  1  0.66259289  0.50217303  0.17231565  1
  I  I130  1  0.66586606  0.50153966  0.49595894  1
  I  I131  1  0.66636844  0.50014226  0.82952654  1
  I  I132  1  0.66256620  0.83018015  0.16018079  1
  I  I133  1  0.66646435  0.83131993  0.50318431  1
  I  I134  1  0.66503764  0.83586891  0.83734628  1
