# generated using pymatgen
data_Cs27Sn13Pb14I81
_symmetry_space_group_name_H-M   'P 1'
_cell_length_a   18.97294694
_cell_length_b   18.98584055
_cell_length_c   18.97284090
_cell_angle_alpha   90.00057101
_cell_angle_beta   89.99944293
_cell_angle_gamma   89.99954002
_symmetry_Int_Tables_number   1
_chemical_formula_structural   Cs27Sn13Pb14I81
_chemical_formula_sum   'Cs27 Sn13 Pb14 I81'
_cell_volume   6834.34638180
_cell_formula_units_Z   1
loop_
 _symmetry_equiv_pos_site_id
 _symmetry_equiv_pos_as_xyz
  1  'x, y, z'
loop_
 _atom_site_type_symbol
 _atom_site_label
 _atom_site_symmetry_multiplicity
 _atom_site_fract_x
 _atom_site_fract_y
 _atom_site_fract_z
 _atom_site_occupancy
  Cs  Cs0  1  -0.00164791  -0.00133421  -0.00120701  1
  Cs  Cs1  1  0.00312623  -0.00003396  0.33274916  1
  Cs  Cs2  1  0.00379046  -0.00502085  0.66796931  1
  Cs  Cs3  1  -0.00025962  0.33402535  -0.00150456  1
  Cs  Cs4  1  0.00085957  0.33301822  0.33175114  1
  Cs  Cs5  1  0.00037813  0.33393169  0.66946553  1
  Cs  Cs6  1  0.00049881  0.66674218  0.00028320  1
  Cs  Cs7  1  -0.00195791  0.66714138  0.33228855  1
  Cs  Cs8  1  0.00023461  0.67024234  0.66673570  1
  Cs  Cs9  1  0.34379472  -0.00144737  0.00040489  1
  Cs  Cs10  1  0.33127083  0.00263005  0.33391401  1
  Cs  Cs11  1  0.32896459  -0.00244158  0.66561644  1
  Cs  Cs12  1  0.33717806  0.33450003  0.00398576  1
  Cs  Cs13  1  0.32888498  0.33325542  0.32946464  1
  Cs  Cs14  1  0.33252411  0.33468506  0.66684057  1
  Cs  Cs15  1  0.34112775  0.66612571  0.00171105  1
  Cs  Cs16  1  0.33543756  0.66407651  0.33123531  1
  Cs  Cs17  1  0.33161685  0.66559637  0.66806210  1
  Cs  Cs18  1  0.66312879  -0.00037860  -0.00018797  1
  Cs  Cs19  1  0.66596569  0.00082734  0.33297226  1
  Cs  Cs20  1  0.66678683  0.00121110  0.66751417  1
  Cs  Cs21  1  0.66649481  0.33247024  -0.00274612  1
  Cs  Cs22  1  0.66937058  0.33258757  0.33714156  1
  Cs  Cs23  1  0.66643993  0.33302217  0.66577040  1
  Cs  Cs24  1  0.66125290  0.66785503  -0.00033709  1
  Cs  Cs25  1  0.66774602  0.66734510  0.33592285  1
  Cs  Cs26  1  0.66855842  0.66784226  0.66413640  1
  Sn  Sn27  1  0.83344012  0.49996091  0.16556476  1
  Sn  Sn28  1  0.49991563  0.83350973  0.50016339  1
  Sn  Sn29  1  0.83401018  0.83336356  0.16657843  1
  Sn  Sn30  1  0.16596228  0.49910335  0.83299572  1
  Sn  Sn31  1  0.50006267  0.16668143  0.50019358  1
  Sn  Sn32  1  0.83410894  0.49956759  0.83405548  1
  Sn  Sn33  1  0.83430166  0.16725905  0.83321151  1
  Sn  Sn34  1  0.83356143  0.16654995  0.50036206  1
  Sn  Sn35  1  0.16647602  0.83336694  0.16613209  1
  Sn  Sn36  1  0.16694813  0.49978197  0.50039478  1
  Sn  Sn37  1  0.16621290  0.16732640  0.83389597  1
  Sn  Sn38  1  0.49890449  0.49968648  0.50018747  1
  Sn  Sn39  1  0.83361057  0.16663328  0.16639992  1
  Pb  Pb40  1  0.83198912  0.83637562  0.49780387  1
  Pb  Pb41  1  0.16472607  0.50149207  0.16588970  1
  Pb  Pb42  1  0.50031019  0.83338082  0.16887894  1
  Pb  Pb43  1  0.16630424  0.16855758  0.50178047  1
  Pb  Pb44  1  0.16458973  0.16477114  0.16343667  1
  Pb  Pb45  1  0.16869290  0.83056594  0.49784292  1
  Pb  Pb46  1  0.16672554  0.83280732  0.83598218  1
  Pb  Pb47  1  0.50000222  0.16683822  0.83087587  1
  Pb  Pb48  1  0.50001325  0.83329007  0.83024310  1
  Pb  Pb49  1  0.50332281  0.49962757  0.16943540  1
  Pb  Pb50  1  0.83324128  0.83326380  0.83559798  1
  Pb  Pb51  1  0.83378710  0.49843729  0.50057526  1
  Pb  Pb52  1  0.50254352  0.16701560  0.16930393  1
  Pb  Pb53  1  0.50025953  0.49982956  0.83110910  1
  I  I54  1  0.16014739  -0.00285475  0.16745648  1
  I  I55  1  0.16773769  0.00008783  0.50093309  1
  I  I56  1  0.16093132  0.00288992  0.83314484  1
  I  I57  1  0.16538007  0.33337764  0.16936833  1
  I  I58  1  0.17144869  0.33645405  0.50034343  1
  I  I59  1  0.16094414  0.33407030  0.82855488  1
  I  I60  1  0.15926924  0.66913014  0.16709949  1
  I  I61  1  0.17030700  0.66264520  0.50591296  1
  I  I62  1  0.16151593  0.66300255  0.82904042  1
  I  I63  1  0.50173608  0.00009113  0.16925836  1
  I  I64  1  0.50691911  0.00075286  0.49927254  1
  I  I65  1  0.50042041  0.00034248  0.83137333  1
  I  I66  1  0.49996196  0.33336784  0.16968524  1
  I  I67  1  0.50240715  0.33319041  0.50085474  1
  I  I68  1  0.50104507  0.33334485  0.82986386  1
  I  I69  1  0.50274365  0.66655876  0.16981958  1
  I  I70  1  0.49576595  0.66600415  0.49912052  1
  I  I71  1  0.50025014  0.66628840  0.83100504  1
  I  I72  1  0.83682181  0.00062117  0.16809152  1
  I  I73  1  0.82805062  0.00465049  0.50102466  1
  I  I74  1  0.83683401  0.00359142  0.83278500  1
  I  I75  1  0.83208591  0.33299123  0.16697629  1
  I  I76  1  0.82761309  0.33043934  0.49559812  1
  I  I77  1  0.83662250  0.33297517  0.83750913  1
  I  I78  1  0.83733875  0.66629173  0.16353259  1
  I  I79  1  0.83135655  0.66658728  0.49924793  1
  I  I80  1  0.83738229  0.66317274  0.83639275  1
  I  I81  1  0.15997327  0.17377402  -0.00441624  1
  I  I82  1  0.16612822  0.16707210  0.33322110  1
  I  I83  1  0.16093474  0.16786198  0.66965688  1
  I  I84  1  0.16230084  0.49736335  -0.00321472  1
  I  I85  1  0.16962500  0.50177933  0.33555146  1
  I  I86  1  0.16503581  0.49673390  0.66715387  1
  I  I87  1  0.16007417  0.83189994  0.00355993  1
  I  I88  1  0.16117182  0.83251164  0.33027001  1
  I  I89  1  0.16887856  0.83454239  0.66667746  1
  I  I90  1  0.50053058  0.16549160  -0.00017067  1
  I  I91  1  0.50545382  0.16665040  0.33774553  1
  I  I92  1  0.50744695  0.16725882  0.66271655  1
  I  I93  1  0.49758047  0.50117468  -0.00001313  1
  I  I94  1  0.49552783  0.49989395  0.33780508  1
  I  I95  1  0.50178607  0.49958516  0.66274807  1
  I  I96  1  0.49977140  0.83325191  0.00043338  1
  I  I97  1  0.50151770  0.83305932  0.33674268  1
  I  I98  1  0.50048177  0.83335882  0.66197019  1
  I  I99  1  0.83883291  0.16747806  -0.00028541  1
  I  I100  1  0.82729235  0.16698264  0.33319299  1
  I  I101  1  0.83137054  0.17306967  0.66713248  1
  I  I102  1  0.83949206  0.49554870  -0.00048063  1
  I  I103  1  0.83246858  0.49912468  0.33121647  1
  I  I104  1  0.83328539  0.49427308  0.66934260  1
  I  I105  1  0.83666745  0.83727111  0.00390774  1
  I  I106  1  0.83591254  0.83148971  0.32962007  1
  I  I107  1  0.83097166  0.83283605  0.66647396  1
  I  I108  1  -0.00416494  0.16874739  0.17291405  1
  I  I109  1  -0.00304868  0.16967652  0.49745846  1
  I  I110  1  -0.00163764  0.17125090  0.83125542  1
  I  I111  1  -0.00364311  0.49791870  0.16901951  1
  I  I112  1  0.00224668  0.49756171  0.50052581  1
  I  I113  1  -0.00044227  0.49543684  0.83099835  1
  I  I114  1  -0.00164005  0.83333072  0.16766681  1
  I  I115  1  0.00008665  0.83305003  0.50033554  1
  I  I116  1  -0.00008199  0.83371647  0.83015871  1
  I  I117  1  0.33305264  0.16387413  0.16696003  1
  I  I118  1  0.33581556  0.16500438  0.50252355  1
  I  I119  1  0.33021462  0.17061310  0.83058968  1
  I  I120  1  0.33325949  0.50349698  0.16504651  1
  I  I121  1  0.33332785  0.49878684  0.50554475  1
  I  I122  1  0.33005162  0.49631550  0.82995095  1
  I  I123  1  0.33090278  0.83197920  0.16781417  1
  I  I124  1  0.33666567  0.83924158  0.49722404  1
  I  I125  1  0.33304580  0.83411384  0.83703419  1
  I  I126  1  0.67152473  0.16377147  0.16185722  1
  I  I127  1  0.66736730  0.16913795  0.50057384  1
  I  I128  1  0.67039647  0.17066308  0.83501787  1
  I  I129  1  0.67174032  0.50213457  0.16218497  1
  I  I130  1  0.66465324  0.50101199  0.49877744  1
  I  I131  1  0.67024704  0.49542733  0.83621292  1
  I  I132  1  0.67002668  0.83396817  0.16807359  1
  I  I133  1  0.66391073  0.82761095  0.49752891  1
  I  I134  1  0.66698548  0.83324056  0.83608715  1
