# generated using pymatgen
data_Cs27Sn14Pb13I81
_symmetry_space_group_name_H-M   'P 1'
_cell_length_a   18.97254350
_cell_length_b   18.97883366
_cell_length_c   18.97353008
_cell_angle_alpha   89.99772767
_cell_angle_beta   90.00085842
_cell_angle_gamma   90.00063433
_symmetry_Int_Tables_number   1
_chemical_formula_structural   Cs27Sn14Pb13I81
_chemical_formula_sum   'Cs27 Sn14 Pb13 I81'
_cell_volume   6831.92698718
_cell_formula_units_Z   1
loop_
 _symmetry_equiv_pos_site_id
 _symmetry_equiv_pos_as_xyz
  1  'x, y, z'
loop_
 _atom_site_type_symbol
 _atom_site_label
 _atom_site_symmetry_multiplicity
 _atom_site_fract_x
 _atom_site_fract_y
 _atom_site_fract_z
 _atom_site_occupancy
  Cs  Cs0  1  0.00239056  -0.00566513  -0.00328688  1
  Cs  Cs1  1  0.00259538  0.00519357  0.33531335  1
  Cs  Cs2  1  -0.00305740  -0.00073024  0.66799005  1
  Cs  Cs3  1  0.00025039  0.33825451  0.00452605  1
  Cs  Cs4  1  0.00996308  0.33030562  0.33134469  1
  Cs  Cs5  1  -0.00199103  0.32975292  0.66424357  1
  Cs  Cs6  1  -0.00997908  0.66727565  -0.00133455  1
  Cs  Cs7  1  -0.00014589  0.66357439  0.33266513  1
  Cs  Cs8  1  -0.00009428  0.66967394  0.66891343  1
  Cs  Cs9  1  0.33244381  0.00023380  -0.00104120  1
  Cs  Cs10  1  0.33340792  -0.00090790  0.33155189  1
  Cs  Cs11  1  0.33460864  -0.00316229  0.66971351  1
  Cs  Cs12  1  0.33351752  0.33205479  -0.00096607  1
  Cs  Cs13  1  0.32892103  0.33313415  0.33215915  1
  Cs  Cs14  1  0.33429985  0.33570650  0.66895129  1
  Cs  Cs15  1  0.33445806  0.66784323  -0.00410823  1
  Cs  Cs16  1  0.33473433  0.66700627  0.33449469  1
  Cs  Cs17  1  0.33306999  0.66622660  0.66655158  1
  Cs  Cs18  1  0.66881900  0.00215383  0.00362394  1
  Cs  Cs19  1  0.66632519  -0.00074539  0.33255017  1
  Cs  Cs20  1  0.66640072  0.00588935  0.66556434  1
  Cs  Cs21  1  0.66757988  0.33252988  -0.00210754  1
  Cs  Cs22  1  0.66519120  0.33216121  0.33359929  1
  Cs  Cs23  1  0.66650686  0.33156624  0.66805287  1
  Cs  Cs24  1  0.67346289  0.66638964  0.00473824  1
  Cs  Cs25  1  0.66525218  0.66812239  0.33431431  1
  Cs  Cs26  1  0.66347640  0.66461051  0.66241115  1
  Sn  Sn27  1  0.50005190  0.83358913  0.50077978  1
  Sn  Sn28  1  0.83305072  0.83271025  0.49978150  1
  Sn  Sn29  1  0.50041234  0.49956504  0.49982847  1
  Sn  Sn30  1  0.16667925  0.16792864  0.83307526  1
  Sn  Sn31  1  0.49950212  0.16694612  0.49913141  1
  Sn  Sn32  1  0.83301045  0.16680965  0.16684235  1
  Sn  Sn33  1  0.16674408  0.83323436  0.49900673  1
  Sn  Sn34  1  0.83294229  0.50019695  0.49976229  1
  Sn  Sn35  1  0.16694605  0.49915181  0.83321392  1
  Sn  Sn36  1  0.49971596  0.49936515  0.16664463  1
  Sn  Sn37  1  0.16685006  0.83258721  0.16736470  1
  Sn  Sn38  1  0.50057780  0.16745525  0.16738536  1
  Sn  Sn39  1  0.50043852  0.83249085  0.83299038  1
  Sn  Sn40  1  0.49965932  0.50115987  0.83363609  1
  Pb  Pb41  1  0.16679916  0.50196720  0.50190425  1
  Pb  Pb42  1  0.16910736  0.50270225  0.16403021  1
  Pb  Pb43  1  0.83266833  0.49993853  0.83076563  1
  Pb  Pb44  1  0.83646657  0.16690800  0.83622116  1
  Pb  Pb45  1  0.83134540  0.16708703  0.49830554  1
  Pb  Pb46  1  0.49912882  0.16690626  0.83369397  1
  Pb  Pb47  1  0.49906323  0.83332127  0.16665399  1
  Pb  Pb48  1  0.16735482  0.16504701  0.16468984  1
  Pb  Pb49  1  0.83604099  0.83531866  0.16966255  1
  Pb  Pb50  1  0.82925701  0.83331407  0.83060153  1
  Pb  Pb51  1  0.16811310  0.83252767  0.83302883  1
  Pb  Pb52  1  0.83092522  0.49794326  0.16988176  1
  Pb  Pb53  1  0.16959743  0.16421276  0.50229767  1
  I  I54  1  0.16996160  -0.00264953  0.16834369  1
  I  I55  1  0.16674992  -0.00389073  0.49887742  1
  I  I56  1  0.16960844  0.00117328  0.83397833  1
  I  I57  1  0.16502070  0.33358081  0.16666120  1
  I  I58  1  0.16607281  0.33331269  0.49962414  1
  I  I59  1  0.17510637  0.33424757  0.83369395  1
  I  I60  1  0.16999639  0.67015209  0.17045797  1
  I  I61  1  0.17235630  0.67006467  0.49935129  1
  I  I62  1  0.17173577  0.66420304  0.83206371  1
  I  I63  1  0.50143955  0.00245359  0.16975082  1
  I  I64  1  0.49962693  -0.00098432  0.50054700  1
  I  I65  1  0.49663074  -0.00219593  0.82906668  1
  I  I66  1  0.50272365  0.33330374  0.16968412  1
  I  I67  1  0.50553095  0.33431401  0.50079452  1
  I  I68  1  0.49749225  0.33626625  0.83045760  1
  I  I69  1  0.49670514  0.66412101  0.16883040  1
  I  I70  1  0.50020939  0.66679171  0.50086177  1
  I  I71  1  0.49244658  0.66574652  0.82912209  1
  I  I72  1  0.82476706  0.00286982  0.16871649  1
  I  I73  1  0.83214373  -0.00266842  0.49877966  1
  I  I74  1  0.83431854  -0.00004668  0.83051827  1
  I  I75  1  0.83199438  0.33029164  0.16858372  1
  I  I76  1  0.82658259  0.33600732  0.50049589  1
  I  I77  1  0.82846375  0.33344495  0.82934454  1
  I  I78  1  0.83333377  0.66653995  0.16533331  1
  I  I79  1  0.82723023  0.66715278  0.49994791  1
  I  I80  1  0.83951213  0.66670532  0.83706872  1
  I  I81  1  0.17052415  0.16681995  -0.00283449  1
  I  I82  1  0.16545887  0.16623102  0.33344253  1
  I  I83  1  0.16970496  0.16844712  0.66974644  1
  I  I84  1  0.17381416  0.49797848  -0.00373139  1
  I  I85  1  0.16715975  0.49972076  0.33336829  1
  I  I86  1  0.17420555  0.49928717  0.66966045  1
  I  I87  1  0.17132979  0.83549400  0.00155336  1
  I  I88  1  0.17077449  0.83454937  0.33478472  1
  I  I89  1  0.16660811  0.83334913  0.66389569  1
  I  I90  1  0.50141036  0.16892020  0.00268476  1
  I  I91  1  0.50296316  0.16821745  0.33360832  1
  I  I92  1  0.49808973  0.16726665  0.66405540  1
  I  I93  1  0.49364502  0.49960209  -0.00043457  1
  I  I94  1  0.50482651  0.50067863  0.33437494  1
  I  I95  1  0.49959407  0.50120238  0.66595180  1
  I  I96  1  0.49427769  0.83123258  -0.00228191  1
  I  I97  1  0.50107535  0.83133625  0.33663185  1
  I  I98  1  0.49669664  0.83086355  0.66491506  1
  I  I99  1  0.82376842  0.16654414  0.00384427  1
  I  I100  1  0.83089699  0.16553342  0.33067678  1
  I  I101  1  0.83271338  0.16590951  0.66629074  1
  I  I102  1  0.83296005  0.49872288  0.00034207  1
  I  I103  1  0.82672928  0.50538360  0.33754021  1
  I  I104  1  0.82681790  0.50360356  0.66285749  1
  I  I105  1  0.83488793  0.83480666  0.00026362  1
  I  I106  1  0.82574067  0.82987704  0.33752457  1
  I  I107  1  0.83969485  0.83076899  0.66230541  1
  I  I108  1  -0.00184320  0.16359270  0.16567264  1
  I  I109  1  0.00019082  0.16646288  0.49901228  1
  I  I110  1  0.00435643  0.17088244  0.83353583  1
  I  I111  1  0.00003763  0.49878449  0.16660377  1
  I  I112  1  -0.00233205  0.50549213  0.50254414  1
  I  I113  1  0.00268449  0.49614944  0.83148282  1
  I  I114  1  0.00376639  0.83589963  0.16992774  1
  I  I115  1  0.00004690  0.82846258  0.49504632  1
  I  I116  1  -0.00010836  0.83406622  0.83286233  1
  I  I117  1  0.33647597  0.16897937  0.16956195  1
  I  I118  1  0.33788645  0.16788868  0.49353340  1
  I  I119  1  0.33149802  0.16679629  0.83490906  1
  I  I120  1  0.33745196  0.49383656  0.17263754  1
  I  I121  1  0.33694155  0.50112667  0.49905963  1
  I  I122  1  0.33526554  0.50017037  0.83050057  1
  I  I123  1  0.33145780  0.83568807  0.17218088  1
  I  I124  1  0.33478169  0.83342405  0.50043451  1
  I  I125  1  0.33613847  0.83207124  0.82724084  1
  I  I126  1  0.66454565  0.16885508  0.17041167  1
  I  I127  1  0.66279334  0.16217488  0.49971195  1
  I  I128  1  0.66650751  0.16597039  0.83154303  1
  I  I129  1  0.66238927  0.50031586  0.16172569  1
  I  I130  1  0.66423243  0.50508334  0.50154086  1
  I  I131  1  0.66269766  0.50427119  0.83442216  1
  I  I132  1  0.66670356  0.83233401  0.16604480  1
  I  I133  1  0.66515052  0.83230482  0.50496963  1
  I  I134  1  0.66130062  0.82743065  0.82928429  1
