# generated using pymatgen
data_Cs27Sn13Pb14I81
_symmetry_space_group_name_H-M   'P 1'
_cell_length_a   18.98189491
_cell_length_b   18.99473398
_cell_length_c   18.99760627
_cell_angle_alpha   89.99937299
_cell_angle_beta   90.00114932
_cell_angle_gamma   90.00137225
_symmetry_Int_Tables_number   1
_chemical_formula_structural   Cs27Sn13Pb14I81
_chemical_formula_sum   'Cs27 Sn13 Pb14 I81'
_cell_volume   6849.70176043
_cell_formula_units_Z   1
loop_
 _symmetry_equiv_pos_site_id
 _symmetry_equiv_pos_as_xyz
  1  'x, y, z'
loop_
 _atom_site_type_symbol
 _atom_site_label
 _atom_site_symmetry_multiplicity
 _atom_site_fract_x
 _atom_site_fract_y
 _atom_site_fract_z
 _atom_site_occupancy
  Cs  Cs0  1  -0.00196999  -0.00212741  0.00073433  1
  Cs  Cs1  1  -0.00037100  -0.00064847  0.33182036  1
  Cs  Cs2  1  0.00015987  -0.00642809  0.66964137  1
  Cs  Cs3  1  -0.00018494  0.33353765  0.00083383  1
  Cs  Cs4  1  -0.00015046  0.33175454  0.33414983  1
  Cs  Cs5  1  -0.00018366  0.33562126  0.66471441  1
  Cs  Cs6  1  -0.00097212  0.66865962  -0.00340340  1
  Cs  Cs7  1  0.00058001  0.66950945  0.33331265  1
  Cs  Cs8  1  -0.00095960  0.67001007  0.67136578  1
  Cs  Cs9  1  0.33454856  0.00092742  0.00183229  1
  Cs  Cs10  1  0.33321051  -0.00159502  0.33136833  1
  Cs  Cs11  1  0.33534906  -0.00064669  0.66403818  1
  Cs  Cs12  1  0.33251212  0.33345023  -0.00124654  1
  Cs  Cs13  1  0.33118115  0.33532020  0.33246113  1
  Cs  Cs14  1  0.33282660  0.33161128  0.66982011  1
  Cs  Cs15  1  0.33497338  0.66522725  -0.00000458  1
  Cs  Cs16  1  0.33587333  0.66661188  0.33398449  1
  Cs  Cs17  1  0.33311692  0.66899003  0.66677028  1
  Cs  Cs18  1  0.66416710  0.00024833  -0.00140747  1
  Cs  Cs19  1  0.66883605  -0.00094656  0.33430230  1
  Cs  Cs20  1  0.66325672  0.01105070  0.66688115  1
  Cs  Cs21  1  0.67525353  0.33339242  0.00009812  1
  Cs  Cs22  1  0.67565991  0.34188195  0.34036952  1
  Cs  Cs23  1  0.67307741  0.32384701  0.65978219  1
  Cs  Cs24  1  0.66449310  0.66562061  0.00064256  1
  Cs  Cs25  1  0.66467851  0.66218630  0.33536828  1
  Cs  Cs26  1  0.66824902  0.66364094  0.66578148  1
  Sn  Sn27  1  0.16693281  0.50000255  0.16653976  1
  Sn  Sn28  1  0.16693832  0.16690567  0.49999654  1
  Sn  Sn29  1  0.49975660  0.16713974  0.16719614  1
  Sn  Sn30  1  0.49977117  0.83266406  0.83375009  1
  Sn  Sn31  1  0.16751446  0.16674099  0.16648150  1
  Sn  Sn32  1  0.83277009  0.83316851  0.16729876  1
  Sn  Sn33  1  0.16751683  0.49938380  0.83338361  1
  Sn  Sn34  1  0.16691599  0.16704428  0.83355223  1
  Sn  Sn35  1  0.50014019  0.83395842  0.16611827  1
  Sn  Sn36  1  0.16708087  0.49978364  0.50021390  1
  Sn  Sn37  1  0.49965046  0.49986820  0.83317125  1
  Sn  Sn38  1  0.16693422  0.83318701  0.16648796  1
  Sn  Sn39  1  0.83302812  0.83347293  0.49965352  1
  Pb  Pb40  1  0.49751240  0.49978130  0.50332713  1
  Pb  Pb41  1  0.50246980  0.83336601  0.49974498  1
  Pb  Pb42  1  0.83620374  0.50288783  0.16653911  1
  Pb  Pb43  1  0.16877054  0.83333975  0.83569753  1
  Pb  Pb44  1  0.49838796  0.49926185  0.16512400  1
  Pb  Pb45  1  0.82961852  0.83336885  0.83353018  1
  Pb  Pb46  1  0.83310387  0.16463286  0.16673117  1
  Pb  Pb47  1  0.83673348  0.16656834  0.83353000  1
  Pb  Pb48  1  0.49748635  0.16688574  0.49624557  1
  Pb  Pb49  1  0.83660881  0.16407144  0.49973481  1
  Pb  Pb50  1  0.49809497  0.16740456  0.83559540  1
  Pb  Pb51  1  0.83641174  0.50251208  0.50014015  1
  Pb  Pb52  1  0.83313038  0.49995082  0.83320774  1
  Pb  Pb53  1  0.16551978  0.83330009  0.49773582  1
  I  I54  1  0.16672277  0.00005229  0.16701651  1
  I  I55  1  0.16463106  0.00268645  0.49971518  1
  I  I56  1  0.16743814  0.00254887  0.83320065  1
  I  I57  1  0.17207409  0.33283214  0.16654088  1
  I  I58  1  0.16728046  0.33336113  0.49518215  1
  I  I59  1  0.17232010  0.33402926  0.83766377  1
  I  I60  1  0.16586691  0.66688031  0.16695919  1
  I  I61  1  0.16452906  0.66396526  0.50005541  1
  I  I62  1  0.16794639  0.66390379  0.83319055  1
  I  I63  1  0.49382572  -0.00140518  0.16082665  1
  I  I64  1  0.49709646  0.00003838  0.50535753  1
  I  I65  1  0.49929197  -0.00223012  0.83651571  1
  I  I66  1  0.49059382  0.33050216  0.16450938  1
  I  I67  1  0.50220432  0.33327601  0.49967172  1
  I  I68  1  0.49376135  0.33607421  0.83537012  1
  I  I69  1  0.49862728  0.66961562  0.16434461  1
  I  I70  1  0.49699226  0.66668080  0.49570166  1
  I  I71  1  0.49302389  0.66692741  0.84006405  1
  I  I72  1  0.83961943  -0.00367937  0.16999957  1
  I  I73  1  0.83618762  -0.00339129  0.49403462  1
  I  I74  1  0.83499761  -0.00041702  0.83341336  1
  I  I75  1  0.83301323  0.33343909  0.16582593  1
  I  I76  1  0.83169083  0.33328206  0.50097640  1
  I  I77  1  0.82844788  0.33333240  0.83339195  1
  I  I78  1  0.83313492  0.67116587  0.17016750  1
  I  I79  1  0.83587468  0.67002164  0.49418824  1
  I  I80  1  0.84012231  0.66696827  0.83349814  1
  I  I81  1  0.17037882  0.16916689  0.00095574  1
  I  I82  1  0.16968997  0.16889157  0.33221359  1
  I  I83  1  0.16534377  0.17453202  0.66685536  1
  I  I84  1  0.17021628  0.49771356  0.00003328  1
  I  I85  1  0.16526482  0.49758454  0.33263952  1
  I  I86  1  0.16992336  0.49253050  0.66724480  1
  I  I87  1  0.16193882  0.83358691  0.00402884  1
  I  I88  1  0.17072479  0.83337091  0.32925268  1
  I  I89  1  0.16523215  0.83380481  0.66681119  1
  I  I90  1  0.49126176  0.16279633  0.00331934  1
  I  I91  1  0.49183269  0.15712442  0.32832200  1
  I  I92  1  0.49841978  0.16456781  0.66678391  1
  I  I93  1  0.49095455  0.50315822  -0.00269330  1
  I  I94  1  0.49770622  0.50174034  0.33327162  1
  I  I95  1  0.49227087  0.50883467  0.67137977  1
  I  I96  1  0.50058139  0.83324453  0.00161090  1
  I  I97  1  0.49680844  0.83751434  0.32956043  1
  I  I98  1  0.49956473  0.82851403  0.66961009  1
  I  I99  1  0.83642862  0.16402720  0.00035848  1
  I  I100  1  0.83628732  0.16682834  0.33317331  1
  I  I101  1  0.83306769  0.16269892  0.66647098  1
  I  I102  1  0.83718572  0.50243484  0.00006064  1
  I  I103  1  0.83434479  0.49908551  0.33323153  1
  I  I104  1  0.83681574  0.50521337  0.66657744  1
  I  I105  1  0.83717091  0.83366894  0.00327755  1
  I  I106  1  0.83428997  0.83422410  0.33152692  1
  I  I107  1  0.83637243  0.83208822  0.66428643  1
  I  I108  1  0.00406462  0.16625904  0.16671172  1
  I  I109  1  0.00490644  0.17159038  0.49602825  1
  I  I110  1  0.00572505  0.17231913  0.83724962  1
  I  I111  1  0.00541959  0.49815638  0.16394988  1
  I  I112  1  0.00488108  0.49522954  0.50151885  1
  I  I113  1  0.00422182  0.49607649  0.83357774  1
  I  I114  1  0.00109978  0.83312869  0.17136299  1
  I  I115  1  -0.00213739  0.83365751  0.49327264  1
  I  I116  1  0.00007829  0.83342509  0.83450187  1
  I  I117  1  0.33110365  0.16040689  0.16659203  1
  I  I118  1  0.32889319  0.16839400  0.50213217  1
  I  I119  1  0.32958992  0.16815673  0.83245068  1
  I  I120  1  0.32928529  0.50471530  0.16836092  1
  I  I121  1  0.32881642  0.49838626  0.49626151  1
  I  I122  1  0.33141313  0.50078123  0.83412196  1
  I  I123  1  0.33296489  0.83456760  0.16234115  1
  I  I124  1  0.33328635  0.83336885  0.49903233  1
  I  I125  1  0.33626433  0.83205285  0.83936359  1
  I  I126  1  0.66331978  0.15956938  0.16347531  1
  I  I127  1  0.66680802  0.16546919  0.50001380  1
  I  I128  1  0.66612500  0.16629369  0.83532394  1
  I  I129  1  0.66656383  0.49962483  0.16396627  1
  I  I130  1  0.66684298  0.50132851  0.50061681  1
  I  I131  1  0.66314975  0.50770760  0.83663603  1
  I  I132  1  0.66558835  0.83957415  0.16582298  1
  I  I133  1  0.67008028  0.83230128  0.49263150  1
  I  I134  1  0.66204107  0.82669489  0.84040093  1
