# generated using pymatgen
data_Cs27Sn14Pb13I81
_symmetry_space_group_name_H-M   'P 1'
_cell_length_a   18.97752996
_cell_length_b   18.97889459
_cell_length_c   18.97127463
_cell_angle_alpha   90.00052558
_cell_angle_beta   90.00030160
_cell_angle_gamma   90.00010183
_symmetry_Int_Tables_number   1
_chemical_formula_structural   Cs27Sn14Pb13I81
_chemical_formula_sum   'Cs27 Sn14 Pb13 I81'
_cell_volume   6832.93218563
_cell_formula_units_Z   1
loop_
 _symmetry_equiv_pos_site_id
 _symmetry_equiv_pos_as_xyz
  1  'x, y, z'
loop_
 _atom_site_type_symbol
 _atom_site_label
 _atom_site_symmetry_multiplicity
 _atom_site_fract_x
 _atom_site_fract_y
 _atom_site_fract_z
 _atom_site_occupancy
  Cs  Cs0  1  0.00049163  0.00196775  0.00020734  1
  Cs  Cs1  1  0.00257393  -0.00112853  0.33391267  1
  Cs  Cs2  1  0.00369353  0.00135554  0.66560398  1
  Cs  Cs3  1  -0.00099560  0.33165576  -0.00002361  1
  Cs  Cs4  1  -0.00121190  0.33242018  0.33196287  1
  Cs  Cs5  1  -0.00163825  0.34027021  0.66736537  1
  Cs  Cs6  1  -0.00364757  0.66580295  -0.00112742  1
  Cs  Cs7  1  -0.00011022  0.66937966  0.33227629  1
  Cs  Cs8  1  -0.00280361  0.65491620  0.66916998  1
  Cs  Cs9  1  0.33273101  0.00138722  -0.00092441  1
  Cs  Cs10  1  0.32960816  -0.00018731  0.33323938  1
  Cs  Cs11  1  0.33236748  -0.00166295  0.66775043  1
  Cs  Cs12  1  0.33605823  0.33189429  0.00140658  1
  Cs  Cs13  1  0.33520748  0.33509064  0.33050415  1
  Cs  Cs14  1  0.33294790  0.33526191  0.66669453  1
  Cs  Cs15  1  0.33463022  0.66549392  0.00125590  1
  Cs  Cs16  1  0.33284019  0.66533256  0.33164831  1
  Cs  Cs17  1  0.33233204  0.66744118  0.66312953  1
  Cs  Cs18  1  0.66618192  0.00040107  -0.00098416  1
  Cs  Cs19  1  0.67045263  0.00011304  0.33980711  1
  Cs  Cs20  1  0.66602503  -0.00438991  0.66000251  1
  Cs  Cs21  1  0.66388354  0.33248323  0.00149058  1
  Cs  Cs22  1  0.66565140  0.33238171  0.33592940  1
  Cs  Cs23  1  0.66853099  0.33124274  0.65943106  1
  Cs  Cs24  1  0.66669054  0.66766164  0.00018403  1
  Cs  Cs25  1  0.66830524  0.66825222  0.33450952  1
  Cs  Cs26  1  0.67313686  0.67502549  0.66171691  1
  Sn  Sn27  1  0.50112371  0.16597387  0.16621799  1
  Sn  Sn28  1  0.16658771  0.83334946  0.83348604  1
  Sn  Sn29  1  0.50039680  0.49968119  0.83349931  1
  Sn  Sn30  1  0.16664800  0.83365552  0.50041081  1
  Sn  Sn31  1  0.83289458  0.49893321  0.16615135  1
  Sn  Sn32  1  0.16647692  0.50091640  0.16606900  1
  Sn  Sn33  1  0.16747710  0.83237830  0.16597670  1
  Sn  Sn34  1  0.16711532  0.16672353  0.50136744  1
  Sn  Sn35  1  0.50057641  0.16736010  0.83375461  1
  Sn  Sn36  1  0.16670812  0.16637438  0.83229082  1
  Sn  Sn37  1  0.50041078  0.50010482  0.16589235  1
  Sn  Sn38  1  0.83210336  0.16719678  0.16575764  1
  Sn  Sn39  1  0.83279493  0.16645293  0.83388929  1
  Sn  Sn40  1  0.49936995  0.83386112  0.16643127  1
  Pb  Pb41  1  0.50005787  0.50004791  0.50048491  1
  Pb  Pb42  1  0.16860369  0.49960378  0.83578781  1
  Pb  Pb43  1  0.16677312  0.16657252  0.16612833  1
  Pb  Pb44  1  0.82973639  0.49751937  0.83553308  1
  Pb  Pb45  1  0.83324140  0.83397616  0.16647925  1
  Pb  Pb46  1  0.16680881  0.49991744  0.49726353  1
  Pb  Pb47  1  0.83316367  0.49981751  0.49694754  1
  Pb  Pb48  1  0.83698301  0.83340395  0.50017837  1
  Pb  Pb49  1  0.83619683  0.83606935  0.83353179  1
  Pb  Pb50  1  0.49746466  0.83339180  0.49698184  1
  Pb  Pb51  1  0.49732085  0.16670516  0.50027450  1
  Pb  Pb52  1  0.49822316  0.83341367  0.83508346  1
  Pb  Pb53  1  0.83619673  0.16673250  0.50004660  1
  I  I54  1  0.16948960  -0.00238214  0.16712975  1
  I  I55  1  0.16703670  -0.00016391  0.49707602  1
  I  I56  1  0.16855131  0.00105121  0.83557691  1
  I  I57  1  0.16896557  0.33530054  0.16676795  1
  I  I58  1  0.16637412  0.33047104  0.50350040  1
  I  I59  1  0.16513665  0.32995687  0.83067116  1
  I  I60  1  0.17007239  0.66746684  0.16763442  1
  I  I61  1  0.16766007  0.66983208  0.50097851  1
  I  I62  1  0.16972262  0.66914530  0.83190160  1
  I  I63  1  0.49773101  0.00085651  0.16219184  1
  I  I64  1  0.50073715  0.00011846  0.49890407  1
  I  I65  1  0.50006939  0.00338217  0.83899527  1
  I  I66  1  0.49877238  0.33318161  0.16320302  1
  I  I67  1  0.49598687  0.33312311  0.49433853  1
  I  I68  1  0.49599442  0.33180071  0.84324900  1
  I  I69  1  0.49790883  0.66602022  0.16315088  1
  I  I70  1  0.49599261  0.66680059  0.49983910  1
  I  I71  1  0.49568013  0.66415083  0.84051458  1
  I  I72  1  0.83151081  0.00349732  0.16300021  1
  I  I73  1  0.83191167  0.00037263  0.49588197  1
  I  I74  1  0.82913778  0.00465699  0.84201765  1
  I  I75  1  0.83237766  0.33271268  0.16302277  1
  I  I76  1  0.83744324  0.33295023  0.50075344  1
  I  I77  1  0.84103373  0.32940092  0.83617718  1
  I  I78  1  0.83206924  0.66393023  0.16792447  1
  I  I79  1  0.83543582  0.66663255  0.49836181  1
  I  I80  1  0.83440656  0.66631704  0.83437253  1
  I  I81  1  0.16676549  0.16367843  -0.00258200  1
  I  I82  1  0.16651313  0.16369367  0.33453452  1
  I  I83  1  0.16749068  0.15792694  0.66821946  1
  I  I84  1  0.16591988  0.50331019  0.00408194  1
  I  I85  1  0.16954744  0.50247236  0.32866624  1
  I  I86  1  0.16866704  0.50257991  0.66703172  1
  I  I87  1  0.17062498  0.83517726  0.00064580  1
  I  I88  1  0.17054615  0.83436648  0.33239142  1
  I  I89  1  0.16685791  0.84146376  0.66711796  1
  I  I90  1  0.49722254  0.16755302  0.00073901  1
  I  I91  1  0.50242885  0.16805911  0.32965282  1
  I  I92  1  0.50185469  0.17200201  0.67048423  1
  I  I93  1  0.49845930  0.49822756  0.00206898  1
  I  I94  1  0.49898172  0.49889593  0.32890890  1
  I  I95  1  0.49664994  0.49235970  0.67039511  1
  I  I96  1  0.49260459  0.83357383  0.00363657  1
  I  I97  1  0.49415768  0.83270001  0.32818202  1
  I  I98  1  0.49818873  0.83342328  0.66681124  1
  I  I99  1  0.83614749  0.16996289  0.00074692  1
  I  I100  1  0.83006569  0.17068105  0.32988565  1
  I  I101  1  0.83087250  0.16544066  0.67004308  1
  I  I102  1  0.83657631  0.49842458  0.00389855  1
  I  I103  1  0.83156228  0.49299928  0.32795373  1
  I  I104  1  0.83360643  0.49871311  0.66725651  1
  I  I105  1  0.83810754  0.83208689  0.00030525  1
  I  I106  1  0.83540670  0.83506572  0.33282680  1
  I  I107  1  0.83196697  0.83558383  0.66689292  1
  I  I108  1  -0.00182807  0.16982261  0.16440256  1
  I  I109  1  0.00412083  0.16126586  0.50113184  1
  I  I110  1  0.00060308  0.16079590  0.83521374  1
  I  I111  1  0.00019860  0.49937788  0.16805557  1
  I  I112  1  0.00032657  0.50002659  0.49865624  1
  I  I113  1  -0.00016940  0.49989905  0.83518875  1
  I  I114  1  0.00355932  0.83087024  0.16791933  1
  I  I115  1  0.00527532  0.83957177  0.49387673  1
  I  I116  1  0.00500084  0.83877813  0.83754749  1
  I  I117  1  0.33575529  0.16888138  0.16439858  1
  I  I118  1  0.32942008  0.16202975  0.50202796  1
  I  I119  1  0.33335502  0.16605040  0.83498590  1
  I  I120  1  0.33400742  0.50001283  0.16433656  1
  I  I121  1  0.33310062  0.49944467  0.49574530  1
  I  I122  1  0.33620604  0.49375054  0.84151502  1
  I  I123  1  0.33233097  0.83089093  0.16694702  1
  I  I124  1  0.32921853  0.83808641  0.50138820  1
  I  I125  1  0.32980741  0.84005611  0.83308276  1
  I  I126  1  0.66585695  0.16965799  0.15916749  1
  I  I127  1  0.66668722  0.16741073  0.50107913  1
  I  I128  1  0.66582227  0.17254984  0.84148294  1
  I  I129  1  0.66569485  0.49929557  0.16275728  1
  I  I130  1  0.66662971  0.49863314  0.49755080  1
  I  I131  1  0.66200616  0.49510245  0.84183627  1
  I  I132  1  0.66351777  0.83067153  0.16491846  1
  I  I133  1  0.66662403  0.83268451  0.49829502  1
  I  I134  1  0.66648482  0.83338390  0.83650825  1
