# generated using pymatgen
data_Cs27Sn13Pb14I81
_symmetry_space_group_name_H-M   'P 1'
_cell_length_a   18.97166064
_cell_length_b   18.97645710
_cell_length_c   18.98296603
_cell_angle_alpha   89.99951423
_cell_angle_beta   89.99917646
_cell_angle_gamma   89.99772677
_symmetry_Int_Tables_number   1
_chemical_formula_structural   Cs27Sn13Pb14I81
_chemical_formula_sum   'Cs27 Sn13 Pb14 I81'
_cell_volume   6834.15068903
_cell_formula_units_Z   1
loop_
 _symmetry_equiv_pos_site_id
 _symmetry_equiv_pos_as_xyz
  1  'x, y, z'
loop_
 _atom_site_type_symbol
 _atom_site_label
 _atom_site_symmetry_multiplicity
 _atom_site_fract_x
 _atom_site_fract_y
 _atom_site_fract_z
 _atom_site_occupancy
  Cs  Cs0  1  -0.00085861  -0.00097192  -0.00159200  1
  Cs  Cs1  1  -0.00211091  -0.00167814  0.33539609  1
  Cs  Cs2  1  0.00171400  -0.00053974  0.66860299  1
  Cs  Cs3  1  0.00058782  0.33393085  0.00096326  1
  Cs  Cs4  1  -0.00757775  0.33376601  0.33178089  1
  Cs  Cs5  1  0.00119093  0.33133598  0.66608854  1
  Cs  Cs6  1  0.00042039  0.66746004  -0.00022994  1
  Cs  Cs7  1  0.00178226  0.66803718  0.33260898  1
  Cs  Cs8  1  -0.00009281  0.66921916  0.66801735  1
  Cs  Cs9  1  0.33482709  0.00253985  0.00047173  1
  Cs  Cs10  1  0.33534574  -0.00154632  0.33757057  1
  Cs  Cs11  1  0.33247164  0.00250725  0.65776048  1
  Cs  Cs12  1  0.33185512  0.33124861  0.00168157  1
  Cs  Cs13  1  0.33378275  0.33477103  0.32927436  1
  Cs  Cs14  1  0.33320077  0.33022613  0.66385133  1
  Cs  Cs15  1  0.33323552  0.66592190  0.00155611  1
  Cs  Cs16  1  0.33180858  0.66740213  0.33194723  1
  Cs  Cs17  1  0.33801891  0.66619202  0.66481512  1
  Cs  Cs18  1  0.66580863  -0.00067694  -0.00051530  1
  Cs  Cs19  1  0.66692799  0.00142066  0.33518271  1
  Cs  Cs20  1  0.66627098  0.00016106  0.66870453  1
  Cs  Cs21  1  0.66787897  0.33250409  -0.00004676  1
  Cs  Cs22  1  0.67362622  0.33209433  0.33883320  1
  Cs  Cs23  1  0.66489106  0.34100863  0.66097184  1
  Cs  Cs24  1  0.66454879  0.66707458  -0.00404761  1
  Cs  Cs25  1  0.66542776  0.66717326  0.33549785  1
  Cs  Cs26  1  0.66093035  0.65854947  0.66914598  1
  Sn  Sn27  1  0.16701187  0.49987644  0.16647068  1
  Sn  Sn28  1  0.83320724  0.83306160  0.50077438  1
  Sn  Sn29  1  0.83220099  0.16646697  0.83360739  1
  Sn  Sn30  1  0.16605508  0.83389130  0.16576804  1
  Sn  Sn31  1  0.83374071  0.83387623  0.83327543  1
  Sn  Sn32  1  0.49984072  0.49892580  0.16630631  1
  Sn  Sn33  1  0.16664206  0.50077366  0.83321873  1
  Sn  Sn34  1  0.49959791  0.16776051  0.16594502  1
  Sn  Sn35  1  0.83383075  0.83326703  0.16634920  1
  Sn  Sn36  1  0.16672754  0.83279902  0.83405929  1
  Sn  Sn37  1  0.16693630  0.16625769  0.16660639  1
  Sn  Sn38  1  0.16636122  0.49994810  0.49991119  1
  Sn  Sn39  1  0.50093228  0.16656975  0.83389888  1
  Pb  Pb40  1  0.83352865  0.16443471  0.50348646  1
  Pb  Pb41  1  0.50007821  0.16684400  0.49936133  1
  Pb  Pb42  1  0.49913398  0.83552651  0.83333862  1
  Pb  Pb43  1  0.16679807  0.16616874  0.83488618  1
  Pb  Pb44  1  0.49744944  0.49987890  0.49676746  1
  Pb  Pb45  1  0.16540383  0.83162263  0.50016946  1
  Pb  Pb46  1  0.49696182  0.49724025  0.83562328  1
  Pb  Pb47  1  0.83313900  0.50263078  0.16646615  1
  Pb  Pb48  1  0.50320913  0.83312283  0.50021666  1
  Pb  Pb49  1  0.49963385  0.83363338  0.16657070  1
  Pb  Pb50  1  0.83308342  0.16444331  0.16495350  1
  Pb  Pb51  1  0.16636752  0.16935354  0.49611949  1
  Pb  Pb52  1  0.83587590  0.50259980  0.50009595  1
  Pb  Pb53  1  0.83542240  0.50011133  0.83344710  1
  I  I54  1  0.16647315  -0.00083931  0.16043147  1
  I  I55  1  0.16590307  -0.00014439  0.50045628  1
  I  I56  1  0.16438736  -0.00289305  0.83907424  1
  I  I57  1  0.17192098  0.33388431  0.16577996  1
  I  I58  1  0.16736253  0.33740658  0.50309966  1
  I  I59  1  0.16654281  0.33561455  0.83503724  1
  I  I60  1  0.16654950  0.66652983  0.16643494  1
  I  I61  1  0.16479753  0.66383606  0.49473979  1
  I  I62  1  0.16020360  0.66738474  0.83866945  1
  I  I63  1  0.49668482  0.00315258  0.16267003  1
  I  I64  1  0.49773983  0.00010882  0.49719693  1
  I  I65  1  0.49979023  0.00341110  0.84156547  1
  I  I66  1  0.48920346  0.33297944  0.16177236  1
  I  I67  1  0.50005925  0.33345996  0.50242400  1
  I  I68  1  0.50491429  0.32949586  0.83653155  1
  I  I69  1  0.49572512  0.66413121  0.16790440  1
  I  I70  1  0.50026504  0.66628655  0.49841032  1
  I  I71  1  0.50281171  0.66631826  0.83441340  1
  I  I72  1  0.83788392  -0.00370732  0.16770954  1
  I  I73  1  0.83605109  -0.00369352  0.49614422  1
  I  I74  1  0.83612855  -0.00138480  0.83404172  1
  I  I75  1  0.83668529  0.33314548  0.16491888  1
  I  I76  1  0.83359724  0.33344583  0.50040512  1
  I  I77  1  0.83193205  0.33046847  0.83545044  1
  I  I78  1  0.83829527  0.67100825  0.16375413  1
  I  I79  1  0.83492296  0.67065115  0.50135238  1
  I  I80  1  0.83681049  0.67033647  0.83407227  1
  I  I81  1  0.16754333  0.17035783  0.00306614  1
  I  I82  1  0.17286283  0.16424361  0.32773625  1
  I  I83  1  0.16701249  0.16681798  0.66678362  1
  I  I84  1  0.16965626  0.50132342  0.00102091  1
  I  I85  1  0.17094726  0.50097349  0.33151601  1
  I  I86  1  0.16375110  0.50555567  0.66761399  1
  I  I87  1  0.15864471  0.82861600  0.00072074  1
  I  I88  1  0.16301458  0.83235423  0.33003437  1
  I  I89  1  0.16196658  0.82941453  0.66986400  1
  I  I90  1  0.49930067  0.16937448  0.00101740  1
  I  I91  1  0.49461779  0.16957987  0.32926246  1
  I  I92  1  0.50354559  0.16441642  0.66984427  1
  I  I93  1  0.49335765  0.49948719  0.00344031  1
  I  I94  1  0.49388703  0.49488870  0.32870863  1
  I  I95  1  0.49893870  0.49925191  0.66683186  1
  I  I96  1  0.50451504  0.83170528  0.00014630  1
  I  I97  1  0.49965094  0.83506785  0.33289351  1
  I  I98  1  0.49819218  0.83570442  0.66702542  1
  I  I99  1  0.83312209  0.15994622  -0.00281201  1
  I  I100  1  0.83324562  0.16491761  0.33317531  1
  I  I101  1  0.82982835  0.16091721  0.67160159  1
  I  I102  1  0.83643061  0.50258322  0.00003720  1
  I  I103  1  0.83561405  0.50162114  0.33305222  1
  I  I104  1  0.83551299  0.50161960  0.66690813  1
  I  I105  1  0.83861683  0.83710081  -0.00044830  1
  I  I106  1  0.83827895  0.83188953  0.33230919  1
  I  I107  1  0.83944024  0.83847800  0.66821069  1
  I  I108  1  0.00282928  0.16967286  0.16490859  1
  I  I109  1  0.00007548  0.16775529  0.50005184  1
  I  I110  1  -0.00195586  0.16458185  0.83481133  1
  I  I111  1  0.00378653  0.49754337  0.16674670  1
  I  I112  1  0.00393054  0.50000686  0.49572132  1
  I  I113  1  0.00403636  0.49930210  0.83763429  1
  I  I114  1  0.00127974  0.83302760  0.16588555  1
  I  I115  1  -0.00260487  0.83194751  0.49948715  1
  I  I116  1  -0.00001500  0.83545428  0.83446167  1
  I  I117  1  0.33280866  0.16630050  0.16019616  1
  I  I118  1  0.33304768  0.16483819  0.50590068  1
  I  I119  1  0.33539746  0.16771684  0.83741126  1
  I  I120  1  0.33129010  0.50128359  0.16649407  1
  I  I121  1  0.32936877  0.50210664  0.50212378  1
  I  I122  1  0.32880933  0.50575856  0.83266354  1
  I  I123  1  0.32962999  0.83232399  0.16163391  1
  I  I124  1  0.33301431  0.83275141  0.49973395  1
  I  I125  1  0.32946756  0.82980674  0.84029559  1
  I  I126  1  0.66388548  0.16957186  0.16393210  1
  I  I127  1  0.66686973  0.16535866  0.49458524  1
  I  I128  1  0.66698835  0.15902169  0.84056443  1
  I  I129  1  0.66368253  0.49640971  0.16612365  1
  I  I130  1  0.66659714  0.50134539  0.49870055  1
  I  I131  1  0.66626239  0.50283460  0.83495945  1
  I  I132  1  0.66972482  0.83351450  0.16596530  1
  I  I133  1  0.67164568  0.83443175  0.49794352  1
  I  I134  1  0.66993014  0.83651835  0.83505956  1
