# generated using pymatgen
data_Cs27Sn13Pb14I81
_symmetry_space_group_name_H-M   'P 1'
_cell_length_a   18.97497060
_cell_length_b   18.97340553
_cell_length_c   18.98263957
_cell_angle_alpha   90.00033797
_cell_angle_beta   90.00046600
_cell_angle_gamma   90.00076349
_symmetry_Int_Tables_number   1
_chemical_formula_structural   Cs27Sn13Pb14I81
_chemical_formula_sum   'Cs27 Sn13 Pb14 I81'
_cell_volume   6834.12633142
_cell_formula_units_Z   1
loop_
 _symmetry_equiv_pos_site_id
 _symmetry_equiv_pos_as_xyz
  1  'x, y, z'
loop_
 _atom_site_type_symbol
 _atom_site_label
 _atom_site_symmetry_multiplicity
 _atom_site_fract_x
 _atom_site_fract_y
 _atom_site_fract_z
 _atom_site_occupancy
  Cs  Cs0  1  -0.00146161  0.00042102  0.00114948  1
  Cs  Cs1  1  0.00763339  -0.00090349  0.33107327  1
  Cs  Cs2  1  -0.00013485  -0.00062939  0.66699871  1
  Cs  Cs3  1  0.00028190  0.33213118  -0.00342713  1
  Cs  Cs4  1  -0.00163925  0.33007970  0.33871791  1
  Cs  Cs5  1  -0.00294012  0.33371029  0.66842066  1
  Cs  Cs6  1  -0.00194072  0.66745961  0.00034270  1
  Cs  Cs7  1  -0.00067661  0.67069363  0.32970717  1
  Cs  Cs8  1  0.00080023  0.66558015  0.66777604  1
  Cs  Cs9  1  0.33639240  0.00378521  -0.00202672  1
  Cs  Cs10  1  0.32561732  0.00486876  0.33256024  1
  Cs  Cs11  1  0.33641195  0.00049399  0.66754275  1
  Cs  Cs12  1  0.33364740  0.33429878  0.00259010  1
  Cs  Cs13  1  0.33507376  0.33021770  0.32946943  1
  Cs  Cs14  1  0.33295799  0.33729947  0.66722858  1
  Cs  Cs15  1  0.33384488  0.66436821  -0.00219684  1
  Cs  Cs16  1  0.33419914  0.66663734  0.33578769  1
  Cs  Cs17  1  0.33373110  0.66644187  0.66597046  1
  Cs  Cs18  1  0.66753621  -0.00021364  -0.00221610  1
  Cs  Cs19  1  0.66686216  -0.00161797  0.33562536  1
  Cs  Cs20  1  0.66442162  -0.00092931  0.66730394  1
  Cs  Cs21  1  0.66665894  0.33394204  0.00490415  1
  Cs  Cs22  1  0.66685184  0.33189080  0.33381268  1
  Cs  Cs23  1  0.67037772  0.33270009  0.66207553  1
  Cs  Cs24  1  0.66799490  0.66641269  0.00551890  1
  Cs  Cs25  1  0.66605491  0.66714609  0.33083209  1
  Cs  Cs26  1  0.66538035  0.66824264  0.66585814  1
  Sn  Sn27  1  0.16615237  0.83338580  0.83333421  1
  Sn  Sn28  1  0.83401351  0.83380039  0.83257181  1
  Sn  Sn29  1  0.50026812  0.83286300  0.49881569  1
  Sn  Sn30  1  0.16723101  0.50031755  0.49983538  1
  Sn  Sn31  1  0.83333464  0.16646068  0.16614429  1
  Sn  Sn32  1  0.83384150  0.16579779  0.83409149  1
  Sn  Sn33  1  0.16626548  0.16664176  0.83313233  1
  Sn  Sn34  1  0.49934441  0.50071658  0.50077379  1
  Sn  Sn35  1  0.16728264  0.50010080  0.83325718  1
  Sn  Sn36  1  0.83314006  0.83318092  0.50066762  1
  Sn  Sn37  1  0.49994666  0.50007299  0.83277873  1
  Sn  Sn38  1  0.49939856  0.83369862  0.16777159  1
  Sn  Sn39  1  0.16614554  0.50024950  0.16680556  1
  Pb  Pb40  1  0.50223582  0.16377364  0.16665170  1
  Pb  Pb41  1  0.83192122  0.83512469  0.16647031  1
  Pb  Pb42  1  0.16911241  0.83170284  0.16373929  1
  Pb  Pb43  1  0.50040623  0.83148229  0.83295095  1
  Pb  Pb44  1  0.49984105  0.16674363  0.50005025  1
  Pb  Pb45  1  0.83607851  0.49747372  0.16688118  1
  Pb  Pb46  1  0.49825536  0.50139453  0.16721669  1
  Pb  Pb47  1  0.83300535  0.50012599  0.83337327  1
  Pb  Pb48  1  0.83346092  0.16346286  0.50055294  1
  Pb  Pb49  1  0.16678162  0.16967646  0.50294391  1
  Pb  Pb50  1  0.83311045  0.50271184  0.49989235  1
  Pb  Pb51  1  0.16476925  0.16899279  0.16425201  1
  Pb  Pb52  1  0.16707085  0.83158172  0.50204428  1
  Pb  Pb53  1  0.50071115  0.17000509  0.83317649  1
  I  I54  1  0.16706014  0.00007931  0.16573424  1
  I  I55  1  0.16672250  -0.00022626  0.50128105  1
  I  I56  1  0.16162591  -0.00029833  0.83339755  1
  I  I57  1  0.16792476  0.33703681  0.16421160  1
  I  I58  1  0.17234579  0.33814537  0.50164673  1
  I  I59  1  0.16601505  0.33420671  0.83316224  1
  I  I60  1  0.16669632  0.66359283  0.16347180  1
  I  I61  1  0.16794122  0.66333779  0.50413461  1
  I  I62  1  0.16656598  0.66585990  0.83291899  1
  I  I63  1  0.49960985  -0.00427146  0.17116067  1
  I  I64  1  0.50539846  -0.00381376  0.49780949  1
  I  I65  1  0.49674044  -0.00014570  0.83310261  1
  I  I66  1  0.50013436  0.33346332  0.16633033  1
  I  I67  1  0.49575418  0.33731705  0.50496454  1
  I  I68  1  0.49508955  0.33805124  0.82839211  1
  I  I69  1  0.50141344  0.66927323  0.16695698  1
  I  I70  1  0.49990061  0.66650519  0.50104943  1
  I  I71  1  0.49471823  0.66368894  0.83181700  1
  I  I72  1  0.83273774  0.00272841  0.16323463  1
  I  I73  1  0.82644152  -0.00438060  0.50304371  1
  I  I74  1  0.84082605  -0.00058550  0.83339468  1
  I  I75  1  0.83314924  0.32967297  0.15834446  1
  I  I76  1  0.83284690  0.33323882  0.50052815  1
  I  I77  1  0.83692870  0.33055421  0.83719381  1
  I  I78  1  0.83299940  0.66704493  0.16573342  1
  I  I79  1  0.83199090  0.67055666  0.50703224  1
  I  I80  1  0.83677417  0.66973330  0.82920149  1
  I  I81  1  0.16474045  0.16896901  -0.00406283  1
  I  I82  1  0.16456128  0.16802737  0.33318734  1
  I  I83  1  0.15979352  0.16843406  0.67134045  1
  I  I84  1  0.17065551  0.49973216  -0.00190434  1
  I  I85  1  0.17074621  0.50134346  0.33411626  1
  I  I86  1  0.17117443  0.50012474  0.66778672  1
  I  I87  1  0.16196811  0.83012317  -0.00444783  1
  I  I88  1  0.16371521  0.83078961  0.33337104  1
  I  I89  1  0.16691122  0.83069446  0.67038225  1
  I  I90  1  0.49822213  0.16621774  -0.00029795  1
  I  I91  1  0.50318066  0.17173643  0.33323713  1
  I  I92  1  0.50208291  0.16230870  0.66696729  1
  I  I93  1  0.49531754  0.50181106  -0.00241128  1
  I  I94  1  0.49555118  0.50305152  0.33657099  1
  I  I95  1  0.49129149  0.50591254  0.66639098  1
  I  I96  1  0.49984101  0.83098300  0.00132247  1
  I  I97  1  0.50725151  0.82610716  0.33497877  1
  I  I98  1  0.50135274  0.83006820  0.66423637  1
  I  I99  1  0.83743587  0.16103626  -0.00203260  1
  I  I100  1  0.83167215  0.16750178  0.33094323  1
  I  I101  1  0.83766092  0.16569463  0.67016454  1
  I  I102  1  0.83233920  0.50496628  -0.00020126  1
  I  I103  1  0.83379517  0.49952223  0.33345853  1
  I  I104  1  0.83705450  0.49584475  0.66680755  1
  I  I105  1  0.83556344  0.83490794  -0.00312161  1
  I  I106  1  0.82998735  0.83304263  0.33584842  1
  I  I107  1  0.83115920  0.83797752  0.66787420  1
  I  I108  1  -0.00300398  0.16550844  0.16380594  1
  I  I109  1  0.00003514  0.16768914  0.49828339  1
  I  I110  1  0.00021645  0.16847913  0.83660577  1
  I  I111  1  0.00434756  0.50192543  0.16399157  1
  I  I112  1  0.00321697  0.50017491  0.50267038  1
  I  I113  1  0.00338382  0.49993240  0.83229397  1
  I  I114  1  0.00020532  0.83284420  0.16894892  1
  I  I115  1  -0.00220324  0.83203173  0.50342604  1
  I  I116  1  -0.00015905  0.83138889  0.82852780  1
  I  I117  1  0.33300831  0.16687466  0.16548291  1
  I  I118  1  0.33312399  0.16120875  0.50148073  1
  I  I119  1  0.33025630  0.16400266  0.83258098  1
  I  I120  1  0.33023295  0.50048799  0.16414650  1
  I  I121  1  0.33351647  0.50652973  0.50288982  1
  I  I122  1  0.33160219  0.50090418  0.83256589  1
  I  I123  1  0.33670982  0.83165840  0.17191269  1
  I  I124  1  0.33622563  0.82959509  0.49861344  1
  I  I125  1  0.33078239  0.83429342  0.83362923  1
  I  I126  1  0.67015416  0.16762589  0.15814242  1
  I  I127  1  0.66691479  0.17162534  0.50247819  1
  I  I128  1  0.67014770  0.16192505  0.83645051  1
  I  I129  1  0.66645752  0.49997806  0.16551663  1
  I  I130  1  0.66319591  0.50193429  0.50616030  1
  I  I131  1  0.66370307  0.50113915  0.82791234  1
  I  I132  1  0.66400325  0.83194039  0.16540511  1
  I  I133  1  0.66616711  0.82819910  0.50251714  1
  I  I134  1  0.66932148  0.83674386  0.83223362  1
