# generated using pymatgen
data_Cs27Sn14Pb13I81
_symmetry_space_group_name_H-M   'P 1'
_cell_length_a   18.97735303
_cell_length_b   18.96608279
_cell_length_c   18.98239389
_cell_angle_alpha   90.00016966
_cell_angle_beta   90.00129378
_cell_angle_gamma   89.99942261
_symmetry_Int_Tables_number   1
_chemical_formula_structural   Cs27Sn14Pb13I81
_chemical_formula_sum   'Cs27 Sn14 Pb13 I81'
_cell_volume   6832.25802632
_cell_formula_units_Z   1
loop_
 _symmetry_equiv_pos_site_id
 _symmetry_equiv_pos_as_xyz
  1  'x, y, z'
loop_
 _atom_site_type_symbol
 _atom_site_label
 _atom_site_symmetry_multiplicity
 _atom_site_fract_x
 _atom_site_fract_y
 _atom_site_fract_z
 _atom_site_occupancy
  Cs  Cs0  1  -0.00103330  0.00031213  -0.00136849  1
  Cs  Cs1  1  0.00047094  -0.00034427  0.33373897  1
  Cs  Cs2  1  -0.00005594  -0.00126489  0.66756856  1
  Cs  Cs3  1  -0.00172875  0.33673232  -0.00112167  1
  Cs  Cs4  1  -0.00158553  0.33296252  0.33563718  1
  Cs  Cs5  1  -0.00032874  0.33335788  0.66600022  1
  Cs  Cs6  1  0.00373958  0.65908421  0.00571981  1
  Cs  Cs7  1  -0.00037875  0.66608255  0.33150790  1
  Cs  Cs8  1  -0.00032979  0.66689782  0.66537546  1
  Cs  Cs9  1  0.33237433  0.00022433  0.00148144  1
  Cs  Cs10  1  0.33150810  0.00248334  0.33118805  1
  Cs  Cs11  1  0.32930611  0.00207731  0.66685789  1
  Cs  Cs12  1  0.33202046  0.33488309  -0.00444460  1
  Cs  Cs13  1  0.33540368  0.32832904  0.33728937  1
  Cs  Cs14  1  0.33244835  0.33386199  0.66668463  1
  Cs  Cs15  1  0.33878107  0.66196374  0.00396206  1
  Cs  Cs16  1  0.34091274  0.66992972  0.32669534  1
  Cs  Cs17  1  0.33858069  0.66355349  0.66923917  1
  Cs  Cs18  1  0.66914300  -0.00019851  -0.00382012  1
  Cs  Cs19  1  0.66859243  0.00034096  0.33386641  1
  Cs  Cs20  1  0.67043383  -0.00664374  0.67007502  1
  Cs  Cs21  1  0.67047300  0.33259762  0.00226523  1
  Cs  Cs22  1  0.66868476  0.33344554  0.33282908  1
  Cs  Cs23  1  0.66936844  0.33284642  0.66601290  1
  Cs  Cs24  1  0.65791544  0.66558952  0.00069323  1
  Cs  Cs25  1  0.65939222  0.66722454  0.33376484  1
  Cs  Cs26  1  0.66138720  0.67517506  0.66763792  1
  Sn  Sn27  1  0.16630616  0.50051807  0.49981156  1
  Sn  Sn28  1  0.16635485  0.83330590  0.83316597  1
  Sn  Sn29  1  0.50020006  0.16651983  0.16633621  1
  Sn  Sn30  1  0.49946997  0.16670396  0.83301954  1
  Sn  Sn31  1  0.16713915  0.16605301  0.83317048  1
  Sn  Sn32  1  0.16620001  0.16681052  0.16639371  1
  Sn  Sn33  1  0.50057633  0.16651288  0.50073554  1
  Sn  Sn34  1  0.83383748  0.49982656  0.50128776  1
  Sn  Sn35  1  0.16623152  0.16662839  0.50023886  1
  Sn  Sn36  1  0.83338555  0.16684744  0.49958143  1
  Sn  Sn37  1  0.83323890  0.50057587  0.83194742  1
  Sn  Sn38  1  0.83359994  0.83388068  0.16662698  1
  Sn  Sn39  1  0.16667494  0.83280781  0.50057568  1
  Sn  Sn40  1  0.83366741  0.16548060  0.16749397  1
  Pb  Pb41  1  0.16540134  0.50010775  0.83120737  1
  Pb  Pb42  1  0.83379281  0.16752257  0.83309498  1
  Pb  Pb43  1  0.50032605  0.49797868  0.50014471  1
  Pb  Pb44  1  0.50271504  0.83646542  0.16659557  1
  Pb  Pb45  1  0.50290774  0.49715823  0.83294374  1
  Pb  Pb46  1  0.16523442  0.83509916  0.16643572  1
  Pb  Pb47  1  0.83317720  0.49998273  0.16769389  1
  Pb  Pb48  1  0.16686648  0.49703353  0.17009523  1
  Pb  Pb49  1  0.83525240  0.83293385  0.49850625  1
  Pb  Pb50  1  0.49675815  0.83606154  0.83342025  1
  Pb  Pb51  1  0.83616623  0.82988170  0.83610727  1
  Pb  Pb52  1  0.49983918  0.49677209  0.16677972  1
  Pb  Pb53  1  0.49657229  0.83657131  0.50009721  1
  I  I54  1  0.16863089  0.00423839  0.17164469  1
  I  I55  1  0.16692266  0.00213889  0.50020594  1
  I  I56  1  0.16916254  0.00220099  0.82842226  1
  I  I57  1  0.16328237  0.32796125  0.16509945  1
  I  I58  1  0.16606970  0.33123690  0.49942727  1
  I  I59  1  0.16953732  0.32988702  0.83313020  1
  I  I60  1  0.16282180  0.66670387  0.16647091  1
  I  I61  1  0.15816296  0.66657131  0.50598722  1
  I  I62  1  0.16161069  0.66925184  0.82792115  1
  I  I63  1  0.49628234  0.00505407  0.16806994  1
  I  I64  1  0.50119532  0.00536130  0.49895110  1
  I  I65  1  0.50063214  0.00471553  0.83322708  1
  I  I66  1  0.50365305  0.32776456  0.16812553  1
  I  I67  1  0.49503323  0.32875386  0.49889949  1
  I  I68  1  0.49163751  0.32860505  0.83336399  1
  I  I69  1  0.50187461  0.66704305  0.16663364  1
  I  I70  1  0.50060269  0.66692281  0.49953992  1
  I  I71  1  0.49950834  0.66670514  0.83393979  1
  I  I72  1  0.83360379  0.00300127  0.17226292  1
  I  I73  1  0.83407931  0.00336825  0.49721229  1
  I  I74  1  0.83138846  -0.00009940  0.83169610  1
  I  I75  1  0.83270391  0.32968166  0.16790483  1
  I  I76  1  0.83782051  0.33145740  0.49806684  1
  I  I77  1  0.83543969  0.33515014  0.83365040  1
  I  I78  1  0.83713778  0.66914876  0.16624788  1
  I  I79  1  0.84027378  0.66370868  0.50136713  1
  I  I80  1  0.83668040  0.66261343  0.82680917  1
  I  I81  1  0.16899294  0.16141710  -0.00031665  1
  I  I82  1  0.16844714  0.16690533  0.33437653  1
  I  I83  1  0.16906455  0.16659510  0.66564772  1
  I  I84  1  0.16380078  0.49895883  -0.00008329  1
  I  I85  1  0.15793539  0.49919753  0.33826994  1
  I  I86  1  0.16403377  0.49303516  0.66318872  1
  I  I87  1  0.16387922  0.84104296  -0.00256520  1
  I  I88  1  0.16444488  0.83574269  0.33615856  1
  I  I89  1  0.16483776  0.84117974  0.66591425  1
  I  I90  1  0.49730416  0.16660332  0.00023924  1
  I  I91  1  0.49698504  0.16715460  0.33366373  1
  I  I92  1  0.49549014  0.16812176  0.66610582  1
  I  I93  1  0.50217143  0.49709975  -0.00025965  1
  I  I94  1  0.50212928  0.49748176  0.33364642  1
  I  I95  1  0.49789940  0.49522019  0.66651552  1
  I  I96  1  0.49858268  0.83623258  0.00001521  1
  I  I97  1  0.49766872  0.83506490  0.33337901  1
  I  I98  1  0.50440150  0.83630640  0.66669240  1
  I  I99  1  0.83326001  0.16565285  0.00252895  1
  I  I100  1  0.83398796  0.16876229  0.33401281  1
  I  I101  1  0.83402557  0.16969298  0.66369875  1
  I  I102  1  0.83414929  0.49747871  -0.00179252  1
  I  I103  1  0.83841968  0.49613610  0.33683061  1
  I  I104  1  0.83842945  0.49091924  0.66488757  1
  I  I105  1  0.83583254  0.84257318  0.00333441  1
  I  I106  1  0.83720632  0.83613525  0.33078143  1
  I  I107  1  0.83302061  0.83623141  0.66672971  1
  I  I108  1  -0.00014707  0.16304423  0.17006426  1
  I  I109  1  0.00074273  0.16746608  0.49733575  1
  I  I110  1  0.00305257  0.16478871  0.83293023  1
  I  I111  1  -0.00007727  0.49674831  0.16395476  1
  I  I112  1  -0.00010676  0.49269432  0.50333227  1
  I  I113  1  -0.00245072  0.49534847  0.83173171  1
  I  I114  1  -0.00245170  0.84156584  0.16747699  1
  I  I115  1  0.00329151  0.84022312  0.50242711  1
  I  I116  1  0.00355800  0.84374011  0.82860491  1
  I  I117  1  0.33280939  0.16784852  0.17044330  1
  I  I118  1  0.33207735  0.16650155  0.49748469  1
  I  I119  1  0.33211904  0.16370107  0.83318787  1
  I  I120  1  0.33307042  0.50004799  0.16702073  1
  I  I121  1  0.33015968  0.49668259  0.50020816  1
  I  I122  1  0.33329197  0.50080330  0.83226601  1
  I  I123  1  0.33326933  0.83458303  0.16733934  1
  I  I124  1  0.32827298  0.83379940  0.50285596  1
  I  I125  1  0.32870255  0.83583063  0.82880657  1
  I  I126  1  0.66726593  0.16381857  0.16962524  1
  I  I127  1  0.66749560  0.17269239  0.49619842  1
  I  I128  1  0.66450268  0.17060450  0.83394378  1
  I  I129  1  0.66697487  0.49750320  0.16815930  1
  I  I130  1  0.67018019  0.49276134  0.50170735  1
  I  I131  1  0.67075722  0.49697426  0.82764608  1
  I  I132  1  0.67058806  0.83919038  0.16787261  1
  I  I133  1  0.66665047  0.83352001  0.49810618  1
  I  I134  1  0.66686583  0.83388653  0.83455051  1
