# generated using pymatgen
data_Cs27Sn14Pb13I81
_symmetry_space_group_name_H-M   'P 1'
_cell_length_a   18.96104920
_cell_length_b   18.96099474
_cell_length_c   18.96078930
_cell_angle_alpha   89.99865870
_cell_angle_beta   90.00048394
_cell_angle_gamma   89.99955599
_symmetry_Int_Tables_number   1
_chemical_formula_structural   Cs27Sn14Pb13I81
_chemical_formula_sum   'Cs27 Sn14 Pb13 I81'
_cell_volume   6816.78967863
_cell_formula_units_Z   1
loop_
 _symmetry_equiv_pos_site_id
 _symmetry_equiv_pos_as_xyz
  1  'x, y, z'
loop_
 _atom_site_type_symbol
 _atom_site_label
 _atom_site_symmetry_multiplicity
 _atom_site_fract_x
 _atom_site_fract_y
 _atom_site_fract_z
 _atom_site_occupancy
  Cs  Cs0  1  -0.00072173  -0.00381611  -0.00018068  1
  Cs  Cs1  1  -0.00390600  0.00206159  0.33293928  1
  Cs  Cs2  1  0.00074744  0.00095040  0.66740504  1
  Cs  Cs3  1  0.00239406  0.33575601  -0.00279418  1
  Cs  Cs4  1  -0.00130247  0.33210380  0.33373332  1
  Cs  Cs5  1  -0.00063445  0.33295563  0.66879697  1
  Cs  Cs6  1  -0.00243019  0.66796027  -0.00528901  1
  Cs  Cs7  1  -0.00099091  0.66608366  0.33217106  1
  Cs  Cs8  1  0.00424532  0.66767548  0.67406593  1
  Cs  Cs9  1  0.33543664  0.00132290  0.00008174  1
  Cs  Cs10  1  0.33246119  -0.00191413  0.33362319  1
  Cs  Cs11  1  0.33328869  -0.00084636  0.66573488  1
  Cs  Cs12  1  0.33574274  0.33203901  0.00091323  1
  Cs  Cs13  1  0.33227021  0.33484135  0.33231389  1
  Cs  Cs14  1  0.33300068  0.33310061  0.66508185  1
  Cs  Cs15  1  0.33469994  0.66729214  0.00154760  1
  Cs  Cs16  1  0.33468864  0.66699544  0.33576626  1
  Cs  Cs17  1  0.32981516  0.66848326  0.65942923  1
  Cs  Cs18  1  0.66435334  -0.00085342  0.00183720  1
  Cs  Cs19  1  0.67311902  0.00174683  0.33330946  1
  Cs  Cs20  1  0.66572887  0.00210183  0.66495458  1
  Cs  Cs21  1  0.66153411  0.33380478  -0.00049614  1
  Cs  Cs22  1  0.67012177  0.33330557  0.33399114  1
  Cs  Cs23  1  0.66763611  0.33239978  0.66696010  1
  Cs  Cs24  1  0.66708323  0.66683301  -0.00066279  1
  Cs  Cs25  1  0.66542983  0.66585837  0.33430888  1
  Cs  Cs26  1  0.66574516  0.66655090  0.66585040  1
  Sn  Sn27  1  0.50007834  0.50079135  0.16615657  1
  Sn  Sn28  1  0.83330823  0.50005581  0.16703378  1
  Sn  Sn29  1  0.49972357  0.83215704  0.83351219  1
  Sn  Sn30  1  0.83370137  0.50141405  0.50002450  1
  Sn  Sn31  1  0.49956715  0.50126333  0.83335647  1
  Sn  Sn32  1  0.16763331  0.16684630  0.49973068  1
  Sn  Sn33  1  0.49933972  0.16681596  0.49938775  1
  Sn  Sn34  1  0.16586436  0.16663279  0.83367593  1
  Sn  Sn35  1  0.16714125  0.83315637  0.16666719  1
  Sn  Sn36  1  0.49951258  0.83265054  0.16611791  1
  Sn  Sn37  1  0.16677549  0.16645894  0.16656000  1
  Sn  Sn38  1  0.83369468  0.83185852  0.50032213  1
  Sn  Sn39  1  0.16657011  0.50049551  0.16667222  1
  Sn  Sn40  1  0.83369441  0.16654355  0.83421543  1
  Pb  Pb41  1  0.83138268  0.49860561  0.83354042  1
  Pb  Pb42  1  0.16421611  0.83537921  0.49761899  1
  Pb  Pb43  1  0.83303404  0.83111126  0.16787841  1
  Pb  Pb44  1  0.49828255  0.16657322  0.16898122  1
  Pb  Pb45  1  0.50157905  0.49821828  0.49952016  1
  Pb  Pb46  1  0.16913793  0.83542323  0.83558235  1
  Pb  Pb47  1  0.83089873  0.83541278  0.83115761  1
  Pb  Pb48  1  0.16952323  0.49830913  0.83548282  1
  Pb  Pb49  1  0.83588395  0.16914668  0.16387784  1
  Pb  Pb50  1  0.49944553  0.16659973  0.83180259  1
  Pb  Pb51  1  0.50149539  0.83523649  0.49923317  1
  Pb  Pb52  1  0.16411002  0.49813079  0.49796040  1
  Pb  Pb53  1  0.83398968  0.16716516  0.50143522  1
  I  I54  1  0.17205811  0.00022729  0.16667684  1
  I  I55  1  0.16787052  0.00382251  0.49781371  1
  I  I56  1  0.16542671  0.00384261  0.83531844  1
  I  I57  1  0.16673877  0.33339728  0.16691087  1
  I  I58  1  0.16809000  0.32962125  0.49762535  1
  I  I59  1  0.16552836  0.32981592  0.83537376  1
  I  I60  1  0.16796363  0.66622359  0.16742546  1
  I  I61  1  0.16750757  0.66667454  0.49823027  1
  I  I62  1  0.16509957  0.66675093  0.83479722  1
  I  I63  1  0.49538880  -0.00273643  0.16322527  1
  I  I64  1  0.49897745  0.00306099  0.50126487  1
  I  I65  1  0.50003453  -0.00218444  0.83692952  1
  I  I66  1  0.49934079  0.33630932  0.16333050  1
  I  I67  1  0.49863427  0.33036124  0.50081463  1
  I  I68  1  0.50030058  0.33547120  0.83746090  1
  I  I69  1  0.49576920  0.66610189  0.16359232  1
  I  I70  1  0.50100813  0.66663026  0.50057269  1
  I  I71  1  0.50244125  0.66645478  0.83838669  1
  I  I72  1  0.83308152  -0.00001056  0.16870885  1
  I  I73  1  0.83250080  -0.00141891  0.50117768  1
  I  I74  1  0.83550142  0.00328448  0.83048262  1
  I  I75  1  0.83165619  0.33731825  0.17342045  1
  I  I76  1  0.83286058  0.33558650  0.49646550  1
  I  I77  1  0.83494053  0.33066992  0.83081602  1
  I  I78  1  0.83710658  0.66287554  0.16795579  1
  I  I79  1  0.83017888  0.66586728  0.49460626  1
  I  I80  1  0.83335938  0.66663742  0.83396217  1
  I  I81  1  0.16237500  0.16763055  0.00069397  1
  I  I82  1  0.17168934  0.16730198  0.33270176  1
  I  I83  1  0.16647110  0.16674864  0.66665459  1
  I  I84  1  0.16201540  0.49731160  0.00423430  1
  I  I85  1  0.17166282  0.49737969  0.32921265  1
  I  I86  1  0.16655389  0.49680122  0.66675081  1
  I  I87  1  0.16695544  0.83531329  0.00406347  1
  I  I88  1  0.17316595  0.83474438  0.32922135  1
  I  I89  1  0.16747620  0.83616442  0.66668978  1
  I  I90  1  0.49976441  0.16699558  0.00024729  1
  I  I91  1  0.49608667  0.16689022  0.33647700  1
  I  I92  1  0.49610100  0.16679374  0.66413230  1
  I  I93  1  0.50215185  0.50145773  0.00152671  1
  I  I94  1  0.49809788  0.50271571  0.32984998  1
  I  I95  1  0.50333466  0.50087517  0.66894775  1
  I  I96  1  0.49713132  0.83116097  0.00108931  1
  I  I97  1  0.49664265  0.82968136  0.32999082  1
  I  I98  1  0.50318638  0.83190612  0.66887873  1
  I  I99  1  0.83642052  0.16777942  -0.00354999  1
  I  I100  1  0.83347665  0.16569255  0.33309406  1
  I  I101  1  0.83743880  0.16859718  0.66902633  1
  I  I102  1  0.83499231  0.49739077  0.00301030  1
  I  I103  1  0.83115946  0.50165899  0.33243641  1
  I  I104  1  0.82993449  0.49993121  0.66437680  1
  I  I105  1  0.83474231  0.83366549  0.00002756  1
  I  I106  1  0.83128869  0.83437689  0.33577690  1
  I  I107  1  0.83112775  0.82867019  0.66333327  1
  I  I108  1  0.00430818  0.16569168  0.17262960  1
  I  I109  1  0.00285922  0.16679273  0.49768265  1
  I  I110  1  0.00111468  0.16796970  0.83085419  1
  I  I111  1  0.00041750  0.49770280  0.17260371  1
  I  I112  1  -0.00389039  0.50006596  0.49415014  1
  I  I113  1  0.00022779  0.49861854  0.83424848  1
  I  I114  1  0.00268878  0.83450805  0.16971074  1
  I  I115  1  -0.00340742  0.83232711  0.49765530  1
  I  I116  1  0.00019484  0.83393269  0.83395791  1
  I  I117  1  0.32986361  0.17082270  0.16224862  1
  I  I118  1  0.33234099  0.16665884  0.50221522  1
  I  I119  1  0.33057109  0.16697158  0.83531598  1
  I  I120  1  0.33350749  0.49888318  0.16175212  1
  I  I121  1  0.33317722  0.49881082  0.49946542  1
  I  I122  1  0.33750356  0.49987196  0.83892283  1
  I  I123  1  0.33360132  0.83025759  0.16379668  1
  I  I124  1  0.33318724  0.83448925  0.50119504  1
  I  I125  1  0.33714223  0.83255556  0.83441431  1
  I  I126  1  0.66673147  0.16663170  0.16735800  1
  I  I127  1  0.66523253  0.16658668  0.50300812  1
  I  I128  1  0.66803701  0.16747505  0.82889615  1
  I  I129  1  0.66579632  0.50425185  0.16684771  1
  I  I130  1  0.66950303  0.49905703  0.49426285  1
  I  I131  1  0.66345654  0.49913398  0.83900385  1
  I  I132  1  0.66363459  0.82928928  0.16450445  1
  I  I133  1  0.66925373  0.83385198  0.49791589  1
  I  I134  1  0.66299988  0.83325772  0.84024883  1
