# generated using pymatgen
data_Cs27Sn14Pb13I81
_symmetry_space_group_name_H-M   'P 1'
_cell_length_a   18.96817638
_cell_length_b   18.97747449
_cell_length_c   18.98148757
_cell_angle_alpha   89.99933267
_cell_angle_beta   90.00007462
_cell_angle_gamma   89.99994192
_symmetry_Int_Tables_number   1
_chemical_formula_structural   Cs27Sn14Pb13I81
_chemical_formula_sum   'Cs27 Sn14 Pb13 I81'
_cell_volume   6832.72969709
_cell_formula_units_Z   1
loop_
 _symmetry_equiv_pos_site_id
 _symmetry_equiv_pos_as_xyz
  1  'x, y, z'
loop_
 _atom_site_type_symbol
 _atom_site_label
 _atom_site_symmetry_multiplicity
 _atom_site_fract_x
 _atom_site_fract_y
 _atom_site_fract_z
 _atom_site_occupancy
  Cs  Cs0  1  -0.00064657  -0.00007775  0.00033081  1
  Cs  Cs1  1  0.00131177  -0.00137763  0.33174596  1
  Cs  Cs2  1  -0.00020869  -0.00110214  0.66720691  1
  Cs  Cs3  1  0.00065494  0.33407632  0.00081417  1
  Cs  Cs4  1  -0.00243211  0.33414347  0.32963710  1
  Cs  Cs5  1  0.00236966  0.33033564  0.66865397  1
  Cs  Cs6  1  -0.00009376  0.66610841  0.00039065  1
  Cs  Cs7  1  -0.00436155  0.66638223  0.32990947  1
  Cs  Cs8  1  -0.00052072  0.66958139  0.66723758  1
  Cs  Cs9  1  0.33984985  -0.00336008  0.00234523  1
  Cs  Cs10  1  0.33313775  -0.00045697  0.33150373  1
  Cs  Cs11  1  0.33120573  -0.00203240  0.66644461  1
  Cs  Cs12  1  0.33158557  0.33603036  0.00011540  1
  Cs  Cs13  1  0.33585593  0.33207991  0.33708146  1
  Cs  Cs14  1  0.33125105  0.33636173  0.66373719  1
  Cs  Cs15  1  0.33304357  0.66785845  0.00222577  1
  Cs  Cs16  1  0.33307174  0.66828576  0.33507661  1
  Cs  Cs17  1  0.33390821  0.66533057  0.66606259  1
  Cs  Cs18  1  0.66226886  0.00003797  -0.00141466  1
  Cs  Cs19  1  0.66735310  0.00394788  0.33333851  1
  Cs  Cs20  1  0.66845937  0.00838568  0.66919178  1
  Cs  Cs21  1  0.66684415  0.33233915  -0.00125503  1
  Cs  Cs22  1  0.66563192  0.33521297  0.33439041  1
  Cs  Cs23  1  0.66828435  0.32703408  0.66792543  1
  Cs  Cs24  1  0.66645642  0.66759494  -0.00218803  1
  Cs  Cs25  1  0.67032928  0.66238781  0.33641460  1
  Cs  Cs26  1  0.66539762  0.66704016  0.66736147  1
  Sn  Sn27  1  0.83318632  0.83406930  0.16580102  1
  Sn  Sn28  1  0.16649662  0.50054084  0.49974532  1
  Sn  Sn29  1  0.49940845  0.50099948  0.50030993  1
  Sn  Sn30  1  0.16623763  0.83403270  0.83306863  1
  Sn  Sn31  1  0.83381585  0.83279863  0.83406007  1
  Sn  Sn32  1  0.49977175  0.50036469  0.16677537  1
  Sn  Sn33  1  0.83278363  0.50060724  0.83291573  1
  Sn  Sn34  1  0.16637884  0.16647338  0.16646595  1
  Sn  Sn35  1  0.16655913  0.16640902  0.49972913  1
  Sn  Sn36  1  0.49978263  0.83300068  0.50034034  1
  Sn  Sn37  1  0.16690867  0.16538273  0.83380837  1
  Sn  Sn38  1  0.16720602  0.83294963  0.50047198  1
  Sn  Sn39  1  0.83379779  0.16569401  0.16648668  1
  Sn  Sn40  1  0.50082957  0.50021010  0.83304218  1
  Pb  Pb41  1  0.16524478  0.83499680  0.16666830  1
  Pb  Pb42  1  0.49784951  0.16646244  0.50016869  1
  Pb  Pb43  1  0.16861478  0.49779021  0.16954642  1
  Pb  Pb44  1  0.83136278  0.49992836  0.16427436  1
  Pb  Pb45  1  0.49998817  0.16868519  0.16660000  1
  Pb  Pb46  1  0.83544827  0.16620133  0.83538554  1
  Pb  Pb47  1  0.16667031  0.50072229  0.83174592  1
  Pb  Pb48  1  0.83313657  0.49991664  0.50297345  1
  Pb  Pb49  1  0.83633326  0.16669041  0.49722493  1
  Pb  Pb50  1  0.49996774  0.83164316  0.83120580  1
  Pb  Pb51  1  0.49658369  0.16942099  0.83331893  1
  Pb  Pb52  1  0.83313726  0.83340552  0.50058953  1
  Pb  Pb53  1  0.50306820  0.83110259  0.16956886  1
  I  I54  1  0.16496570  0.00321515  0.17154879  1
  I  I55  1  0.17020754  -0.00052002  0.50090280  1
  I  I56  1  0.16013068  -0.00077943  0.82735365  1
  I  I57  1  0.16012732  0.32957589  0.16500504  1
  I  I58  1  0.17092235  0.33339068  0.50057505  1
  I  I59  1  0.16696696  0.33129534  0.83197210  1
  I  I60  1  0.16548538  0.66662574  0.16642613  1
  I  I61  1  0.17172084  0.66728073  0.50623178  1
  I  I62  1  0.16548885  0.66948209  0.82783483  1
  I  I63  1  0.49872811  -0.00028443  0.16870429  1
  I  I64  1  0.49579252  -0.00306996  0.49975715  1
  I  I65  1  0.50269215  -0.00021980  0.83145286  1
  I  I66  1  0.50111772  0.33681528  0.16997145  1
  I  I67  1  0.49551583  0.33675145  0.49967578  1
  I  I68  1  0.50549969  0.33787935  0.83019216  1
  I  I69  1  0.50085509  0.66323471  0.16460116  1
  I  I70  1  0.49091076  0.66551765  0.49999332  1
  I  I71  1  0.49888704  0.66335068  0.83425465  1
  I  I72  1  0.83806829  -0.00018756  0.16200328  1
  I  I73  1  0.83135119  -0.00010688  0.50429110  1
  I  I74  1  0.83666316  -0.00296534  0.83445099  1
  I  I75  1  0.83724761  0.33099101  0.16594655  1
  I  I76  1  0.83343498  0.33340266  0.49988634  1
  I  I77  1  0.83044958  0.33553670  0.83393967  1
  I  I78  1  0.83204053  0.66905914  0.16513158  1
  I  I79  1  0.83876257  0.66672003  0.49451310  1
  I  I80  1  0.83624142  0.66762195  0.83904218  1
  I  I81  1  0.16191219  0.16372915  -0.00014052  1
  I  I82  1  0.16297572  0.16742965  0.33382071  1
  I  I83  1  0.16817088  0.16699300  0.66639902  1
  I  I84  1  0.16847450  0.49879386  0.00000093  1
  I  I85  1  0.17176191  0.50118064  0.33781713  1
  I  I86  1  0.17192022  0.49554220  0.66371746  1
  I  I87  1  0.16405029  0.83714757  -0.00291402  1
  I  I88  1  0.16921128  0.83395794  0.33631697  1
  I  I89  1  0.16446294  0.83760810  0.66644788  1
  I  I90  1  0.49627041  0.16924659  -0.00001789  1
  I  I91  1  0.49829776  0.16960416  0.33340252  1
  I  I92  1  0.50036248  0.16928720  0.66671382  1
  I  I93  1  0.50516881  0.49776586  -0.00070907  1
  I  I94  1  0.49487492  0.50268050  0.33463850  1
  I  I95  1  0.49851105  0.50436462  0.66591420  1
  I  I96  1  0.49718711  0.83097082  -0.00005546  1
  I  I97  1  0.49305173  0.82766750  0.33719068  1
  I  I98  1  0.49877659  0.82606073  0.66342459  1
  I  I99  1  0.84085855  0.16698449  0.00297173  1
  I  I100  1  0.83852051  0.16111431  0.32926608  1
  I  I101  1  0.83375352  0.16672385  0.66703687  1
  I  I102  1  0.82888930  0.50108953  -0.00345321  1
  I  I103  1  0.83270401  0.50007814  0.33321545  1
  I  I104  1  0.82922133  0.50671994  0.67074944  1
  I  I105  1  0.83980135  0.83226951  -0.00108431  1
  I  I106  1  0.83375191  0.83745242  0.33092121  1
  I  I107  1  0.83559044  0.82785730  0.66983721  1
  I  I108  1  0.00081644  0.16410036  0.16788816  1
  I  I109  1  0.00495358  0.16634306  0.50333281  1
  I  I110  1  0.00360817  0.16870025  0.82999996  1
  I  I111  1  -0.00006191  0.50063846  0.16705140  1
  I  I112  1  0.00326736  0.50020641  0.50193867  1
  I  I113  1  -0.00200783  0.50070295  0.83212436  1
  I  I114  1  -0.00281402  0.83358496  0.16780349  1
  I  I115  1  0.00340820  0.83353019  0.50129943  1
  I  I116  1  0.00046140  0.83092829  0.83072124  1
  I  I117  1  0.32997054  0.16886909  0.16793305  1
  I  I118  1  0.32915390  0.16776758  0.49740119  1
  I  I119  1  0.32829366  0.16173635  0.83517355  1
  I  I120  1  0.33656295  0.49851095  0.16099301  1
  I  I121  1  0.33341663  0.49951738  0.50257912  1
  I  I122  1  0.33577029  0.49860629  0.83369995  1
  I  I123  1  0.33351602  0.83416885  0.16429236  1
  I  I124  1  0.33163185  0.83228342  0.50534262  1
  I  I125  1  0.33030730  0.83609969  0.83030162  1
  I  I126  1  0.66965585  0.16394887  0.16554905  1
  I  I127  1  0.66669650  0.16716246  0.49811244  1
  I  I128  1  0.66679912  0.16506912  0.83524038  1
  I  I129  1  0.66350732  0.49823862  0.17290078  1
  I  I130  1  0.66316528  0.50596129  0.49759584  1
  I  I131  1  0.66651196  0.50621360  0.83198571  1
  I  I132  1  0.67078121  0.84009265  0.16058451  1
  I  I133  1  0.66387392  0.82472963  0.49853438  1
  I  I134  1  0.66937313  0.82971063  0.83596012  1
