# generated using pymatgen
data_Cs27Sn13Pb14I81
_symmetry_space_group_name_H-M   'P 1'
_cell_length_a   18.99514549
_cell_length_b   18.99292647
_cell_length_c   18.98414600
_cell_angle_alpha   90.00018639
_cell_angle_beta   89.99939046
_cell_angle_gamma   90.00072629
_symmetry_Int_Tables_number   1
_chemical_formula_structural   Cs27Sn13Pb14I81
_chemical_formula_sum   'Cs27 Sn13 Pb14 I81'
_cell_volume   6848.97492601
_cell_formula_units_Z   1
loop_
 _symmetry_equiv_pos_site_id
 _symmetry_equiv_pos_as_xyz
  1  'x, y, z'
loop_
 _atom_site_type_symbol
 _atom_site_label
 _atom_site_symmetry_multiplicity
 _atom_site_fract_x
 _atom_site_fract_y
 _atom_site_fract_z
 _atom_site_occupancy
  Cs  Cs0  1  -0.00003734  -0.00233567  -0.00279855  1
  Cs  Cs1  1  -0.00034547  0.00112720  0.33452697  1
  Cs  Cs2  1  -0.00040090  -0.00095710  0.66582658  1
  Cs  Cs3  1  -0.00157338  0.33204261  0.00029392  1
  Cs  Cs4  1  0.00075958  0.33209886  0.33564050  1
  Cs  Cs5  1  0.00304424  0.34205651  0.66379249  1
  Cs  Cs6  1  -0.00556187  0.66932244  -0.00615944  1
  Cs  Cs7  1  -0.00522144  0.66715562  0.33184116  1
  Cs  Cs8  1  0.00180609  0.66189489  0.67575625  1
  Cs  Cs9  1  0.33300098  -0.00027377  0.00096540  1
  Cs  Cs10  1  0.33333540  -0.00023856  0.33302371  1
  Cs  Cs11  1  0.33308846  -0.00155781  0.66501079  1
  Cs  Cs12  1  0.33492150  0.33190979  0.00270755  1
  Cs  Cs13  1  0.33041351  0.33045375  0.33053452  1
  Cs  Cs14  1  0.33076727  0.34182014  0.66808023  1
  Cs  Cs15  1  0.33112774  0.66888921  0.00067810  1
  Cs  Cs16  1  0.33651105  0.67013983  0.33225904  1
  Cs  Cs17  1  0.33532834  0.66051247  0.66858700  1
  Cs  Cs18  1  0.66750087  0.00130656  -0.00250768  1
  Cs  Cs19  1  0.66702276  0.00015018  0.33467816  1
  Cs  Cs20  1  0.66719608  0.00139461  0.66500607  1
  Cs  Cs21  1  0.66555635  0.33149800  -0.00714835  1
  Cs  Cs22  1  0.66893757  0.33081614  0.33203876  1
  Cs  Cs23  1  0.66595721  0.33727967  0.67732344  1
  Cs  Cs24  1  0.67528472  0.66870141  0.00172135  1
  Cs  Cs25  1  0.66854873  0.66526752  0.33527863  1
  Cs  Cs26  1  0.66132051  0.65617533  0.66063488  1
  Sn  Sn27  1  0.16676028  0.83306906  0.16745478  1
  Sn  Sn28  1  0.16564220  0.83326823  0.49942965  1
  Sn  Sn29  1  0.50025067  0.83374253  0.83409598  1
  Sn  Sn30  1  0.49952136  0.50011326  0.16678499  1
  Sn  Sn31  1  0.50043818  0.16647395  0.16736942  1
  Sn  Sn32  1  0.16702072  0.50062273  0.16700678  1
  Sn  Sn33  1  0.83228912  0.16607017  0.49955473  1
  Sn  Sn34  1  0.83447837  0.83387935  0.50024260  1
  Sn  Sn35  1  0.50068099  0.16677553  0.49976555  1
  Sn  Sn36  1  0.83324347  0.16614928  0.16716501  1
  Sn  Sn37  1  0.16689955  0.16634333  0.83364702  1
  Sn  Sn38  1  0.16636606  0.16627568  0.16576987  1
  Sn  Sn39  1  0.49974508  0.83340420  0.16561942  1
  Pb  Pb40  1  0.83324435  0.83564035  0.16810291  1
  Pb  Pb41  1  0.49784949  0.16518198  0.83322121  1
  Pb  Pb42  1  0.16671878  0.50390889  0.49673575  1
  Pb  Pb43  1  0.82995819  0.83365012  0.82932307  1
  Pb  Pb44  1  0.16830982  0.83489711  0.83350459  1
  Pb  Pb45  1  0.83337520  0.49929304  0.49969043  1
  Pb  Pb46  1  0.83330330  0.49689811  0.16668757  1
  Pb  Pb47  1  0.16693651  0.49724425  0.83696484  1
  Pb  Pb48  1  0.83606676  0.16646025  0.83238258  1
  Pb  Pb49  1  0.49973545  0.50319447  0.83719489  1
  Pb  Pb50  1  0.49986988  0.49604403  0.49682792  1
  Pb  Pb51  1  0.49995141  0.83481222  0.49953524  1
  Pb  Pb52  1  0.16667514  0.16542012  0.49991773  1
  Pb  Pb53  1  0.83332264  0.49998004  0.83364074  1
  I  I54  1  0.17020249  0.00021953  0.16703754  1
  I  I55  1  0.16662996  -0.00238590  0.49329796  1
  I  I56  1  0.16801216  0.00251011  0.84119213  1
  I  I57  1  0.16997401  0.33203832  0.16191441  1
  I  I58  1  0.16622852  0.33342162  0.50059276  1
  I  I59  1  0.16769608  0.32929428  0.83717771  1
  I  I60  1  0.17579916  0.66770554  0.17295854  1
  I  I61  1  0.16209332  0.67200503  0.49519781  1
  I  I62  1  0.16737190  0.66664644  0.83261834  1
  I  I63  1  0.49645766  0.00039976  0.16708984  1
  I  I64  1  0.50055911  0.00264996  0.49305799  1
  I  I65  1  0.49800537  -0.00236569  0.84067150  1
  I  I66  1  0.49637778  0.33198228  0.17260302  1
  I  I67  1  0.50509127  0.32795641  0.49474551  1
  I  I68  1  0.49970668  0.33347087  0.83258471  1
  I  I69  1  0.49142522  0.66758799  0.16223153  1
  I  I70  1  0.50077664  0.66656755  0.50047255  1
  I  I71  1  0.49776263  0.67092358  0.83565845  1
  I  I72  1  0.83337365  0.00372379  0.16934279  1
  I  I73  1  0.83321867  0.00098248  0.49478464  1
  I  I74  1  0.83352469  0.00004766  0.83601485  1
  I  I75  1  0.83449967  0.32851192  0.17333205  1
  I  I76  1  0.83021574  0.32925441  0.49425543  1
  I  I77  1  0.83226696  0.33263802  0.83277041  1
  I  I78  1  0.83285179  0.66689007  0.16833803  1
  I  I79  1  0.83658821  0.66985313  0.49895378  1
  I  I80  1  0.83513820  0.66733688  0.83404738  1
  I  I81  1  0.16767804  0.16474731  0.00329732  1
  I  I82  1  0.16737294  0.16815723  0.32975220  1
  I  I83  1  0.16738975  0.16157146  0.66841491  1
  I  I84  1  0.17178328  0.50457694  0.00499097  1
  I  I85  1  0.17079532  0.49200411  0.32881834  1
  I  I86  1  0.16538768  0.49853888  0.66676267  1
  I  I87  1  0.16994244  0.83260361  0.00376350  1
  I  I88  1  0.16993233  0.83682831  0.33143725  1
  I  I89  1  0.16478158  0.83926580  0.66404358  1
  I  I90  1  0.50183396  0.16862157  0.00386988  1
  I  I91  1  0.49817815  0.16397177  0.33112450  1
  I  I92  1  0.50325613  0.16110023  0.66397405  1
  I  I93  1  0.49492393  0.49197150  0.00498769  1
  I  I94  1  0.49580393  0.50638852  0.32886588  1
  I  I95  1  0.50123552  0.50071990  0.66680754  1
  I  I96  1  0.49292997  0.83606029  0.00291748  1
  I  I97  1  0.49798898  0.83257794  0.32988186  1
  I  I98  1  0.49974438  0.83883352  0.66816458  1
  I  I99  1  0.83045727  0.16767634  0.00304082  1
  I  I100  1  0.83418367  0.16313744  0.33261015  1
  I  I101  1  0.82896747  0.16147420  0.66285670  1
  I  I102  1  0.83346694  0.49886719  0.00080131  1
  I  I103  1  0.83300109  0.50186987  0.33295348  1
  I  I104  1  0.83320620  0.49783485  0.66636800  1
  I  I105  1  0.83564608  0.83418751  -0.00013685  1
  I  I106  1  0.83265670  0.83658727  0.33598496  1
  I  I107  1  0.83967551  0.84318108  0.66161399  1
  I  I108  1  0.00084336  0.16688058  0.16699007  1
  I  I109  1  -0.00240841  0.16338402  0.49544615  1
  I  I110  1  0.00363631  0.16439878  0.84030915  1
  I  I111  1  0.00324588  0.49938140  0.16738197  1
  I  I112  1  0.00024712  0.49403095  0.49678520  1
  I  I113  1  0.00060504  0.50006513  0.83524001  1
  I  I114  1  0.00301151  0.83401189  0.16961159  1
  I  I115  1  0.00048443  0.84148592  0.49220974  1
  I  I116  1  -0.00007087  0.83404821  0.83566373  1
  I  I117  1  0.33347433  0.16663260  0.16710941  1
  I  I118  1  0.33554856  0.16343721  0.49504689  1
  I  I119  1  0.33042119  0.16444254  0.83925084  1
  I  I120  1  0.33330067  0.49511018  0.16716364  1
  I  I121  1  0.33331014  0.49961180  0.50219152  1
  I  I122  1  0.33337184  0.49951256  0.82996713  1
  I  I123  1  0.33311326  0.83760925  0.16902642  1
  I  I124  1  0.33122331  0.83678338  0.49721015  1
  I  I125  1  0.33596063  0.83601720  0.83411964  1
  I  I126  1  0.66576163  0.16611490  0.17224743  1
  I  I127  1  0.66675788  0.15888023  0.48936629  1
  I  I128  1  0.66651768  0.16608563  0.83583222  1
  I  I129  1  0.66337799  0.50127898  0.16732438  1
  I  I130  1  0.66643082  0.50648327  0.49672094  1
  I  I131  1  0.66601032  0.49870615  0.83513487  1
  I  I132  1  0.66355183  0.83334259  0.16441853  1
  I  I133  1  0.66872292  0.83733841  0.49965083  1
  I  I134  1  0.66254235  0.83624346  0.84244609  1
