# generated using pymatgen
data_Cs27Sn14Pb13I81
_symmetry_space_group_name_H-M   'P 1'
_cell_length_a   18.98761854
_cell_length_b   18.97439900
_cell_length_c   18.96719384
_cell_angle_alpha   89.99910537
_cell_angle_beta   89.99982788
_cell_angle_gamma   89.99989460
_symmetry_Int_Tables_number   1
_chemical_formula_structural   Cs27Sn14Pb13I81
_chemical_formula_sum   'Cs27 Sn14 Pb13 I81'
_cell_volume   6833.47499461
_cell_formula_units_Z   1
loop_
 _symmetry_equiv_pos_site_id
 _symmetry_equiv_pos_as_xyz
  1  'x, y, z'
loop_
 _atom_site_type_symbol
 _atom_site_label
 _atom_site_symmetry_multiplicity
 _atom_site_fract_x
 _atom_site_fract_y
 _atom_site_fract_z
 _atom_site_occupancy
  Cs  Cs0  1  0.00156964  -0.00223265  0.00039995  1
  Cs  Cs1  1  -0.00160535  -0.00073283  0.33149696  1
  Cs  Cs2  1  -0.00272811  0.00357707  0.66731126  1
  Cs  Cs3  1  0.00080265  0.33603999  0.00142098  1
  Cs  Cs4  1  0.00155682  0.33335176  0.33210312  1
  Cs  Cs5  1  -0.00485262  0.33271118  0.66623745  1
  Cs  Cs6  1  -0.00052265  0.66633051  -0.00010907  1
  Cs  Cs7  1  -0.00047584  0.66721048  0.33828261  1
  Cs  Cs8  1  0.00297189  0.66429037  0.66727463  1
  Cs  Cs9  1  0.33239658  -0.00093799  0.00043506  1
  Cs  Cs10  1  0.33369777  0.00250403  0.33203351  1
  Cs  Cs11  1  0.33362355  -0.00044750  0.66644056  1
  Cs  Cs12  1  0.33415792  0.33445296  0.00014000  1
  Cs  Cs13  1  0.33244094  0.33014264  0.33075398  1
  Cs  Cs14  1  0.33654573  0.33173074  0.66924214  1
  Cs  Cs15  1  0.33193762  0.66767310  0.00007842  1
  Cs  Cs16  1  0.33387647  0.66535156  0.34067138  1
  Cs  Cs17  1  0.33269886  0.66764456  0.65984370  1
  Cs  Cs18  1  0.66609971  -0.00326490  0.00102711  1
  Cs  Cs19  1  0.66698716  -0.00057967  0.33271967  1
  Cs  Cs20  1  0.66884490  0.00329619  0.66501644  1
  Cs  Cs21  1  0.66483285  0.33641940  -0.00062131  1
  Cs  Cs22  1  0.66598954  0.33333298  0.33273426  1
  Cs  Cs23  1  0.66923803  0.33180775  0.66798234  1
  Cs  Cs24  1  0.66875026  0.66696198  -0.00035341  1
  Cs  Cs25  1  0.66595520  0.66787920  0.34179031  1
  Cs  Cs26  1  0.66432682  0.66514492  0.66284412  1
  Sn  Sn27  1  0.83330849  0.16736592  0.16600723  1
  Sn  Sn28  1  0.83414245  0.50119844  0.83455629  1
  Sn  Sn29  1  0.83364418  0.83242825  0.83367425  1
  Sn  Sn30  1  0.50001299  0.16589781  0.16682637  1
  Sn  Sn31  1  0.16606437  0.50059007  0.16608826  1
  Sn  Sn32  1  0.16759573  0.83278914  0.16632444  1
  Sn  Sn33  1  0.49909246  0.83350830  0.16599023  1
  Sn  Sn34  1  0.49903190  0.16660068  0.49909403  1
  Sn  Sn35  1  0.83396150  0.49978700  0.16627573  1
  Sn  Sn36  1  0.49965076  0.83325874  0.83413961  1
  Sn  Sn37  1  0.16737317  0.16660666  0.49941489  1
  Sn  Sn38  1  0.16667202  0.16657957  0.16702986  1
  Sn  Sn39  1  0.16623406  0.50078585  0.83422397  1
  Sn  Sn40  1  0.16673095  0.83248362  0.83409068  1
  Pb  Pb41  1  0.83339704  0.16724269  0.83632315  1
  Pb  Pb42  1  0.49982299  0.83573890  0.49948448  1
  Pb  Pb43  1  0.83344420  0.16676495  0.49682428  1
  Pb  Pb44  1  0.50001693  0.16429902  0.83400504  1
  Pb  Pb45  1  0.49966182  0.50295082  0.83355843  1
  Pb  Pb46  1  0.83336418  0.83250853  0.16560031  1
  Pb  Pb47  1  0.49981007  0.49632321  0.49994110  1
  Pb  Pb48  1  0.16649244  0.83595340  0.49989481  1
  Pb  Pb49  1  0.49987906  0.50079357  0.16673011  1
  Pb  Pb50  1  0.16661805  0.16700305  0.83373330  1
  Pb  Pb51  1  0.83362988  0.83329472  0.50398771  1
  Pb  Pb52  1  0.16668446  0.49713383  0.50016031  1
  Pb  Pb53  1  0.83361850  0.49991283  0.49991173  1
  I  I54  1  0.16700497  0.00005660  0.16628367  1
  I  I55  1  0.17103419  0.00377836  0.49559650  1
  I  I56  1  0.16645230  -0.00322021  0.83655989  1
  I  I57  1  0.16618366  0.33312598  0.16680175  1
  I  I58  1  0.17101983  0.32938818  0.49457941  1
  I  I59  1  0.16083784  0.33654397  0.83630076  1
  I  I60  1  0.16639928  0.66688029  0.16037853  1
  I  I61  1  0.16592099  0.66661415  0.49763743  1
  I  I62  1  0.16573553  0.66728865  0.84159830  1
  I  I63  1  0.49736667  0.00041627  0.16628413  1
  I  I64  1  0.49514780  0.00346998  0.49800219  1
  I  I65  1  0.49897272  -0.00401042  0.83512895  1
  I  I66  1  0.49797644  0.33036671  0.17166779  1
  I  I67  1  0.49551824  0.32821630  0.49242715  1
  I  I68  1  0.50039108  0.33339737  0.83186927  1
  I  I69  1  0.49720440  0.67021591  0.16011803  1
  I  I70  1  0.50165187  0.66701462  0.49949812  1
  I  I71  1  0.50033322  0.67105906  0.84183428  1
  I  I72  1  0.83546680  0.00213169  0.16581901  1
  I  I73  1  0.83357993  0.00041122  0.50053085  1
  I  I74  1  0.83420546  -0.00297800  0.83432692  1
  I  I75  1  0.83635759  0.33341903  0.16158132  1
  I  I76  1  0.83214250  0.33307022  0.50639025  1
  I  I77  1  0.83929164  0.33681917  0.83438447  1
  I  I78  1  0.83659395  0.66379001  0.16309512  1
  I  I79  1  0.83220627  0.66653388  0.49274241  1
  I  I80  1  0.83397350  0.66646450  0.84102300  1
  I  I81  1  0.16762040  0.16615989  0.00372283  1
  I  I82  1  0.16745707  0.16689038  0.33076790  1
  I  I83  1  0.17246047  0.16591986  0.66419791  1
  I  I84  1  0.16266667  0.49835456  0.00103866  1
  I  I85  1  0.16255058  0.50232513  0.32959492  1
  I  I86  1  0.16253202  0.50421975  0.67022669  1
  I  I87  1  0.16742278  0.83580936  0.00057030  1
  I  I88  1  0.17193882  0.83093396  0.32945080  1
  I  I89  1  0.16698940  0.82973879  0.67031612  1
  I  I90  1  0.49815745  0.16491072  0.00386234  1
  I  I91  1  0.49920590  0.16087311  0.33113886  1
  I  I92  1  0.49434081  0.16557907  0.66399931  1
  I  I93  1  0.50022231  0.49282445  0.00021160  1
  I  I94  1  0.50086237  0.50609877  0.33287091  1
  I  I95  1  0.50012042  0.50016441  0.66702398  1
  I  I96  1  0.49874047  0.84036098  0.00075373  1
  I  I97  1  0.49500799  0.83526558  0.32966422  1
  I  I98  1  0.49991491  0.83373693  0.66978667  1
  I  I99  1  0.83443562  0.16744116  0.00442860  1
  I  I100  1  0.83368476  0.17200493  0.32852040  1
  I  I101  1  0.83261165  0.16604496  0.66673674  1
  I  I102  1  0.83790902  0.49914333  0.00020346  1
  I  I103  1  0.83772344  0.49451403  0.32951606  1
  I  I104  1  0.83788464  0.50472988  0.67050201  1
  I  I105  1  0.83319643  0.83324116  -0.00265842  1
  I  I106  1  0.83264159  0.83363043  0.33297169  1
  I  I107  1  0.83352664  0.82807388  0.67266227  1
  I  I108  1  0.00106343  0.16656558  0.16995633  1
  I  I109  1  0.00293876  0.16660624  0.49638074  1
  I  I110  1  0.00011095  0.16051779  0.83147662  1
  I  I111  1  0.00090606  0.49548445  0.16232865  1
  I  I112  1  0.00027457  0.49621241  0.50007769  1
  I  I113  1  0.00043283  0.50833453  0.83798304  1
  I  I114  1  0.00299932  0.83749290  0.16258906  1
  I  I115  1  0.00031057  0.83772763  0.49739228  1
  I  I116  1  0.00087735  0.83006827  0.83817916  1
  I  I117  1  0.33282844  0.16599007  0.17077495  1
  I  I118  1  0.33316146  0.16640908  0.49072680  1
  I  I119  1  0.33319794  0.16779437  0.83635737  1
  I  I120  1  0.32980155  0.49663254  0.16194418  1
  I  I121  1  0.33292647  0.50231971  0.50066253  1
  I  I122  1  0.32975365  0.50182801  0.83853560  1
  I  I123  1  0.33253111  0.83796776  0.15823467  1
  I  I124  1  0.33318510  0.83185122  0.50554451  1
  I  I125  1  0.33242971  0.83108923  0.83803117  1
  I  I126  1  0.66612420  0.16591205  0.16967282  1
  I  I127  1  0.66371782  0.16527578  0.49619597  1
  I  I128  1  0.66671299  0.16631438  0.83275989  1
  I  I129  1  0.66975729  0.49545130  0.16159822  1
  I  I130  1  0.66684781  0.49835778  0.50011227  1
  I  I131  1  0.66988661  0.50289347  0.83812164  1
  I  I132  1  0.66427847  0.83839458  0.16184621  1
  I  I133  1  0.66650047  0.83660089  0.49825333  1
  I  I134  1  0.66658083  0.83119763  0.83863743  1
