# generated using pymatgen
data_Cs27Sn13Pb14I81
_symmetry_space_group_name_H-M   'P 1'
_cell_length_a   18.97584811
_cell_length_b   18.97790620
_cell_length_c   18.97699534
_cell_angle_alpha   89.99975578
_cell_angle_beta   90.00028227
_cell_angle_gamma   90.00093990
_symmetry_Int_Tables_number   1
_chemical_formula_structural   Cs27Sn13Pb14I81
_chemical_formula_sum   'Cs27 Sn13 Pb14 I81'
_cell_volume   6834.03096115
_cell_formula_units_Z   1
loop_
 _symmetry_equiv_pos_site_id
 _symmetry_equiv_pos_as_xyz
  1  'x, y, z'
loop_
 _atom_site_type_symbol
 _atom_site_label
 _atom_site_symmetry_multiplicity
 _atom_site_fract_x
 _atom_site_fract_y
 _atom_site_fract_z
 _atom_site_occupancy
  Cs  Cs0  1  -0.00436616  -0.00373025  -0.00771097  1
  Cs  Cs1  1  -0.00210071  -0.00020599  0.33261814  1
  Cs  Cs2  1  0.00015972  0.00054290  0.67246953  1
  Cs  Cs3  1  0.00060115  0.33033765  -0.00058671  1
  Cs  Cs4  1  0.00267167  0.33279422  0.33292603  1
  Cs  Cs5  1  -0.00032205  0.33312616  0.66851565  1
  Cs  Cs6  1  0.00280928  0.67331618  -0.00009323  1
  Cs  Cs7  1  -0.00151508  0.66831650  0.33546073  1
  Cs  Cs8  1  -0.01026758  0.66538848  0.66340939  1
  Cs  Cs9  1  0.33287521  -0.00099978  -0.00207961  1
  Cs  Cs10  1  0.33397765  0.00073564  0.33468730  1
  Cs  Cs11  1  0.33327792  0.00106206  0.66653632  1
  Cs  Cs12  1  0.33234494  0.33396840  0.00148611  1
  Cs  Cs13  1  0.33200280  0.33219261  0.33402755  1
  Cs  Cs14  1  0.33422357  0.33495456  0.66358583  1
  Cs  Cs15  1  0.33387632  0.66692763  0.00135422  1
  Cs  Cs16  1  0.33161762  0.66717832  0.33164983  1
  Cs  Cs17  1  0.33392337  0.66450226  0.66553384  1
  Cs  Cs18  1  0.66810963  0.00201122  0.00115051  1
  Cs  Cs19  1  0.66781756  0.00111405  0.33403920  1
  Cs  Cs20  1  0.66457203  -0.00181082  0.66425682  1
  Cs  Cs21  1  0.66896337  0.33375963  0.00018488  1
  Cs  Cs22  1  0.66494064  0.32993750  0.33206538  1
  Cs  Cs23  1  0.66434731  0.34142675  0.66670633  1
  Cs  Cs24  1  0.66434014  0.66349775  -0.00262966  1
  Cs  Cs25  1  0.67010943  0.66881252  0.33297340  1
  Cs  Cs26  1  0.67429493  0.66068330  0.66860506  1
  Sn  Sn27  1  0.16568939  0.16556259  0.49928198  1
  Sn  Sn28  1  0.16633699  0.49947270  0.16567895  1
  Sn  Sn29  1  0.49899828  0.16645437  0.16576093  1
  Sn  Sn30  1  0.83401115  0.49994496  0.16668902  1
  Sn  Sn31  1  0.83437126  0.16681190  0.50009255  1
  Sn  Sn32  1  0.49969714  0.16636882  0.83407159  1
  Sn  Sn33  1  0.49959960  0.83373357  0.16668876  1
  Sn  Sn34  1  0.16678233  0.50017263  0.83402322  1
  Sn  Sn35  1  0.16731182  0.83417728  0.50008404  1
  Sn  Sn36  1  0.49917786  0.83307687  0.50016710  1
  Sn  Sn37  1  0.16702929  0.16642963  0.16681636  1
  Sn  Sn38  1  0.49952691  0.83386472  0.83314258  1
  Sn  Sn39  1  0.49999921  0.49973963  0.16694161  1
  Pb  Pb40  1  0.83338578  0.49699467  0.49742067  1
  Pb  Pb41  1  0.83349581  0.83562056  0.49995461  1
  Pb  Pb42  1  0.83662642  0.49975849  0.83641298  1
  Pb  Pb43  1  0.82997969  0.16690938  0.83046381  1
  Pb  Pb44  1  0.83017498  0.83345554  0.83341014  1
  Pb  Pb45  1  0.50004469  0.50330219  0.49707658  1
  Pb  Pb46  1  0.16664332  0.49997544  0.49957941  1
  Pb  Pb47  1  0.16822034  0.83397024  0.16810215  1
  Pb  Pb48  1  0.83050583  0.83101678  0.16653471  1
  Pb  Pb49  1  0.49945004  0.16527009  0.49995842  1
  Pb  Pb50  1  0.49836133  0.49991810  0.83542877  1
  Pb  Pb51  1  0.16870726  0.16801146  0.83344657  1
  Pb  Pb52  1  0.16881165  0.83079412  0.83022782  1
  Pb  Pb53  1  0.83374775  0.16810235  0.16773375  1
  I  I54  1  0.17310965  0.00324425  0.17070624  1
  I  I55  1  0.16821162  0.00099485  0.49392914  1
  I  I56  1  0.16683851  -0.00015515  0.83519655  1
  I  I57  1  0.17205477  0.33319629  0.16929481  1
  I  I58  1  0.16370658  0.33026901  0.49798932  1
  I  I59  1  0.17035088  0.33583013  0.83402031  1
  I  I60  1  0.16866006  0.66389334  0.16495419  1
  I  I61  1  0.17316703  0.66938228  0.49907569  1
  I  I62  1  0.17053796  0.66334385  0.84084476  1
  I  I63  1  0.49519004  0.00053383  0.16660716  1
  I  I64  1  0.49898373  -0.00279259  0.49541649  1
  I  I65  1  0.49867668  -0.00025818  0.83837007  1
  I  I66  1  0.49936098  0.33285066  0.16235223  1
  I  I67  1  0.49966033  0.33321916  0.50056023  1
  I  I68  1  0.49866108  0.33076023  0.83743736  1
  I  I69  1  0.49956580  0.66657955  0.16736876  1
  I  I70  1  0.49309537  0.67158279  0.50038577  1
  I  I71  1  0.49767002  0.66929151  0.83462471  1
  I  I72  1  0.83195794  0.00018835  0.16892291  1
  I  I73  1  0.83349557  0.00317645  0.49665901  1
  I  I74  1  0.83641137  0.00032281  0.83463203  1
  I  I75  1  0.82818640  0.33614780  0.16889495  1
  I  I76  1  0.83914534  0.32944364  0.49911422  1
  I  I77  1  0.82952179  0.33339760  0.83187825  1
  I  I78  1  0.83449741  0.66267406  0.16771714  1
  I  I79  1  0.83314111  0.66662595  0.49954792  1
  I  I80  1  0.83077684  0.66637696  0.83208005  1
  I  I81  1  0.17074461  0.17079190  0.00317017  1
  I  I82  1  0.16982935  0.16972573  0.33252974  1
  I  I83  1  0.16535022  0.16497255  0.66383071  1
  I  I84  1  0.16823009  0.49445175  0.00247104  1
  I  I85  1  0.16819720  0.49860862  0.32970228  1
  I  I86  1  0.16943979  0.49965778  0.66888420  1
  I  I87  1  0.16843108  0.83439682  -0.00014798  1
  I  I88  1  0.17364812  0.83262621  0.33605222  1
  I  I89  1  0.17396372  0.83879325  0.66252400  1
  I  I90  1  0.49496398  0.16253697  0.00189922  1
  I  I91  1  0.49936837  0.16704413  0.33029134  1
  I  I92  1  0.49978174  0.16120212  0.66877251  1
  I  I93  1  0.50101189  0.50411782  0.00397442  1
  I  I94  1  0.49591596  0.49736446  0.32837646  1
  I  I95  1  0.49784098  0.49883488  0.66685826  1
  I  I96  1  0.50056967  0.83318033  0.00074270  1
  I  I97  1  0.49625632  0.83279805  0.33282037  1
  I  I98  1  0.49507259  0.84084184  0.66659499  1
  I  I99  1  0.83446289  0.16807233  -0.00001083  1
  I  I100  1  0.83202587  0.16777515  0.33573352  1
  I  I101  1  0.83975592  0.16541281  0.66260810  1
  I  I102  1  0.82783361  0.49767150  0.00419575  1
  I  I103  1  0.83493397  0.50061419  0.32953470  1
  I  I104  1  0.83400915  0.50022127  0.66680312  1
  I  I105  1  0.83357643  0.83433341  0.00016685  1
  I  I106  1  0.82957471  0.83204208  0.33331922  1
  I  I107  1  0.83089398  0.83229653  0.66641267  1
  I  I108  1  0.00337457  0.17322364  0.17083893  1
  I  I109  1  0.00210598  0.16218287  0.49291217  1
  I  I110  1  0.00025536  0.16847937  0.83549068  1
  I  I111  1  0.00148330  0.49336327  0.16377679  1
  I  I112  1  0.00026987  0.50527541  0.49775314  1
  I  I113  1  0.00434202  0.49859001  0.83785779  1
  I  I114  1  0.00021609  0.83221411  0.17002298  1
  I  I115  1  0.00317641  0.83398652  0.49820689  1
  I  I116  1  0.00047685  0.83199446  0.83194797  1
  I  I117  1  0.33390742  0.17158000  0.16964130  1
  I  I118  1  0.33069815  0.16485666  0.49802615  1
  I  I119  1  0.33670079  0.16335185  0.83343747  1
  I  I120  1  0.33335263  0.49943477  0.16324806  1
  I  I121  1  0.33329273  0.49556518  0.49806595  1
  I  I122  1  0.33081396  0.49981115  0.83974350  1
  I  I123  1  0.33700142  0.82902358  0.16571627  1
  I  I124  1  0.33403044  0.83941219  0.49866627  1
  I  I125  1  0.33709904  0.83657787  0.83631499  1
  I  I126  1  0.66330567  0.16743615  0.16571106  1
  I  I127  1  0.66793074  0.16504592  0.49874361  1
  I  I128  1  0.66176126  0.16314111  0.83914080  1
  I  I129  1  0.66523321  0.50060689  0.16864852  1
  I  I130  1  0.66654773  0.49897305  0.49891119  1
  I  I131  1  0.66652409  0.50070312  0.83399573  1
  I  I132  1  0.66126011  0.83470575  0.17002626  1
  I  I133  1  0.66332166  0.83540322  0.49872170  1
  I  I134  1  0.66123064  0.83580946  0.83141285  1
