# generated using pymatgen
data_Cs27Sn13Pb14I81
_symmetry_space_group_name_H-M   'P 1'
_cell_length_a   18.98090152
_cell_length_b   18.96763425
_cell_length_c   18.98180832
_cell_angle_alpha   90.00012626
_cell_angle_beta   90.00031416
_cell_angle_gamma   90.00185238
_symmetry_Int_Tables_number   1
_chemical_formula_structural   Cs27Sn13Pb14I81
_chemical_formula_sum   'Cs27 Sn13 Pb14 I81'
_cell_volume   6833.88373549
_cell_formula_units_Z   1
loop_
 _symmetry_equiv_pos_site_id
 _symmetry_equiv_pos_as_xyz
  1  'x, y, z'
loop_
 _atom_site_type_symbol
 _atom_site_label
 _atom_site_symmetry_multiplicity
 _atom_site_fract_x
 _atom_site_fract_y
 _atom_site_fract_z
 _atom_site_occupancy
  Cs  Cs0  1  0.00022881  0.00062666  -0.00308140  1
  Cs  Cs1  1  0.00103230  0.00358368  0.33253670  1
  Cs  Cs2  1  -0.00146759  -0.00185822  0.67121976  1
  Cs  Cs3  1  0.00053303  0.33334237  -0.00045847  1
  Cs  Cs4  1  -0.00013945  0.33437696  0.33374927  1
  Cs  Cs5  1  -0.00032935  0.33216987  0.66717561  1
  Cs  Cs6  1  -0.00026305  0.66599069  0.00272385  1
  Cs  Cs7  1  -0.00712475  0.66466314  0.33818652  1
  Cs  Cs8  1  0.00094985  0.67135306  0.65842679  1
  Cs  Cs9  1  0.33230071  -0.00014605  0.00376656  1
  Cs  Cs10  1  0.33612251  0.00151864  0.33106625  1
  Cs  Cs11  1  0.33178525  -0.00248396  0.66524106  1
  Cs  Cs12  1  0.33308439  0.33421955  0.00040712  1
  Cs  Cs13  1  0.33321069  0.33213782  0.33309559  1
  Cs  Cs14  1  0.33467706  0.33386277  0.66690064  1
  Cs  Cs15  1  0.33383848  0.66286289  -0.00412421  1
  Cs  Cs16  1  0.33161138  0.66569684  0.33607949  1
  Cs  Cs17  1  0.33411086  0.67428392  0.66734770  1
  Cs  Cs18  1  0.66916261  -0.00643654  0.00252927  1
  Cs  Cs19  1  0.66269676  -0.00368014  0.33101396  1
  Cs  Cs20  1  0.67081494  -0.00205685  0.66766503  1
  Cs  Cs21  1  0.66593750  0.33439780  -0.00247146  1
  Cs  Cs22  1  0.66596161  0.33313194  0.33372141  1
  Cs  Cs23  1  0.66401335  0.33233086  0.66833719  1
  Cs  Cs24  1  0.66629732  0.67090508  -0.00002156  1
  Cs  Cs25  1  0.67589705  0.67170325  0.33300912  1
  Cs  Cs26  1  0.66216536  0.67428680  0.66753874  1
  Sn  Sn27  1  0.16539520  0.49925728  0.83335746  1
  Sn  Sn28  1  0.16675702  0.83264217  0.16690113  1
  Sn  Sn29  1  0.49920571  0.16682433  0.83294185  1
  Sn  Sn30  1  0.83304643  0.16740469  0.49910313  1
  Sn  Sn31  1  0.16666673  0.16725515  0.50026748  1
  Sn  Sn32  1  0.49973497  0.49965892  0.16794353  1
  Sn  Sn33  1  0.16725471  0.50011717  0.16645615  1
  Sn  Sn34  1  0.50007896  0.16741718  0.50102138  1
  Sn  Sn35  1  0.83374440  0.16741647  0.16706781  1
  Sn  Sn36  1  0.16787276  0.16767103  0.83332273  1
  Sn  Sn37  1  0.50000030  0.49938957  0.49898461  1
  Sn  Sn38  1  0.83440862  0.49991204  0.83289807  1
  Sn  Sn39  1  0.16583621  0.16704866  0.16656182  1
  Pb  Pb40  1  0.83039259  0.49783058  0.50273683  1
  Pb  Pb41  1  0.83391324  0.82928523  0.83348457  1
  Pb  Pb42  1  0.16831147  0.49826815  0.50037368  1
  Pb  Pb43  1  0.16662469  0.83305302  0.83547343  1
  Pb  Pb44  1  0.49941812  0.49874950  0.83304576  1
  Pb  Pb45  1  0.49984797  0.83370572  0.49968573  1
  Pb  Pb46  1  0.50007225  0.16802823  0.16653034  1
  Pb  Pb47  1  0.83337957  0.16759867  0.83348906  1
  Pb  Pb48  1  0.49960094  0.83749626  0.83362847  1
  Pb  Pb49  1  0.83351674  0.49797559  0.16530391  1
  Pb  Pb50  1  0.49733522  0.82928743  0.16683462  1
  Pb  Pb51  1  0.83345984  0.83677909  0.49989877  1
  Pb  Pb52  1  0.16668375  0.83649751  0.49707614  1
  Pb  Pb53  1  0.83625093  0.83640490  0.16661727  1
  I  I54  1  0.16215144  0.00220065  0.16695719  1
  I  I55  1  0.16909163  0.00563292  0.50106261  1
  I  I56  1  0.17033597  0.00386870  0.83361592  1
  I  I57  1  0.16691260  0.33263961  0.16550259  1
  I  I58  1  0.16562075  0.32939868  0.49563395  1
  I  I59  1  0.16692022  0.33216643  0.83859463  1
  I  I60  1  0.17325705  0.66505482  0.15979752  1
  I  I61  1  0.16933776  0.66649672  0.50065656  1
  I  I62  1  0.16368079  0.66292744  0.83888732  1
  I  I63  1  0.49977778  0.00013420  0.16637608  1
  I  I64  1  0.49965055  0.00438096  0.50383432  1
  I  I65  1  0.49449765  0.00589112  0.82756245  1
  I  I66  1  0.49367385  0.33579615  0.16741377  1
  I  I67  1  0.49913114  0.33169963  0.49984977  1
  I  I68  1  0.49789442  0.33053211  0.83164532  1
  I  I69  1  0.49538771  0.66108515  0.17052146  1
  I  I70  1  0.49849744  0.66334361  0.49680864  1
  I  I71  1  0.50023360  0.66646061  0.83288938  1
  I  I72  1  0.83673705  0.00490270  0.16917298  1
  I  I73  1  0.83120080  0.00567068  0.49744892  1
  I  I74  1  0.83253426  0.00021097  0.83298476  1
  I  I75  1  0.83989916  0.32989497  0.16982644  1
  I  I76  1  0.83598146  0.32942747  0.49625314  1
  I  I77  1  0.83532629  0.33518228  0.83418873  1
  I  I78  1  0.83322439  0.66645746  0.16445125  1
  I  I79  1  0.83202157  0.66627994  0.50126541  1
  I  I80  1  0.83861760  0.66128153  0.83556075  1
  I  I81  1  0.16659083  0.16723498  0.00045298  1
  I  I82  1  0.16617126  0.16643702  0.33276620  1
  I  I83  1  0.16745522  0.17220076  0.66705101  1
  I  I84  1  0.16895683  0.49472103  0.00085382  1
  I  I85  1  0.16984049  0.49780039  0.33027937  1
  I  I86  1  0.16460287  0.49306774  0.66961594  1
  I  I87  1  0.16683308  0.83925342  0.00330413  1
  I  I88  1  0.16757389  0.83324614  0.32912632  1
  I  I89  1  0.16683367  0.83330643  0.66654664  1
  I  I90  1  0.49636660  0.17009335  -0.00221670  1
  I  I91  1  0.49757591  0.16891621  0.33590557  1
  I  I92  1  0.49722764  0.17339884  0.66576828  1
  I  I93  1  0.49774475  0.49701402  0.00205234  1
  I  I94  1  0.49321329  0.49191298  0.33310053  1
  I  I95  1  0.50064189  0.49484894  0.66431778  1
  I  I96  1  0.49995137  0.83374933  0.00032558  1
  I  I97  1  0.49812821  0.83969835  0.33316666  1
  I  I98  1  0.49881086  0.82798288  0.66661739  1
  I  I99  1  0.83727361  0.16879731  0.00235274  1
  I  I100  1  0.83765267  0.16804620  0.33338545  1
  I  I101  1  0.83504696  0.16894148  0.66418864  1
  I  I102  1  0.83307156  0.49447478  -0.00240973  1
  I  I103  1  0.83505090  0.50003560  0.33357860  1
  I  I104  1  0.83931798  0.49479398  0.67016649  1
  I  I105  1  0.83295736  0.83799130  0.00022587  1
  I  I106  1  0.83413333  0.83011804  0.33310666  1
  I  I107  1  0.83392877  0.83646666  0.66668157  1
  I  I108  1  0.00200118  0.16826738  0.16940385  1
  I  I109  1  0.00071099  0.16620891  0.49849633  1
  I  I110  1  0.00316239  0.16858746  0.83202249  1
  I  I111  1  0.00352967  0.49996915  0.16358144  1
  I  I112  1  -0.00006381  0.49814487  0.49784792  1
  I  I113  1  0.00209417  0.49165932  0.84054338  1
  I  I114  1  0.00415337  0.82947064  0.16595904  1
  I  I115  1  0.00022565  0.83315078  0.49947765  1
  I  I116  1  0.00040738  0.84038670  0.83432944  1
  I  I117  1  0.33010338  0.16559417  0.16827647  1
  I  I118  1  0.33313368  0.17024342  0.50016442  1
  I  I119  1  0.33181510  0.17271947  0.83130227  1
  I  I120  1  0.33167346  0.49645102  0.16407274  1
  I  I121  1  0.33618377  0.49205388  0.49965140  1
  I  I122  1  0.33030378  0.49623862  0.83635323  1
  I  I123  1  0.32955276  0.84202385  0.16659390  1
  I  I124  1  0.33318193  0.83597904  0.50014888  1
  I  I125  1  0.33300544  0.82865757  0.83359362  1
  I  I126  1  0.66879293  0.17030485  0.16907696  1
  I  I127  1  0.66608270  0.17159104  0.50056609  1
  I  I128  1  0.66449590  0.17059189  0.83008002  1
  I  I129  1  0.66426386  0.49491623  0.16785419  1
  I  I130  1  0.66265078  0.49171045  0.49525518  1
  I  I131  1  0.66802179  0.49531841  0.83367952  1
  I  I132  1  0.66677714  0.83445045  0.16646545  1
  I  I133  1  0.66656759  0.83470583  0.49929810  1
  I  I134  1  0.66670934  0.83328154  0.83424780  1
