# generated using pymatgen
data_Cs27Sn14Pb13I81
_symmetry_space_group_name_H-M   'P 1'
_cell_length_a   18.97479335
_cell_length_b   18.97922525
_cell_length_c   18.97341075
_cell_angle_alpha   89.99943475
_cell_angle_beta   90.00158099
_cell_angle_gamma   90.00193003
_symmetry_Int_Tables_number   1
_chemical_formula_structural   Cs27Sn14Pb13I81
_chemical_formula_sum   'Cs27 Sn14 Pb13 I81'
_cell_volume   6832.83515318
_cell_formula_units_Z   1
loop_
 _symmetry_equiv_pos_site_id
 _symmetry_equiv_pos_as_xyz
  1  'x, y, z'
loop_
 _atom_site_type_symbol
 _atom_site_label
 _atom_site_symmetry_multiplicity
 _atom_site_fract_x
 _atom_site_fract_y
 _atom_site_fract_z
 _atom_site_occupancy
  Cs  Cs0  1  -0.00233040  -0.00156250  -0.00201727  1
  Cs  Cs1  1  -0.00015528  0.00246805  0.33621359  1
  Cs  Cs2  1  -0.00142356  -0.00054678  0.66598494  1
  Cs  Cs3  1  -0.00061386  0.33422536  -0.00017419  1
  Cs  Cs4  1  -0.00039452  0.33235406  0.33182248  1
  Cs  Cs5  1  0.00150827  0.33049716  0.66793909  1
  Cs  Cs6  1  0.00003983  0.66706190  -0.00080318  1
  Cs  Cs7  1  -0.00067286  0.66473005  0.33168242  1
  Cs  Cs8  1  0.00270874  0.66991810  0.66835286  1
  Cs  Cs9  1  0.33536750  -0.00060716  0.00017151  1
  Cs  Cs10  1  0.33495696  0.00026752  0.33294173  1
  Cs  Cs11  1  0.33342325  -0.00061358  0.66680214  1
  Cs  Cs12  1  0.33395399  0.33345057  0.00304051  1
  Cs  Cs13  1  0.33053836  0.33046830  0.32376574  1
  Cs  Cs14  1  0.33491323  0.33428126  0.66802933  1
  Cs  Cs15  1  0.33358127  0.66796798  0.00028344  1
  Cs  Cs16  1  0.33357006  0.67002718  0.33533637  1
  Cs  Cs17  1  0.33207045  0.66704346  0.66680567  1
  Cs  Cs18  1  0.66769773  0.00071805  0.00071579  1
  Cs  Cs19  1  0.66426836  -0.00024526  0.33187799  1
  Cs  Cs20  1  0.66654174  -0.00043381  0.66708506  1
  Cs  Cs21  1  0.66807196  0.33203870  -0.00131356  1
  Cs  Cs22  1  0.66946119  0.34526960  0.33475576  1
  Cs  Cs23  1  0.66327528  0.33446650  0.66624885  1
  Cs  Cs24  1  0.66488295  0.66516919  0.00196387  1
  Cs  Cs25  1  0.66733882  0.65620952  0.33335466  1
  Cs  Cs26  1  0.66625428  0.66594782  0.66348492  1
  Sn  Sn27  1  0.16708695  0.83294123  0.50010509  1
  Sn  Sn28  1  0.83330670  0.16729425  0.83358303  1
  Sn  Sn29  1  0.16591297  0.50003330  0.83257968  1
  Sn  Sn30  1  0.49941266  0.83407259  0.83241338  1
  Sn  Sn31  1  0.83401524  0.49947330  0.83296292  1
  Sn  Sn32  1  0.49958235  0.83423654  0.50101017  1
  Sn  Sn33  1  0.83392182  0.83422255  0.16688131  1
  Sn  Sn34  1  0.16687522  0.16647241  0.83331053  1
  Sn  Sn35  1  0.83314492  0.16565829  0.16637576  1
  Sn  Sn36  1  0.16735412  0.83357342  0.83321431  1
  Sn  Sn37  1  0.16697189  0.50013977  0.50074385  1
  Sn  Sn38  1  0.16560775  0.83384809  0.16672430  1
  Sn  Sn39  1  0.49998137  0.16618867  0.50044014  1
  Sn  Sn40  1  0.49990071  0.16563918  0.83264640  1
  Pb  Pb41  1  0.49944890  0.50017118  0.83342975  1
  Pb  Pb42  1  0.16875859  0.16658489  0.50190459  1
  Pb  Pb43  1  0.16664741  0.50252244  0.16627423  1
  Pb  Pb44  1  0.83044656  0.16659190  0.50030829  1
  Pb  Pb45  1  0.49674458  0.49993613  0.50025989  1
  Pb  Pb46  1  0.50018407  0.83332055  0.16695807  1
  Pb  Pb47  1  0.83299035  0.83337068  0.49701148  1
  Pb  Pb48  1  0.83674801  0.49997121  0.50337806  1
  Pb  Pb49  1  0.83378552  0.49992686  0.16399264  1
  Pb  Pb50  1  0.50284692  0.16668205  0.16664729  1
  Pb  Pb51  1  0.83272512  0.83328900  0.83451471  1
  Pb  Pb52  1  0.49965331  0.49990266  0.16660095  1
  Pb  Pb53  1  0.16441341  0.16398296  0.16393333  1
  I  I54  1  0.16540690  -0.00410393  0.16714752  1
  I  I55  1  0.16847284  -0.00328095  0.50074829  1
  I  I56  1  0.16671453  -0.00063390  0.83376860  1
  I  I57  1  0.16587992  0.33302406  0.16770536  1
  I  I58  1  0.16726987  0.33563723  0.50656490  1
  I  I59  1  0.16559973  0.33322702  0.82811251  1
  I  I60  1  0.16078900  0.67087973  0.16168420  1
  I  I61  1  0.17160870  0.66843360  0.50499618  1
  I  I62  1  0.16594168  0.66765299  0.83315744  1
  I  I63  1  0.49853392  -0.00011375  0.16624386  1
  I  I64  1  0.49410588  -0.00113916  0.50456906  1
  I  I65  1  0.49699736  -0.00003317  0.83006139  1
  I  I66  1  0.50124741  0.33266705  0.16629582  1
  I  I67  1  0.50082922  0.33043098  0.50613241  1
  I  I68  1  0.49850050  0.32999168  0.82982674  1
  I  I69  1  0.50331486  0.66746528  0.16513174  1
  I  I70  1  0.49787580  0.67006912  0.50457770  1
  I  I71  1  0.49715872  0.67011523  0.83005847  1
  I  I72  1  0.83699352  0.00006638  0.15895239  1
  I  I73  1  0.83863253  -0.00006229  0.50451511  1
  I  I74  1  0.83537034  0.00269703  0.83598348  1
  I  I75  1  0.83128437  0.33036572  0.16332824  1
  I  I76  1  0.83275404  0.33326115  0.49461932  1
  I  I77  1  0.83640243  0.33195627  0.83917560  1
  I  I78  1  0.83706357  0.66949466  0.16540198  1
  I  I79  1  0.82781547  0.66673610  0.49958756  1
  I  I80  1  0.83739139  0.66465829  0.83506324  1
  I  I81  1  0.17184228  0.16792300  -0.00476701  1
  I  I82  1  0.16686039  0.16746358  0.33323934  1
  I  I83  1  0.16123828  0.16257747  0.67065647  1
  I  I84  1  0.16279171  0.50046978  -0.00385267  1
  I  I85  1  0.16934744  0.50535386  0.33631485  1
  I  I86  1  0.16272465  0.50577742  0.66830155  1
  I  I87  1  0.16681231  0.83339930  -0.00156139  1
  I  I88  1  0.16733998  0.82786426  0.33420161  1
  I  I89  1  0.17113199  0.83196734  0.66762450  1
  I  I90  1  0.49814646  0.16209299  -0.00376031  1
  I  I91  1  0.49952549  0.16066198  0.33632158  1
  I  I92  1  0.50194436  0.16217797  0.66859658  1
  I  I93  1  0.49791585  0.50146955  -0.00085115  1
  I  I94  1  0.49953696  0.50057456  0.33402750  1
  I  I95  1  0.50376987  0.49977389  0.66695797  1
  I  I96  1  0.49648324  0.83729711  -0.00314641  1
  I  I97  1  0.49557848  0.83796367  0.33662009  1
  I  I98  1  0.49196462  0.83753435  0.66740187  1
  I  I99  1  0.83188279  0.16632345  -0.00196512  1
  I  I100  1  0.83264925  0.16083258  0.33048934  1
  I  I101  1  0.83544056  0.17032517  0.67050944  1
  I  I102  1  0.84057040  0.49882043  -0.00383742  1
  I  I103  1  0.83275141  0.49952549  0.33332268  1
  I  I104  1  0.83418935  0.49387655  0.67125946  1
  I  I105  1  0.83777097  0.83428241  0.00230522  1
  I  I106  1  0.83793140  0.84030519  0.32902225  1
  I  I107  1  0.83566329  0.83355173  0.66676689  1
  I  I108  1  -0.00339528  0.16496033  0.16076186  1
  I  I109  1  0.00021516  0.16635323  0.50098877  1
  I  I110  1  0.00026057  0.16717245  0.83789959  1
  I  I111  1  0.00018804  0.49891327  0.16884486  1
  I  I112  1  0.00455096  0.50733909  0.50165669  1
  I  I113  1  0.00126926  0.49739466  0.83047357  1
  I  I114  1  0.00096324  0.83647740  0.16460611  1
  I  I115  1  0.00351054  0.82950984  0.50366246  1
  I  I116  1  0.00301056  0.83501826  0.83138193  1
  I  I117  1  0.33329756  0.16637055  0.16576681  1
  I  I118  1  0.33660964  0.16462028  0.50681667  1
  I  I119  1  0.33328395  0.16570730  0.82825017  1
  I  I120  1  0.33256383  0.50086288  0.16324954  1
  I  I121  1  0.32926644  0.50322587  0.50970820  1
  I  I122  1  0.32972699  0.49867044  0.82930413  1
  I  I123  1  0.33033274  0.83166141  0.16556557  1
  I  I124  1  0.33236071  0.83289605  0.49921900  1
  I  I125  1  0.33203869  0.83559130  0.83519716  1
  I  I126  1  0.67048712  0.15821158  0.15866608  1
  I  I127  1  0.66253140  0.15860225  0.50660321  1
  I  I128  1  0.66655558  0.16644447  0.83416213  1
  I  I129  1  0.66732919  0.50343093  0.16533890  1
  I  I130  1  0.66647991  0.50089872  0.49915060  1
  I  I131  1  0.66919565  0.49681467  0.83643194  1
  I  I132  1  0.66940726  0.83785801  0.16408630  1
  I  I133  1  0.66314315  0.83838107  0.50521035  1
  I  I134  1  0.66375770  0.83634881  0.83083593  1
