# generated using pymatgen
data_Cs27Sn13Pb14I81
_symmetry_space_group_name_H-M   'P 1'
_cell_length_a   18.99288328
_cell_length_b   18.99887965
_cell_length_c   18.98278912
_cell_angle_alpha   90.00117845
_cell_angle_beta   89.99992265
_cell_angle_gamma   90.00049331
_symmetry_Int_Tables_number   1
_chemical_formula_structural   Cs27Sn13Pb14I81
_chemical_formula_sum   'Cs27 Sn13 Pb14 I81'
_cell_volume   6849.81613428
_cell_formula_units_Z   1
loop_
 _symmetry_equiv_pos_site_id
 _symmetry_equiv_pos_as_xyz
  1  'x, y, z'
loop_
 _atom_site_type_symbol
 _atom_site_label
 _atom_site_symmetry_multiplicity
 _atom_site_fract_x
 _atom_site_fract_y
 _atom_site_fract_z
 _atom_site_occupancy
  Cs  Cs0  1  0.00417076  -0.00599239  -0.00136436  1
  Cs  Cs1  1  0.00162282  -0.00219858  0.33489412  1
  Cs  Cs2  1  -0.00202517  0.00352130  0.66577496  1
  Cs  Cs3  1  -0.00328634  0.33484054  0.00385968  1
  Cs  Cs4  1  0.00013595  0.33314070  0.33129391  1
  Cs  Cs5  1  0.00294175  0.33204144  0.66643176  1
  Cs  Cs6  1  0.00282653  0.67038344  0.00048818  1
  Cs  Cs7  1  -0.00051919  0.66932231  0.33190836  1
  Cs  Cs8  1  -0.00323359  0.66540431  0.66925249  1
  Cs  Cs9  1  0.33237646  0.00255460  -0.00706250  1
  Cs  Cs10  1  0.33446062  -0.00273428  0.33283294  1
  Cs  Cs11  1  0.33293985  0.00489658  0.67056356  1
  Cs  Cs12  1  0.33516808  0.33038549  -0.00448481  1
  Cs  Cs13  1  0.33036044  0.33560910  0.33419057  1
  Cs  Cs14  1  0.32525675  0.34122062  0.67332408  1
  Cs  Cs15  1  0.33000131  0.66739020  -0.00135392  1
  Cs  Cs16  1  0.33520784  0.66718357  0.33228657  1
  Cs  Cs17  1  0.33649633  0.65376368  0.67194159  1
  Cs  Cs18  1  0.66276709  0.00332337  -0.00240872  1
  Cs  Cs19  1  0.66530507  -0.00022639  0.33508155  1
  Cs  Cs20  1  0.66927031  -0.00180390  0.66388583  1
  Cs  Cs21  1  0.66768658  0.32828305  0.00443421  1
  Cs  Cs22  1  0.66788824  0.33148578  0.33021981  1
  Cs  Cs23  1  0.66788824  0.33506488  0.66618272  1
  Cs  Cs24  1  0.66669118  0.66776005  -0.00100525  1
  Cs  Cs25  1  0.66528629  0.66704871  0.33398406  1
  Cs  Cs26  1  0.66690511  0.66666907  0.66738221  1
  Sn  Sn27  1  0.49990675  0.16680188  0.49994363  1
  Sn  Sn28  1  0.16682549  0.16714852  0.16716007  1
  Sn  Sn29  1  0.83326316  0.16750027  0.83276073  1
  Sn  Sn30  1  0.83336822  0.83319539  0.49906345  1
  Sn  Sn31  1  0.16756044  0.83297173  0.50046894  1
  Sn  Sn32  1  0.83339981  0.49984176  0.50024531  1
  Sn  Sn33  1  0.50078137  0.83275191  0.16706096  1
  Sn  Sn34  1  0.83261193  0.16689980  0.50027240  1
  Sn  Sn35  1  0.83308757  0.49891623  0.83284739  1
  Sn  Sn36  1  0.83194191  0.83366455  0.16736729  1
  Sn  Sn37  1  0.16781361  0.49899994  0.16720480  1
  Sn  Sn38  1  0.49942996  0.83387569  0.49989584  1
  Sn  Sn39  1  0.49925355  0.50055047  0.16703295  1
  Pb  Pb40  1  0.16366103  0.49996355  0.83643628  1
  Pb  Pb41  1  0.50204646  0.49972353  0.49829603  1
  Pb  Pb42  1  0.16695845  0.16516325  0.49868756  1
  Pb  Pb43  1  0.16361644  0.16674062  0.83595777  1
  Pb  Pb44  1  0.49790302  0.16609544  0.16882705  1
  Pb  Pb45  1  0.50000632  0.83328323  0.83263262  1
  Pb  Pb46  1  0.83488273  0.16357469  0.16696546  1
  Pb  Pb47  1  0.16684880  0.83316871  0.82895636  1
  Pb  Pb48  1  0.83303776  0.50209777  0.16668402  1
  Pb  Pb49  1  0.50304297  0.49988278  0.83676478  1
  Pb  Pb50  1  0.83319953  0.83363453  0.83299233  1
  Pb  Pb51  1  0.16765237  0.83329277  0.16790505  1
  Pb  Pb52  1  0.16396302  0.50244579  0.49795102  1
  Pb  Pb53  1  0.50258525  0.16685776  0.82949992  1
  I  I54  1  0.16379165  0.00150721  0.16915071  1
  I  I55  1  0.16079603  -0.00280073  0.49452389  1
  I  I56  1  0.16358702  0.00010095  0.83861144  1
  I  I57  1  0.16984154  0.33404763  0.16872711  1
  I  I58  1  0.16592429  0.33360337  0.49902756  1
  I  I59  1  0.16739054  0.33339160  0.83015852  1
  I  I60  1  0.16615663  0.66476057  0.16845666  1
  I  I61  1  0.16614392  0.67030399  0.49525624  1
  I  I62  1  0.16277106  0.66640041  0.83687438  1
  I  I63  1  0.50359532  -0.00317196  0.17018857  1
  I  I64  1  0.50635971  -0.00132405  0.49315746  1
  I  I65  1  0.50228850  0.00019129  0.83928227  1
  I  I66  1  0.49869983  0.33553949  0.16840225  1
  I  I67  1  0.50763773  0.33082797  0.49658395  1
  I  I68  1  0.49998575  0.33334533  0.83423278  1
  I  I69  1  0.49921660  0.66773577  0.17349026  1
  I  I70  1  0.50179852  0.66970391  0.49667356  1
  I  I71  1  0.50345475  0.66644804  0.82834995  1
  I  I72  1  0.82993634  -0.00407355  0.17149421  1
  I  I73  1  0.83303206  -0.00046126  0.50010787  1
  I  I74  1  0.83365030  0.00266457  0.82952593  1
  I  I75  1  0.83222746  0.33323628  0.16885671  1
  I  I76  1  0.82862604  0.33283303  0.50400071  1
  I  I77  1  0.83353839  0.33323939  0.82488567  1
  I  I78  1  0.83493190  0.66972259  0.17132125  1
  I  I79  1  0.83369449  0.66757459  0.49950194  1
  I  I80  1  0.83364440  0.66429392  0.83001098  1
  I  I81  1  0.16600399  0.16873496  0.00397705  1
  I  I82  1  0.16272880  0.17000619  0.33087491  1
  I  I83  1  0.16813982  0.16363738  0.66657611  1
  I  I84  1  0.16808462  0.49836768  0.00443861  1
  I  I85  1  0.16686770  0.49688028  0.33010763  1
  I  I86  1  0.16810287  0.50193838  0.66658189  1
  I  I87  1  0.16437070  0.83317902  0.00025539  1
  I  I88  1  0.16392673  0.83360014  0.33580782  1
  I  I89  1  0.16239209  0.83594678  0.66096026  1
  I  I90  1  0.50048442  0.16611428  0.00006453  1
  I  I91  1  0.50862553  0.16432087  0.33651221  1
  I  I92  1  0.50196882  0.15736602  0.66142295  1
  I  I93  1  0.49769396  0.50721605  0.00480577  1
  I  I94  1  0.49982544  0.50258262  0.33042917  1
  I  I95  1  0.49937765  0.50116765  0.66654216  1
  I  I96  1  0.50605096  0.82893847  0.00365807  1
  I  I97  1  0.50223189  0.83304868  0.33392403  1
  I  I98  1  0.50336874  0.83837133  0.66219045  1
  I  I99  1  0.83615437  0.17139487  -0.00203435  1
  I  I100  1  0.83106672  0.16880575  0.33661467  1
  I  I101  1  0.83015606  0.16416621  0.66473031  1
  I  I102  1  0.83353397  0.49623977  -0.00203995  1
  I  I103  1  0.83345190  0.49845685  0.33593913  1
  I  I104  1  0.83299354  0.50279980  0.66521445  1
  I  I105  1  0.83009198  0.83223657  0.00294233  1
  I  I106  1  0.83330081  0.83259829  0.33497001  1
  I  I107  1  0.83267119  0.83320075  0.66284019  1
  I  I108  1  0.00233386  0.17182863  0.16878433  1
  I  I109  1  -0.00334198  0.16484883  0.50245460  1
  I  I110  1  -0.00421822  0.16957948  0.82483525  1
  I  I111  1  0.00157688  0.49825866  0.16675762  1
  I  I112  1  -0.00435989  0.49973159  0.50076534  1
  I  I113  1  -0.00411343  0.49691412  0.83028021  1
  I  I114  1  -0.00204792  0.83313331  0.17101039  1
  I  I115  1  -0.00188565  0.83336909  0.49459795  1
  I  I116  1  -0.00042904  0.83270948  0.83678601  1
  I  I117  1  0.33038042  0.16572714  0.17061939  1
  I  I118  1  0.33612998  0.15912063  0.49459517  1
  I  I119  1  0.33328115  0.16542134  0.83307551  1
  I  I120  1  0.33371253  0.50336953  0.16962120  1
  I  I121  1  0.33335927  0.50033531  0.49986098  1
  I  I122  1  0.33332135  0.50050412  0.83128686  1
  I  I123  1  0.33634123  0.83159908  0.17310423  1
  I  I124  1  0.33464468  0.84016131  0.49215686  1
  I  I125  1  0.33340145  0.83428834  0.83678960  1
  I  I126  1  0.66673856  0.16940071  0.16450464  1
  I  I127  1  0.66819930  0.16101818  0.50225947  1
  I  I128  1  0.67068995  0.17007301  0.83454806  1
  I  I129  1  0.66464255  0.50352325  0.16700944  1
  I  I130  1  0.67029699  0.50461774  0.50067685  1
  I  I131  1  0.67083043  0.49749534  0.83016788  1
  I  I132  1  0.66650674  0.82730716  0.17516941  1
  I  I133  1  0.66746866  0.83442571  0.49548181  1
  I  I134  1  0.66691680  0.83290310  0.83122871  1
