# generated using pymatgen
data_Cs27Sn14Pb13I81
_symmetry_space_group_name_H-M   'P 1'
_cell_length_a   18.98079477
_cell_length_b   18.97100169
_cell_length_c   18.97619711
_cell_angle_alpha   90.00029667
_cell_angle_beta   89.99976977
_cell_angle_gamma   89.99965503
_symmetry_Int_Tables_number   1
_chemical_formula_structural   Cs27Sn14Pb13I81
_chemical_formula_sum   'Cs27 Sn14 Pb13 I81'
_cell_volume   6833.03804729
_cell_formula_units_Z   1
loop_
 _symmetry_equiv_pos_site_id
 _symmetry_equiv_pos_as_xyz
  1  'x, y, z'
loop_
 _atom_site_type_symbol
 _atom_site_label
 _atom_site_symmetry_multiplicity
 _atom_site_fract_x
 _atom_site_fract_y
 _atom_site_fract_z
 _atom_site_occupancy
  Cs  Cs0  1  -0.00001593  0.00115210  0.00175978  1
  Cs  Cs1  1  0.00305731  0.00209415  0.33469247  1
  Cs  Cs2  1  -0.00094261  -0.00087958  0.66684896  1
  Cs  Cs3  1  -0.00332448  0.33035617  0.00100720  1
  Cs  Cs4  1  0.00273415  0.33494195  0.33478654  1
  Cs  Cs5  1  -0.00094375  0.33082688  0.66383095  1
  Cs  Cs6  1  0.00168475  0.66817320  0.00038230  1
  Cs  Cs7  1  -0.00201117  0.66460192  0.33523497  1
  Cs  Cs8  1  -0.00010200  0.66819295  0.66437139  1
  Cs  Cs9  1  0.33094514  -0.00294151  0.00547421  1
  Cs  Cs10  1  0.34027660  0.00649416  0.32911767  1
  Cs  Cs11  1  0.33536699  0.00382728  0.66440450  1
  Cs  Cs12  1  0.33513832  0.33797239  -0.00466968  1
  Cs  Cs13  1  0.33137206  0.32953019  0.33466302  1
  Cs  Cs14  1  0.33308086  0.33214010  0.66884314  1
  Cs  Cs15  1  0.32855986  0.66580156  -0.00200978  1
  Cs  Cs16  1  0.33470243  0.66735400  0.33226723  1
  Cs  Cs17  1  0.33135758  0.66531972  0.67005684  1
  Cs  Cs18  1  0.66859817  0.00345430  -0.00220336  1
  Cs  Cs19  1  0.65766116  -0.00083991  0.33311906  1
  Cs  Cs20  1  0.66622992  -0.00140048  0.66834085  1
  Cs  Cs21  1  0.66776236  0.33112019  -0.00072390  1
  Cs  Cs22  1  0.66572139  0.33699055  0.33132280  1
  Cs  Cs23  1  0.66850805  0.33468358  0.66848410  1
  Cs  Cs24  1  0.66709091  0.66601658  -0.00020000  1
  Cs  Cs25  1  0.66762057  0.66547897  0.33409172  1
  Cs  Cs26  1  0.66798356  0.66828531  0.66597669  1
  Sn  Sn27  1  0.50026819  0.83398227  0.83330061  1
  Sn  Sn28  1  0.83284835  0.83241981  0.83370636  1
  Sn  Sn29  1  0.83326533  0.83291757  0.16684021  1
  Sn  Sn30  1  0.49875287  0.16534360  0.83336619  1
  Sn  Sn31  1  0.83367470  0.50097731  0.83420415  1
  Sn  Sn32  1  0.49990509  0.50040052  0.16747821  1
  Sn  Sn33  1  0.83350782  0.50091875  0.16541705  1
  Sn  Sn34  1  0.83290171  0.16515583  0.49943464  1
  Sn  Sn35  1  0.16750879  0.16632105  0.83351116  1
  Sn  Sn36  1  0.16652097  0.50018808  0.16741761  1
  Sn  Sn37  1  0.16683378  0.83317186  0.49970226  1
  Sn  Sn38  1  0.49863434  0.50032480  0.49955967  1
  Sn  Sn39  1  0.16803320  0.50097428  0.49941741  1
  Sn  Sn40  1  0.83385224  0.83475102  0.49946687  1
  Pb  Pb41  1  0.83356316  0.50067973  0.49967371  1
  Pb  Pb42  1  0.50204503  0.50050679  0.83337513  1
  Pb  Pb43  1  0.50224139  0.83094373  0.16396833  1
  Pb  Pb44  1  0.83322802  0.16640158  0.16982664  1
  Pb  Pb45  1  0.16635375  0.83532372  0.83130994  1
  Pb  Pb46  1  0.16538086  0.16647083  0.50122798  1
  Pb  Pb47  1  0.50245642  0.16943059  0.50194446  1
  Pb  Pb48  1  0.16666022  0.16933231  0.16408240  1
  Pb  Pb49  1  0.16359141  0.49850752  0.83292970  1
  Pb  Pb50  1  0.16451937  0.83138199  0.16967373  1
  Pb  Pb51  1  0.49977327  0.83134746  0.50168188  1
  Pb  Pb52  1  0.83323199  0.16606148  0.83193209  1
  Pb  Pb53  1  0.50004094  0.16932440  0.16381230  1
  I  I54  1  0.16389089  -0.00027960  0.16697056  1
  I  I55  1  0.16086065  -0.00272819  0.50451287  1
  I  I56  1  0.16476685  0.00289826  0.82958189  1
  I  I57  1  0.16256443  0.33807559  0.17378285  1
  I  I58  1  0.16722851  0.33642321  0.49743190  1
  I  I59  1  0.17116358  0.33093318  0.83142825  1
  I  I60  1  0.16802583  0.66282297  0.16609307  1
  I  I61  1  0.16244413  0.66575885  0.49830829  1
  I  I62  1  0.16890195  0.66665603  0.83427295  1
  I  I63  1  0.50189827  -0.00033323  0.16761773  1
  I  I64  1  0.49842156  -0.00007704  0.50041646  1
  I  I65  1  0.50442615  -0.00057683  0.83101527  1
  I  I66  1  0.50428761  0.33791572  0.16841017  1
  I  I67  1  0.49688115  0.33747039  0.49871250  1
  I  I68  1  0.49862616  0.33175465  0.83319860  1
  I  I69  1  0.49937732  0.66267248  0.16816212  1
  I  I70  1  0.50249886  0.66329622  0.49926787  1
  I  I71  1  0.50453443  0.66887512  0.83265709  1
  I  I72  1  0.83398969  -0.00349968  0.16197876  1
  I  I73  1  0.83982877  -0.00218186  0.50291728  1
  I  I74  1  0.83228190  -0.00318591  0.83468984  1
  I  I75  1  0.83300205  0.33701445  0.16268951  1
  I  I76  1  0.83322950  0.33221511  0.50264325  1
  I  I77  1  0.83280141  0.33550134  0.83535116  1
  I  I78  1  0.83318025  0.66568373  0.16760876  1
  I  I79  1  0.83412765  0.66929892  0.50119023  1
  I  I80  1  0.82775031  0.66762672  0.83105689  1
  I  I81  1  0.16818456  0.16757199  -0.00390712  1
  I  I82  1  0.16382674  0.16628342  0.33340761  1
  I  I83  1  0.16876121  0.17011483  0.66910959  1
  I  I84  1  0.16888146  0.49763769  0.00249803  1
  I  I85  1  0.16352919  0.50326202  0.33376787  1
  I  I86  1  0.16944872  0.50204198  0.66376043  1
  I  I87  1  0.16595845  0.83273392  0.00005949  1
  I  I88  1  0.15957425  0.83071250  0.33761529  1
  I  I89  1  0.15929779  0.82572677  0.66358083  1
  I  I90  1  0.49918243  0.16558874  -0.00426084  1
  I  I91  1  0.50134383  0.16592975  0.33343584  1
  I  I92  1  0.49779037  0.16624505  0.66983918  1
  I  I93  1  0.49880146  0.49949532  0.00239497  1
  I  I94  1  0.50372515  0.50076539  0.33314491  1
  I  I95  1  0.49780954  0.49973610  0.66460241  1
  I  I96  1  0.50588739  0.83487873  -0.00403319  1
  I  I97  1  0.50156379  0.83308422  0.33322199  1
  I  I98  1  0.50721040  0.83340272  0.66955491  1
  I  I99  1  0.83328097  0.16631424  0.00005915  1
  I  I100  1  0.83550740  0.16520458  0.33758512  1
  I  I101  1  0.83371099  0.16518689  0.66423241  1
  I  I102  1  0.83276343  0.50621372  0.00069738  1
  I  I103  1  0.83280942  0.50242549  0.33073093  1
  I  I104  1  0.83222940  0.50195646  0.66842765  1
  I  I105  1  0.82843260  0.82721200  -0.00059365  1
  I  I106  1  0.83878870  0.83070396  0.33370914  1
  I  I107  1  0.83321076  0.83233933  0.66681907  1
  I  I108  1  -0.00023783  0.17005179  0.16269360  1
  I  I109  1  -0.00260193  0.16844565  0.50448790  1
  I  I110  1  0.00143439  0.16885753  0.83080821  1
  I  I111  1  -0.00069730  0.50361485  0.16722580  1
  I  I112  1  0.00204480  0.50028589  0.49799972  1
  I  I113  1  -0.00425414  0.50411531  0.83584499  1
  I  I114  1  -0.00393128  0.82675049  0.16082456  1
  I  I115  1  -0.00153301  0.82997808  0.50280476  1
  I  I116  1  -0.00337003  0.83052491  0.83409697  1
  I  I117  1  0.33338465  0.16737586  0.16941669  1
  I  I118  1  0.33359830  0.16557358  0.50118191  1
  I  I119  1  0.33407535  0.16404687  0.83093699  1
  I  I120  1  0.33325431  0.49821717  0.17116390  1
  I  I121  1  0.33240877  0.50486616  0.49359330  1
  I  I122  1  0.33324140  0.50126197  0.83559068  1
  I  I123  1  0.33336960  0.83113993  0.16541217  1
  I  I124  1  0.33077096  0.82847335  0.50429313  1
  I  I125  1  0.33571473  0.83459026  0.83043970  1
  I  I126  1  0.66680275  0.17075508  0.16418132  1
  I  I127  1  0.67012647  0.16220023  0.50342180  1
  I  I128  1  0.66480762  0.16667558  0.83136995  1
  I  I129  1  0.66745132  0.50340832  0.16735631  1
  I  I130  1  0.66517068  0.49927907  0.49820505  1
  I  I131  1  0.66992206  0.49875499  0.83544745  1
  I  I132  1  0.67063491  0.82640196  0.17193439  1
  I  I133  1  0.66985335  0.83454474  0.49965724  1
  I  I134  1  0.66835343  0.83470633  0.83065556  1
