# generated using pymatgen
data_Cs27Sn14Pb13I81
_symmetry_space_group_name_H-M   'P 1'
_cell_length_a   18.98056710
_cell_length_b   18.96891448
_cell_length_c   18.97864530
_cell_angle_alpha   90.00106199
_cell_angle_beta   90.00007291
_cell_angle_gamma   89.99775811
_symmetry_Int_Tables_number   1
_chemical_formula_structural   Cs27Sn14Pb13I81
_chemical_formula_sum   'Cs27 Sn14 Pb13 I81'
_cell_volume   6833.08575995
_cell_formula_units_Z   1
loop_
 _symmetry_equiv_pos_site_id
 _symmetry_equiv_pos_as_xyz
  1  'x, y, z'
loop_
 _atom_site_type_symbol
 _atom_site_label
 _atom_site_symmetry_multiplicity
 _atom_site_fract_x
 _atom_site_fract_y
 _atom_site_fract_z
 _atom_site_occupancy
  Cs  Cs0  1  0.00337229  0.00352109  -0.00369523  1
  Cs  Cs1  1  -0.00147307  0.00010279  0.33315500  1
  Cs  Cs2  1  -0.00001639  -0.00815306  0.67286411  1
  Cs  Cs3  1  -0.00039678  0.33451518  -0.00333843  1
  Cs  Cs4  1  0.00023108  0.33309145  0.33365636  1
  Cs  Cs5  1  -0.00058656  0.33271253  0.66508955  1
  Cs  Cs6  1  -0.00308722  0.66170682  0.00324629  1
  Cs  Cs7  1  0.00029321  0.66655815  0.33138385  1
  Cs  Cs8  1  0.00023305  0.67397895  0.66676421  1
  Cs  Cs9  1  0.33252995  -0.00095361  -0.00070548  1
  Cs  Cs10  1  0.33326297  0.00114707  0.33068737  1
  Cs  Cs11  1  0.33004461  -0.00699268  0.66986158  1
  Cs  Cs12  1  0.33296448  0.33336375  -0.00034027  1
  Cs  Cs13  1  0.33311280  0.33332647  0.33414478  1
  Cs  Cs14  1  0.33616456  0.33587471  0.66535046  1
  Cs  Cs15  1  0.33422798  0.66565793  0.00132011  1
  Cs  Cs16  1  0.33428074  0.66647700  0.33330420  1
  Cs  Cs17  1  0.33345265  0.66799386  0.66497975  1
  Cs  Cs18  1  0.66383556  -0.00145135  0.00160751  1
  Cs  Cs19  1  0.66837361  0.00214915  0.33126915  1
  Cs  Cs20  1  0.67061129  -0.00297227  0.66916089  1
  Cs  Cs21  1  0.66747204  0.33445920  -0.00068085  1
  Cs  Cs22  1  0.66701661  0.33173449  0.33449280  1
  Cs  Cs23  1  0.66430928  0.33228866  0.66475992  1
  Cs  Cs24  1  0.66833131  0.66606956  -0.00007002  1
  Cs  Cs25  1  0.66412090  0.66924445  0.33361233  1
  Cs  Cs26  1  0.66729130  0.67671861  0.66432480  1
  Sn  Sn27  1  0.16573240  0.83260645  0.16694031  1
  Sn  Sn28  1  0.83443932  0.83460511  0.16693842  1
  Sn  Sn29  1  0.16719966  0.49959833  0.83309285  1
  Sn  Sn30  1  0.50066390  0.16791473  0.16647031  1
  Sn  Sn31  1  0.49990740  0.16748978  0.83337649  1
  Sn  Sn32  1  0.49955739  0.49930242  0.83383849  1
  Sn  Sn33  1  0.49933997  0.49882111  0.16607497  1
  Sn  Sn34  1  0.49983187  0.16682781  0.50031400  1
  Sn  Sn35  1  0.16558630  0.49917086  0.50023345  1
  Sn  Sn36  1  0.83397828  0.49943839  0.50004331  1
  Sn  Sn37  1  0.16637840  0.16701675  0.50023367  1
  Sn  Sn38  1  0.83386333  0.16747736  0.49958297  1
  Sn  Sn39  1  0.16738499  0.50033338  0.16667326  1
  Sn  Sn40  1  0.83296096  0.16624272  0.16696981  1
  Pb  Pb41  1  0.83343844  0.83328415  0.83727824  1
  Pb  Pb42  1  0.83354926  0.83387616  0.49769413  1
  Pb  Pb43  1  0.16679980  0.82980747  0.83679407  1
  Pb  Pb44  1  0.50006091  0.49890998  0.50004988  1
  Pb  Pb45  1  0.49991642  0.83319070  0.16670561  1
  Pb  Pb46  1  0.49986254  0.83256698  0.83358107  1
  Pb  Pb47  1  0.83107331  0.16699289  0.83320464  1
  Pb  Pb48  1  0.83262715  0.49983975  0.82976427  1
  Pb  Pb49  1  0.49987906  0.83753318  0.49973210  1
  Pb  Pb50  1  0.83290909  0.49923613  0.16849955  1
  Pb  Pb51  1  0.16650986  0.16733361  0.16798752  1
  Pb  Pb52  1  0.16671690  0.83302228  0.49758199  1
  Pb  Pb53  1  0.16906106  0.16898181  0.83008620  1
  I  I54  1  0.16650523  -0.00151502  0.17049321  1
  I  I55  1  0.16778215  0.00327115  0.49681345  1
  I  I56  1  0.16802495  0.00004237  0.83276723  1
  I  I57  1  0.16814730  0.33657117  0.16609884  1
  I  I58  1  0.16620358  0.33408120  0.49642871  1
  I  I59  1  0.16828352  0.33708194  0.84006020  1
  I  I60  1  0.16651175  0.66480077  0.16858812  1
  I  I61  1  0.16196817  0.66278458  0.50174046  1
  I  I62  1  0.17415292  0.66171786  0.82676771  1
  I  I63  1  0.50062277  0.00349356  0.16768957  1
  I  I64  1  0.50048151  0.00631651  0.49779153  1
  I  I65  1  0.50162038  0.00344480  0.83351711  1
  I  I66  1  0.49972754  0.33281909  0.16659558  1
  I  I67  1  0.50023205  0.33035862  0.49884629  1
  I  I68  1  0.49617467  0.33346280  0.83476795  1
  I  I69  1  0.49947374  0.66324032  0.16183001  1
  I  I70  1  0.50052135  0.66646011  0.49977481  1
  I  I71  1  0.49595177  0.66250234  0.83957461  1
  I  I72  1  0.83222736  0.00155341  0.17338730  1
  I  I73  1  0.83178811  0.00383968  0.49709199  1
  I  I74  1  0.83139364  0.00027920  0.82798615  1
  I  I75  1  0.83136810  0.33044273  0.16984091  1
  I  I76  1  0.83413990  0.33200415  0.49331385  1
  I  I77  1  0.83549748  0.33350052  0.83964390  1
  I  I78  1  0.83442738  0.66814626  0.16839076  1
  I  I79  1  0.83851988  0.66386561  0.49928373  1
  I  I80  1  0.83047088  0.66630372  0.83272146  1
  I  I81  1  0.16630001  0.16633280  -0.00013219  1
  I  I82  1  0.17091121  0.17204963  0.33606712  1
  I  I83  1  0.16581870  0.17281180  0.66181607  1
  I  I84  1  0.17157772  0.50517828  0.00085312  1
  I  I85  1  0.16713994  0.50016675  0.33314427  1
  I  I86  1  0.16780791  0.49296699  0.66600191  1
  I  I87  1  0.16313978  0.83034205  0.00465571  1
  I  I88  1  0.16357084  0.82724347  0.32981244  1
  I  I89  1  0.16732924  0.83379193  0.66684208  1
  I  I90  1  0.50511409  0.17045414  0.00112069  1
  I  I91  1  0.50109034  0.17074490  0.33290628  1
  I  I92  1  0.49977586  0.17280911  0.66630958  1
  I  I93  1  0.49213028  0.49212585  0.00092181  1
  I  I94  1  0.49702208  0.49632682  0.33067291  1
  I  I95  1  0.49631979  0.49404173  0.66899748  1
  I  I96  1  0.50060552  0.83866917  0.00035181  1
  I  I97  1  0.49960278  0.83072292  0.33283190  1
  I  I98  1  0.50009771  0.83142560  0.66676625  1
  I  I99  1  0.82894763  0.16220002  0.00341087  1
  I  I100  1  0.82791649  0.16661033  0.33345916  1
  I  I101  1  0.83185765  0.17244235  0.66308616  1
  I  I102  1  0.83569717  0.50078356  0.00016482  1
  I  I103  1  0.83735991  0.49784073  0.33624160  1
  I  I104  1  0.83639989  0.49156652  0.66182847  1
  I  I105  1  0.83654743  0.83844683  0.00533779  1
  I  I106  1  0.83696418  0.83506853  0.32992775  1
  I  I107  1  0.83213238  0.83338214  0.66653478  1
  I  I108  1  -0.00242617  0.16574113  0.17293960  1
  I  I109  1  -0.00039355  0.17251911  0.49215697  1
  I  I110  1  0.00030112  0.16773672  0.83420075  1
  I  I111  1  0.00262979  0.50111906  0.16507597  1
  I  I112  1  0.00124362  0.49138049  0.49834628  1
  I  I113  1  0.00301771  0.50072984  0.83750440  1
  I  I114  1  0.00016342  0.83216495  0.16857960  1
  I  I115  1  0.00012931  0.83738974  0.50026578  1
  I  I116  1  0.00037225  0.83274287  0.83075226  1
  I  I117  1  0.33610491  0.16731930  0.16821104  1
  I  I118  1  0.33343860  0.17208548  0.49808690  1
  I  I119  1  0.33725276  0.16894623  0.83618677  1
  I  I120  1  0.33292114  0.50029984  0.16853191  1
  I  I121  1  0.33054341  0.49570988  0.49901910  1
  I  I122  1  0.33341825  0.49528665  0.83303391  1
  I  I123  1  0.33068946  0.83185813  0.16705134  1
  I  I124  1  0.33309464  0.83262015  0.49677748  1
  I  I125  1  0.33318374  0.83710013  0.83608702  1
  I  I126  1  0.66597000  0.16625637  0.17150397  1
  I  I127  1  0.66682620  0.17158166  0.49814163  1
  I  I128  1  0.66268589  0.17393564  0.82980339  1
  I  I129  1  0.66388026  0.49926035  0.16355628  1
  I  I130  1  0.66877127  0.49495121  0.49823188  1
  I  I131  1  0.66297453  0.49524673  0.83908056  1
  I  I132  1  0.66919289  0.83482638  0.16790561  1
  I  I133  1  0.66688298  0.82934211  0.49708848  1
  I  I134  1  0.66653674  0.83084619  0.83419871  1
