# generated using pymatgen
data_Cs27Sn13Pb14I81
_symmetry_space_group_name_H-M   'P 1'
_cell_length_a   18.98393567
_cell_length_b   18.97898479
_cell_length_c   18.96917574
_cell_angle_alpha   90.00158304
_cell_angle_beta   89.99990679
_cell_angle_gamma   90.00015989
_symmetry_Int_Tables_number   1
_chemical_formula_structural   Cs27Sn13Pb14I81
_chemical_formula_sum   'Cs27 Sn13 Pb14 I81'
_cell_volume   6834.51484417
_cell_formula_units_Z   1
loop_
 _symmetry_equiv_pos_site_id
 _symmetry_equiv_pos_as_xyz
  1  'x, y, z'
loop_
 _atom_site_type_symbol
 _atom_site_label
 _atom_site_symmetry_multiplicity
 _atom_site_fract_x
 _atom_site_fract_y
 _atom_site_fract_z
 _atom_site_occupancy
  Cs  Cs0  1  0.00113386  -0.00046919  0.00143587  1
  Cs  Cs1  1  -0.00197856  0.00270762  0.33493965  1
  Cs  Cs2  1  -0.00327673  -0.00272479  0.66390708  1
  Cs  Cs3  1  0.00648127  0.33175014  0.00533161  1
  Cs  Cs4  1  -0.00182442  0.33118485  0.32886631  1
  Cs  Cs5  1  0.00273069  0.33606639  0.66741393  1
  Cs  Cs6  1  0.00042594  0.66774345  0.00051865  1
  Cs  Cs7  1  0.00111178  0.66652641  0.33477574  1
  Cs  Cs8  1  -0.00241358  0.66547363  0.66486986  1
  Cs  Cs9  1  0.33484235  -0.00033352  -0.00050289  1
  Cs  Cs10  1  0.33370713  -0.00348765  0.33428306  1
  Cs  Cs11  1  0.33321082  -0.00005600  0.66552312  1
  Cs  Cs12  1  0.32733175  0.33181721  -0.00105679  1
  Cs  Cs13  1  0.33472919  0.33716787  0.33533153  1
  Cs  Cs14  1  0.33086264  0.33289228  0.66732921  1
  Cs  Cs15  1  0.33337607  0.66812490  0.00021341  1
  Cs  Cs16  1  0.33637293  0.66712638  0.33505766  1
  Cs  Cs17  1  0.33278454  0.66715341  0.66520126  1
  Cs  Cs18  1  0.66348791  -0.00166473  -0.00184527  1
  Cs  Cs19  1  0.66781020  0.00432631  0.33757975  1
  Cs  Cs20  1  0.66947441  0.00199045  0.66468290  1
  Cs  Cs21  1  0.66702352  0.33251359  -0.00117423  1
  Cs  Cs22  1  0.66852817  0.33373767  0.33402884  1
  Cs  Cs23  1  0.66666581  0.33305698  0.66687469  1
  Cs  Cs24  1  0.66662500  0.66812776  -0.00081559  1
  Cs  Cs25  1  0.66152321  0.66236009  0.33118035  1
  Cs  Cs26  1  0.67015660  0.66551208  0.66837457  1
  Sn  Sn27  1  0.50036296  0.49985089  0.83350311  1
  Sn  Sn28  1  0.83326086  0.16772203  0.83378351  1
  Sn  Sn29  1  0.50028525  0.83448042  0.16579235  1
  Sn  Sn30  1  0.83303561  0.49865577  0.83336111  1
  Sn  Sn31  1  0.50062400  0.16668900  0.83403076  1
  Sn  Sn32  1  0.83407186  0.49988911  0.50035618  1
  Sn  Sn33  1  0.16679513  0.83336519  0.16589183  1
  Sn  Sn34  1  0.49990423  0.16617274  0.16601433  1
  Sn  Sn35  1  0.49923575  0.83341473  0.83339547  1
  Sn  Sn36  1  0.83274688  0.83338067  0.16688365  1
  Sn  Sn37  1  0.16673884  0.16741325  0.49999591  1
  Sn  Sn38  1  0.16580841  0.49898966  0.50011262  1
  Sn  Sn39  1  0.16722566  0.83334436  0.83367606  1
  Pb  Pb40  1  0.83541564  0.16918272  0.50235515  1
  Pb  Pb41  1  0.16664994  0.83307209  0.50002760  1
  Pb  Pb42  1  0.83102066  0.16459562  0.16411378  1
  Pb  Pb43  1  0.49990558  0.49963224  0.16363281  1
  Pb  Pb44  1  0.83331029  0.50161353  0.16587402  1
  Pb  Pb45  1  0.50046808  0.83344343  0.50029141  1
  Pb  Pb46  1  0.83306298  0.83322594  0.83462621  1
  Pb  Pb47  1  0.50034004  0.49986156  0.50283608  1
  Pb  Pb48  1  0.16665180  0.16423456  0.83199144  1
  Pb  Pb49  1  0.49823999  0.16674537  0.50027328  1
  Pb  Pb50  1  0.16933328  0.16433026  0.16901024  1
  Pb  Pb51  1  0.16682447  0.50241325  0.16952363  1
  Pb  Pb52  1  0.83300783  0.83058875  0.49679288  1
  Pb  Pb53  1  0.16632090  0.50227507  0.83203858  1
  I  I54  1  0.16515051  -0.00386441  0.16484858  1
  I  I55  1  0.16869704  0.00195646  0.50034584  1
  I  I56  1  0.17040946  -0.00362156  0.83459651  1
  I  I57  1  0.16795783  0.33297375  0.16589035  1
  I  I58  1  0.16411910  0.33404596  0.50284085  1
  I  I59  1  0.16948711  0.33332646  0.83231589  1
  I  I60  1  0.16998506  0.67099035  0.16420872  1
  I  I61  1  0.16254233  0.66403305  0.50026539  1
  I  I62  1  0.17065303  0.67019323  0.83500072  1
  I  I63  1  0.49947751  -0.00124970  0.15798534  1
  I  I64  1  0.49672659  0.00016179  0.50408323  1
  I  I65  1  0.49973732  -0.00014092  0.83782432  1
  I  I66  1  0.50021289  0.33013857  0.16302655  1
  I  I67  1  0.50005035  0.33339316  0.49858927  1
  I  I68  1  0.50522766  0.33284136  0.83604313  1
  I  I69  1  0.49976540  0.67013387  0.16345889  1
  I  I70  1  0.49679893  0.66646342  0.49901684  1
  I  I71  1  0.50028185  0.66728109  0.83632823  1
  I  I72  1  0.83593782  -0.00349901  0.16396210  1
  I  I73  1  0.83549018  0.00031556  0.50127058  1
  I  I74  1  0.83040383  0.00211075  0.83562356  1
  I  I75  1  0.83131795  0.33305384  0.16869228  1
  I  I76  1  0.83460805  0.33703234  0.50159537  1
  I  I77  1  0.82410459  0.33386305  0.82882041  1
  I  I78  1  0.83061762  0.67004868  0.16437320  1
  I  I79  1  0.84082967  0.66282181  0.50872635  1
  I  I80  1  0.83045798  0.66414966  0.83068340  1
  I  I81  1  0.16496595  0.16701587  -0.00000094  1
  I  I82  1  0.16768244  0.16878652  0.33663224  1
  I  I83  1  0.16896722  0.16786645  0.66429466  1
  I  I84  1  0.16620017  0.50003374  -0.00019119  1
  I  I85  1  0.16057819  0.49807025  0.33765303  1
  I  I86  1  0.16600406  0.49968949  0.66407282  1
  I  I87  1  0.16805458  0.83325145  -0.00000632  1
  I  I88  1  0.16841881  0.83280622  0.33028046  1
  I  I89  1  0.17221100  0.83336439  0.66942562  1
  I  I90  1  0.50337364  0.16445128  -0.00148842  1
  I  I91  1  0.49748352  0.15938329  0.33030736  1
  I  I92  1  0.50249073  0.16553242  0.67057522  1
  I  I93  1  0.50666583  0.50198357  -0.00457834  1
  I  I94  1  0.49997781  0.50133071  0.33327542  1
  I  I95  1  0.50088692  0.50058605  0.67119266  1
  I  I96  1  0.49895249  0.83357950  -0.00059870  1
  I  I97  1  0.49817346  0.83736382  0.32937293  1
  I  I98  1  0.49414987  0.83387844  0.67089508  1
  I  I99  1  0.83274568  0.17321423  -0.00400716  1
  I  I100  1  0.83235185  0.16652800  0.33322289  1
  I  I101  1  0.82612044  0.16532856  0.67043407  1
  I  I102  1  0.82748860  0.49880397  -0.00370857  1
  I  I103  1  0.83831930  0.50353204  0.33605351  1
  I  I104  1  0.83303276  0.49811369  0.66788748  1
  I  I105  1  0.83330541  0.83101290  0.00250868  1
  I  I106  1  0.83420523  0.83271408  0.32871282  1
  I  I107  1  0.83427299  0.83478742  0.66691066  1
  I  I108  1  0.00006836  0.16426866  0.16635561  1
  I  I109  1  0.00310812  0.16674222  0.50169190  1
  I  I110  1  -0.00243017  0.16954554  0.83021411  1
  I  I111  1  0.00003766  0.50328206  0.16209540  1
  I  I112  1  -0.00026230  0.49812167  0.50723089  1
  I  I113  1  -0.00286250  0.49822519  0.83028479  1
  I  I114  1  0.00063219  0.83077552  0.16197770  1
  I  I115  1  0.00003142  0.83490741  0.50097243  1
  I  I116  1  0.00203905  0.83322692  0.83745301  1
  I  I117  1  0.33708625  0.16074838  0.15910840  1
  I  I118  1  0.33045072  0.17248976  0.50244713  1
  I  I119  1  0.33655096  0.16843967  0.83553037  1
  I  I120  1  0.33346579  0.50269396  0.16756822  1
  I  I121  1  0.33067778  0.49761742  0.50063001  1
  I  I122  1  0.33604145  0.49870653  0.83237535  1
  I  I123  1  0.33405115  0.83687650  0.16242611  1
  I  I124  1  0.33324262  0.83036249  0.49692039  1
  I  I125  1  0.33454980  0.83296521  0.84010321  1
  I  I126  1  0.66305624  0.16031048  0.16550212  1
  I  I127  1  0.66686425  0.16740361  0.49836324  1
  I  I128  1  0.66544597  0.16496515  0.83611641  1
  I  I129  1  0.66653438  0.50390726  0.17210580  1
  I  I130  1  0.66962817  0.50223307  0.50226488  1
  I  I131  1  0.66662094  0.50224836  0.82782182  1
  I  I132  1  0.66516515  0.83544323  0.16120997  1
  I  I133  1  0.66684218  0.83172564  0.50122784  1
  I  I134  1  0.66368838  0.83260132  0.83795078  1
