# generated using pymatgen
data_Cs27Sn14Pb13I81
_symmetry_space_group_name_H-M   'P 1'
_cell_length_a   18.96382736
_cell_length_b   18.95990755
_cell_length_c   18.95961586
_cell_angle_alpha   89.99957692
_cell_angle_beta   90.00062204
_cell_angle_gamma   90.00030885
_symmetry_Int_Tables_number   1
_chemical_formula_structural   Cs27Sn14Pb13I81
_chemical_formula_sum   'Cs27 Sn14 Pb13 I81'
_cell_volume   6816.97564211
_cell_formula_units_Z   1
loop_
 _symmetry_equiv_pos_site_id
 _symmetry_equiv_pos_as_xyz
  1  'x, y, z'
loop_
 _atom_site_type_symbol
 _atom_site_label
 _atom_site_symmetry_multiplicity
 _atom_site_fract_x
 _atom_site_fract_y
 _atom_site_fract_z
 _atom_site_occupancy
  Cs  Cs0  1  0.00127079  0.00179070  0.00062562  1
  Cs  Cs1  1  -0.00254426  0.00084344  0.33444359  1
  Cs  Cs2  1  0.00140876  -0.00021698  0.66471201  1
  Cs  Cs3  1  -0.00006754  0.33203980  -0.00093634  1
  Cs  Cs4  1  -0.00075258  0.33320967  0.33244490  1
  Cs  Cs5  1  0.00022298  0.33580003  0.66832825  1
  Cs  Cs6  1  -0.00121558  0.66620104  0.00068430  1
  Cs  Cs7  1  0.00167899  0.66658743  0.33271628  1
  Cs  Cs8  1  0.00043671  0.66489913  0.66661413  1
  Cs  Cs9  1  0.33171887  0.00020481  -0.00055781  1
  Cs  Cs10  1  0.33491354  -0.00065467  0.33383594  1
  Cs  Cs11  1  0.33123029  -0.00044852  0.66707689  1
  Cs  Cs12  1  0.33334316  0.33111062  0.00208877  1
  Cs  Cs13  1  0.34129732  0.33396065  0.32709331  1
  Cs  Cs14  1  0.33295480  0.33346440  0.66821097  1
  Cs  Cs15  1  0.33332862  0.66736324  0.00161965  1
  Cs  Cs16  1  0.33349249  0.66515053  0.33200397  1
  Cs  Cs17  1  0.33235516  0.66672975  0.66611429  1
  Cs  Cs18  1  0.66638305  -0.00161352  -0.00074251  1
  Cs  Cs19  1  0.66764817  0.00826266  0.33921890  1
  Cs  Cs20  1  0.66636473  -0.00560810  0.66215792  1
  Cs  Cs21  1  0.66738192  0.33317573  -0.00190334  1
  Cs  Cs22  1  0.66023744  0.32568146  0.33408544  1
  Cs  Cs23  1  0.66614373  0.33427310  0.66889145  1
  Cs  Cs24  1  0.66927542  0.66801735  -0.00149814  1
  Cs  Cs25  1  0.66479410  0.66603736  0.33313890  1
  Cs  Cs26  1  0.66560133  0.67057849  0.66705162  1
  Sn  Sn27  1  0.83321054  0.49953891  0.83312160  1
  Sn  Sn28  1  0.16640541  0.83297844  0.16676850  1
  Sn  Sn29  1  0.83301143  0.83287559  0.16688689  1
  Sn  Sn30  1  0.16679210  0.16782090  0.49963382  1
  Sn  Sn31  1  0.83240641  0.16687437  0.83305821  1
  Sn  Sn32  1  0.49987635  0.49961838  0.83341971  1
  Sn  Sn33  1  0.16687335  0.50078040  0.83316164  1
  Sn  Sn34  1  0.50110158  0.16692676  0.83311961  1
  Sn  Sn35  1  0.16616679  0.49940723  0.50019900  1
  Sn  Sn36  1  0.16636772  0.83308924  0.49982933  1
  Sn  Sn37  1  0.50053972  0.83337771  0.16685623  1
  Sn  Sn38  1  0.16633323  0.83238966  0.83344561  1
  Sn  Sn39  1  0.83329784  0.50025612  0.16711793  1
  Sn  Sn40  1  0.83357546  0.50003156  0.49978648  1
  Pb  Pb41  1  0.83526698  0.83100705  0.49737610  1
  Pb  Pb42  1  0.83338051  0.16697196  0.16456977  1
  Pb  Pb43  1  0.49768253  0.83320739  0.83470503  1
  Pb  Pb44  1  0.49761933  0.83315614  0.49730241  1
  Pb  Pb45  1  0.83555767  0.83317896  0.83472546  1
  Pb  Pb46  1  0.16659745  0.16405661  0.16983793  1
  Pb  Pb47  1  0.83520165  0.16939363  0.50277289  1
  Pb  Pb48  1  0.16652068  0.16716992  0.83202410  1
  Pb  Pb49  1  0.50299372  0.50174629  0.16399834  1
  Pb  Pb50  1  0.49750996  0.16680678  0.50298557  1
  Pb  Pb51  1  0.16509291  0.50136241  0.16669145  1
  Pb  Pb52  1  0.49989888  0.50006370  0.50220005  1
  Pb  Pb53  1  0.50009486  0.16406653  0.16391872  1
  I  I54  1  0.16405603  -0.00498569  0.16367109  1
  I  I55  1  0.16812983  -0.00106995  0.50067030  1
  I  I56  1  0.16692499  -0.00243799  0.83302292  1
  I  I57  1  0.16458855  0.33348793  0.16571039  1
  I  I58  1  0.16170825  0.33493562  0.50838535  1
  I  I59  1  0.16601615  0.33663832  0.82842826  1
  I  I60  1  0.16775330  0.67004864  0.16936956  1
  I  I61  1  0.16295953  0.66628177  0.50131487  1
  I  I62  1  0.16646098  0.66570649  0.82969248  1
  I  I63  1  0.49973086  -0.00410395  0.16372317  1
  I  I64  1  0.49782895  -0.00005229  0.50234441  1
  I  I65  1  0.50221753  0.00233764  0.83583136  1
  I  I66  1  0.50085935  0.33350230  0.16762447  1
  I  I67  1  0.49683863  0.33355468  0.49715201  1
  I  I68  1  0.49858410  0.33445050  0.83312594  1
  I  I69  1  0.49641368  0.66971561  0.16384726  1
  I  I70  1  0.49785522  0.66654442  0.50310686  1
  I  I71  1  0.50216595  0.66376882  0.83465922  1
  I  I72  1  0.83526776  -0.00318072  0.16374663  1
  I  I73  1  0.83571450  0.00002943  0.49978923  1
  I  I74  1  0.83125752  0.00220322  0.83645198  1
  I  I75  1  0.83502049  0.33680421  0.16683096  1
  I  I76  1  0.84032518  0.33762596  0.49647228  1
  I  I77  1  0.83548244  0.33548733  0.83542490  1
  I  I78  1  0.83475950  0.66641267  0.16331795  1
  I  I79  1  0.83931780  0.66278258  0.50610659  1
  I  I80  1  0.83180726  0.66326691  0.83242918  1
  I  I81  1  0.16691621  0.16549418  -0.00023929  1
  I  I82  1  0.16511898  0.16803511  0.33790478  1
  I  I83  1  0.16647780  0.16189086  0.66425444  1
  I  I84  1  0.16562861  0.50453176  -0.00320028  1
  I  I85  1  0.16116920  0.50181955  0.33630961  1
  I  I86  1  0.16262145  0.50463287  0.66731117  1
  I  I87  1  0.16674776  0.82863990  -0.00009030  1
  I  I88  1  0.16650434  0.83311940  0.33337332  1
  I  I89  1  0.16693581  0.83252223  0.66667841  1
  I  I90  1  0.50161231  0.17115209  -0.00405775  1
  I  I91  1  0.49866295  0.16541419  0.33341047  1
  I  I92  1  0.50319430  0.17038883  0.67093348  1
  I  I93  1  0.49791721  0.49729622  -0.00433080  1
  I  I94  1  0.49907752  0.50185001  0.33297932  1
  I  I95  1  0.50279651  0.49759738  0.67081363  1
  I  I96  1  0.49675392  0.83269595  0.00267913  1
  I  I97  1  0.49759119  0.83164857  0.32916857  1
  I  I98  1  0.49808617  0.83363382  0.66688824  1
  I  I99  1  0.83204188  0.17220815  -0.00369953  1
  I  I100  1  0.83517391  0.16682612  0.33373787  1
  I  I101  1  0.83116548  0.17179849  0.67085055  1
  I  I102  1  0.83365649  0.50092891  -0.00110027  1
  I  I103  1  0.84108684  0.50705326  0.33350990  1
  I  I104  1  0.83559307  0.49509121  0.66765546  1
  I  I105  1  0.83664075  0.82798384  0.00291037  1
  I  I106  1  0.83645374  0.82784025  0.32917114  1
  I  I107  1  0.83506203  0.83323310  0.66655859  1
  I  I108  1  -0.00003032  0.16384265  0.16275241  1
  I  I109  1  0.00323626  0.16335864  0.50319166  1
  I  I110  1  -0.00220369  0.17011025  0.83263267  1
  I  I111  1  -0.00311047  0.50611269  0.16190174  1
  I  I112  1  0.00096895  0.50107989  0.50525115  1
  I  I113  1  -0.00013584  0.50013201  0.83266301  1
  I  I114  1  0.00048755  0.82899799  0.16636705  1
  I  I115  1  0.00401180  0.83459787  0.49895703  1
  I  I116  1  0.00391906  0.82998087  0.83494214  1
  I  I117  1  0.33328148  0.16542703  0.16394502  1
  I  I118  1  0.32923851  0.16741733  0.50304829  1
  I  I119  1  0.33526518  0.16911414  0.83165209  1
  I  I120  1  0.33347845  0.50227500  0.16654038  1
  I  I121  1  0.32949337  0.50151751  0.50510517  1
  I  I122  1  0.33219131  0.50047956  0.82844182  1
  I  I123  1  0.33207277  0.83420139  0.16623021  1
  I  I124  1  0.32853091  0.83030701  0.49925634  1
  I  I125  1  0.32932194  0.83039971  0.83505158  1
  I  I126  1  0.66682805  0.16383039  0.16851166  1
  I  I127  1  0.66686238  0.16759251  0.49887403  1
  I  I128  1  0.66709674  0.17553785  0.83478997  1
  I  I129  1  0.67119782  0.50677149  0.16630142  1
  I  I130  1  0.66994020  0.50063664  0.50096201  1
  I  I131  1  0.66769839  0.49517170  0.83427404  1
  I  I132  1  0.66758685  0.82759999  0.16269906  1
  I  I133  1  0.66698102  0.83208257  0.49922259  1
  I  I134  1  0.66678314  0.83135239  0.83677428  1
