# generated using pymatgen
data_Cs27Sn13Pb14I81
_symmetry_space_group_name_H-M   'P 1'
_cell_length_a   18.97813748
_cell_length_b   18.97670302
_cell_length_c   18.97778581
_cell_angle_alpha   90.00128376
_cell_angle_beta   89.99920570
_cell_angle_gamma   90.00039834
_symmetry_Int_Tables_number   1
_chemical_formula_structural   Cs27Sn13Pb14I81
_chemical_formula_sum   'Cs27 Sn13 Pb14 I81'
_cell_volume   6834.70682199
_cell_formula_units_Z   1
loop_
 _symmetry_equiv_pos_site_id
 _symmetry_equiv_pos_as_xyz
  1  'x, y, z'
loop_
 _atom_site_type_symbol
 _atom_site_label
 _atom_site_symmetry_multiplicity
 _atom_site_fract_x
 _atom_site_fract_y
 _atom_site_fract_z
 _atom_site_occupancy
  Cs  Cs0  1  0.00215150  -0.00140269  -0.00257669  1
  Cs  Cs1  1  -0.00690485  0.00270227  0.34079680  1
  Cs  Cs2  1  0.00448080  0.00140227  0.66233920  1
  Cs  Cs3  1  -0.00212010  0.33620358  0.00191153  1
  Cs  Cs4  1  -0.00035924  0.33084789  0.33329987  1
  Cs  Cs5  1  -0.00182552  0.33238240  0.66457097  1
  Cs  Cs6  1  -0.00067334  0.66562636  -0.00025243  1
  Cs  Cs7  1  -0.00037041  0.66743125  0.33083999  1
  Cs  Cs8  1  0.00037354  0.66706441  0.66900583  1
  Cs  Cs9  1  0.33387665  0.00474592  -0.00101301  1
  Cs  Cs10  1  0.33524486  -0.00491188  0.33253478  1
  Cs  Cs11  1  0.32549115  0.00056959  0.66793825  1
  Cs  Cs12  1  0.33366397  0.33179811  0.00060130  1
  Cs  Cs13  1  0.33282847  0.33623402  0.33363924  1
  Cs  Cs14  1  0.33558560  0.33362990  0.66631228  1
  Cs  Cs15  1  0.33172688  0.66614689  0.00051155  1
  Cs  Cs16  1  0.33387026  0.66450165  0.33323175  1
  Cs  Cs17  1  0.33454723  0.66661301  0.66654895  1
  Cs  Cs18  1  0.66492848  0.00219913  0.00317674  1
  Cs  Cs19  1  0.67218064  -0.00677529  0.32851577  1
  Cs  Cs20  1  0.66897059  -0.00122561  0.66767862  1
  Cs  Cs21  1  0.66913231  0.33007643  0.00038237  1
  Cs  Cs22  1  0.66699033  0.33135597  0.33497793  1
  Cs  Cs23  1  0.66478947  0.33477163  0.66712340  1
  Cs  Cs24  1  0.67075102  0.66736935  -0.00329182  1
  Cs  Cs25  1  0.66574122  0.67398214  0.33276902  1
  Cs  Cs26  1  0.66579107  0.66611609  0.66895483  1
  Sn  Sn27  1  0.49990763  0.49997610  0.16635611  1
  Sn  Sn28  1  0.83339081  0.16558652  0.83321350  1
  Sn  Sn29  1  0.83294015  0.50031265  0.49962750  1
  Sn  Sn30  1  0.50032969  0.49936921  0.49968142  1
  Sn  Sn31  1  0.50020681  0.83301842  0.83323430  1
  Sn  Sn32  1  0.49934329  0.50048134  0.83393544  1
  Sn  Sn33  1  0.50010906  0.16651566  0.49984770  1
  Sn  Sn34  1  0.83285105  0.83481472  0.83320663  1
  Sn  Sn35  1  0.16752845  0.49984080  0.83336676  1
  Sn  Sn36  1  0.16643404  0.49994320  0.50002510  1
  Sn  Sn37  1  0.16659108  0.83350504  0.16691913  1
  Sn  Sn38  1  0.16753059  0.49990672  0.16658820  1
  Sn  Sn39  1  0.16671291  0.16662450  0.16702450  1
  Pb  Pb40  1  0.83294016  0.50004200  0.16952898  1
  Pb  Pb41  1  0.16674090  0.83090597  0.49731766  1
  Pb  Pb42  1  0.83085884  0.16853794  0.50182131  1
  Pb  Pb43  1  0.16463469  0.16964824  0.83491571  1
  Pb  Pb44  1  0.16886324  0.16879747  0.49773606  1
  Pb  Pb45  1  0.83302469  0.50005845  0.83175850  1
  Pb  Pb46  1  0.49988157  0.83325134  0.50232917  1
  Pb  Pb47  1  0.49834849  0.16867984  0.16923684  1
  Pb  Pb48  1  0.49814866  0.83099255  0.16388079  1
  Pb  Pb49  1  0.50127939  0.16681396  0.83168245  1
  Pb  Pb50  1  0.83585678  0.83327462  0.16408468  1
  Pb  Pb51  1  0.16702308  0.83135851  0.83488551  1
  Pb  Pb52  1  0.83560683  0.16671473  0.16467194  1
  Pb  Pb53  1  0.83334261  0.83089058  0.50262409  1
  I  I54  1  0.16626177  -0.00000658  0.16319841  1
  I  I55  1  0.16830455  0.00026753  0.49913518  1
  I  I56  1  0.16885026  0.00004941  0.83647131  1
  I  I57  1  0.17026418  0.33544456  0.16652843  1
  I  I58  1  0.16544308  0.33780680  0.49832402  1
  I  I59  1  0.17115750  0.33803201  0.83512170  1
  I  I60  1  0.17020100  0.66453547  0.16658885  1
  I  I61  1  0.17034937  0.66166839  0.49879427  1
  I  I62  1  0.16551778  0.66276017  0.83524040  1
  I  I63  1  0.49672620  -0.00013866  0.16669728  1
  I  I64  1  0.49958044  0.00271481  0.50242336  1
  I  I65  1  0.50283369  -0.00259261  0.83151117  1
  I  I66  1  0.49351811  0.33757698  0.16183081  1
  I  I67  1  0.49926055  0.33659478  0.50265361  1
  I  I68  1  0.49772601  0.33694088  0.83402312  1
  I  I69  1  0.49345536  0.66236314  0.17204670  1
  I  I70  1  0.49903661  0.66255897  0.49867295  1
  I  I71  1  0.50211085  0.66460164  0.83138264  1
  I  I72  1  0.83482138  -0.00006416  0.16866780  1
  I  I73  1  0.83192141  0.00008992  0.49955336  1
  I  I74  1  0.82714580  -0.00076775  0.83439832  1
  I  I75  1  0.83633247  0.33367447  0.16236942  1
  I  I76  1  0.83561860  0.33678327  0.50371907  1
  I  I77  1  0.83413646  0.33186093  0.83156327  1
  I  I78  1  0.83653461  0.66639467  0.16422190  1
  I  I79  1  0.83108014  0.66249245  0.50213432  1
  I  I80  1  0.83223127  0.66842556  0.83163521  1
  I  I81  1  0.16727369  0.17058735  0.00291190  1
  I  I82  1  0.16706748  0.17080988  0.32986133  1
  I  I83  1  0.16621314  0.16833954  0.66651531  1
  I  I84  1  0.17259093  0.50018729  0.00055148  1
  I  I85  1  0.16980424  0.50027738  0.33288301  1
  I  I86  1  0.16931614  0.50049488  0.66664165  1
  I  I87  1  0.16629759  0.82830145  0.00273567  1
  I  I88  1  0.16831084  0.82943486  0.32927220  1
  I  I89  1  0.16639531  0.83091828  0.66690316  1
  I  I90  1  0.50034296  0.16808890  0.00005268  1
  I  I91  1  0.49851044  0.17576645  0.33685582  1
  I  I92  1  0.50052833  0.17548694  0.66412106  1
  I  I93  1  0.49201929  0.50449595  -0.00054224  1
  I  I94  1  0.49579714  0.49499440  0.33371856  1
  I  I95  1  0.49739396  0.50010620  0.66672191  1
  I  I96  1  0.50355717  0.82717969  -0.00393058  1
  I  I97  1  0.49847513  0.83178902  0.33307146  1
  I  I98  1  0.50300071  0.82531332  0.67033702  1
  I  I99  1  0.83173680  0.16596036  -0.00350500  1
  I  I100  1  0.83422421  0.16888647  0.33362685  1
  I  I101  1  0.83404456  0.16428041  0.66974152  1
  I  I102  1  0.83435882  0.50026391  -0.00015210  1
  I  I103  1  0.83420540  0.49831885  0.33747474  1
  I  I104  1  0.83362309  0.50009795  0.66396357  1
  I  I105  1  0.82944079  0.83351194  -0.00394958  1
  I  I106  1  0.83414084  0.83213328  0.33335853  1
  I  I107  1  0.83028767  0.83520908  0.67068165  1
  I  I108  1  0.00402055  0.17262372  0.16627938  1
  I  I109  1  0.00007361  0.16916450  0.49978265  1
  I  I110  1  -0.00308576  0.16256191  0.83349212  1
  I  I111  1  0.00372584  0.50025511  0.16546060  1
  I  I112  1  0.00102247  0.50119375  0.50107947  1
  I  I113  1  0.00258495  0.50017849  0.83385938  1
  I  I114  1  0.00396498  0.82687356  0.16357764  1
  I  I115  1  0.00009797  0.83074034  0.50238493  1
  I  I116  1  -0.00221082  0.83382802  0.83569524  1
  I  I117  1  0.33013211  0.16710755  0.16474428  1
  I  I118  1  0.33641827  0.17464121  0.50198785  1
  I  I119  1  0.33321919  0.16478669  0.83321785  1
  I  I120  1  0.33229503  0.50030549  0.16978567  1
  I  I121  1  0.33360486  0.49681211  0.49985891  1
  I  I122  1  0.33399868  0.50493931  0.83005305  1
  I  I123  1  0.33012901  0.83274278  0.16414108  1
  I  I124  1  0.33334245  0.83124726  0.50315137  1
  I  I125  1  0.33593589  0.82864474  0.83415323  1
  I  I126  1  0.66644973  0.16961356  0.16641881  1
  I  I127  1  0.66334384  0.17654605  0.50130578  1
  I  I128  1  0.66916566  0.16918347  0.83224218  1
  I  I129  1  0.66316665  0.49963176  0.16508280  1
  I  I130  1  0.66519989  0.49574225  0.50241530  1
  I  I131  1  0.66366668  0.50098981  0.83249247  1
  I  I132  1  0.66645317  0.83108944  0.16759258  1
  I  I133  1  0.66650638  0.82947335  0.49824527  1
  I  I134  1  0.66611455  0.82846680  0.83264467  1
