# generated using pymatgen
data_Cs27Sn14Pb13I81
_symmetry_space_group_name_H-M   'P 1'
_cell_length_a   18.98528762
_cell_length_b   18.98496508
_cell_length_c   18.99922353
_cell_angle_alpha   90.00002999
_cell_angle_beta   90.00016504
_cell_angle_gamma   89.99292179
_symmetry_Int_Tables_number   1
_chemical_formula_structural   Cs27Sn14Pb13I81
_chemical_formula_sum   'Cs27 Sn14 Pb13 I81'
_cell_volume   6847.98550587
_cell_formula_units_Z   1
loop_
 _symmetry_equiv_pos_site_id
 _symmetry_equiv_pos_as_xyz
  1  'x, y, z'
loop_
 _atom_site_type_symbol
 _atom_site_label
 _atom_site_symmetry_multiplicity
 _atom_site_fract_x
 _atom_site_fract_y
 _atom_site_fract_z
 _atom_site_occupancy
  Cs  Cs0  1  -0.00393573  -0.00136295  0.00193106  1
  Cs  Cs1  1  0.00279763  0.00020965  0.33292661  1
  Cs  Cs2  1  -0.00254881  -0.00011929  0.66641222  1
  Cs  Cs3  1  -0.00487460  0.33699492  -0.00311339  1
  Cs  Cs4  1  0.00509196  0.33240003  0.33118319  1
  Cs  Cs5  1  -0.00140995  0.33346866  0.67526513  1
  Cs  Cs6  1  0.00140311  0.66486635  -0.00043392  1
  Cs  Cs7  1  -0.00064857  0.66747522  0.33256855  1
  Cs  Cs8  1  0.00286541  0.66563982  0.66771527  1
  Cs  Cs9  1  0.33552578  -0.00156431  -0.00093216  1
  Cs  Cs10  1  0.32866952  0.00261205  0.33079417  1
  Cs  Cs11  1  0.33298175  0.00112386  0.67143917  1
  Cs  Cs12  1  0.33608963  0.33392506  0.00092143  1
  Cs  Cs13  1  0.33111588  0.33226154  0.33298490  1
  Cs  Cs14  1  0.33558700  0.33254124  0.66738765  1
  Cs  Cs15  1  0.33257159  0.66845226  -0.00208988  1
  Cs  Cs16  1  0.33280659  0.66512065  0.33279920  1
  Cs  Cs17  1  0.33085280  0.66749962  0.66962895  1
  Cs  Cs18  1  0.66729325  0.00036427  0.00108367  1
  Cs  Cs19  1  0.66741396  -0.00143009  0.33226847  1
  Cs  Cs20  1  0.66921938  0.00123963  0.66521622  1
  Cs  Cs21  1  0.66641276  0.33212658  -0.00006329  1
  Cs  Cs22  1  0.66560179  0.33506248  0.33222803  1
  Cs  Cs23  1  0.66527249  0.33193341  0.66840250  1
  Cs  Cs24  1  0.66558952  0.66884985  0.00385916  1
  Cs  Cs25  1  0.66811328  0.66661932  0.34330502  1
  Cs  Cs26  1  0.66571763  0.66922845  0.64788576  1
  Sn  Sn27  1  0.16672040  0.50044648  0.49949312  1
  Sn  Sn28  1  0.83286830  0.16712480  0.49851973  1
  Sn  Sn29  1  0.50062777  0.16652345  0.49946769  1
  Sn  Sn30  1  0.16719966  0.16659023  0.83399210  1
  Sn  Sn31  1  0.49937110  0.49953488  0.16595393  1
  Sn  Sn32  1  0.16749747  0.50085049  0.16711935  1
  Sn  Sn33  1  0.16688624  0.83273664  0.49930296  1
  Sn  Sn34  1  0.83395684  0.83376797  0.16596580  1
  Sn  Sn35  1  0.50071220  0.50008035  0.83400785  1
  Sn  Sn36  1  0.83260096  0.83245710  0.83403261  1
  Sn  Sn37  1  0.83252061  0.16623931  0.16778091  1
  Sn  Sn38  1  0.16607764  0.83247672  0.16716672  1
  Sn  Sn39  1  0.49922117  0.16719713  0.83377940  1
  Sn  Sn40  1  0.50081344  0.16728041  0.16688421  1
  Pb  Pb41  1  0.83292438  0.50025591  0.16673332  1
  Pb  Pb42  1  0.50007736  0.83284661  0.16686716  1
  Pb  Pb43  1  0.50299898  0.83289953  0.83323010  1
  Pb  Pb44  1  0.83569159  0.83537833  0.49905947  1
  Pb  Pb45  1  0.83666392  0.49651413  0.49982862  1
  Pb  Pb46  1  0.82915420  0.50373363  0.83325880  1
  Pb  Pb47  1  0.16850242  0.49810547  0.83402503  1
  Pb  Pb48  1  0.16649410  0.16691211  0.50197249  1
  Pb  Pb49  1  0.83236522  0.16563960  0.83392707  1
  Pb  Pb50  1  0.49780893  0.49774713  0.49956211  1
  Pb  Pb51  1  0.16641111  0.16691204  0.16444257  1
  Pb  Pb52  1  0.16502158  0.83529101  0.83402943  1
  Pb  Pb53  1  0.49653411  0.83657737  0.49975680  1
  I  I54  1  0.16561704  -0.00219032  0.17048204  1
  I  I55  1  0.16624422  -0.00190782  0.49576225  1
  I  I56  1  0.17386794  0.00304941  0.83221331  1
  I  I57  1  0.16814922  0.33573231  0.17101595  1
  I  I58  1  0.16745518  0.33545897  0.49488615  1
  I  I59  1  0.16683616  0.33018433  0.83199931  1
  I  I60  1  0.16659956  0.66672140  0.17014863  1
  I  I61  1  0.16647187  0.66674809  0.49642398  1
  I  I62  1  0.16740786  0.66659402  0.83200698  1
  I  I63  1  0.50033801  0.00321536  0.16550649  1
  I  I64  1  0.50227600  0.00487172  0.50052377  1
  I  I65  1  0.49657023  0.00336039  0.83431272  1
  I  I66  1  0.49932382  0.33222139  0.16600115  1
  I  I67  1  0.50069975  0.32966392  0.50033651  1
  I  I68  1  0.49556770  0.33169386  0.83404786  1
  I  I69  1  0.49779927  0.66341236  0.15981561  1
  I  I70  1  0.50207854  0.66647753  0.50063533  1
  I  I71  1  0.49961582  0.66339503  0.84124250  1
  I  I72  1  0.83381077  0.00054389  0.16628940  1
  I  I73  1  0.83166118  0.00321210  0.49956606  1
  I  I74  1  0.83276537  -0.00198552  0.83499484  1
  I  I75  1  0.83291286  0.33029796  0.17039996  1
  I  I76  1  0.83060750  0.32856291  0.49426048  1
  I  I77  1  0.83676379  0.33343423  0.83306482  1
  I  I78  1  0.83524708  0.66971556  0.16101085  1
  I  I79  1  0.83114267  0.66673735  0.50032455  1
  I  I80  1  0.83648546  0.67114593  0.84260374  1
  I  I81  1  0.17100581  0.16597588  -0.00287080  1
  I  I82  1  0.16878128  0.16631016  0.33307093  1
  I  I83  1  0.17051406  0.16634112  0.66945684  1
  I  I84  1  0.16879680  0.50356390  0.00316462  1
  I  I85  1  0.17272441  0.50258226  0.33202953  1
  I  I86  1  0.16765959  0.50308768  0.66455090  1
  I  I87  1  0.16440427  0.83009314  0.00322660  1
  I  I88  1  0.16056945  0.83119257  0.33205999  1
  I  I89  1  0.16521044  0.83071736  0.66450704  1
  I  I90  1  0.49998880  0.17080497  0.00050114  1
  I  I91  1  0.50466809  0.17033464  0.33236491  1
  I  I92  1  0.49931140  0.17042033  0.66712732  1
  I  I93  1  0.49330647  0.49008530  0.00109101  1
  I  I94  1  0.49748858  0.49511591  0.33033125  1
  I  I95  1  0.49890594  0.49443408  0.66886772  1
  I  I96  1  0.49559799  0.83820732  0.00014118  1
  I  I97  1  0.50565873  0.83292865  0.33324420  1
  I  I98  1  0.50089973  0.83314417  0.66655058  1
  I  I99  1  0.83103539  0.16391084  0.00291155  1
  I  I100  1  0.82598279  0.16047891  0.33207539  1
  I  I101  1  0.83161483  0.16430598  0.66494981  1
  I  I102  1  0.83941868  0.49429303  0.00003701  1
  I  I103  1  0.82734889  0.50473205  0.33322257  1
  I  I104  1  0.83447514  0.49963649  0.66666990  1
  I  I105  1  0.83934332  0.84142843  0.00193084  1
  I  I106  1  0.83570294  0.83649914  0.33022031  1
  I  I107  1  0.83393361  0.83657352  0.66806261  1
  I  I108  1  -0.00247234  0.16507452  0.17019666  1
  I  I109  1  -0.00218826  0.16538451  0.49639251  1
  I  I110  1  0.00136613  0.16471485  0.83176150  1
  I  I111  1  0.00287769  0.49993763  0.17138619  1
  I  I112  1  0.00451863  0.50219487  0.49274963  1
  I  I113  1  -0.00012693  0.49671433  0.83318349  1
  I  I114  1  0.00017215  0.83506779  0.16677180  1
  I  I115  1  0.00328989  0.83315877  0.49867699  1
  I  I116  1  -0.00260303  0.83862861  0.83474359  1
  I  I117  1  0.33599564  0.16722764  0.16913238  1
  I  I118  1  0.33583666  0.16680077  0.49770706  1
  I  I119  1  0.33502748  0.16854601  0.83222496  1
  I  I120  1  0.33336664  0.49874734  0.16708622  1
  I  I121  1  0.33016239  0.50100714  0.49812608  1
  I  I122  1  0.33636452  0.49712654  0.83461518  1
  I  I123  1  0.33037625  0.83371074  0.17116413  1
  I  I124  1  0.32876777  0.83162473  0.49353739  1
  I  I125  1  0.33353729  0.83376182  0.83301212  1
  I  I126  1  0.66597791  0.16627725  0.16477123  1
  I  I127  1  0.66607732  0.16608594  0.50249178  1
  I  I128  1  0.66340898  0.16934516  0.83303645  1
  I  I129  1  0.66341378  0.49732124  0.16072359  1
  I  I130  1  0.66643134  0.50212341  0.50016443  1
  I  I131  1  0.66166944  0.48875234  0.84184891  1
  I  I132  1  0.66949087  0.83622837  0.16081040  1
  I  I133  1  0.66678803  0.83181140  0.50038897  1
  I  I134  1  0.67051474  0.83740503  0.84219309  1
