# generated using pymatgen
data_Cs27Sn13Pb14I81
_symmetry_space_group_name_H-M   'P 1'
_cell_length_a   19.00544283
_cell_length_b   18.98226957
_cell_length_c   18.98813301
_cell_angle_alpha   89.99411144
_cell_angle_beta   89.99872454
_cell_angle_gamma   89.99831484
_symmetry_Int_Tables_number   1
_chemical_formula_structural   Cs27Sn13Pb14I81
_chemical_formula_sum   'Cs27 Sn13 Pb14 I81'
_cell_volume   6850.28108868
_cell_formula_units_Z   1
loop_
 _symmetry_equiv_pos_site_id
 _symmetry_equiv_pos_as_xyz
  1  'x, y, z'
loop_
 _atom_site_type_symbol
 _atom_site_label
 _atom_site_symmetry_multiplicity
 _atom_site_fract_x
 _atom_site_fract_y
 _atom_site_fract_z
 _atom_site_occupancy
  Cs  Cs0  1  -0.00028198  0.00208578  -0.00061274  1
  Cs  Cs1  1  0.00155064  -0.00081808  0.33221047  1
  Cs  Cs2  1  0.00153336  0.00034853  0.66763298  1
  Cs  Cs3  1  -0.00122975  0.33225640  0.00033592  1
  Cs  Cs4  1  0.00050678  0.33571165  0.33327465  1
  Cs  Cs5  1  -0.00346099  0.32957874  0.66574318  1
  Cs  Cs6  1  -0.00157886  0.66549770  0.00002030  1
  Cs  Cs7  1  0.00293406  0.66361239  0.33118594  1
  Cs  Cs8  1  -0.00022305  0.66831534  0.66804681  1
  Cs  Cs9  1  0.33542228  0.00330797  0.00229999  1
  Cs  Cs10  1  0.33413009  0.00074274  0.33206394  1
  Cs  Cs11  1  0.32875103  -0.00398263  0.66600900  1
  Cs  Cs12  1  0.33795004  0.33123959  -0.00323374  1
  Cs  Cs13  1  0.33175680  0.33477722  0.33499139  1
  Cs  Cs14  1  0.34313273  0.33518077  0.66902887  1
  Cs  Cs15  1  0.33124255  0.66572017  -0.00035916  1
  Cs  Cs16  1  0.32656208  0.66441765  0.33143307  1
  Cs  Cs17  1  0.33498078  0.66855610  0.66751703  1
  Cs  Cs18  1  0.66481367  0.00183265  0.00543889  1
  Cs  Cs19  1  0.66208574  0.00079436  0.33015946  1
  Cs  Cs20  1  0.66914999  -0.00057523  0.66467797  1
  Cs  Cs21  1  0.66572258  0.33614249  0.00006882  1
  Cs  Cs22  1  0.66670599  0.33182864  0.33807153  1
  Cs  Cs23  1  0.66073120  0.32763869  0.65769817  1
  Cs  Cs24  1  0.66917603  0.66429691  -0.00051327  1
  Cs  Cs25  1  0.66935396  0.66739735  0.33118670  1
  Cs  Cs26  1  0.66550178  0.66736808  0.66832582  1
  Sn  Sn27  1  0.49980926  0.83294286  0.50028677  1
  Sn  Sn28  1  0.83374400  0.83304775  0.50048111  1
  Sn  Sn29  1  0.83420190  0.16769542  0.16665070  1
  Sn  Sn30  1  0.50022184  0.83334092  0.83318675  1
  Sn  Sn31  1  0.16653291  0.16636576  0.49953128  1
  Sn  Sn32  1  0.16642080  0.83254651  0.83304088  1
  Sn  Sn33  1  0.16555355  0.50033363  0.83295940  1
  Sn  Sn34  1  0.83387993  0.50003044  0.83315145  1
  Sn  Sn35  1  0.83337008  0.83280306  0.83281686  1
  Sn  Sn36  1  0.50094530  0.50042530  0.16685918  1
  Sn  Sn37  1  0.16576881  0.16684008  0.16734582  1
  Sn  Sn38  1  0.83264534  0.49898164  0.16607918  1
  Sn  Sn39  1  0.16638225  0.83376485  0.50046807  1
  Pb  Pb40  1  0.83344224  0.50211281  0.50061602  1
  Pb  Pb41  1  0.83350972  0.83302711  0.16631825  1
  Pb  Pb42  1  0.50036577  0.16326845  0.83311632  1
  Pb  Pb43  1  0.16649146  0.49987941  0.50332704  1
  Pb  Pb44  1  0.16664953  0.83544725  0.16615539  1
  Pb  Pb45  1  0.49699348  0.16374940  0.49999104  1
  Pb  Pb46  1  0.83309669  0.16684695  0.83511070  1
  Pb  Pb47  1  0.16611379  0.49744226  0.16412047  1
  Pb  Pb48  1  0.16659288  0.16684742  0.83281086  1
  Pb  Pb49  1  0.49985545  0.83087979  0.16665547  1
  Pb  Pb50  1  0.83548207  0.16378647  0.49743456  1
  Pb  Pb51  1  0.50007106  0.16945949  0.16687122  1
  Pb  Pb52  1  0.50080524  0.50207186  0.83450344  1
  Pb  Pb53  1  0.50000389  0.50308012  0.49738340  1
  I  I54  1  0.16061645  0.00331570  0.16556584  1
  I  I55  1  0.16677676  -0.00189206  0.50185166  1
  I  I56  1  0.16611945  -0.00343755  0.83216234  1
  I  I57  1  0.16503644  0.32985120  0.17223982  1
  I  I58  1  0.16526627  0.33044194  0.49528356  1
  I  I59  1  0.16054898  0.33628271  0.83538878  1
  I  I60  1  0.16623815  0.66633410  0.16961385  1
  I  I61  1  0.16732220  0.67033209  0.50176319  1
  I  I62  1  0.16628217  0.66835477  0.82885335  1
  I  I63  1  0.50077524  0.00004212  0.16598270  1
  I  I64  1  0.50301739  -0.00452978  0.50312981  1
  I  I65  1  0.49848846  -0.00560293  0.83096338  1
  I  I66  1  0.50116142  0.33701357  0.16385437  1
  I  I67  1  0.49856944  0.33328545  0.49933333  1
  I  I68  1  0.49787177  0.33388563  0.83591137  1
  I  I69  1  0.50765440  0.66349778  0.16632213  1
  I  I70  1  0.49645055  0.67130357  0.50509683  1
  I  I71  1  0.49929781  0.67028573  0.82958496  1
  I  I72  1  0.83798632  0.00228675  0.16686950  1
  I  I73  1  0.83160869  -0.00440140  0.50581943  1
  I  I74  1  0.83496220  -0.00373171  0.83036365  1
  I  I75  1  0.83395925  0.33430382  0.15975911  1
  I  I76  1  0.83517832  0.33309628  0.50252908  1
  I  I77  1  0.84105483  0.33691855  0.83813396  1
  I  I78  1  0.82897426  0.66383585  0.16530230  1
  I  I79  1  0.83663982  0.67079157  0.49852679  1
  I  I80  1  0.83448801  0.66760327  0.83647835  1
  I  I81  1  0.16283639  0.16629906  0.00239568  1
  I  I82  1  0.16295157  0.15986651  0.33350203  1
  I  I83  1  0.16680629  0.16228995  0.66391830  1
  I  I84  1  0.16550004  0.50684137  -0.00338154  1
  I  I85  1  0.16686365  0.50314270  0.33331625  1
  I  I86  1  0.16038474  0.50121910  0.67115710  1
  I  I87  1  0.16626176  0.83054837  -0.00370574  1
  I  I88  1  0.16707842  0.83554930  0.33652409  1
  I  I89  1  0.16673796  0.83589025  0.66677250  1
  I  I90  1  0.49596369  0.16237982  0.00041070  1
  I  I91  1  0.50161349  0.16286639  0.33328954  1
  I  I92  1  0.49859197  0.17258602  0.66636354  1
  I  I93  1  0.50127046  0.50285898  0.00235953  1
  I  I94  1  0.50636699  0.50153388  0.32948472  1
  I  I95  1  0.49938191  0.49822838  0.66679434  1
  I  I96  1  0.50005112  0.83216562  -0.00322107  1
  I  I97  1  0.50011861  0.83284982  0.33658549  1
  I  I98  1  0.49919362  0.83242410  0.66698140  1
  I  I99  1  0.84090246  0.16460330  0.00327743  1
  I  I100  1  0.83555402  0.17193978  0.32959629  1
  I  I101  1  0.83492268  0.16895986  0.66637056  1
  I  I102  1  0.83367246  0.50346657  -0.00029206  1
  I  I103  1  0.82928051  0.49801292  0.33030318  1
  I  I104  1  0.83905372  0.50455148  0.67034584  1
  I  I105  1  0.83378276  0.83248143  -0.00337266  1
  I  I106  1  0.83336394  0.83405956  0.33613948  1
  I  I107  1  0.83353810  0.82798837  0.66765241  1
  I  I108  1  -0.00013617  0.17166996  0.16980574  1
  I  I109  1  0.00316470  0.15940777  0.49891902  1
  I  I110  1  0.00001473  0.16167850  0.83276927  1
  I  I111  1  -0.00287243  0.49844734  0.16414812  1
  I  I112  1  0.00003810  0.50336743  0.49419326  1
  I  I113  1  -0.00076593  0.50988328  0.84006383  1
  I  I114  1  -0.00002362  0.82972296  0.16759729  1
  I  I115  1  0.00056420  0.83741284  0.50626505  1
  I  I116  1  0.00003405  0.82935475  0.82743138  1
  I  I117  1  0.33046323  0.16588126  0.16997497  1
  I  I118  1  0.32912159  0.16049682  0.49284131  1
  I  I119  1  0.33301719  0.16845365  0.83739522  1
  I  I120  1  0.33487030  0.50091786  0.16547322  1
  I  I121  1  0.33312236  0.50184735  0.49849108  1
  I  I122  1  0.33114579  0.50400554  0.83509158  1
  I  I123  1  0.33322926  0.83270772  0.16606790  1
  I  I124  1  0.33256058  0.83761775  0.50672741  1
  I  I125  1  0.33247916  0.82957608  0.82714092  1
  I  I126  1  0.66963646  0.16680748  0.16448392  1
  I  I127  1  0.66669902  0.16533656  0.49852219  1
  I  I128  1  0.66687778  0.16657257  0.83702760  1
  I  I129  1  0.66857074  0.49616563  0.15991149  1
  I  I130  1  0.66676893  0.50207159  0.50358751  1
  I  I131  1  0.66994410  0.50669509  0.83851037  1
  I  I132  1  0.66684003  0.83833604  0.16760188  1
  I  I133  1  0.66691383  0.83099193  0.50648965  1
  I  I134  1  0.66746493  0.82921539  0.82724445  1
