# generated using pymatgen
data_Cs27Sn14Pb13I81
_symmetry_space_group_name_H-M   'P 1'
_cell_length_a   18.97640014
_cell_length_b   18.96989541
_cell_length_c   18.98086989
_cell_angle_alpha   90.00062060
_cell_angle_beta   89.99984303
_cell_angle_gamma   89.99948540
_symmetry_Int_Tables_number   1
_chemical_formula_structural   Cs27Sn14Pb13I81
_chemical_formula_sum   'Cs27 Sn14 Pb13 I81'
_cell_volume   6832.73973000
_cell_formula_units_Z   1
loop_
 _symmetry_equiv_pos_site_id
 _symmetry_equiv_pos_as_xyz
  1  'x, y, z'
loop_
 _atom_site_type_symbol
 _atom_site_label
 _atom_site_symmetry_multiplicity
 _atom_site_fract_x
 _atom_site_fract_y
 _atom_site_fract_z
 _atom_site_occupancy
  Cs  Cs0  1  0.00879899  -0.00321998  -0.00143852  1
  Cs  Cs1  1  0.00257454  -0.00196794  0.33225419  1
  Cs  Cs2  1  0.00041148  0.00721975  0.66842669  1
  Cs  Cs3  1  -0.00302592  0.33534381  -0.00224075  1
  Cs  Cs4  1  -0.00107570  0.33684529  0.33555063  1
  Cs  Cs5  1  -0.00185369  0.32911066  0.66626751  1
  Cs  Cs6  1  -0.00027962  0.66762750  0.00095027  1
  Cs  Cs7  1  -0.00133233  0.66568432  0.33366926  1
  Cs  Cs8  1  -0.00029408  0.66631983  0.66482453  1
  Cs  Cs9  1  0.32896694  0.00132193  -0.00000921  1
  Cs  Cs10  1  0.33684117  0.01225170  0.33306020  1
  Cs  Cs11  1  0.33048221  -0.00068855  0.66731419  1
  Cs  Cs12  1  0.33635652  0.33366520  0.00313763  1
  Cs  Cs13  1  0.33422147  0.32551410  0.33126562  1
  Cs  Cs14  1  0.33503755  0.33685510  0.66439145  1
  Cs  Cs15  1  0.33352228  0.66630471  -0.00203041  1
  Cs  Cs16  1  0.33323687  0.66584212  0.33739467  1
  Cs  Cs17  1  0.33492754  0.66624578  0.66494313  1
  Cs  Cs18  1  0.66598925  -0.00179738  -0.00105464  1
  Cs  Cs19  1  0.66308104  0.00072368  0.33371751  1
  Cs  Cs20  1  0.66814653  -0.00076452  0.66747511  1
  Cs  Cs21  1  0.66645634  0.33339762  0.00006446  1
  Cs  Cs22  1  0.66686373  0.33037470  0.33088623  1
  Cs  Cs23  1  0.66762619  0.33243816  0.66778649  1
  Cs  Cs24  1  0.66686543  0.66736612  -0.00039809  1
  Cs  Cs25  1  0.66894345  0.66846031  0.33381710  1
  Cs  Cs26  1  0.66481509  0.66739297  0.66734496  1
  Sn  Sn27  1  0.16665310  0.50049625  0.16680245  1
  Sn  Sn28  1  0.16576998  0.83265305  0.49976096  1
  Sn  Sn29  1  0.16568502  0.50035834  0.83313175  1
  Sn  Sn30  1  0.83388521  0.16661497  0.16614940  1
  Sn  Sn31  1  0.83314878  0.83259035  0.83267771  1
  Sn  Sn32  1  0.83375690  0.50082940  0.50025649  1
  Sn  Sn33  1  0.83326460  0.49943711  0.16665739  1
  Sn  Sn34  1  0.16571948  0.50077747  0.49998834  1
  Sn  Sn35  1  0.83402443  0.50092929  0.83312984  1
  Sn  Sn36  1  0.49960253  0.83247825  0.16610210  1
  Sn  Sn37  1  0.50020824  0.50129690  0.16694651  1
  Sn  Sn38  1  0.50047275  0.83415149  0.83433906  1
  Sn  Sn39  1  0.83432346  0.83262438  0.50102699  1
  Sn  Sn40  1  0.50015796  0.16555842  0.83329219  1
  Pb  Pb41  1  0.50192747  0.16642954  0.16483058  1
  Pb  Pb42  1  0.83215321  0.83307782  0.16665015  1
  Pb  Pb43  1  0.83334570  0.16631945  0.49772796  1
  Pb  Pb44  1  0.16939987  0.17016441  0.83342749  1
  Pb  Pb45  1  0.16644861  0.83114246  0.83137587  1
  Pb  Pb46  1  0.50037732  0.50069421  0.83504686  1
  Pb  Pb47  1  0.16345960  0.16951563  0.16640622  1
  Pb  Pb48  1  0.50041540  0.49986876  0.49685949  1
  Pb  Pb49  1  0.16985979  0.83104510  0.16953812  1
  Pb  Pb50  1  0.50045252  0.16665271  0.50349761  1
  Pb  Pb51  1  0.83220068  0.16624064  0.83540384  1
  Pb  Pb52  1  0.16631462  0.16717965  0.50010269  1
  Pb  Pb53  1  0.50006704  0.83326468  0.50019368  1
  I  I54  1  0.16680150  -0.00024572  0.16845687  1
  I  I55  1  0.16254267  -0.00325605  0.50112886  1
  I  I56  1  0.16432808  -0.00025263  0.83117987  1
  I  I57  1  0.17335045  0.33848864  0.16972513  1
  I  I58  1  0.16225030  0.33767838  0.49965995  1
  I  I59  1  0.16130105  0.33864788  0.83108220  1
  I  I60  1  0.16030623  0.66253100  0.16437460  1
  I  I61  1  0.16258084  0.66508278  0.49957251  1
  I  I62  1  0.16794043  0.66283636  0.83618807  1
  I  I63  1  0.50370495  -0.00278056  0.16577014  1
  I  I64  1  0.50002545  -0.00043392  0.49283018  1
  I  I65  1  0.50688138  -0.00201660  0.83902404  1
  I  I66  1  0.49822394  0.33634030  0.16518674  1
  I  I67  1  0.49943457  0.33369920  0.50009138  1
  I  I68  1  0.49963363  0.33213480  0.83573536  1
  I  I69  1  0.50313375  0.66580684  0.16022553  1
  I  I70  1  0.49950205  0.66653397  0.50417543  1
  I  I71  1  0.50177525  0.66927483  0.83580555  1
  I  I72  1  0.82778914  0.00164055  0.16724881  1
  I  I73  1  0.83652986  -0.00373644  0.50363214  1
  I  I74  1  0.82956027  -0.00330990  0.83002056  1
  I  I75  1  0.83092745  0.33667245  0.16661325  1
  I  I76  1  0.83769331  0.33707284  0.50236493  1
  I  I77  1  0.83502433  0.33677330  0.83143121  1
  I  I78  1  0.83461997  0.66321828  0.16669471  1
  I  I79  1  0.83690322  0.66557787  0.49808244  1
  I  I80  1  0.83041638  0.66575765  0.83501725  1
  I  I81  1  0.16659771  0.16713497  -0.00001046  1
  I  I82  1  0.16858705  0.16777209  0.33313690  1
  I  I83  1  0.16753636  0.16954456  0.66683312  1
  I  I84  1  0.16400791  0.49879389  0.00025605  1
  I  I85  1  0.16324941  0.50440756  0.33343630  1
  I  I86  1  0.16117260  0.50343739  0.66630379  1
  I  I87  1  0.16459534  0.83175650  0.00006386  1
  I  I88  1  0.15970067  0.82589452  0.33711218  1
  I  I89  1  0.16851447  0.82554421  0.66366668  1
  I  I90  1  0.50198538  0.16626759  -0.00260923  1
  I  I91  1  0.50022302  0.16632030  0.33288207  1
  I  I92  1  0.50186398  0.16129167  0.67137938  1
  I  I93  1  0.50043979  0.50058268  0.00311155  1
  I  I94  1  0.50117105  0.50619471  0.32858959  1
  I  I95  1  0.49912197  0.49931304  0.66676722  1
  I  I96  1  0.50691808  0.83204606  -0.00078781  1
  I  I97  1  0.50143967  0.82719581  0.33071206  1
  I  I98  1  0.50165581  0.83722259  0.66976576  1
  I  I99  1  0.83085856  0.17403607  0.00287381  1
  I  I100  1  0.83152807  0.17275358  0.32995710  1
  I  I101  1  0.83098906  0.16963253  0.66692177  1
  I  I102  1  0.83528967  0.49971334  0.00000760  1
  I  I103  1  0.83542479  0.50019056  0.33321950  1
  I  I104  1  0.83938442  0.50435922  0.66689695  1
  I  I105  1  0.82921292  0.82937121  -0.00265911  1
  I  I106  1  0.83513075  0.82954359  0.33583413  1
  I  I107  1  0.82986701  0.82512845  0.66718270  1
  I  I108  1  -0.00424632  0.17185551  0.16596511  1
  I  I109  1  -0.00027239  0.16684589  0.50076653  1
  I  I110  1  -0.00000331  0.16488832  0.83429157  1
  I  I111  1  -0.00063026  0.49480146  0.16684787  1
  I  I112  1  -0.00073108  0.50399453  0.49544410  1
  I  I113  1  -0.00141797  0.50509653  0.83825094  1
  I  I114  1  0.00019374  0.83423113  0.16401528  1
  I  I115  1  -0.00122910  0.82754661  0.50428665  1
  I  I116  1  -0.00308290  0.83014898  0.83245829  1
  I  I117  1  0.33340698  0.16787535  0.16654647  1
  I  I118  1  0.33328151  0.16713421  0.49812579  1
  I  I119  1  0.33716548  0.16037794  0.83544788  1
  I  I120  1  0.33323508  0.50574866  0.16519578  1
  I  I121  1  0.32998125  0.50461482  0.50199714  1
  I  I122  1  0.33099074  0.49945597  0.83336256  1
  I  I123  1  0.33761787  0.82723187  0.16063116  1
  I  I124  1  0.33055485  0.82672747  0.50045114  1
  I  I125  1  0.33593841  0.83517561  0.83587201  1
  I  I126  1  0.66930459  0.17485413  0.16637130  1
  I  I127  1  0.66713017  0.16744381  0.49799623  1
  I  I128  1  0.66430832  0.16816312  0.83549657  1
  I  I129  1  0.66761725  0.49961187  0.16572732  1
  I  I130  1  0.67051375  0.50468396  0.50106970  1
  I  I131  1  0.66979572  0.50051360  0.83350032  1
  I  I132  1  0.66425490  0.82716218  0.16702688  1
  I  I133  1  0.66984920  0.82798623  0.50067449  1
  I  I134  1  0.66743000  0.83038779  0.83132784  1
