# generated using pymatgen
data_Cs27Sn13Pb14I81
_symmetry_space_group_name_H-M   'P 1'
_cell_length_a   18.99647860
_cell_length_b   18.97769280
_cell_length_c   19.00632238
_cell_angle_alpha   89.99994941
_cell_angle_beta   89.99994398
_cell_angle_gamma   89.99971196
_symmetry_Int_Tables_number   1
_chemical_formula_structural   Cs27Sn13Pb14I81
_chemical_formula_sum   'Cs27 Sn13 Pb14 I81'
_cell_volume   6851.95664646
_cell_formula_units_Z   1
loop_
 _symmetry_equiv_pos_site_id
 _symmetry_equiv_pos_as_xyz
  1  'x, y, z'
loop_
 _atom_site_type_symbol
 _atom_site_label
 _atom_site_symmetry_multiplicity
 _atom_site_fract_x
 _atom_site_fract_y
 _atom_site_fract_z
 _atom_site_occupancy
  Cs  Cs0  1  -0.00053448  0.00070838  0.00007843  1
  Cs  Cs1  1  0.00795009  0.00663779  0.32712556  1
  Cs  Cs2  1  0.00730055  0.00857429  0.67288161  1
  Cs  Cs3  1  0.00099860  0.33490256  -0.00160560  1
  Cs  Cs4  1  -0.00220617  0.33309039  0.33475141  1
  Cs  Cs5  1  -0.00168904  0.33125047  0.66678545  1
  Cs  Cs6  1  -0.00189685  0.66795536  0.00177144  1
  Cs  Cs7  1  -0.00056904  0.66678768  0.33387434  1
  Cs  Cs8  1  -0.00070826  0.66674026  0.66475781  1
  Cs  Cs9  1  0.33046501  0.00333632  0.00105368  1
  Cs  Cs10  1  0.32587558  0.00720008  0.33298273  1
  Cs  Cs11  1  0.32486368  -0.00205409  0.66689053  1
  Cs  Cs12  1  0.33428207  0.33471561  -0.00007688  1
  Cs  Cs13  1  0.33707769  0.32887796  0.33403508  1
  Cs  Cs14  1  0.33592756  0.33397112  0.66616224  1
  Cs  Cs15  1  0.33617535  0.66542750  0.00004530  1
  Cs  Cs16  1  0.33427123  0.66651315  0.33410358  1
  Cs  Cs17  1  0.33535528  0.66647483  0.66577224  1
  Cs  Cs18  1  0.67124600  -0.00069192  0.00120058  1
  Cs  Cs19  1  0.66803448  0.00670569  0.33218003  1
  Cs  Cs20  1  0.66908341  -0.00176924  0.66780272  1
  Cs  Cs21  1  0.66530844  0.33429671  -0.00000356  1
  Cs  Cs22  1  0.66500129  0.32728289  0.33567389  1
  Cs  Cs23  1  0.66595314  0.33262321  0.66459446  1
  Cs  Cs24  1  0.66563283  0.66692456  -0.00017475  1
  Cs  Cs25  1  0.66701037  0.66684569  0.33561677  1
  Cs  Cs26  1  0.66590115  0.66697840  0.66485514  1
  Sn  Sn27  1  0.50028195  0.50085181  0.16637579  1
  Sn  Sn28  1  0.50025099  0.50031825  0.83383822  1
  Sn  Sn29  1  0.49999616  0.83256923  0.16711038  1
  Sn  Sn30  1  0.83272402  0.50051086  0.16699736  1
  Sn  Sn31  1  0.83337021  0.83327654  0.49990427  1
  Sn  Sn32  1  0.50036842  0.16629307  0.83309935  1
  Sn  Sn33  1  0.83298325  0.50054236  0.83315496  1
  Sn  Sn34  1  0.50003534  0.83355768  0.83354426  1
  Sn  Sn35  1  0.16698012  0.50057248  0.16694645  1
  Sn  Sn36  1  0.16672499  0.50068755  0.83316999  1
  Sn  Sn37  1  0.50072890  0.83322447  0.49943093  1
  Sn  Sn38  1  0.83388610  0.50075630  0.49993417  1
  Sn  Sn39  1  0.16587872  0.50057592  0.49994023  1
  Pb  Pb40  1  0.83327943  0.16906303  0.16640192  1
  Pb  Pb41  1  0.83109403  0.16887049  0.83341508  1
  Pb  Pb42  1  0.16887871  0.83100183  0.16658556  1
  Pb  Pb43  1  0.50014723  0.16647803  0.16435382  1
  Pb  Pb44  1  0.16846347  0.83084966  0.83356146  1
  Pb  Pb45  1  0.50012965  0.16224686  0.50292861  1
  Pb  Pb46  1  0.50027531  0.50103498  0.49967727  1
  Pb  Pb47  1  0.16583332  0.83145220  0.49996170  1
  Pb  Pb48  1  0.16666536  0.17013943  0.50014692  1
  Pb  Pb49  1  0.83185022  0.83140386  0.83130287  1
  Pb  Pb50  1  0.16664436  0.16978025  0.16617394  1
  Pb  Pb51  1  0.16900851  0.16947875  0.83358160  1
  Pb  Pb52  1  0.83333815  0.16570598  0.50012220  1
  Pb  Pb53  1  0.83139177  0.83146534  0.16917573  1
  I  I54  1  0.16897244  -0.00009993  0.16803474  1
  I  I55  1  0.16752851  -0.00014381  0.50036460  1
  I  I56  1  0.16871069  0.00011323  0.83164782  1
  I  I57  1  0.17067249  0.33922466  0.16614101  1
  I  I58  1  0.16116514  0.33907692  0.50024236  1
  I  I59  1  0.16902646  0.33863532  0.83369554  1
  I  I60  1  0.16528948  0.66170941  0.16615651  1
  I  I61  1  0.16613545  0.66254726  0.50052639  1
  I  I62  1  0.17010294  0.66163573  0.83324938  1
  I  I63  1  0.50111740  -0.00344509  0.16597626  1
  I  I64  1  0.50789775  -0.00570657  0.49814875  1
  I  I65  1  0.50094996  -0.00094784  0.83238446  1
  I  I66  1  0.49930449  0.33714316  0.16202140  1
  I  I67  1  0.49940438  0.33318729  0.49992240  1
  I  I68  1  0.49938256  0.33590090  0.83852858  1
  I  I69  1  0.49960662  0.66489372  0.16097200  1
  I  I70  1  0.50045133  0.66882257  0.50495271  1
  I  I71  1  0.49953548  0.66534341  0.83425041  1
  I  I72  1  0.83001498  -0.00058947  0.16879230  1
  I  I73  1  0.82331872  -0.00377146  0.50050801  1
  I  I74  1  0.83025805  -0.00026300  0.83043222  1
  I  I75  1  0.82988907  0.33929447  0.16941528  1
  I  I76  1  0.83787926  0.33733509  0.49997079  1
  I  I77  1  0.83132215  0.33870240  0.83088730  1
  I  I78  1  0.83491379  0.66204430  0.16395956  1
  I  I79  1  0.83219128  0.66445801  0.50055459  1
  I  I80  1  0.83041978  0.66198388  0.83538130  1
  I  I81  1  0.16889981  0.17017227  -0.00027465  1
  I  I82  1  0.16837585  0.16847019  0.33324871  1
  I  I83  1  0.16799597  0.16910183  0.66697730  1
  I  I84  1  0.16609515  0.49947081  -0.00011843  1
  I  I85  1  0.16427561  0.50140847  0.33320799  1
  I  I86  1  0.16551554  0.50052502  0.66695439  1
  I  I87  1  0.16875207  0.82911452  0.00000516  1
  I  I88  1  0.17116212  0.82844383  0.33343168  1
  I  I89  1  0.17172236  0.82841945  0.66664258  1
  I  I90  1  0.49955143  0.16642791  -0.00330787  1
  I  I91  1  0.49988079  0.16887369  0.33337102  1
  I  I92  1  0.50050776  0.17388662  0.67040052  1
  I  I93  1  0.49977838  0.50331145  -0.00078548  1
  I  I94  1  0.49911946  0.50492659  0.33051365  1
  I  I95  1  0.49930308  0.50063872  0.66954620  1
  I  I96  1  0.49837086  0.82953347  -0.00032962  1
  I  I97  1  0.50406895  0.82293546  0.33307788  1
  I  I98  1  0.50393193  0.83067173  0.66711967  1
  I  I99  1  0.83150090  0.16884871  -0.00020452  1
  I  I100  1  0.83094987  0.17107289  0.33343080  1
  I  I101  1  0.83132535  0.17160558  0.66677615  1
  I  I102  1  0.83441936  0.49827272  -0.00010144  1
  I  I103  1  0.83649732  0.50416817  0.33355559  1
  I  I104  1  0.83507714  0.50324554  0.66660835  1
  I  I105  1  0.83083226  0.83072004  0.00008334  1
  I  I106  1  0.82491751  0.82278058  0.33695902  1
  I  I107  1  0.82441669  0.82323843  0.66341045  1
  I  I108  1  0.00008228  0.16795784  0.16690599  1
  I  I109  1  0.00003298  0.16341836  0.50129757  1
  I  I110  1  0.00014133  0.16881068  0.83207324  1
  I  I111  1  -0.00019423  0.49813808  0.16383230  1
  I  I112  1  -0.00086415  0.50538086  0.50025995  1
  I  I113  1  -0.00019400  0.49969512  0.83576374  1
  I  I114  1  -0.00023007  0.83078987  0.16958238  1
  I  I115  1  -0.00342156  0.82606851  0.50001819  1
  I  I116  1  -0.00015702  0.83059540  0.83030712  1
  I  I117  1  0.33365340  0.16966693  0.16674585  1
  I  I118  1  0.33358913  0.16827839  0.50013589  1
  I  I119  1  0.33715384  0.16930777  0.83348349  1
  I  I120  1  0.33413833  0.50381257  0.16297529  1
  I  I121  1  0.33138355  0.50184993  0.50090622  1
  I  I122  1  0.33451811  0.50003000  0.83564106  1
  I  I123  1  0.33794565  0.82542018  0.16809316  1
  I  I124  1  0.33641933  0.83034313  0.50171401  1
  I  I125  1  0.33815280  0.82959666  0.82973287  1
  I  I126  1  0.66630504  0.17118800  0.16665173  1
  I  I127  1  0.66649051  0.17437369  0.50015356  1
  I  I128  1  0.66285934  0.17039334  0.83351662  1
  I  I129  1  0.66601010  0.50394184  0.16244720  1
  I  I130  1  0.66933948  0.50214900  0.50090021  1
  I  I131  1  0.66565000  0.50013462  0.83589791  1
  I  I132  1  0.66277693  0.82525063  0.16306100  1
  I  I133  1  0.66585336  0.82404775  0.50146994  1
  I  I134  1  0.66254276  0.82897878  0.83514912  1
