# generated using pymatgen
data_Cs27Sn13Pb14I81
_symmetry_space_group_name_H-M   'P 1'
_cell_length_a   18.97815695
_cell_length_b   18.97790454
_cell_length_c   18.97315046
_cell_angle_alpha   90.00153485
_cell_angle_beta   90.00089945
_cell_angle_gamma   90.00219585
_symmetry_Int_Tables_number   1
_chemical_formula_structural   Cs27Sn13Pb14I81
_chemical_formula_sum   'Cs27 Sn13 Pb14 I81'
_cell_volume   6833.47707715
_cell_formula_units_Z   1
loop_
 _symmetry_equiv_pos_site_id
 _symmetry_equiv_pos_as_xyz
  1  'x, y, z'
loop_
 _atom_site_type_symbol
 _atom_site_label
 _atom_site_symmetry_multiplicity
 _atom_site_fract_x
 _atom_site_fract_y
 _atom_site_fract_z
 _atom_site_occupancy
  Cs  Cs0  1  -0.00083987  0.00089413  -0.00203460  1
  Cs  Cs1  1  -0.00098512  0.00000281  0.33870046  1
  Cs  Cs2  1  -0.00055307  -0.00193546  0.66571996  1
  Cs  Cs3  1  -0.00122919  0.33414660  0.00047028  1
  Cs  Cs4  1  0.00021157  0.33202052  0.32710581  1
  Cs  Cs5  1  0.00046961  0.33437581  0.67129391  1
  Cs  Cs6  1  -0.00094806  0.66561782  -0.00073308  1
  Cs  Cs7  1  0.00920120  0.66766407  0.33382185  1
  Cs  Cs8  1  -0.00159246  0.66800400  0.66721910  1
  Cs  Cs9  1  0.33657991  0.00026277  0.00081747  1
  Cs  Cs10  1  0.33076600  -0.00235115  0.32939866  1
  Cs  Cs11  1  0.33670596  0.00584110  0.67061696  1
  Cs  Cs12  1  0.33353432  0.33033010  -0.00027302  1
  Cs  Cs13  1  0.33391989  0.33404841  0.33576445  1
  Cs  Cs14  1  0.33532556  0.33086501  0.66376336  1
  Cs  Cs15  1  0.33564998  0.67000358  0.00206592  1
  Cs  Cs16  1  0.32578852  0.66813300  0.33477883  1
  Cs  Cs17  1  0.33310426  0.66408184  0.66371586  1
  Cs  Cs18  1  0.66448117  -0.00414820  -0.00015113  1
  Cs  Cs19  1  0.66978292  0.00182407  0.33711682  1
  Cs  Cs20  1  0.66472525  0.00081916  0.66271192  1
  Cs  Cs21  1  0.66920211  0.33633332  0.00315347  1
  Cs  Cs22  1  0.66657224  0.33015805  0.33259828  1
  Cs  Cs23  1  0.66442648  0.33551232  0.66373006  1
  Cs  Cs24  1  0.66625713  0.66758800  -0.00065351  1
  Cs  Cs25  1  0.66532990  0.66765537  0.33517856  1
  Cs  Cs26  1  0.66782060  0.66535469  0.66765759  1
  Sn  Sn27  1  0.83384066  0.83353782  0.83404043  1
  Sn  Sn28  1  0.49974941  0.83315671  0.50009871  1
  Sn  Sn29  1  0.83262716  0.16656324  0.83322448  1
  Sn  Sn30  1  0.83373366  0.49999015  0.49987356  1
  Sn  Sn31  1  0.16638241  0.16690537  0.49933784  1
  Sn  Sn32  1  0.16697204  0.50087282  0.83354771  1
  Sn  Sn33  1  0.16702572  0.16676940  0.16731126  1
  Sn  Sn34  1  0.83324825  0.49997869  0.83262106  1
  Sn  Sn35  1  0.49983888  0.49991338  0.83410933  1
  Sn  Sn36  1  0.16646685  0.83265736  0.83353060  1
  Sn  Sn37  1  0.49990475  0.49963333  0.16632804  1
  Sn  Sn38  1  0.83367556  0.83301741  0.16658889  1
  Sn  Sn39  1  0.49963723  0.16725640  0.16640439  1
  Pb  Pb40  1  0.16885927  0.83538084  0.50300950  1
  Pb  Pb41  1  0.50018001  0.83115272  0.83173304  1
  Pb  Pb42  1  0.49812849  0.16474662  0.49731957  1
  Pb  Pb43  1  0.83177142  0.50207393  0.16661882  1
  Pb  Pb44  1  0.83241966  0.83136480  0.50051388  1
  Pb  Pb45  1  0.16526437  0.16664160  0.83377152  1
  Pb  Pb46  1  0.83318356  0.16460209  0.16478551  1
  Pb  Pb47  1  0.16430649  0.83560071  0.16423238  1
  Pb  Pb48  1  0.16425009  0.49800319  0.50227348  1
  Pb  Pb49  1  0.50144670  0.50128084  0.49956170  1
  Pb  Pb50  1  0.16913099  0.49816529  0.16415778  1
  Pb  Pb51  1  0.83527762  0.16917164  0.50240248  1
  Pb  Pb52  1  0.50289839  0.16929368  0.83535726  1
  Pb  Pb53  1  0.50171516  0.83307745  0.16858954  1
  I  I54  1  0.17328303  0.00343394  0.16671128  1
  I  I55  1  0.16589392  0.00302060  0.49826210  1
  I  I56  1  0.16057792  -0.00219502  0.83286435  1
  I  I57  1  0.16635388  0.33015284  0.16722278  1
  I  I58  1  0.16728006  0.33033876  0.49902960  1
  I  I59  1  0.16456434  0.33593349  0.83357099  1
  I  I60  1  0.16749687  0.66673722  0.16746034  1
  I  I61  1  0.16693512  0.66660659  0.49946291  1
  I  I62  1  0.16115097  0.66608491  0.83298620  1
  I  I63  1  0.49720263  0.00242761  0.16818103  1
  I  I64  1  0.50215897  -0.00277182  0.50061211  1
  I  I65  1  0.49983794  0.00005351  0.83346682  1
  I  I66  1  0.49794309  0.33354996  0.16206746  1
  I  I67  1  0.50018564  0.33330795  0.50183204  1
  I  I68  1  0.49909618  0.33746733  0.83339491  1
  I  I69  1  0.50403502  0.66400888  0.16241058  1
  I  I70  1  0.50174058  0.66884680  0.49928706  1
  I  I71  1  0.50460709  0.66302570  0.83881119  1
  I  I72  1  0.83112771  -0.00306465  0.15993924  1
  I  I73  1  0.83251684  0.00004399  0.50122416  1
  I  I74  1  0.83938705  -0.00110203  0.83839695  1
  I  I75  1  0.83410884  0.33334754  0.16515419  1
  I  I76  1  0.83171432  0.33685554  0.50670218  1
  I  I77  1  0.83438858  0.33473654  0.82954366  1
  I  I78  1  0.83007090  0.66960524  0.15992202  1
  I  I79  1  0.83154737  0.66378310  0.50707986  1
  I  I80  1  0.83381599  0.66619921  0.83329221  1
  I  I81  1  0.16930642  0.16684775  0.00222494  1
  I  I82  1  0.17007644  0.16665230  0.33253076  1
  I  I83  1  0.16378308  0.16663161  0.66531765  1
  I  I84  1  0.16018649  0.50057606  -0.00411767  1
  I  I85  1  0.16612885  0.50059179  0.33323047  1
  I  I86  1  0.17028965  0.50049535  0.67077557  1
  I  I87  1  0.16556415  0.83148806  -0.00380907  1
  I  I88  1  0.16556357  0.83297330  0.33330816  1
  I  I89  1  0.15918006  0.83158862  0.67075180  1
  I  I90  1  0.49296559  0.16640235  0.00309932  1
  I  I91  1  0.50043147  0.17341902  0.32948354  1
  I  I92  1  0.49863284  0.16684905  0.66674595  1
  I  I93  1  0.50289952  0.49719318  -0.00101991  1
  I  I94  1  0.50413244  0.49690292  0.33050803  1
  I  I95  1  0.49996642  0.50267965  0.66960915  1
  I  I96  1  0.49924035  0.83455293  -0.00011681  1
  I  I97  1  0.50362939  0.83180003  0.33589469  1
  I  I98  1  0.50207297  0.83139250  0.66438841  1
  I  I99  1  0.83628433  0.17196439  -0.00325475  1
  I  I100  1  0.83210848  0.16636752  0.33325176  1
  I  I101  1  0.83625605  0.16234453  0.67055269  1
  I  I102  1  0.83454128  0.49866853  -0.00352347  1
  I  I103  1  0.82950378  0.50163278  0.33544023  1
  I  I104  1  0.83111484  0.50182932  0.66954415  1
  I  I105  1  0.83519463  0.83140915  -0.00222585  1
  I  I106  1  0.82904504  0.83269120  0.33130177  1
  I  I107  1  0.83603128  0.83376723  0.67026498  1
  I  I108  1  0.00230878  0.16493023  0.16828455  1
  I  I109  1  0.00292418  0.16584497  0.49371174  1
  I  I110  1  -0.00263069  0.17094531  0.83557418  1
  I  I111  1  0.00013401  0.49865805  0.16586674  1
  I  I112  1  -0.00352072  0.50139629  0.50681569  1
  I  I113  1  -0.00093891  0.50034783  0.82857562  1
  I  I114  1  -0.00349863  0.83369950  0.16450321  1
  I  I115  1  0.00020963  0.83351778  0.49874680  1
  I  I116  1  -0.00128736  0.82903108  0.83642757  1
  I  I117  1  0.33345313  0.17010306  0.16886350  1
  I  I118  1  0.33035114  0.16714268  0.50187810  1
  I  I119  1  0.33351323  0.16657585  0.83184115  1
  I  I120  1  0.33716270  0.49959221  0.16160460  1
  I  I121  1  0.33312616  0.50031107  0.50188837  1
  I  I122  1  0.33331081  0.50470768  0.83818982  1
  I  I123  1  0.33318236  0.83262872  0.16610774  1
  I  I124  1  0.33620151  0.83134093  0.49977361  1
  I  I125  1  0.33090592  0.82944980  0.83097800  1
  I  I126  1  0.66424966  0.16971156  0.16369520  1
  I  I127  1  0.66673263  0.16616666  0.49968991  1
  I  I128  1  0.67078887  0.16512033  0.83488271  1
  I  I129  1  0.66381049  0.49419332  0.16037081  1
  I  I130  1  0.66926454  0.50097768  0.50749612  1
  I  I131  1  0.66757450  0.50011307  0.83346505  1
  I  I132  1  0.66942771  0.83444858  0.15916023  1
  I  I133  1  0.66467702  0.83289978  0.50176548  1
  I  I134  1  0.66977548  0.83209196  0.83590183  1
