# generated using pymatgen
data_Cs27Sn14Pb13I81
_symmetry_space_group_name_H-M   'P 1'
_cell_length_a   18.97725986
_cell_length_b   18.97704764
_cell_length_c   18.97414613
_cell_angle_alpha   89.99956747
_cell_angle_beta   90.00043229
_cell_angle_gamma   90.00060151
_symmetry_Int_Tables_number   1
_chemical_formula_structural   Cs27Sn14Pb13I81
_chemical_formula_sum   'Cs27 Sn14 Pb13 I81'
_cell_volume   6833.20410664
_cell_formula_units_Z   1
loop_
 _symmetry_equiv_pos_site_id
 _symmetry_equiv_pos_as_xyz
  1  'x, y, z'
loop_
 _atom_site_type_symbol
 _atom_site_label
 _atom_site_symmetry_multiplicity
 _atom_site_fract_x
 _atom_site_fract_y
 _atom_site_fract_z
 _atom_site_occupancy
  Cs  Cs0  1  0.00042175  -0.00201580  -0.00125232  1
  Cs  Cs1  1  -0.00076212  0.00102412  0.34053408  1
  Cs  Cs2  1  0.00221195  -0.00266966  0.66193427  1
  Cs  Cs3  1  0.00099538  0.33296177  0.00032468  1
  Cs  Cs4  1  -0.00414141  0.33040046  0.33235940  1
  Cs  Cs5  1  -0.00108447  0.33359879  0.66690847  1
  Cs  Cs6  1  0.00011740  0.66879490  0.00075505  1
  Cs  Cs7  1  -0.00225068  0.66674861  0.33110395  1
  Cs  Cs8  1  -0.00176235  0.66920587  0.66452914  1
  Cs  Cs9  1  0.33340496  -0.00046727  -0.00042096  1
  Cs  Cs10  1  0.34170781  0.00126063  0.33984265  1
  Cs  Cs11  1  0.33006196  -0.00055920  0.66319300  1
  Cs  Cs12  1  0.33189572  0.33441244  -0.00073713  1
  Cs  Cs13  1  0.33224295  0.33668740  0.33440467  1
  Cs  Cs14  1  0.33359552  0.33509120  0.66748350  1
  Cs  Cs15  1  0.33211289  0.66616324  0.00049023  1
  Cs  Cs16  1  0.33557149  0.66323592  0.33080990  1
  Cs  Cs17  1  0.33215938  0.66446481  0.66745936  1
  Cs  Cs18  1  0.66677648  -0.00061719  0.00014116  1
  Cs  Cs19  1  0.65936261  0.00554192  0.33903099  1
  Cs  Cs20  1  0.66714423  -0.00057963  0.66632153  1
  Cs  Cs21  1  0.66978215  0.33145541  -0.00134046  1
  Cs  Cs22  1  0.67510993  0.32523549  0.33149828  1
  Cs  Cs23  1  0.66688218  0.33533054  0.67010757  1
  Cs  Cs24  1  0.66758386  0.66792187  -0.00091103  1
  Cs  Cs25  1  0.66674896  0.66933965  0.33675870  1
  Cs  Cs26  1  0.66920147  0.66597137  0.66662303  1
  Sn  Sn27  1  0.83401219  0.16544558  0.83385976  1
  Sn  Sn28  1  0.16657620  0.16724804  0.83419551  1
  Sn  Sn29  1  0.50008141  0.49968287  0.16650868  1
  Sn  Sn30  1  0.49921082  0.50016261  0.83383459  1
  Sn  Sn31  1  0.83277227  0.83429814  0.83428008  1
  Sn  Sn32  1  0.83352321  0.83378660  0.16630718  1
  Sn  Sn33  1  0.16639173  0.83399869  0.16665370  1
  Sn  Sn34  1  0.49947783  0.16661052  0.83378207  1
  Sn  Sn35  1  0.16710936  0.49981815  0.16663500  1
  Sn  Sn36  1  0.16688460  0.50006284  0.49993764  1
  Sn  Sn37  1  0.16711237  0.49952504  0.83331262  1
  Sn  Sn38  1  0.49974213  0.49962863  0.49976724  1
  Sn  Sn39  1  0.16703472  0.16622707  0.16618969  1
  Sn  Sn40  1  0.50041798  0.83309991  0.83368941  1
  Pb  Pb41  1  0.83318644  0.83339718  0.49980575  1
  Pb  Pb42  1  0.83336831  0.16669296  0.50329712  1
  Pb  Pb43  1  0.49977537  0.83072157  0.50322765  1
  Pb  Pb44  1  0.83316410  0.49988845  0.49980854  1
  Pb  Pb45  1  0.16679745  0.16915970  0.50008819  1
  Pb  Pb46  1  0.49980955  0.16987965  0.50288452  1
  Pb  Pb47  1  0.49764773  0.16929075  0.16451952  1
  Pb  Pb48  1  0.83332251  0.50203665  0.16650228  1
  Pb  Pb49  1  0.49996378  0.83164293  0.16491803  1
  Pb  Pb50  1  0.16670168  0.83333911  0.83454313  1
  Pb  Pb51  1  0.83581724  0.16359718  0.16455552  1
  Pb  Pb52  1  0.16693206  0.83042302  0.49600245  1
  Pb  Pb53  1  0.83371974  0.50036459  0.83350557  1
  I  I54  1  0.16082573  0.00028749  0.15707723  1
  I  I55  1  0.16468722  0.00002231  0.50135690  1
  I  I56  1  0.16925738  0.00269635  0.83879218  1
  I  I57  1  0.17192086  0.33432838  0.16490608  1
  I  I58  1  0.17195106  0.33734941  0.49742958  1
  I  I59  1  0.16904878  0.33399968  0.83709371  1
  I  I60  1  0.16640889  0.66547887  0.16570545  1
  I  I61  1  0.17100332  0.66214147  0.50398742  1
  I  I62  1  0.16998437  0.66365080  0.83433607  1
  I  I63  1  0.49846256  0.00013761  0.16400683  1
  I  I64  1  0.50146159  0.00022179  0.50029544  1
  I  I65  1  0.50040834  0.00025102  0.83534993  1
  I  I66  1  0.49374842  0.33772024  0.16395579  1
  I  I67  1  0.49355319  0.33792873  0.50285517  1
  I  I68  1  0.49944807  0.33422023  0.83263363  1
  I  I69  1  0.49372661  0.66322702  0.16323420  1
  I  I70  1  0.49513352  0.66243251  0.50212869  1
  I  I71  1  0.49993240  0.66534644  0.83334825  1
  I  I72  1  0.83897700  -0.00413082  0.16176406  1
  I  I73  1  0.83447973  -0.00003203  0.49875517  1
  I  I74  1  0.82975409  -0.00009943  0.83806091  1
  I  I75  1  0.83359090  0.33288277  0.16580568  1
  I  I76  1  0.83352022  0.33334954  0.50131022  1
  I  I77  1  0.83123932  0.33069417  0.83241481  1
  I  I78  1  0.83989170  0.66979646  0.15837375  1
  I  I79  1  0.83374759  0.66669006  0.50397081  1
  I  I80  1  0.83022394  0.66964522  0.83629653  1
  I  I81  1  0.16675134  0.17269818  -0.00124775  1
  I  I82  1  0.16540853  0.16801572  0.33006992  1
  I  I83  1  0.16676458  0.17104988  0.67055725  1
  I  I84  1  0.17234282  0.49932400  -0.00006409  1
  I  I85  1  0.17344580  0.50137572  0.33220174  1
  I  I86  1  0.17275412  0.49514501  0.66807827  1
  I  I87  1  0.16588574  0.82745231  0.00245577  1
  I  I88  1  0.15945202  0.83353776  0.32779380  1
  I  I89  1  0.16591882  0.83294317  0.66664441  1
  I  I90  1  0.50174114  0.16949307  -0.00419161  1
  I  I91  1  0.49905376  0.16704558  0.33316223  1
  I  I92  1  0.49732172  0.16848374  0.67182145  1
  I  I93  1  0.49327175  0.50062613  -0.00128454  1
  I  I94  1  0.49099695  0.50251350  0.33279834  1
  I  I95  1  0.49382166  0.49984141  0.66828827  1
  I  I96  1  0.50095264  0.82998877  -0.00358268  1
  I  I97  1  0.50053535  0.83085255  0.33322954  1
  I  I98  1  0.50590595  0.83163081  0.67189099  1
  I  I99  1  0.83100518  0.16605341  -0.00385159  1
  I  I100  1  0.83508008  0.16653111  0.33286546  1
  I  I101  1  0.83619514  0.16109131  0.67217497  1
  I  I102  1  0.83304887  0.49900905  -0.00023263  1
  I  I103  1  0.83342898  0.50302661  0.33307682  1
  I  I104  1  0.83423281  0.50168979  0.66705887  1
  I  I105  1  0.83377064  0.83558041  -0.00119675  1
  I  I106  1  0.84012036  0.82896798  0.32993214  1
  I  I107  1  0.82906164  0.83638001  0.67037592  1
  I  I108  1  0.00395628  0.17443131  0.15978037  1
  I  I109  1  0.00033481  0.17026405  0.50229230  1
  I  I110  1  0.00099216  0.16794199  0.83769220  1
  I  I111  1  0.00390110  0.49848731  0.16574213  1
  I  I112  1  0.00359557  0.49998009  0.50082124  1
  I  I113  1  0.00363746  0.49708805  0.83412385  1
  I  I114  1  0.00084563  0.82960927  0.15879378  1
  I  I115  1  0.00019960  0.82992894  0.50573838  1
  I  I116  1  -0.00227979  0.83536380  0.83587914  1
  I  I117  1  0.32936269  0.16280942  0.15958206  1
  I  I118  1  0.33328072  0.16383022  0.50247484  1
  I  I119  1  0.33291867  0.16874259  0.83726199  1
  I  I120  1  0.33193293  0.50267638  0.16558425  1
  I  I121  1  0.33302869  0.50022262  0.50100145  1
  I  I122  1  0.33343400  0.49806798  0.83348335  1
  I  I123  1  0.33043761  0.83237711  0.16358933  1
  I  I124  1  0.33328395  0.83562661  0.50141801  1
  I  I125  1  0.33575947  0.83354428  0.83517096  1
  I  I126  1  0.66665777  0.16806916  0.16510469  1
  I  I127  1  0.66644519  0.16996114  0.50019837  1
  I  I128  1  0.66617222  0.16784646  0.83186606  1
  I  I129  1  0.66344855  0.50271826  0.16461553  1
  I  I130  1  0.66298882  0.50133639  0.50328805  1
  I  I131  1  0.66327176  0.49776128  0.83267106  1
  I  I132  1  0.66901811  0.82894698  0.16191146  1
  I  I133  1  0.66642966  0.82901593  0.49631961  1
  I  I134  1  0.66664840  0.83480298  0.83896340  1
