# generated using pymatgen
data_Cs27Sn14Pb13I81
_symmetry_space_group_name_H-M   'P 1'
_cell_length_a   19.01059116
_cell_length_b   18.99384063
_cell_length_c   19.01181370
_cell_angle_alpha   90.00034059
_cell_angle_beta   89.99817051
_cell_angle_gamma   89.99876422
_symmetry_Int_Tables_number   1
_chemical_formula_structural   Cs27Sn14Pb13I81
_chemical_formula_sum   'Cs27 Sn14 Pb13 I81'
_cell_volume   6864.86436875
_cell_formula_units_Z   1
loop_
 _symmetry_equiv_pos_site_id
 _symmetry_equiv_pos_as_xyz
  1  'x, y, z'
loop_
 _atom_site_type_symbol
 _atom_site_label
 _atom_site_symmetry_multiplicity
 _atom_site_fract_x
 _atom_site_fract_y
 _atom_site_fract_z
 _atom_site_occupancy
  Cs  Cs0  1  -0.00371689  -0.00190872  0.00087362  1
  Cs  Cs1  1  0.00247673  -0.00398245  0.33191117  1
  Cs  Cs2  1  -0.00387264  -0.00002640  0.66734145  1
  Cs  Cs3  1  0.00325386  0.33331973  -0.00372144  1
  Cs  Cs4  1  0.00081203  0.33138017  0.33474351  1
  Cs  Cs5  1  0.00284441  0.33327197  0.66879242  1
  Cs  Cs6  1  0.00034505  0.66704249  0.00385161  1
  Cs  Cs7  1  -0.00768018  0.67798436  0.33272672  1
  Cs  Cs8  1  0.00027204  0.66384469  0.66285385  1
  Cs  Cs9  1  0.33470248  0.00079695  0.00153842  1
  Cs  Cs10  1  0.33089923  0.00138668  0.33068047  1
  Cs  Cs11  1  0.33454921  -0.00084598  0.66681389  1
  Cs  Cs12  1  0.33237825  0.33413241  -0.00090038  1
  Cs  Cs13  1  0.33415909  0.33158269  0.33283544  1
  Cs  Cs14  1  0.32987955  0.33296267  0.66855358  1
  Cs  Cs15  1  0.33216626  0.66476543  -0.00316644  1
  Cs  Cs16  1  0.33537418  0.67007776  0.33647962  1
  Cs  Cs17  1  0.33598198  0.67157985  0.66795314  1
  Cs  Cs18  1  0.66508209  -0.00156767  -0.00414311  1
  Cs  Cs19  1  0.66473885  0.00430270  0.33101824  1
  Cs  Cs20  1  0.66649012  -0.00671085  0.67280590  1
  Cs  Cs21  1  0.66635618  0.33413869  0.00030323  1
  Cs  Cs22  1  0.66690061  0.33856418  0.33336078  1
  Cs  Cs23  1  0.66857988  0.33283719  0.66746412  1
  Cs  Cs24  1  0.66947626  0.66779451  0.00235570  1
  Cs  Cs25  1  0.67578754  0.65287653  0.34090250  1
  Cs  Cs26  1  0.66624326  0.67577402  0.65905559  1
  Sn  Sn27  1  0.16745512  0.16519515  0.83348836  1
  Sn  Sn28  1  0.50009807  0.16700523  0.50028974  1
  Sn  Sn29  1  0.16631871  0.16747324  0.16654171  1
  Sn  Sn30  1  0.50027007  0.83303010  0.16729234  1
  Sn  Sn31  1  0.16669350  0.16720907  0.49988908  1
  Sn  Sn32  1  0.83337093  0.16718212  0.16728554  1
  Sn  Sn33  1  0.16685701  0.49947427  0.16883305  1
  Sn  Sn34  1  0.16693244  0.49918073  0.49795077  1
  Sn  Sn35  1  0.50023331  0.16619983  0.16652401  1
  Sn  Sn36  1  0.49919970  0.16775218  0.83327193  1
  Sn  Sn37  1  0.16657641  0.83496960  0.83357696  1
  Sn  Sn38  1  0.83332959  0.16696371  0.49915179  1
  Sn  Sn39  1  0.83169186  0.49972439  0.83323717  1
  Sn  Sn40  1  0.50169406  0.49938176  0.83318711  1
  Pb  Pb41  1  0.16708430  0.49972585  0.83312837  1
  Pb  Pb42  1  0.83617979  0.82990476  0.83349520  1
  Pb  Pb43  1  0.49746396  0.49734022  0.50266665  1
  Pb  Pb44  1  0.83604883  0.49710827  0.50205879  1
  Pb  Pb45  1  0.82974731  0.83614449  0.16669669  1
  Pb  Pb46  1  0.49850112  0.83349490  0.83528141  1
  Pb  Pb47  1  0.83314136  0.83687656  0.49979825  1
  Pb  Pb48  1  0.16680596  0.83395213  0.50215655  1
  Pb  Pb49  1  0.49790604  0.49961256  0.16506505  1
  Pb  Pb50  1  0.83630091  0.49710531  0.16497193  1
  Pb  Pb51  1  0.16851220  0.83355352  0.16492083  1
  Pb  Pb52  1  0.83314769  0.16765554  0.83340868  1
  Pb  Pb53  1  0.49999791  0.83605928  0.49646542  1
  I  I54  1  0.16509613  0.00406420  0.16961574  1
  I  I55  1  0.16700704  0.00431845  0.49660698  1
  I  I56  1  0.17334200  0.00314626  0.83345131  1
  I  I57  1  0.16939670  0.33075165  0.16340455  1
  I  I58  1  0.16686937  0.33074968  0.50294024  1
  I  I59  1  0.16757396  0.33002556  0.83350985  1
  I  I60  1  0.17004407  0.66392429  0.16624261  1
  I  I61  1  0.16669479  0.66373478  0.49888804  1
  I  I62  1  0.16699004  0.66826682  0.83450488  1
  I  I63  1  0.49703873  0.00382715  0.16415873  1
  I  I64  1  0.49623192  0.00524057  0.50704710  1
  I  I65  1  0.49753974  0.00373858  0.83099799  1
  I  I66  1  0.50103046  0.32921718  0.16828094  1
  I  I67  1  0.50149199  0.32878523  0.49311609  1
  I  I68  1  0.49586778  0.33113002  0.83636981  1
  I  I69  1  0.49346618  0.66860300  0.15974037  1
  I  I70  1  0.49696378  0.66644133  0.50136128  1
  I  I71  1  0.49902958  0.66405222  0.83722367  1
  I  I72  1  0.84151851  0.00471631  0.16958372  1
  I  I73  1  0.83836096  0.00549650  0.49774317  1
  I  I74  1  0.83145153  -0.00002660  0.83254561  1
  I  I75  1  0.82679914  0.32916943  0.17067287  1
  I  I76  1  0.83095402  0.32926026  0.49557548  1
  I  I77  1  0.83608624  0.33517233  0.83353983  1
  I  I78  1  0.83444127  0.66642940  0.16374325  1
  I  I79  1  0.83556744  0.66617744  0.50198253  1
  I  I80  1  0.82907321  0.66213850  0.83439606  1
  I  I81  1  0.16947381  0.16805522  0.00009181  1
  I  I82  1  0.16936646  0.17202624  0.33310393  1
  I  I83  1  0.16908417  0.16802597  0.66672978  1
  I  I84  1  0.16691325  0.49555696  0.00179151  1
  I  I85  1  0.16829558  0.48723623  0.33307701  1
  I  I86  1  0.16575100  0.49495434  0.66471675  1
  I  I87  1  0.16846817  0.83725760  -0.00273977  1
  I  I88  1  0.16766482  0.83515275  0.33334328  1
  I  I89  1  0.16897895  0.83715084  0.66998551  1
  I  I90  1  0.49646090  0.16653120  -0.00004351  1
  I  I91  1  0.49645599  0.16009864  0.33293330  1
  I  I92  1  0.49560463  0.17322473  0.66710367  1
  I  I93  1  0.49868151  0.49194448  -0.00279614  1
  I  I94  1  0.50042313  0.50067988  0.33351910  1
  I  I95  1  0.49935090  0.49271009  0.67050857  1
  I  I96  1  0.49771356  0.84283085  0.00244452  1
  I  I97  1  0.49529486  0.84257058  0.32913304  1
  I  I98  1  0.49884136  0.83335779  0.66655709  1
  I  I99  1  0.83430315  0.16871723  0.00246263  1
  I  I100  1  0.83362772  0.16686916  0.33307337  1
  I  I101  1  0.83528511  0.16981199  0.66441320  1
  I  I102  1  0.83317013  0.49558447  -0.00262003  1
  I  I103  1  0.83156794  0.50175394  0.33345044  1
  I  I104  1  0.83390512  0.49491961  0.66955848  1
  I  I105  1  0.83443645  0.83695608  0.00003969  1
  I  I106  1  0.83587843  0.82958770  0.33300796  1
  I  I107  1  0.83283177  0.83664384  0.66695415  1
  I  I108  1  0.00118667  0.17268990  0.16810115  1
  I  I109  1  0.00121166  0.17129844  0.49860057  1
  I  I110  1  0.00297106  0.16608126  0.83341190  1
  I  I111  1  0.00413323  0.49289079  0.16509233  1
  I  I112  1  0.00370566  0.49134188  0.50157976  1
  I  I113  1  -0.00118971  0.49872829  0.83328051  1
  I  I114  1  -0.00016272  0.83302206  0.16500548  1
  I  I115  1  0.00026456  0.83500078  0.50049613  1
  I  I116  1  0.00387103  0.84109343  0.83486166  1
  I  I117  1  0.33311399  0.16635072  0.16781881  1
  I  I118  1  0.33285661  0.17042350  0.49852277  1
  I  I119  1  0.33308971  0.16942936  0.83383241  1
  I  I120  1  0.33017333  0.49163680  0.16567706  1
  I  I121  1  0.32984597  0.49162192  0.49939185  1
  I  I122  1  0.33525024  0.49759375  0.83419633  1
  I  I123  1  0.33574150  0.84269674  0.16512100  1
  I  I124  1  0.33333700  0.83480481  0.50131393  1
  I  I125  1  0.33077486  0.83255744  0.83391283  1
  I  I126  1  0.66587852  0.16069869  0.16833474  1
  I  I127  1  0.66616436  0.16525528  0.49669011  1
  I  I128  1  0.66366429  0.16955653  0.83376398  1
  I  I129  1  0.66676522  0.49991863  0.16555547  1
  I  I130  1  0.66668765  0.49910274  0.49949104  1
  I  I131  1  0.66545878  0.48932121  0.83559113  1
  I  I132  1  0.66235256  0.84261908  0.16195746  1
  I  I133  1  0.66638768  0.83447910  0.50305817  1
  I  I134  1  0.66667327  0.83637950  0.83438239  1
