# generated using pymatgen
data_Cs27Sn13Pb14I81
_symmetry_space_group_name_H-M   'P 1'
_cell_length_a   18.98020442
_cell_length_b   18.97883040
_cell_length_c   18.97362389
_cell_angle_alpha   89.99809380
_cell_angle_beta   90.00031148
_cell_angle_gamma   90.00008366
_symmetry_Int_Tables_number   1
_chemical_formula_structural   Cs27Sn13Pb14I81
_chemical_formula_sum   'Cs27 Sn13 Pb14 I81'
_cell_volume   6834.71827220
_cell_formula_units_Z   1
loop_
 _symmetry_equiv_pos_site_id
 _symmetry_equiv_pos_as_xyz
  1  'x, y, z'
loop_
 _atom_site_type_symbol
 _atom_site_label
 _atom_site_symmetry_multiplicity
 _atom_site_fract_x
 _atom_site_fract_y
 _atom_site_fract_z
 _atom_site_occupancy
  Cs  Cs0  1  -0.00301620  -0.00246625  0.00886522  1
  Cs  Cs1  1  0.00731487  -0.00053742  0.32713993  1
  Cs  Cs2  1  -0.00059346  0.00166248  0.66539957  1
  Cs  Cs3  1  0.00273478  0.33378605  -0.00086109  1
  Cs  Cs4  1  -0.00120437  0.33534024  0.33429996  1
  Cs  Cs5  1  0.00062967  0.33310311  0.66622377  1
  Cs  Cs6  1  -0.00108097  0.66748812  -0.00126055  1
  Cs  Cs7  1  0.00139751  0.66251228  0.33392340  1
  Cs  Cs8  1  -0.00357146  0.66476557  0.66775211  1
  Cs  Cs9  1  0.33054605  0.00136653  0.00428690  1
  Cs  Cs10  1  0.32457694  -0.01003328  0.32997501  1
  Cs  Cs11  1  0.33354025  -0.00017318  0.66391700  1
  Cs  Cs12  1  0.33336534  0.33353251  -0.00118776  1
  Cs  Cs13  1  0.33490511  0.33329272  0.33169646  1
  Cs  Cs14  1  0.33356755  0.33265675  0.66872860  1
  Cs  Cs15  1  0.33418348  0.66400208  -0.00156599  1
  Cs  Cs16  1  0.33462719  0.67185751  0.33252439  1
  Cs  Cs17  1  0.33393827  0.66774056  0.66778780  1
  Cs  Cs18  1  0.67183031  0.00066305  0.00202845  1
  Cs  Cs19  1  0.66582375  0.00033947  0.32899292  1
  Cs  Cs20  1  0.66590752  0.00192506  0.66814013  1
  Cs  Cs21  1  0.66470857  0.33291093  0.00036267  1
  Cs  Cs22  1  0.66719160  0.33323771  0.33450684  1
  Cs  Cs23  1  0.66683177  0.33230634  0.66557887  1
  Cs  Cs24  1  0.66738946  0.66791366  -0.00063040  1
  Cs  Cs25  1  0.66232016  0.66580849  0.33509024  1
  Cs  Cs26  1  0.66755237  0.66696485  0.66680171  1
  Sn  Sn27  1  0.49886697  0.49927811  0.50103502  1
  Sn  Sn28  1  0.16828995  0.49977511  0.49959866  1
  Sn  Sn29  1  0.83271413  0.16516743  0.50054696  1
  Sn  Sn30  1  0.50100350  0.49986598  0.83226140  1
  Sn  Sn31  1  0.50083096  0.16643464  0.83252831  1
  Sn  Sn32  1  0.49916067  0.83385903  0.83305394  1
  Sn  Sn33  1  0.16705510  0.83367433  0.83286370  1
  Sn  Sn34  1  0.50034100  0.16686248  0.50020915  1
  Sn  Sn35  1  0.83325099  0.83500619  0.49991816  1
  Sn  Sn36  1  0.83246266  0.49898499  0.83413728  1
  Sn  Sn37  1  0.83287559  0.16756642  0.83253113  1
  Sn  Sn38  1  0.16618261  0.49986764  0.16748799  1
  Sn  Sn39  1  0.83365317  0.49978490  0.16538940  1
  Pb  Pb40  1  0.16675735  0.16965602  0.16669640  1
  Pb  Pb41  1  0.50161188  0.83395398  0.50177536  1
  Pb  Pb42  1  0.83300072  0.83386797  0.83217503  1
  Pb  Pb43  1  0.16658959  0.83024130  0.16385757  1
  Pb  Pb44  1  0.83263142  0.49929790  0.50043047  1
  Pb  Pb45  1  0.83319343  0.83025756  0.17026139  1
  Pb  Pb46  1  0.50004128  0.49991856  0.16678074  1
  Pb  Pb47  1  0.50023782  0.83341592  0.16330929  1
  Pb  Pb48  1  0.16636815  0.16385112  0.83329872  1
  Pb  Pb49  1  0.49996438  0.16660568  0.16727341  1
  Pb  Pb50  1  0.83325812  0.16909734  0.16689629  1
  Pb  Pb51  1  0.16666596  0.50113441  0.83311449  1
  Pb  Pb52  1  0.16712676  0.16871921  0.50009797  1
  Pb  Pb53  1  0.16425475  0.83070349  0.50209757  1
  I  I54  1  0.16693486  -0.00053846  0.16589690  1
  I  I55  1  0.16836474  -0.00022077  0.50120054  1
  I  I56  1  0.17083821  -0.00377622  0.83136385  1
  I  I57  1  0.16249513  0.33799363  0.16841302  1
  I  I58  1  0.16482643  0.33722218  0.49828864  1
  I  I59  1  0.16806609  0.33344266  0.83423735  1
  I  I60  1  0.16208241  0.66256421  0.17087129  1
  I  I61  1  0.17024047  0.66257164  0.49704874  1
  I  I62  1  0.17038498  0.66876398  0.83301882  1
  I  I63  1  0.50008897  0.00007350  0.16727565  1
  I  I64  1  0.50439473  0.00319741  0.50627062  1
  I  I65  1  0.50050311  0.00109347  0.82847757  1
  I  I66  1  0.49910359  0.33360628  0.16223770  1
  I  I67  1  0.50237016  0.33393189  0.50767534  1
  I  I68  1  0.50485617  0.33386088  0.82968163  1
  I  I69  1  0.50086918  0.66618270  0.16721905  1
  I  I70  1  0.49926917  0.66387979  0.50398034  1
  I  I71  1  0.50020113  0.66527067  0.82985414  1
  I  I72  1  0.83334523  0.00006424  0.16328849  1
  I  I73  1  0.82736869  0.00169631  0.50875065  1
  I  I74  1  0.82989836  0.00295289  0.82962718  1
  I  I75  1  0.83716563  0.33718988  0.16715201  1
  I  I76  1  0.83247154  0.33094005  0.50114540  1
  I  I77  1  0.82690169  0.33387594  0.83120691  1
  I  I78  1  0.83700000  0.66219822  0.16075117  1
  I  I79  1  0.83397914  0.66766283  0.50116169  1
  I  I80  1  0.83083191  0.66405622  0.83422905  1
  I  I81  1  0.16730654  0.16883050  -0.00040702  1
  I  I82  1  0.16619535  0.16521359  0.33368370  1
  I  I83  1  0.16514866  0.17047044  0.66676745  1
  I  I84  1  0.16493010  0.50252212  0.00180408  1
  I  I85  1  0.16406537  0.49956984  0.33378958  1
  I  I86  1  0.16691131  0.50170456  0.66438023  1
  I  I87  1  0.17001131  0.83097041  -0.00386161  1
  I  I88  1  0.16522830  0.83384386  0.33338504  1
  I  I89  1  0.17086069  0.82938676  0.66960084  1
  I  I90  1  0.50413717  0.16839576  -0.00416031  1
  I  I91  1  0.50637898  0.17524416  0.33756604  1
  I  I92  1  0.50473814  0.16877312  0.66744277  1
  I  I93  1  0.50045353  0.49954989  -0.00356866  1
  I  I94  1  0.50072075  0.49539711  0.33670530  1
  I  I95  1  0.50029921  0.49967159  0.66746757  1
  I  I96  1  0.49761683  0.83081081  -0.00563360  1
  I  I97  1  0.50189481  0.83160459  0.33382955  1
  I  I98  1  0.49752802  0.83134212  0.67013179  1
  I  I99  1  0.82840689  0.16861625  -0.00345592  1
  I  I100  1  0.82826839  0.16569659  0.33687932  1
  I  I101  1  0.82933137  0.16977712  0.66721872  1
  I  I102  1  0.83367948  0.49596136  -0.00182646  1
  I  I103  1  0.83501537  0.50084224  0.33181099  1
  I  I104  1  0.83298282  0.50010950  0.66934314  1
  I  I105  1  0.83363808  0.83468280  -0.00006049  1
  I  I106  1  0.83291236  0.83745587  0.33802579  1
  I  I107  1  0.83321972  0.83016459  0.66453801  1
  I  I108  1  -0.00038198  0.16623912  0.16565330  1
  I  I109  1  -0.00328872  0.16590851  0.50530963  1
  I  I110  1  -0.00368715  0.17166606  0.82849013  1
  I  I111  1  -0.00037655  0.49998776  0.16740781  1
  I  I112  1  0.00136736  0.50102363  0.49953519  1
  I  I113  1  -0.00274829  0.49849438  0.83307169  1
  I  I114  1  -0.00014216  0.83382134  0.16275094  1
  I  I115  1  -0.00343699  0.83626652  0.50454101  1
  I  I116  1  0.00149831  0.83002002  0.83085695  1
  I  I117  1  0.33350938  0.17012037  0.16458082  1
  I  I118  1  0.33711860  0.17109954  0.50677670  1
  I  I119  1  0.33707316  0.17085531  0.82900788  1
  I  I120  1  0.33082743  0.50040749  0.16701241  1
  I  I121  1  0.33473077  0.49527747  0.50126058  1
  I  I122  1  0.33633797  0.49807761  0.83281911  1
  I  I123  1  0.33318867  0.83071001  0.16971509  1
  I  I124  1  0.33340429  0.83452704  0.49973353  1
  I  I125  1  0.33481453  0.83041086  0.83198170  1
  I  I126  1  0.66678054  0.17021890  0.16636000  1
  I  I127  1  0.66658971  0.17050635  0.50530894  1
  I  I128  1  0.66640032  0.16668657  0.82910478  1
  I  I129  1  0.66928702  0.49957839  0.16537884  1
  I  I130  1  0.66403959  0.49985440  0.50127685  1
  I  I131  1  0.66624541  0.50204569  0.83287593  1
  I  I132  1  0.66701911  0.82988835  0.16421301  1
  I  I133  1  0.66934429  0.82963970  0.50409691  1
  I  I134  1  0.66394912  0.83149139  0.83101872  1
