# generated using pymatgen
data_Cs27Sn13Pb14I81
_symmetry_space_group_name_H-M   'P 1'
_cell_length_a   18.98182948
_cell_length_b   18.97288218
_cell_length_c   18.97733539
_cell_angle_alpha   89.99667786
_cell_angle_beta   89.99914177
_cell_angle_gamma   90.00246402
_symmetry_Int_Tables_number   1
_chemical_formula_structural   Cs27Sn13Pb14I81
_chemical_formula_sum   'Cs27 Sn13 Pb14 I81'
_cell_volume   6834.49781876
_cell_formula_units_Z   1
loop_
 _symmetry_equiv_pos_site_id
 _symmetry_equiv_pos_as_xyz
  1  'x, y, z'
loop_
 _atom_site_type_symbol
 _atom_site_label
 _atom_site_symmetry_multiplicity
 _atom_site_fract_x
 _atom_site_fract_y
 _atom_site_fract_z
 _atom_site_occupancy
  Cs  Cs0  1  0.00126450  -0.00124828  -0.00023008  1
  Cs  Cs1  1  -0.00196016  0.00046779  0.33315898  1
  Cs  Cs2  1  0.00004673  0.00135555  0.66888576  1
  Cs  Cs3  1  0.00049967  0.33361157  -0.00426265  1
  Cs  Cs4  1  -0.00144010  0.33199854  0.33341537  1
  Cs  Cs5  1  0.00077179  0.33314375  0.67011111  1
  Cs  Cs6  1  -0.00265317  0.66887688  0.00055614  1
  Cs  Cs7  1  0.00064512  0.66695115  0.33368713  1
  Cs  Cs8  1  0.00191071  0.66429520  0.66689856  1
  Cs  Cs9  1  0.33067762  0.00028699  -0.00138909  1
  Cs  Cs10  1  0.33113409  -0.00114053  0.33316628  1
  Cs  Cs11  1  0.33470336  0.00013817  0.66807855  1
  Cs  Cs12  1  0.34046613  0.33872229  0.00250369  1
  Cs  Cs13  1  0.33477259  0.33597174  0.33447374  1
  Cs  Cs14  1  0.33290770  0.33202683  0.66465903  1
  Cs  Cs15  1  0.33531635  0.66280919  0.00219584  1
  Cs  Cs16  1  0.33059205  0.66493168  0.33414530  1
  Cs  Cs17  1  0.33449862  0.66737723  0.66280095  1
  Cs  Cs18  1  0.66526541  0.00072860  0.00064700  1
  Cs  Cs19  1  0.67170980  0.00146738  0.33340601  1
  Cs  Cs20  1  0.66539984  -0.00271611  0.66580970  1
  Cs  Cs21  1  0.65878340  0.33358298  0.00089685  1
  Cs  Cs22  1  0.66683523  0.33187206  0.33400135  1
  Cs  Cs23  1  0.66594250  0.33606523  0.66550470  1
  Cs  Cs24  1  0.66925272  0.66662855  -0.00108248  1
  Cs  Cs25  1  0.66831497  0.66720444  0.33374444  1
  Cs  Cs26  1  0.66395897  0.66673933  0.66700626  1
  Sn  Sn27  1  0.83410193  0.83444531  0.83399236  1
  Sn  Sn28  1  0.83372748  0.50007386  0.16723015  1
  Sn  Sn29  1  0.16675608  0.83408530  0.16586076  1
  Sn  Sn30  1  0.83332784  0.83292573  0.16605549  1
  Sn  Sn31  1  0.83294135  0.50003443  0.49925401  1
  Sn  Sn32  1  0.83336898  0.16592206  0.83367674  1
  Sn  Sn33  1  0.49957306  0.16668804  0.49978981  1
  Sn  Sn34  1  0.49996217  0.83372745  0.16677372  1
  Sn  Sn35  1  0.16653188  0.16654364  0.16620621  1
  Sn  Sn36  1  0.16715163  0.16646486  0.49986068  1
  Sn  Sn37  1  0.16600392  0.83377831  0.83413246  1
  Sn  Sn38  1  0.50087099  0.49951021  0.49966082  1
  Sn  Sn39  1  0.16623929  0.16620042  0.83399837  1
  Pb  Pb40  1  0.83354406  0.83106936  0.50062288  1
  Pb  Pb41  1  0.49999433  0.83357791  0.49753755  1
  Pb  Pb42  1  0.16643429  0.83580400  0.50031168  1
  Pb  Pb43  1  0.16640005  0.49735633  0.49989982  1
  Pb  Pb44  1  0.16426497  0.50026960  0.16651645  1
  Pb  Pb45  1  0.49965037  0.83342459  0.83569718  1
  Pb  Pb46  1  0.83348048  0.16857052  0.50241865  1
  Pb  Pb47  1  0.50265808  0.50225216  0.16894019  1
  Pb  Pb48  1  0.49736634  0.16461458  0.16905124  1
  Pb  Pb49  1  0.49954442  0.16653819  0.83124246  1
  Pb  Pb50  1  0.83329779  0.50024731  0.83361040  1
  Pb  Pb51  1  0.49990711  0.50019128  0.83053741  1
  Pb  Pb52  1  0.16687584  0.50046334  0.83358673  1
  Pb  Pb53  1  0.83516586  0.16665610  0.16428597  1
  I  I54  1  0.16473295  -0.00070478  0.16690002  1
  I  I55  1  0.17228494  0.00407177  0.49987665  1
  I  I56  1  0.16212196  0.00034706  0.83377695  1
  I  I57  1  0.16435882  0.33009501  0.16684209  1
  I  I58  1  0.16759673  0.32897032  0.50037820  1
  I  I59  1  0.16105516  0.32940212  0.83240430  1
  I  I60  1  0.16828470  0.67050113  0.16192168  1
  I  I61  1  0.16804757  0.66666103  0.50029517  1
  I  I62  1  0.16110518  0.67084068  0.83866584  1
  I  I63  1  0.50550726  -0.00332488  0.16905701  1
  I  I64  1  0.49464256  0.00297062  0.49996286  1
  I  I65  1  0.50143743  -0.00004039  0.82929367  1
  I  I66  1  0.49998885  0.33333060  0.16565038  1
  I  I67  1  0.49942719  0.33310343  0.49977498  1
  I  I68  1  0.50073486  0.33305562  0.83635192  1
  I  I69  1  0.49430946  0.67019674  0.16865428  1
  I  I70  1  0.50508570  0.66386366  0.49916249  1
  I  I71  1  0.50030250  0.66708558  0.83059705  1
  I  I72  1  0.83211004  -0.00319024  0.16503673  1
  I  I73  1  0.83240380  0.00024142  0.49745706  1
  I  I74  1  0.83780564  -0.00085822  0.83790764  1
  I  I75  1  0.83588141  0.33557787  0.16994787  1
  I  I76  1  0.83235176  0.33640649  0.49500655  1
  I  I77  1  0.83921365  0.33059645  0.83185185  1
  I  I78  1  0.83510642  0.66831999  0.16525344  1
  I  I79  1  0.82674963  0.66305459  0.50019907  1
  I  I80  1  0.83805859  0.67008683  0.83487511  1
  I  I81  1  0.16032133  0.16089186  -0.00034696  1
  I  I82  1  0.17075082  0.16299315  0.33301981  1
  I  I83  1  0.16655964  0.16361449  0.66727285  1
  I  I84  1  0.16472436  0.49464653  0.00021962  1
  I  I85  1  0.16714693  0.50045338  0.33325602  1
  I  I86  1  0.16454431  0.50083557  0.66649919  1
  I  I87  1  0.16510361  0.84198012  0.00072503  1
  I  I88  1  0.16585108  0.83693434  0.32988119  1
  I  I89  1  0.16122259  0.83673709  0.67018577  1
  I  I90  1  0.49979403  0.16610599  0.00028352  1
  I  I91  1  0.49527921  0.17023160  0.33695372  1
  I  I92  1  0.49469651  0.17028144  0.66313390  1
  I  I93  1  0.50090794  0.50015275  0.00069357  1
  I  I94  1  0.50199429  0.49568929  0.33667367  1
  I  I95  1  0.50702073  0.49715466  0.66206371  1
  I  I96  1  0.50034514  0.83376253  0.00372895  1
  I  I97  1  0.49970134  0.83341939  0.32951355  1
  I  I98  1  0.50007961  0.83217111  0.66656270  1
  I  I99  1  0.83944185  0.16700315  -0.00350627  1
  I  I100  1  0.83473612  0.16484936  0.33323678  1
  I  I101  1  0.83903086  0.16222285  0.67012091  1
  I  I102  1  0.83564280  0.50302331  0.00275432  1
  I  I103  1  0.83041990  0.50518037  0.33296521  1
  I  I104  1  0.82900633  0.49903093  0.66407753  1
  I  I105  1  0.83431018  0.83060408  0.00086424  1
  I  I106  1  0.83417300  0.83116309  0.33004186  1
  I  I107  1  0.83855892  0.83614416  0.67029105  1
  I  I108  1  0.00338722  0.16181684  0.17213973  1
  I  I109  1  0.00281670  0.16739353  0.49892091  1
  I  I110  1  0.00108349  0.16314668  0.83057938  1
  I  I111  1  -0.00363988  0.50573190  0.17317216  1
  I  I112  1  -0.00292950  0.50011665  0.49686291  1
  I  I113  1  -0.00023111  0.49871121  0.82935887  1
  I  I114  1  -0.00000316  0.83281810  0.16277383  1
  I  I115  1  -0.00003609  0.83243407  0.49508665  1
  I  I116  1  -0.00010732  0.83784157  0.84151804  1
  I  I117  1  0.32903526  0.16129971  0.16202375  1
  I  I118  1  0.33259190  0.17214520  0.50154782  1
  I  I119  1  0.32953612  0.16117875  0.83369746  1
  I  I120  1  0.33350883  0.50101103  0.16836867  1
  I  I121  1  0.33602680  0.49788759  0.50062423  1
  I  I122  1  0.33328146  0.50002567  0.83181653  1
  I  I123  1  0.33182678  0.83896682  0.16396774  1
  I  I124  1  0.33320604  0.82880992  0.49973291  1
  I  I125  1  0.32964499  0.83890942  0.83659445  1
  I  I126  1  0.66677093  0.16555559  0.16699749  1
  I  I127  1  0.66447771  0.16924411  0.50143183  1
  I  I128  1  0.66954659  0.16268789  0.83166189  1
  I  I129  1  0.67055964  0.50496126  0.16783523  1
  I  I130  1  0.66676326  0.49362607  0.49613684  1
  I  I131  1  0.66710952  0.49967547  0.83491661  1
  I  I132  1  0.66811681  0.82795882  0.16379182  1
  I  I133  1  0.66679631  0.83785076  0.49969676  1
  I  I134  1  0.67003548  0.83667517  0.83694051  1
