# generated using pymatgen
data_Cs27Sn14Pb13I81
_symmetry_space_group_name_H-M   'P 1'
_cell_length_a   18.96769449
_cell_length_b   18.98572343
_cell_length_c   18.97726689
_cell_angle_alpha   89.99944231
_cell_angle_beta   89.99984692
_cell_angle_gamma   90.00155334
_symmetry_Int_Tables_number   1
_chemical_formula_structural   Cs27Sn14Pb13I81
_chemical_formula_sum   'Cs27 Sn14 Pb13 I81'
_cell_volume   6834.00608681
_cell_formula_units_Z   1
loop_
 _symmetry_equiv_pos_site_id
 _symmetry_equiv_pos_as_xyz
  1  'x, y, z'
loop_
 _atom_site_type_symbol
 _atom_site_label
 _atom_site_symmetry_multiplicity
 _atom_site_fract_x
 _atom_site_fract_y
 _atom_site_fract_z
 _atom_site_occupancy
  Cs  Cs0  1  -0.00089523  -0.00132913  0.00700729  1
  Cs  Cs1  1  -0.00076380  -0.00114972  0.32843008  1
  Cs  Cs2  1  0.00166798  -0.00144745  0.66683683  1
  Cs  Cs3  1  0.00122498  0.33327509  -0.00188879  1
  Cs  Cs4  1  -0.00183698  0.33542897  0.33300243  1
  Cs  Cs5  1  -0.00154853  0.33488364  0.66749263  1
  Cs  Cs6  1  0.00185968  0.66819904  -0.00048328  1
  Cs  Cs7  1  0.00193214  0.66597223  0.33673930  1
  Cs  Cs8  1  -0.00042305  0.66659227  0.66543246  1
  Cs  Cs9  1  0.33261769  0.00381331  0.00140610  1
  Cs  Cs10  1  0.33543981  0.00166975  0.33654870  1
  Cs  Cs11  1  0.33017251  0.00124740  0.66281971  1
  Cs  Cs12  1  0.33308103  0.33253345  -0.00007026  1
  Cs  Cs13  1  0.33364137  0.33040012  0.33401887  1
  Cs  Cs14  1  0.33362331  0.33083456  0.66569147  1
  Cs  Cs15  1  0.33245077  0.66605302  0.00040146  1
  Cs  Cs16  1  0.33109420  0.66767336  0.33180672  1
  Cs  Cs17  1  0.33485474  0.66711615  0.66772412  1
  Cs  Cs18  1  0.66808843  -0.00030455  0.00094069  1
  Cs  Cs19  1  0.66569641  0.00127069  0.33164995  1
  Cs  Cs20  1  0.66643665  -0.00243700  0.66798319  1
  Cs  Cs21  1  0.66585598  0.33263271  -0.00005732  1
  Cs  Cs22  1  0.66723509  0.33382769  0.33307717  1
  Cs  Cs23  1  0.66871655  0.33488038  0.66779232  1
  Cs  Cs24  1  0.66573023  0.66850477  -0.00302464  1
  Cs  Cs25  1  0.66600832  0.66385929  0.33437032  1
  Cs  Cs26  1  0.66222732  0.66771649  0.66934821  1
  Sn  Sn27  1  0.83385470  0.49971123  0.83335527  1
  Sn  Sn28  1  0.83368473  0.50034975  0.50045925  1
  Sn  Sn29  1  0.50090352  0.16672014  0.83355611  1
  Sn  Sn30  1  0.16614892  0.50062541  0.50123570  1
  Sn  Sn31  1  0.83366567  0.83310954  0.50019256  1
  Sn  Sn32  1  0.50070372  0.50009080  0.16657095  1
  Sn  Sn33  1  0.16640170  0.83271247  0.83286001  1
  Sn  Sn34  1  0.16597499  0.50083406  0.83219883  1
  Sn  Sn35  1  0.83272498  0.16700770  0.83272162  1
  Sn  Sn36  1  0.50019766  0.83308321  0.16655706  1
  Sn  Sn37  1  0.50049794  0.16695815  0.16575502  1
  Sn  Sn38  1  0.83265146  0.50029543  0.16617845  1
  Sn  Sn39  1  0.16565725  0.83236848  0.50101325  1
  Sn  Sn40  1  0.83336171  0.16657932  0.50079271  1
  Pb  Pb41  1  0.16580328  0.16683904  0.83322588  1
  Pb  Pb42  1  0.16940723  0.16684842  0.16682081  1
  Pb  Pb43  1  0.49957552  0.50003598  0.49802903  1
  Pb  Pb44  1  0.49962350  0.83312542  0.49835315  1
  Pb  Pb45  1  0.16348610  0.16692668  0.50007644  1
  Pb  Pb46  1  0.83511626  0.83336442  0.83156644  1
  Pb  Pb47  1  0.16630816  0.49992198  0.16672297  1
  Pb  Pb48  1  0.49974897  0.49837366  0.83525459  1
  Pb  Pb49  1  0.83136632  0.83038110  0.16926298  1
  Pb  Pb50  1  0.16870215  0.83322378  0.16717797  1
  Pb  Pb51  1  0.83173831  0.16881375  0.16626783  1
  Pb  Pb52  1  0.49714059  0.83608663  0.83524352  1
  Pb  Pb53  1  0.50283904  0.16679121  0.50060822  1
  I  I54  1  0.16774631  -0.00031327  0.16601437  1
  I  I55  1  0.16420968  -0.00316874  0.50400274  1
  I  I56  1  0.16862632  -0.00261454  0.82848001  1
  I  I57  1  0.16952384  0.33385850  0.16686259  1
  I  I58  1  0.16363697  0.33685823  0.50364174  1
  I  I59  1  0.16559945  0.33656709  0.82958102  1
  I  I60  1  0.17097793  0.66645099  0.16605755  1
  I  I61  1  0.15804641  0.66610404  0.50304434  1
  I  I62  1  0.16140520  0.66534282  0.83017779  1
  I  I63  1  0.49819752  0.00070683  0.16314709  1
  I  I64  1  0.49973901  0.00003535  0.49617702  1
  I  I65  1  0.50583589  0.00378468  0.83939772  1
  I  I66  1  0.50429798  0.33343665  0.16319195  1
  I  I67  1  0.49831834  0.33336193  0.49611111  1
  I  I68  1  0.49962014  0.33054273  0.83969135  1
  I  I69  1  0.50351706  0.66582411  0.16903834  1
  I  I70  1  0.50515666  0.66655465  0.49685839  1
  I  I71  1  0.50224749  0.66668145  0.83576203  1
  I  I72  1  0.83184335  -0.00008658  0.16710973  1
  I  I73  1  0.83598518  -0.00003145  0.50477943  1
  I  I74  1  0.83029200  0.00272910  0.82859571  1
  I  I75  1  0.82782679  0.33681918  0.17153688  1
  I  I76  1  0.83609529  0.33456966  0.49984780  1
  I  I77  1  0.83460546  0.33441045  0.82912043  1
  I  I78  1  0.82723401  0.66230357  0.16553951  1
  I  I79  1  0.83779711  0.66560499  0.49803875  1
  I  I80  1  0.83523180  0.66342383  0.83348310  1
  I  I81  1  0.16219695  0.16637173  -0.00040225  1
  I  I82  1  0.16708504  0.16687035  0.33377312  1
  I  I83  1  0.17431560  0.16602346  0.66671302  1
  I  I84  1  0.16368236  0.50346011  -0.00311234  1
  I  I85  1  0.16360329  0.50462769  0.33649994  1
  I  I86  1  0.15817928  0.50368704  0.66663382  1
  I  I87  1  0.16870632  0.82888971  -0.00275824  1
  I  I88  1  0.16382234  0.82804686  0.33690334  1
  I  I89  1  0.16334761  0.82928344  0.66586775  1
  I  I90  1  0.50596003  0.16702651  0.00018545  1
  I  I91  1  0.50042336  0.16673530  0.33043228  1
  I  I92  1  0.50145217  0.16745163  0.66974345  1
  I  I93  1  0.50395313  0.50129977  0.00339645  1
  I  I94  1  0.50432554  0.49682884  0.32961338  1
  I  I95  1  0.50226139  0.49786886  0.66693994  1
  I  I96  1  0.49905426  0.83047014  0.00323664  1
  I  I97  1  0.49875083  0.83606065  0.33012053  1
  I  I98  1  0.50136916  0.83525708  0.66685621  1
  I  I99  1  0.83143519  0.17187837  -0.00301904  1
  I  I100  1  0.83273344  0.16783407  0.33592187  1
  I  I101  1  0.82728018  0.17227018  0.66711916  1
  I  I102  1  0.83337847  0.49407064  -0.00100517  1
  I  I103  1  0.83286187  0.49960620  0.33440673  1
  I  I104  1  0.83852354  0.49798461  0.66653149  1
  I  I105  1  0.83453799  0.83390502  0.00004535  1
  I  I106  1  0.83965679  0.83469343  0.33744706  1
  I  I107  1  0.83397605  0.82958237  0.66328460  1
  I  I108  1  -0.00071184  0.16786591  0.16588904  1
  I  I109  1  -0.00452297  0.16818299  0.50736964  1
  I  I110  1  -0.00346938  0.16937944  0.82755976  1
  I  I111  1  -0.00324801  0.49940303  0.16766301  1
  I  I112  1  -0.00135643  0.50019288  0.49784199  1
  I  I113  1  -0.00111914  0.49711125  0.83496706  1
  I  I114  1  -0.00016385  0.83232384  0.16516523  1
  I  I115  1  -0.00008876  0.83193576  0.50325513  1
  I  I116  1  0.00311319  0.83363838  0.83226185  1
  I  I117  1  0.33838828  0.17026828  0.16014330  1
  I  I118  1  0.33328177  0.16616338  0.49847885  1
  I  I119  1  0.33566269  0.16681417  0.84037724  1
  I  I120  1  0.33620720  0.49918832  0.16655197  1
  I  I121  1  0.32973389  0.50562096  0.50298176  1
  I  I122  1  0.33034015  0.50218396  0.83060271  1
  I  I123  1  0.33682007  0.83094595  0.16826235  1
  I  I124  1  0.32975406  0.82814439  0.50190132  1
  I  I125  1  0.32937489  0.82731753  0.82701793  1
  I  I126  1  0.66359329  0.16524186  0.16595074  1
  I  I127  1  0.67103361  0.16820273  0.49999698  1
  I  I128  1  0.66788243  0.17279168  0.83361355  1
  I  I129  1  0.66724503  0.49934058  0.16801461  1
  I  I130  1  0.67038198  0.50026735  0.50175715  1
  I  I131  1  0.66983081  0.49736936  0.83061168  1
  I  I132  1  0.66345895  0.83585607  0.16805764  1
  I  I133  1  0.66990696  0.83233198  0.49765901  1
  I  I134  1  0.66671380  0.83118338  0.83233313  1
