# generated using pymatgen
data_Cs27Sn14Pb13I81
_symmetry_space_group_name_H-M   'P 1'
_cell_length_a   18.95754147
_cell_length_b   18.96100758
_cell_length_c   18.96481403
_cell_angle_alpha   90.00078462
_cell_angle_beta   89.99965606
_cell_angle_gamma   90.00257892
_symmetry_Int_Tables_number   1
_chemical_formula_structural   Cs27Sn14Pb13I81
_chemical_formula_sum   'Cs27 Sn14 Pb13 I81'
_cell_volume   6816.97991882
_cell_formula_units_Z   1
loop_
 _symmetry_equiv_pos_site_id
 _symmetry_equiv_pos_as_xyz
  1  'x, y, z'
loop_
 _atom_site_type_symbol
 _atom_site_label
 _atom_site_symmetry_multiplicity
 _atom_site_fract_x
 _atom_site_fract_y
 _atom_site_fract_z
 _atom_site_occupancy
  Cs  Cs0  1  0.00044759  -0.00193873  -0.00261291  1
  Cs  Cs1  1  -0.00117346  0.00102642  0.33419030  1
  Cs  Cs2  1  -0.00024264  -0.00104156  0.66702563  1
  Cs  Cs3  1  0.00185041  0.33584866  -0.00031151  1
  Cs  Cs4  1  -0.00193606  0.33514801  0.33236066  1
  Cs  Cs5  1  0.00153950  0.33395734  0.66650847  1
  Cs  Cs6  1  -0.00061547  0.66842801  0.00877942  1
  Cs  Cs7  1  0.00294978  0.66512198  0.32871510  1
  Cs  Cs8  1  -0.00227596  0.66960868  0.66502617  1
  Cs  Cs9  1  0.33274081  0.00214026  0.00259203  1
  Cs  Cs10  1  0.33439507  0.00032748  0.33400878  1
  Cs  Cs11  1  0.33130952  -0.00024339  0.66487871  1
  Cs  Cs12  1  0.33428282  0.33105635  -0.00287383  1
  Cs  Cs13  1  0.33589834  0.33181918  0.33432407  1
  Cs  Cs14  1  0.33164695  0.33355618  0.66740581  1
  Cs  Cs15  1  0.33482795  0.66636271  0.00051803  1
  Cs  Cs16  1  0.33053783  0.66760638  0.33253443  1
  Cs  Cs17  1  0.33493784  0.66503418  0.66746033  1
  Cs  Cs18  1  0.66696862  -0.00052172  0.00016065  1
  Cs  Cs19  1  0.66655514  0.00203156  0.33255593  1
  Cs  Cs20  1  0.66833334  -0.00116101  0.66613444  1
  Cs  Cs21  1  0.66548345  0.33330161  0.00139506  1
  Cs  Cs22  1  0.66594327  0.33157519  0.33376882  1
  Cs  Cs23  1  0.66731345  0.33392049  0.66523546  1
  Cs  Cs24  1  0.66606850  0.66788404  -0.00207581  1
  Cs  Cs25  1  0.66555687  0.66653165  0.33410872  1
  Cs  Cs26  1  0.66745086  0.66675113  0.66774393  1
  Sn  Sn27  1  0.50083279  0.16642730  0.83286092  1
  Sn  Sn28  1  0.83357388  0.50015421  0.83266078  1
  Sn  Sn29  1  0.83425242  0.83305206  0.83250475  1
  Sn  Sn30  1  0.16724196  0.16617713  0.49913663  1
  Sn  Sn31  1  0.16692368  0.16671176  0.16778806  1
  Sn  Sn32  1  0.83276358  0.16691381  0.83314896  1
  Sn  Sn33  1  0.50016242  0.49935823  0.16747729  1
  Sn  Sn34  1  0.16574516  0.83402575  0.50093562  1
  Sn  Sn35  1  0.50068787  0.49924909  0.49935738  1
  Sn  Sn36  1  0.49932901  0.16734107  0.16691471  1
  Sn  Sn37  1  0.49933482  0.16731134  0.50028907  1
  Sn  Sn38  1  0.16622884  0.83315743  0.83256190  1
  Sn  Sn39  1  0.83412645  0.83244294  0.50031429  1
  Sn  Sn40  1  0.83270695  0.50086722  0.50070018  1
  Pb  Pb41  1  0.50004198  0.83309363  0.50000062  1
  Pb  Pb42  1  0.16977355  0.49692930  0.16665788  1
  Pb  Pb43  1  0.16662193  0.50012987  0.50013611  1
  Pb  Pb44  1  0.83353928  0.16675231  0.50170417  1
  Pb  Pb45  1  0.50010804  0.83583225  0.83323219  1
  Pb  Pb46  1  0.16670537  0.83570633  0.16716393  1
  Pb  Pb47  1  0.83325970  0.83336236  0.16723332  1
  Pb  Pb48  1  0.16353218  0.50354690  0.83322160  1
  Pb  Pb49  1  0.49996947  0.83347743  0.16676847  1
  Pb  Pb50  1  0.50177086  0.49786321  0.83289327  1
  Pb  Pb51  1  0.83334404  0.16671055  0.16372651  1
  Pb  Pb52  1  0.16659408  0.16531490  0.83293375  1
  Pb  Pb53  1  0.83093949  0.49992344  0.16717898  1
  I  I54  1  0.17453696  0.00368911  0.16755584  1
  I  I55  1  0.16689560  0.00044519  0.50032259  1
  I  I56  1  0.16096605  -0.00249655  0.83181583  1
  I  I57  1  0.16750852  0.32877755  0.17216583  1
  I  I58  1  0.16774758  0.33017761  0.49616257  1
  I  I59  1  0.16531453  0.33314877  0.83373988  1
  I  I60  1  0.16778086  0.66667242  0.16624675  1
  I  I61  1  0.16607202  0.66977317  0.50509826  1
  I  I62  1  0.16372422  0.67167873  0.82585107  1
  I  I63  1  0.49645906  0.00413741  0.16736377  1
  I  I64  1  0.49951842  0.00332034  0.49917044  1
  I  I65  1  0.50535446  0.00439827  0.83329436  1
  I  I66  1  0.49677721  0.33190093  0.16765365  1
  I  I67  1  0.50079477  0.33239255  0.49928886  1
  I  I68  1  0.50456325  0.32944964  0.83352837  1
  I  I69  1  0.50230500  0.66321593  0.17140468  1
  I  I70  1  0.50123710  0.66347736  0.49571355  1
  I  I71  1  0.50036408  0.66647509  0.83411765  1
  I  I72  1  0.83001530  0.00028154  0.16665685  1
  I  I73  1  0.83403159  -0.00230905  0.50475122  1
  I  I74  1  0.83300708  -0.00047562  0.82981068  1
  I  I75  1  0.83595278  0.33320594  0.16635441  1
  I  I76  1  0.83193226  0.33573147  0.50424886  1
  I  I77  1  0.82771923  0.33326836  0.82975018  1
  I  I78  1  0.83069131  0.66652193  0.16224967  1
  I  I79  1  0.83204797  0.66662695  0.50785943  1
  I  I80  1  0.83680347  0.66709499  0.82851295  1
  I  I81  1  0.17018309  0.16537550  0.00183694  1
  I  I82  1  0.17451958  0.16103178  0.33459757  1
  I  I83  1  0.17007400  0.16436627  0.66386051  1
  I  I84  1  0.16651915  0.49936287  -0.00008651  1
  I  I85  1  0.16140900  0.50472704  0.33358572  1
  I  I86  1  0.17244957  0.49373266  0.66652947  1
  I  I87  1  0.16148032  0.83507307  -0.00279816  1
  I  I88  1  0.16274919  0.83529788  0.33691154  1
  I  I89  1  0.16213541  0.84067832  0.66563269  1
  I  I90  1  0.49978798  0.16986103  0.00033599  1
  I  I91  1  0.49521710  0.17036226  0.33392553  1
  I  I92  1  0.49978977  0.16980949  0.66575793  1
  I  I93  1  0.50098816  0.49503630  0.00218154  1
  I  I94  1  0.50593359  0.49167207  0.33461858  1
  I  I95  1  0.50218281  0.49583965  0.66359564  1
  I  I96  1  0.50051622  0.83353203  -0.00024632  1
  I  I97  1  0.50095062  0.83754782  0.33373540  1
  I  I98  1  0.49944629  0.83413200  0.66653358  1
  I  I99  1  0.82962940  0.16592822  -0.00471250  1
  I  I100  1  0.83136906  0.16605742  0.33361577  1
  I  I101  1  0.82940694  0.16608224  0.66979900  1
  I  I102  1  0.83234935  0.50036055  -0.00309759  1
  I  I103  1  0.83162237  0.50416178  0.33694106  1
  I  I104  1  0.82690333  0.50091294  0.66608198  1
  I  I105  1  0.83714322  0.83325722  -0.00375549  1
  I  I106  1  0.83708665  0.82918737  0.33743545  1
  I  I107  1  0.83717750  0.83309800  0.66686312  1
  I  I108  1  0.00293820  0.16422859  0.17059003  1
  I  I109  1  0.00259117  0.16551526  0.49766404  1
  I  I110  1  -0.00267376  0.16731192  0.83283838  1
  I  I111  1  -0.00001031  0.49909167  0.16629390  1
  I  I112  1  -0.00312096  0.49989137  0.50553201  1
  I  I113  1  -0.00490143  0.49252149  0.82625988  1
  I  I114  1  0.00010582  0.83560985  0.16589033  1
  I  I115  1  -0.00012482  0.83478141  0.50487489  1
  I  I116  1  -0.00122661  0.83688926  0.82862369  1
  I  I117  1  0.33450080  0.16969660  0.16493315  1
  I  I118  1  0.33406892  0.16630082  0.50136837  1
  I  I119  1  0.33592430  0.16512193  0.83384565  1
  I  I120  1  0.33788617  0.49873218  0.17331163  1
  I  I121  1  0.33648179  0.49868608  0.49553789  1
  I  I122  1  0.33352377  0.49972006  0.83351422  1
  I  I123  1  0.33317629  0.83145468  0.16577516  1
  I  I124  1  0.33030625  0.83534276  0.50371650  1
  I  I125  1  0.33038250  0.83667568  0.82910248  1
  I  I126  1  0.66311403  0.17030559  0.16937652  1
  I  I127  1  0.66400459  0.16717668  0.49786231  1
  I  I128  1  0.66656599  0.16465479  0.83316686  1
  I  I129  1  0.66306075  0.49133009  0.16819574  1
  I  I130  1  0.66662124  0.49946393  0.50031947  1
  I  I131  1  0.67009377  0.50454016  0.83189887  1
  I  I132  1  0.66662851  0.83683818  0.16583486  1
  I  I133  1  0.66974415  0.83281459  0.50538467  1
  I  I134  1  0.67029437  0.83227764  0.82886361  1
