# generated using pymatgen
data_Cs27Sn14Pb13I81
_symmetry_space_group_name_H-M   'P 1'
_cell_length_a   18.98368552
_cell_length_b   18.97335718
_cell_length_c   18.96911262
_cell_angle_alpha   89.99980139
_cell_angle_beta   90.00033348
_cell_angle_gamma   90.00038558
_symmetry_Int_Tables_number   1
_chemical_formula_structural   Cs27Sn14Pb13I81
_chemical_formula_sum   'Cs27 Sn14 Pb13 I81'
_cell_volume   6832.37552621
_cell_formula_units_Z   1
loop_
 _symmetry_equiv_pos_site_id
 _symmetry_equiv_pos_as_xyz
  1  'x, y, z'
loop_
 _atom_site_type_symbol
 _atom_site_label
 _atom_site_symmetry_multiplicity
 _atom_site_fract_x
 _atom_site_fract_y
 _atom_site_fract_z
 _atom_site_occupancy
  Cs  Cs0  1  0.00027905  0.00030514  0.00124270  1
  Cs  Cs1  1  0.00191305  -0.00170377  0.33247378  1
  Cs  Cs2  1  -0.00051752  0.00641399  0.66863072  1
  Cs  Cs3  1  -0.00016982  0.33410004  0.00335669  1
  Cs  Cs4  1  0.00113575  0.33497995  0.33096067  1
  Cs  Cs5  1  -0.00153451  0.32540515  0.66868830  1
  Cs  Cs6  1  -0.00087590  0.66672814  0.00043772  1
  Cs  Cs7  1  -0.00001776  0.66616978  0.33374693  1
  Cs  Cs8  1  -0.00159017  0.66701322  0.66440612  1
  Cs  Cs9  1  0.34239490  -0.00323539  -0.00507330  1
  Cs  Cs10  1  0.33353316  0.00233545  0.33340377  1
  Cs  Cs11  1  0.33187722  0.00455595  0.67284333  1
  Cs  Cs12  1  0.33552673  0.33545410  -0.00341608  1
  Cs  Cs13  1  0.33215278  0.33428857  0.33273847  1
  Cs  Cs14  1  0.33298848  0.32779831  0.67449604  1
  Cs  Cs15  1  0.33348053  0.66697983  -0.00983850  1
  Cs  Cs16  1  0.33072986  0.66441634  0.33651960  1
  Cs  Cs17  1  0.33402245  0.66685022  0.66854625  1
  Cs  Cs18  1  0.65795399  -0.00183995  0.00286742  1
  Cs  Cs19  1  0.66123065  -0.00093605  0.33091138  1
  Cs  Cs20  1  0.66977619  0.00857596  0.66623670  1
  Cs  Cs21  1  0.66701765  0.33302705  -0.00093006  1
  Cs  Cs22  1  0.66541085  0.33549217  0.33349946  1
  Cs  Cs23  1  0.66885664  0.32756184  0.66872553  1
  Cs  Cs24  1  0.66765112  0.66899339  -0.00045628  1
  Cs  Cs25  1  0.66730420  0.66639616  0.33509568  1
  Cs  Cs26  1  0.66830083  0.66599215  0.66308743  1
  Sn  Sn27  1  0.49965523  0.50031995  0.49944225  1
  Sn  Sn28  1  0.16718101  0.50061689  0.16712103  1
  Sn  Sn29  1  0.83372770  0.16699614  0.16727462  1
  Sn  Sn30  1  0.83364526  0.50031498  0.50030736  1
  Sn  Sn31  1  0.83372321  0.50094114  0.83301739  1
  Sn  Sn32  1  0.49978665  0.50075274  0.16721708  1
  Sn  Sn33  1  0.16666425  0.50031667  0.49984746  1
  Sn  Sn34  1  0.83305524  0.49955314  0.16668067  1
  Sn  Sn35  1  0.16688443  0.83292229  0.16702716  1
  Sn  Sn36  1  0.83364606  0.83269407  0.83235049  1
  Sn  Sn37  1  0.49970278  0.83276367  0.50003500  1
  Sn  Sn38  1  0.16685270  0.83273828  0.49940243  1
  Sn  Sn39  1  0.83342125  0.83297035  0.50074312  1
  Sn  Sn40  1  0.16628547  0.16655948  0.16687372  1
  Pb  Pb41  1  0.49979666  0.16736759  0.49975822  1
  Pb  Pb42  1  0.49950881  0.16945611  0.16696900  1
  Pb  Pb43  1  0.16662035  0.16691408  0.49799890  1
  Pb  Pb44  1  0.16423794  0.83304914  0.83245099  1
  Pb  Pb45  1  0.83465482  0.83311857  0.16727112  1
  Pb  Pb46  1  0.16637908  0.16660860  0.83733806  1
  Pb  Pb47  1  0.50301580  0.50022278  0.83232013  1
  Pb  Pb48  1  0.83339787  0.16618919  0.83681444  1
  Pb  Pb49  1  0.16391147  0.50009385  0.83259390  1
  Pb  Pb50  1  0.50030997  0.16678190  0.83345568  1
  Pb  Pb51  1  0.50333060  0.83282639  0.82942036  1
  Pb  Pb52  1  0.83341216  0.16655717  0.49693235  1
  Pb  Pb53  1  0.49656712  0.83014329  0.16890070  1
  I  I54  1  0.15859027  -0.00041565  0.17185464  1
  I  I55  1  0.16579422  -0.00351053  0.49528872  1
  I  I56  1  0.16290816  -0.00024179  0.83214314  1
  I  I57  1  0.16485058  0.33502513  0.17078647  1
  I  I58  1  0.16560604  0.33717316  0.49530158  1
  I  I59  1  0.16407442  0.33356490  0.83156226  1
  I  I60  1  0.16437180  0.66546565  0.17158267  1
  I  I61  1  0.16534271  0.66618871  0.49165058  1
  I  I62  1  0.16730936  0.66652372  0.84025796  1
  I  I63  1  0.50108326  -0.00045308  0.16733829  1
  I  I64  1  0.50114918  -0.00342678  0.50010520  1
  I  I65  1  0.50271264  -0.00061600  0.83333123  1
  I  I66  1  0.49723846  0.33777228  0.17343651  1
  I  I67  1  0.50120457  0.33782189  0.49496332  1
  I  I68  1  0.50229267  0.33401413  0.83198143  1
  I  I69  1  0.50453818  0.66227064  0.16904901  1
  I  I70  1  0.50108373  0.66561989  0.49537834  1
  I  I71  1  0.49792924  0.66655184  0.83759800  1
  I  I72  1  0.83977163  0.00188720  0.16679814  1
  I  I73  1  0.83368664  -0.00350671  0.50404274  1
  I  I74  1  0.83444535  -0.00310004  0.82767092  1
  I  I75  1  0.83784271  0.33595275  0.16667413  1
  I  I76  1  0.83317415  0.33719884  0.50243227  1
  I  I77  1  0.83305350  0.33640995  0.83040468  1
  I  I78  1  0.83413852  0.66325442  0.16675764  1
  I  I79  1  0.83346828  0.66557940  0.49825651  1
  I  I80  1  0.83393668  0.66567726  0.83506394  1
  I  I81  1  0.15998550  0.16879199  0.00564328  1
  I  I82  1  0.16208954  0.16770540  0.32975271  1
  I  I83  1  0.16749255  0.16676051  0.66670229  1
  I  I84  1  0.16648707  0.49966817  0.00365422  1
  I  I85  1  0.16263192  0.50042827  0.33269626  1
  I  I86  1  0.16746991  0.50695296  0.66270035  1
  I  I87  1  0.16317121  0.83244968  0.00304671  1
  I  I88  1  0.16291047  0.83208058  0.33398660  1
  I  I89  1  0.16861138  0.82637086  0.66251206  1
  I  I90  1  0.50063236  0.16759640  0.00073551  1
  I  I91  1  0.50143268  0.16417614  0.33308568  1
  I  I92  1  0.50073850  0.16913340  0.66638562  1
  I  I93  1  0.49903932  0.49762405  0.00289290  1
  I  I94  1  0.50444672  0.50270199  0.33372793  1
  I  I95  1  0.49938633  0.50490782  0.66258368  1
  I  I96  1  0.50000452  0.83378065  -0.00005245  1
  I  I97  1  0.50750150  0.83151282  0.33694430  1
  I  I98  1  0.49376578  0.82422382  0.66147016  1
  I  I99  1  0.83878787  0.17208244  0.00443367  1
  I  I100  1  0.83774308  0.17200108  0.32931379  1
  I  I101  1  0.83228533  0.16916353  0.66663915  1
  I  I102  1  0.83395232  0.49980768  0.00121042  1
  I  I103  1  0.83355760  0.50001319  0.33343554  1
  I  I104  1  0.83301118  0.50571297  0.66537426  1
  I  I105  1  0.83703089  0.82961482  -0.00154480  1
  I  I106  1  0.83241445  0.83003704  0.33662846  1
  I  I107  1  0.83474358  0.82410072  0.66498425  1
  I  I108  1  0.00016327  0.17276394  0.16748912  1
  I  I109  1  -0.00010077  0.16652039  0.50084675  1
  I  I110  1  -0.00045440  0.16687169  0.83093048  1
  I  I111  1  0.00006197  0.49894696  0.16868359  1
  I  I112  1  -0.00032822  0.50635346  0.49596950  1
  I  I113  1  -0.00414996  0.50400302  0.83483426  1
  I  I114  1  0.00269296  0.82920214  0.17153736  1
  I  I115  1  -0.00007957  0.82672112  0.49897147  1
  I  I116  1  -0.00356777  0.82817350  0.82856181  1
  I  I117  1  0.32995697  0.16765726  0.16842636  1
  I  I118  1  0.33317023  0.16688079  0.49641554  1
  I  I119  1  0.33316458  0.16673911  0.83456095  1
  I  I120  1  0.33222056  0.49922528  0.17467147  1
  I  I121  1  0.33284520  0.50667701  0.49004733  1
  I  I122  1  0.33332955  0.49834731  0.83457662  1
  I  I123  1  0.32851853  0.83532516  0.17228216  1
  I  I124  1  0.33258881  0.82592797  0.49227298  1
  I  I125  1  0.33350428  0.83533382  0.83421182  1
  I  I126  1  0.66944251  0.17136289  0.16628185  1
  I  I127  1  0.66685729  0.16640013  0.49754985  1
  I  I128  1  0.66748980  0.16734239  0.83532630  1
  I  I129  1  0.66783278  0.49495882  0.16929467  1
  I  I130  1  0.66748630  0.50595197  0.49602042  1
  I  I131  1  0.67113514  0.50376633  0.83484540  1
  I  I132  1  0.66643910  0.83479735  0.16640320  1
  I  I133  1  0.66744562  0.82607132  0.50413115  1
  I  I134  1  0.67121047  0.82769248  0.83144065  1
