# generated using pymatgen
data_Cs27Sn13Pb14I81
_symmetry_space_group_name_H-M   'P 1'
_cell_length_a   18.97233707
_cell_length_b   18.97801458
_cell_length_c   18.98143487
_cell_angle_alpha   89.99832214
_cell_angle_beta   89.99967589
_cell_angle_gamma   89.99903657
_symmetry_Int_Tables_number   1
_chemical_formula_structural   Cs27Sn13Pb14I81
_chemical_formula_sum   'Cs27 Sn13 Pb14 I81'
_cell_volume   6834.40398729
_cell_formula_units_Z   1
loop_
 _symmetry_equiv_pos_site_id
 _symmetry_equiv_pos_as_xyz
  1  'x, y, z'
loop_
 _atom_site_type_symbol
 _atom_site_label
 _atom_site_symmetry_multiplicity
 _atom_site_fract_x
 _atom_site_fract_y
 _atom_site_fract_z
 _atom_site_occupancy
  Cs  Cs0  1  0.00625042  0.00051474  0.00645416  1
  Cs  Cs1  1  0.00047107  -0.00119541  0.32812838  1
  Cs  Cs2  1  0.00077079  -0.00033662  0.66648445  1
  Cs  Cs3  1  0.00111668  0.33254699  -0.00119853  1
  Cs  Cs4  1  0.00030486  0.33344729  0.33044458  1
  Cs  Cs5  1  -0.00289248  0.33358307  0.66885154  1
  Cs  Cs6  1  -0.00101537  0.66495538  0.00019502  1
  Cs  Cs7  1  0.00600568  0.66720883  0.33264287  1
  Cs  Cs8  1  -0.00140243  0.66658989  0.66615546  1
  Cs  Cs9  1  0.32712623  -0.00535908  -0.00177135  1
  Cs  Cs10  1  0.33462381  -0.00071619  0.33547202  1
  Cs  Cs11  1  0.33125197  -0.00015005  0.66755778  1
  Cs  Cs12  1  0.33007760  0.33369333  0.00272825  1
  Cs  Cs13  1  0.33298737  0.33965084  0.33280701  1
  Cs  Cs14  1  0.33572798  0.33291322  0.66539571  1
  Cs  Cs15  1  0.34271156  0.67311712  0.00499637  1
  Cs  Cs16  1  0.32442774  0.65890677  0.32813480  1
  Cs  Cs17  1  0.33224731  0.66747885  0.66694748  1
  Cs  Cs18  1  0.66647213  -0.00106845  0.00363512  1
  Cs  Cs19  1  0.66693814  0.00139130  0.33453576  1
  Cs  Cs20  1  0.66722938  0.00212225  0.66422138  1
  Cs  Cs21  1  0.66780100  0.33307622  -0.00210925  1
  Cs  Cs22  1  0.66673388  0.33082555  0.33519191  1
  Cs  Cs23  1  0.66760653  0.33248803  0.66626753  1
  Cs  Cs24  1  0.66123965  0.66917359  0.00047805  1
  Cs  Cs25  1  0.66604483  0.66871122  0.33170958  1
  Cs  Cs26  1  0.66808761  0.66650022  0.66790102  1
  Sn  Sn27  1  0.83335856  0.83406362  0.83291338  1
  Sn  Sn28  1  0.50054111  0.16672290  0.83364147  1
  Sn  Sn29  1  0.83279316  0.49990632  0.16655099  1
  Sn  Sn30  1  0.49987477  0.16598573  0.50018188  1
  Sn  Sn31  1  0.50006260  0.16668027  0.16637602  1
  Sn  Sn32  1  0.83256628  0.83361497  0.50081455  1
  Sn  Sn33  1  0.50049187  0.83345162  0.49999068  1
  Sn  Sn34  1  0.16627373  0.16689776  0.50014406  1
  Sn  Sn35  1  0.83385967  0.50018479  0.83350935  1
  Sn  Sn36  1  0.83286140  0.16570475  0.83307399  1
  Sn  Sn37  1  0.83307967  0.50011749  0.49962773  1
  Sn  Sn38  1  0.16664775  0.50037953  0.83323209  1
  Sn  Sn39  1  0.83383111  0.16634383  0.50051068  1
  Pb  Pb40  1  0.50243097  0.49776054  0.16670184  1
  Pb  Pb41  1  0.50235168  0.83615390  0.83090734  1
  Pb  Pb42  1  0.16392140  0.49766895  0.50216648  1
  Pb  Pb43  1  0.16434085  0.49978944  0.16341774  1
  Pb  Pb44  1  0.50190624  0.50047533  0.50007109  1
  Pb  Pb45  1  0.83328557  0.83080044  0.16694790  1
  Pb  Pb46  1  0.50027224  0.83578264  0.17007438  1
  Pb  Pb47  1  0.16403222  0.83036821  0.83303182  1
  Pb  Pb48  1  0.16677559  0.83326012  0.16664429  1
  Pb  Pb49  1  0.83199379  0.16819618  0.16644685  1
  Pb  Pb50  1  0.16990324  0.16687091  0.16963525  1
  Pb  Pb51  1  0.50030347  0.49808316  0.83323540  1
  Pb  Pb52  1  0.16640923  0.83531996  0.50014214  1
  Pb  Pb53  1  0.16641117  0.16812618  0.83158700  1
  I  I54  1  0.16426751  0.00063450  0.16579527  1
  I  I55  1  0.16285509  0.00361817  0.50187721  1
  I  I56  1  0.16606146  0.00004727  0.83247852  1
  I  I57  1  0.16675550  0.33330074  0.16731669  1
  I  I58  1  0.16826120  0.32972006  0.50096593  1
  I  I59  1  0.15855053  0.33572711  0.83185158  1
  I  I60  1  0.16567106  0.66604064  0.16882404  1
  I  I61  1  0.16696633  0.66638018  0.50026544  1
  I  I62  1  0.15843296  0.66254730  0.83112617  1
  I  I63  1  0.50377863  0.00395632  0.16571430  1
  I  I64  1  0.50575537  0.00203274  0.49978693  1
  I  I65  1  0.50520627  0.00453924  0.83390257  1
  I  I66  1  0.50134369  0.32955272  0.17076006  1
  I  I67  1  0.50154524  0.32949279  0.50024108  1
  I  I68  1  0.50668644  0.32929811  0.82898044  1
  I  I69  1  0.50056270  0.66685158  0.16722112  1
  I  I70  1  0.50733538  0.66981412  0.50160606  1
  I  I71  1  0.50094376  0.66704592  0.83187411  1
  I  I72  1  0.83206517  0.00006133  0.16677069  1
  I  I73  1  0.83186804  0.00106986  0.50689825  1
  I  I74  1  0.82762190  0.00098403  0.82452840  1
  I  I75  1  0.83160700  0.33613396  0.16703261  1
  I  I76  1  0.83277183  0.33250811  0.50272243  1
  I  I77  1  0.83294156  0.33304348  0.83034427  1
  I  I78  1  0.83359953  0.66272646  0.16653865  1
  I  I79  1  0.82816399  0.66677256  0.50364983  1
  I  I80  1  0.83846749  0.66615297  0.82945373  1
  I  I81  1  0.16637022  0.16814531  -0.00013801  1
  I  I82  1  0.16316610  0.16701438  0.33784850  1
  I  I83  1  0.16945839  0.16764266  0.66365484  1
  I  I84  1  0.15800971  0.49605348  -0.00405103  1
  I  I85  1  0.16537095  0.49917748  0.33338779  1
  I  I86  1  0.15890246  0.49852638  0.66957760  1
  I  I87  1  0.16428247  0.83520642  -0.00055788  1
  I  I88  1  0.16390958  0.83361903  0.33398178  1
  I  I89  1  0.16807309  0.83346117  0.66655576  1
  I  I90  1  0.50779319  0.17004717  -0.00099182  1
  I  I91  1  0.50174472  0.16307516  0.33520358  1
  I  I92  1  0.50208028  0.16431353  0.66570138  1
  I  I93  1  0.50324768  0.49706563  -0.00020142  1
  I  I94  1  0.50305877  0.49642874  0.33360579  1
  I  I95  1  0.50254186  0.49614576  0.66661829  1
  I  I96  1  0.50136994  0.83447294  -0.00011397  1
  I  I97  1  0.50934077  0.84115938  0.33809412  1
  I  I98  1  0.50311452  0.83973349  0.66300364  1
  I  I99  1  0.82846135  0.16804423  -0.00335348  1
  I  I100  1  0.83203189  0.16719221  0.33682310  1
  I  I101  1  0.82930058  0.17086358  0.66603592  1
  I  I102  1  0.83743232  0.49810544  -0.00147021  1
  I  I103  1  0.83073224  0.49792464  0.33456379  1
  I  I104  1  0.83645081  0.49892100  0.66677673  1
  I  I105  1  0.83390959  0.83339478  -0.00330269  1
  I  I106  1  0.82950771  0.83492298  0.33721775  1
  I  I107  1  0.83004000  0.83003484  0.66587445  1
  I  I108  1  0.00006498  0.16787827  0.16703453  1
  I  I109  1  -0.00206531  0.16758498  0.50579992  1
  I  I110  1  -0.00376108  0.16654576  0.82779827  1
  I  I111  1  -0.00405049  0.49779105  0.16987053  1
  I  I112  1  -0.00492068  0.50017942  0.49891116  1
  I  I113  1  -0.00327500  0.49698374  0.83245187  1
  I  I114  1  -0.00068309  0.83484480  0.16915942  1
  I  I115  1  -0.00400569  0.83361332  0.50397552  1
  I  I116  1  -0.00494965  0.83815917  0.82562293  1
  I  I117  1  0.33796647  0.16724869  0.16560477  1
  I  I118  1  0.33482967  0.16156792  0.50088849  1
  I  I119  1  0.33617631  0.16993533  0.83074748  1
  I  I120  1  0.33325903  0.49899881  0.16606707  1
  I  I121  1  0.33305819  0.49887270  0.50155807  1
  I  I122  1  0.33085373  0.49510370  0.83165209  1
  I  I123  1  0.33395273  0.83338475  0.16756952  1
  I  I124  1  0.33640693  0.84110777  0.50023969  1
  I  I125  1  0.33366419  0.83309303  0.83213305  1
  I  I126  1  0.66413069  0.16839887  0.17157182  1
  I  I127  1  0.66734750  0.16683145  0.50045044  1
  I  I128  1  0.66813613  0.16966980  0.82827027  1
  I  I129  1  0.67067728  0.49939623  0.16406012  1
  I  I130  1  0.67111257  0.49459976  0.50396350  1
  I  I131  1  0.67088280  0.50042463  0.83240587  1
  I  I132  1  0.66684094  0.83222866  0.16509842  1
  I  I133  1  0.66827281  0.83858530  0.50323050  1
  I  I134  1  0.67076788  0.82744956  0.83116045  1
