# generated using pymatgen
data_Cs27Sn13Pb14I81
_symmetry_space_group_name_H-M   'P 1'
_cell_length_a   18.97741396
_cell_length_b   18.97768221
_cell_length_c   18.97444856
_cell_angle_alpha   90.00031967
_cell_angle_beta   90.00033038
_cell_angle_gamma   89.99973161
_symmetry_Int_Tables_number   1
_chemical_formula_structural   Cs27Sn13Pb14I81
_chemical_formula_sum   'Cs27 Sn13 Pb14 I81'
_cell_volume   6833.59701062
_cell_formula_units_Z   1
loop_
 _symmetry_equiv_pos_site_id
 _symmetry_equiv_pos_as_xyz
  1  'x, y, z'
loop_
 _atom_site_type_symbol
 _atom_site_label
 _atom_site_symmetry_multiplicity
 _atom_site_fract_x
 _atom_site_fract_y
 _atom_site_fract_z
 _atom_site_occupancy
  Cs  Cs0  1  0.00152268  0.00061855  0.00013113  1
  Cs  Cs1  1  0.00283867  -0.00803029  0.33493133  1
  Cs  Cs2  1  -0.00382911  -0.00270679  0.66637516  1
  Cs  Cs3  1  0.00526504  0.33211711  0.00128337  1
  Cs  Cs4  1  0.00037774  0.33509708  0.33366435  1
  Cs  Cs5  1  0.00056955  0.33270605  0.66615669  1
  Cs  Cs6  1  -0.00325276  0.66806738  0.00978436  1
  Cs  Cs7  1  0.00153381  0.67027382  0.32490054  1
  Cs  Cs8  1  -0.00281254  0.66888126  0.66602418  1
  Cs  Cs9  1  0.33405576  0.00181267  -0.00057857  1
  Cs  Cs10  1  0.33356113  -0.00410477  0.33463880  1
  Cs  Cs11  1  0.33386559  -0.00231681  0.66639102  1
  Cs  Cs12  1  0.32932473  0.33212700  -0.00311845  1
  Cs  Cs13  1  0.33343497  0.33319807  0.33431715  1
  Cs  Cs14  1  0.33040238  0.33550143  0.66807675  1
  Cs  Cs15  1  0.33545029  0.66520630  -0.00347415  1
  Cs  Cs16  1  0.33346590  0.66934600  0.33519400  1
  Cs  Cs17  1  0.33327933  0.66585536  0.66741737  1
  Cs  Cs18  1  0.66510782  0.00187884  -0.00132428  1
  Cs  Cs19  1  0.66503751  0.00410830  0.34009652  1
  Cs  Cs20  1  0.66887848  0.00108654  0.66323318  1
  Cs  Cs21  1  0.66566624  0.33163686  -0.00009611  1
  Cs  Cs22  1  0.66686587  0.33241368  0.33327274  1
  Cs  Cs23  1  0.66795008  0.33337446  0.66651334  1
  Cs  Cs24  1  0.66650072  0.66795109  -0.00013847  1
  Cs  Cs25  1  0.66569080  0.66473533  0.33008763  1
  Cs  Cs26  1  0.66814262  0.66549825  0.66851475  1
  Sn  Sn27  1  0.16631741  0.49949982  0.50010855  1
  Sn  Sn28  1  0.49984217  0.49942196  0.16715302  1
  Sn  Sn29  1  0.83354752  0.49911395  0.83333004  1
  Sn  Sn30  1  0.16704655  0.83312284  0.83357690  1
  Sn  Sn31  1  0.83290506  0.16672672  0.16618774  1
  Sn  Sn32  1  0.83260578  0.16785606  0.83416150  1
  Sn  Sn33  1  0.16677041  0.16682189  0.50000320  1
  Sn  Sn34  1  0.50050053  0.16611344  0.83360618  1
  Sn  Sn35  1  0.50059639  0.16669448  0.16607121  1
  Sn  Sn36  1  0.50031253  0.83393389  0.16583856  1
  Sn  Sn37  1  0.83366121  0.49980029  0.50030114  1
  Sn  Sn38  1  0.50002619  0.49964254  0.49951143  1
  Sn  Sn39  1  0.49936488  0.83438951  0.83386587  1
  Pb  Pb40  1  0.83310857  0.82990044  0.49959521  1
  Pb  Pb41  1  0.16965431  0.49990050  0.16900251  1
  Pb  Pb42  1  0.83262502  0.83376716  0.83357071  1
  Pb  Pb43  1  0.16646347  0.16514812  0.83139711  1
  Pb  Pb44  1  0.16956153  0.83348022  0.16371997  1
  Pb  Pb45  1  0.50033378  0.83061678  0.50053055  1
  Pb  Pb46  1  0.16702768  0.16658946  0.16912018  1
  Pb  Pb47  1  0.83546522  0.16843987  0.49985795  1
  Pb  Pb48  1  0.49828695  0.16882079  0.50040318  1
  Pb  Pb49  1  0.16326177  0.50241053  0.83154392  1
  Pb  Pb50  1  0.83010181  0.83701469  0.16651266  1
  Pb  Pb51  1  0.50144064  0.49965963  0.83348672  1
  Pb  Pb52  1  0.16677462  0.83274245  0.50209584  1
  Pb  Pb53  1  0.83132903  0.49788101  0.16646002  1
  I  I54  1  0.16757983  0.00009881  0.17099425  1
  I  I55  1  0.16735288  0.00230359  0.50065554  1
  I  I56  1  0.16772528  -0.00257584  0.83012407  1
  I  I57  1  0.16986456  0.33323082  0.16436313  1
  I  I58  1  0.16748451  0.33465272  0.50124375  1
  I  I59  1  0.16924847  0.33342698  0.83286560  1
  I  I60  1  0.16679060  0.66669311  0.16900476  1
  I  I61  1  0.16763079  0.66320807  0.50192485  1
  I  I62  1  0.17460863  0.66983528  0.83035736  1
  I  I63  1  0.50322231  0.00074485  0.16092045  1
  I  I64  1  0.49701723  0.00026978  0.49762015  1
  I  I65  1  0.50093651  0.00071255  0.84051574  1
  I  I66  1  0.50438834  0.33262603  0.16756579  1
  I  I67  1  0.50191436  0.33693455  0.49655499  1
  I  I68  1  0.50273681  0.33059932  0.83586758  1
  I  I69  1  0.49872060  0.66657327  0.16723759  1
  I  I70  1  0.49776924  0.66226763  0.49673347  1
  I  I71  1  0.49804005  0.66872777  0.83554513  1
  I  I72  1  0.82911709  0.00488714  0.15949582  1
  I  I73  1  0.83563595  0.00052504  0.50094892  1
  I  I74  1  0.83233352  0.00343676  0.83731625  1
  I  I75  1  0.82572245  0.33021590  0.16579897  1
  I  I76  1  0.83066768  0.33657931  0.50167485  1
  I  I77  1  0.82675292  0.33243325  0.83201636  1
  I  I78  1  0.83216460  0.66656956  0.16721296  1
  I  I79  1  0.83433608  0.66117487  0.50757222  1
  I  I80  1  0.83251786  0.66403029  0.82670600  1
  I  I81  1  0.16670134  0.16500143  -0.00018559  1
  I  I82  1  0.16724952  0.17195125  0.33688562  1
  I  I83  1  0.16746843  0.17125529  0.66382869  1
  I  I84  1  0.16695524  0.50100908  -0.00018857  1
  I  I85  1  0.16169777  0.49654252  0.33760021  1
  I  I86  1  0.17280598  0.49661280  0.66325253  1
  I  I87  1  0.16816076  0.83473502  -0.00394791  1
  I  I88  1  0.16743234  0.83319778  0.33325864  1
  I  I89  1  0.17447205  0.83337396  0.66971219  1
  I  I90  1  0.50344348  0.16779083  -0.00004910  1
  I  I91  1  0.50336238  0.16487625  0.33039676  1
  I  I92  1  0.50344315  0.16330261  0.66982811  1
  I  I93  1  0.50331214  0.50069090  0.00247451  1
  I  I94  1  0.50175613  0.49982980  0.33324590  1
  I  I95  1  0.49896009  0.49991605  0.66429807  1
  I  I96  1  0.49601873  0.83158969  -0.00027941  1
  I  I97  1  0.50109316  0.83579983  0.33025156  1
  I  I98  1  0.49658741  0.83645598  0.67015788  1
  I  I99  1  0.82860806  0.17238552  -0.00111378  1
  I  I100  1  0.82768857  0.16844723  0.33076845  1
  I  I101  1  0.82966887  0.16838581  0.66959029  1
  I  I102  1  0.83000487  0.49889418  -0.00258271  1
  I  I103  1  0.83389625  0.49811364  0.33594866  1
  I  I104  1  0.83027970  0.49460953  0.66647741  1
  I  I105  1  0.83636391  0.82621478  -0.00010853  1
  I  I106  1  0.83252312  0.83378585  0.33290190  1
  I  I107  1  0.83105717  0.83725897  0.66698719  1
  I  I108  1  -0.00297043  0.16920835  0.16219907  1
  I  I109  1  0.00290608  0.17312560  0.50113726  1
  I  I110  1  -0.00309873  0.16915946  0.83600442  1
  I  I111  1  -0.00026894  0.49872824  0.16731272  1
  I  I112  1  -0.00021950  0.49482671  0.50707811  1
  I  I113  1  -0.00451529  0.49469741  0.82748461  1
  I  I114  1  -0.00013181  0.83347046  0.16635252  1
  I  I115  1  0.00016561  0.83334185  0.50347442  1
  I  I116  1  0.00202245  0.83336163  0.82892940  1
  I  I117  1  0.33733906  0.16693632  0.16310490  1
  I  I118  1  0.33076999  0.17352146  0.50045699  1
  I  I119  1  0.33638292  0.16481071  0.83680853  1
  I  I120  1  0.33826169  0.49740437  0.17062228  1
  I  I121  1  0.33360059  0.49649876  0.49511254  1
  I  I122  1  0.33341064  0.49843197  0.83223914  1
  I  I123  1  0.33785651  0.83611570  0.16642311  1
  I  I124  1  0.33365043  0.83078056  0.49860826  1
  I  I125  1  0.33533661  0.83829517  0.83627441  1
  I  I126  1  0.66518212  0.16712772  0.16299496  1
  I  I127  1  0.66669843  0.16820214  0.50005779  1
  I  I128  1  0.66601765  0.16506643  0.83629094  1
  I  I129  1  0.66308559  0.50173850  0.17236602  1
  I  I130  1  0.66659112  0.50064377  0.50013003  1
  I  I131  1  0.66918780  0.50029638  0.82734308  1
  I  I132  1  0.66206664  0.82901736  0.15886292  1
  I  I133  1  0.66630390  0.83357752  0.50303702  1
  I  I134  1  0.66325476  0.83356563  0.83776283  1
