# generated using pymatgen
data_Cs27Sn14Pb13I81
_symmetry_space_group_name_H-M   'P 1'
_cell_length_a   18.97158492
_cell_length_b   18.97152815
_cell_length_c   18.98479509
_cell_angle_alpha   89.99972533
_cell_angle_beta   90.00024237
_cell_angle_gamma   90.00172902
_symmetry_Int_Tables_number   1
_chemical_formula_structural   Cs27Sn14Pb13I81
_chemical_formula_sum   'Cs27 Sn14 Pb13 I81'
_cell_volume   6833.00663347
_cell_formula_units_Z   1
loop_
 _symmetry_equiv_pos_site_id
 _symmetry_equiv_pos_as_xyz
  1  'x, y, z'
loop_
 _atom_site_type_symbol
 _atom_site_label
 _atom_site_symmetry_multiplicity
 _atom_site_fract_x
 _atom_site_fract_y
 _atom_site_fract_z
 _atom_site_occupancy
  Cs  Cs0  1  0.00407290  -0.00427186  -0.00272552  1
  Cs  Cs1  1  -0.00232427  -0.00003228  0.33422689  1
  Cs  Cs2  1  0.00162040  -0.00060214  0.66943065  1
  Cs  Cs3  1  -0.00160764  0.33421319  0.00120331  1
  Cs  Cs4  1  -0.00081078  0.33521108  0.33252165  1
  Cs  Cs5  1  0.00032192  0.33238764  0.66636605  1
  Cs  Cs6  1  0.00304873  0.67048897  0.00827249  1
  Cs  Cs7  1  0.00109923  0.66551755  0.32864645  1
  Cs  Cs8  1  0.00005591  0.66560501  0.66527008  1
  Cs  Cs9  1  0.33319956  -0.00095680  -0.00103708  1
  Cs  Cs10  1  0.33619010  0.00284236  0.33469670  1
  Cs  Cs11  1  0.32853358  0.00071591  0.66620676  1
  Cs  Cs12  1  0.33366016  0.33392696  -0.00013259  1
  Cs  Cs13  1  0.33587852  0.32848242  0.33542224  1
  Cs  Cs14  1  0.33092420  0.33627514  0.66335481  1
  Cs  Cs15  1  0.33360815  0.66713205  0.00235655  1
  Cs  Cs16  1  0.33189283  0.66735291  0.33375399  1
  Cs  Cs17  1  0.33546214  0.66330724  0.66416871  1
  Cs  Cs18  1  0.66507925  0.00262174  -0.00161395  1
  Cs  Cs19  1  0.66533884  0.00063037  0.33313864  1
  Cs  Cs20  1  0.67005349  -0.00285289  0.67027550  1
  Cs  Cs21  1  0.66816728  0.33115306  -0.00206571  1
  Cs  Cs22  1  0.66648004  0.33062609  0.33316374  1
  Cs  Cs23  1  0.66805391  0.33643653  0.66853515  1
  Cs  Cs24  1  0.66477724  0.66685718  0.00129335  1
  Cs  Cs25  1  0.66787293  0.66942228  0.33238204  1
  Cs  Cs26  1  0.66594649  0.66514750  0.66668013  1
  Sn  Sn27  1  0.83452000  0.16657495  0.16621918  1
  Sn  Sn28  1  0.50001008  0.83253271  0.16677258  1
  Sn  Sn29  1  0.49929413  0.83337665  0.50035605  1
  Sn  Sn30  1  0.49998285  0.83410166  0.83289519  1
  Sn  Sn31  1  0.16569539  0.16671684  0.16655729  1
  Sn  Sn32  1  0.16540107  0.50017133  0.83321337  1
  Sn  Sn33  1  0.50003002  0.16628712  0.83258050  1
  Sn  Sn34  1  0.16578648  0.50065647  0.50059283  1
  Sn  Sn35  1  0.83326794  0.16742086  0.50056038  1
  Sn  Sn36  1  0.83404453  0.49932242  0.50059334  1
  Sn  Sn37  1  0.16714218  0.83270571  0.50006288  1
  Sn  Sn38  1  0.50017805  0.50023767  0.16692602  1
  Sn  Sn39  1  0.83470876  0.49983749  0.83309891  1
  Sn  Sn40  1  0.83296933  0.16728985  0.83319812  1
  Pb  Pb41  1  0.50034546  0.16631292  0.16488135  1
  Pb  Pb42  1  0.83374155  0.83261747  0.50011712  1
  Pb  Pb43  1  0.83186260  0.83247265  0.83346239  1
  Pb  Pb44  1  0.83138849  0.49829362  0.16656638  1
  Pb  Pb45  1  0.16430596  0.16695557  0.49837133  1
  Pb  Pb46  1  0.50265160  0.16423951  0.50323115  1
  Pb  Pb47  1  0.50026973  0.49995124  0.83468841  1
  Pb  Pb48  1  0.83109824  0.83640506  0.16646844  1
  Pb  Pb49  1  0.50048423  0.50168390  0.49783311  1
  Pb  Pb50  1  0.16622141  0.16874509  0.83489742  1
  Pb  Pb51  1  0.16916346  0.83028745  0.83120071  1
  Pb  Pb52  1  0.16900883  0.83585686  0.16923856  1
  Pb  Pb53  1  0.16864259  0.49830546  0.16725969  1
  I  I54  1  0.16391412  0.00350626  0.16693687  1
  I  I55  1  0.17076336  -0.00221947  0.49690968  1
  I  I56  1  0.16517757  -0.00013341  0.83303266  1
  I  I57  1  0.16624347  0.33064325  0.16831726  1
  I  I58  1  0.16465287  0.33633426  0.50253259  1
  I  I59  1  0.16914497  0.33654143  0.82685287  1
  I  I60  1  0.16726463  0.66672031  0.16498321  1
  I  I61  1  0.16572730  0.66566338  0.50372663  1
  I  I62  1  0.16195018  0.66240440  0.83299691  1
  I  I63  1  0.50049849  -0.00257341  0.16836548  1
  I  I64  1  0.49528364  -0.00379872  0.49374879  1
  I  I65  1  0.50637665  0.00007800  0.83600847  1
  I  I66  1  0.49986872  0.33482058  0.16417754  1
  I  I67  1  0.49701004  0.33324227  0.49845568  1
  I  I68  1  0.50226677  0.33120892  0.83787809  1
  I  I69  1  0.49968967  0.66755942  0.16353555  1
  I  I70  1  0.50117918  0.66983287  0.50487017  1
  I  I71  1  0.49983641  0.66917663  0.83250027  1
  I  I72  1  0.83453808  0.00489537  0.16749717  1
  I  I73  1  0.83196838  0.00280782  0.49969435  1
  I  I74  1  0.82967667  0.00321871  0.83290828  1
  I  I75  1  0.83277466  0.33010461  0.16661404  1
  I  I76  1  0.83859485  0.33376259  0.50056054  1
  I  I77  1  0.82964343  0.33270048  0.83264509  1
  I  I78  1  0.83260532  0.66652223  0.16718205  1
  I  I79  1  0.83284767  0.66329802  0.50593207  1
  I  I80  1  0.83408019  0.66288708  0.82610994  1
  I  I81  1  0.16275358  0.16913495  0.00264665  1
  I  I82  1  0.16297058  0.16835567  0.33061136  1
  I  I83  1  0.16719048  0.16476750  0.66654193  1
  I  I84  1  0.16427110  0.49645304  -0.00226803  1
  I  I85  1  0.16294086  0.50330268  0.33653462  1
  I  I86  1  0.16441761  0.50245476  0.66599384  1
  I  I87  1  0.16802171  0.83275825  0.00002353  1
  I  I88  1  0.17207610  0.82652928  0.33690717  1
  I  I89  1  0.17251231  0.83380387  0.66333748  1
  I  I90  1  0.50569691  0.16220014  -0.00274432  1
  I  I91  1  0.50106385  0.16592021  0.33355546  1
  I  I92  1  0.50451543  0.16305602  0.67100630  1
  I  I93  1  0.49983519  0.50467797  0.00232849  1
  I  I94  1  0.49987301  0.50426994  0.33025292  1
  I  I95  1  0.49985297  0.50092864  0.66650614  1
  I  I96  1  0.50258674  0.83375805  -0.00016260  1
  I  I97  1  0.49657783  0.82829829  0.33345984  1
  I  I98  1  0.49710221  0.83806585  0.66665738  1
  I  I99  1  0.83103778  0.17118464  -0.00096064  1
  I  I100  1  0.83768137  0.17021227  0.33354954  1
  I  I101  1  0.82738612  0.17067003  0.66725474  1
  I  I102  1  0.83474557  0.49494227  -0.00292056  1
  I  I103  1  0.83602333  0.49615215  0.33620939  1
  I  I104  1  0.83561886  0.49186888  0.66663533  1
  I  I105  1  0.83080727  0.83248892  -0.00004489  1
  I  I106  1  0.82954448  0.83420712  0.33346410  1
  I  I107  1  0.82918895  0.83895840  0.66662454  1
  I  I108  1  -0.00125553  0.16912806  0.16532890  1
  I  I109  1  -0.00376025  0.16526545  0.50486908  1
  I  I110  1  -0.00336584  0.16962476  0.83171581  1
  I  I111  1  -0.00009052  0.49964194  0.16643635  1
  I  I112  1  -0.00010730  0.50178737  0.50362297  1
  I  I113  1  -0.00099988  0.49237232  0.82896121  1
  I  I114  1  0.00037028  0.83246772  0.16858597  1
  I  I115  1  0.00272743  0.83278809  0.50003049  1
  I  I116  1  0.00042127  0.83715102  0.83062053  1
  I  I117  1  0.33183032  0.16705676  0.16542192  1
  I  I118  1  0.33336053  0.16883797  0.49819901  1
  I  I119  1  0.33560914  0.16384495  0.83785939  1
  I  I120  1  0.33634890  0.50101575  0.16507792  1
  I  I121  1  0.33076255  0.50251275  0.50349994  1
  I  I122  1  0.33131569  0.50007747  0.83017788  1
  I  I123  1  0.33712305  0.83226861  0.16387631  1
  I  I124  1  0.33374983  0.82734689  0.49997237  1
  I  I125  1  0.33740667  0.83884829  0.83627344  1
  I  I126  1  0.66930196  0.16663062  0.16790948  1
  I  I127  1  0.67062936  0.17168353  0.49395966  1
  I  I128  1  0.66779522  0.16826200  0.83617575  1
  I  I129  1  0.66362514  0.50210550  0.16597552  1
  I  I130  1  0.66967834  0.49702419  0.50385578  1
  I  I131  1  0.66938213  0.49841769  0.82992856  1
  I  I132  1  0.66253963  0.83106312  0.17009754  1
  I  I133  1  0.66382985  0.83406798  0.49926307  1
  I  I134  1  0.66309247  0.83308978  0.83069946  1
