# generated using pymatgen
data_Cs27Sn14Pb13I81
_symmetry_space_group_name_H-M   'P 1'
_cell_length_a   18.98038094
_cell_length_b   18.98082031
_cell_length_c   18.96469982
_cell_angle_alpha   90.00169900
_cell_angle_beta   89.99902582
_cell_angle_gamma   90.00104527
_symmetry_Int_Tables_number   1
_chemical_formula_structural   Cs27Sn14Pb13I81
_chemical_formula_sum   'Cs27 Sn14 Pb13 I81'
_cell_volume   6832.28343836
_cell_formula_units_Z   1
loop_
 _symmetry_equiv_pos_site_id
 _symmetry_equiv_pos_as_xyz
  1  'x, y, z'
loop_
 _atom_site_type_symbol
 _atom_site_label
 _atom_site_symmetry_multiplicity
 _atom_site_fract_x
 _atom_site_fract_y
 _atom_site_fract_z
 _atom_site_occupancy
  Cs  Cs0  1  0.00310162  0.00197496  -0.00145686  1
  Cs  Cs1  1  -0.00118279  0.00019811  0.33295022  1
  Cs  Cs2  1  0.00103492  -0.00331634  0.66976924  1
  Cs  Cs3  1  -0.00044268  0.33241919  -0.00034749  1
  Cs  Cs4  1  -0.00041560  0.33439015  0.33341475  1
  Cs  Cs5  1  0.00241603  0.33481726  0.66917258  1
  Cs  Cs6  1  -0.00121799  0.66518628  0.00040505  1
  Cs  Cs7  1  0.00170492  0.66513266  0.33275363  1
  Cs  Cs8  1  -0.00442270  0.66688841  0.66793593  1
  Cs  Cs9  1  0.33202573  0.00187995  -0.00086880  1
  Cs  Cs10  1  0.33250309  -0.00018790  0.33161296  1
  Cs  Cs11  1  0.33233179  -0.00093775  0.67056062  1
  Cs  Cs12  1  0.33284275  0.33061479  0.00083112  1
  Cs  Cs13  1  0.33177073  0.33444017  0.33454872  1
  Cs  Cs14  1  0.33421346  0.33508087  0.66120828  1
  Cs  Cs15  1  0.33432467  0.66806121  0.00298057  1
  Cs  Cs16  1  0.33018554  0.66502336  0.33184946  1
  Cs  Cs17  1  0.34297529  0.66461202  0.66483560  1
  Cs  Cs18  1  0.66495340  0.00471830  0.00203015  1
  Cs  Cs19  1  0.66976603  0.00200070  0.33983292  1
  Cs  Cs20  1  0.66757876  -0.00515261  0.65560793  1
  Cs  Cs21  1  0.66758018  0.33307947  -0.00061238  1
  Cs  Cs22  1  0.66965611  0.32932087  0.33421611  1
  Cs  Cs23  1  0.66331441  0.33369335  0.66898134  1
  Cs  Cs24  1  0.66755830  0.66458140  -0.00307137  1
  Cs  Cs25  1  0.66912092  0.66895739  0.33132781  1
  Cs  Cs26  1  0.66301913  0.67363727  0.67483973  1
  Sn  Sn27  1  0.83331400  0.50063827  0.16757363  1
  Sn  Sn28  1  0.16730508  0.16676910  0.16754442  1
  Sn  Sn29  1  0.50017432  0.49961535  0.16683323  1
  Sn  Sn30  1  0.16700782  0.50042888  0.83406050  1
  Sn  Sn31  1  0.83350970  0.83287546  0.16638128  1
  Sn  Sn32  1  0.16649229  0.16556314  0.49905798  1
  Sn  Sn33  1  0.16663132  0.49983635  0.16566961  1
  Sn  Sn34  1  0.49927637  0.16674645  0.16638613  1
  Sn  Sn35  1  0.16641998  0.83349465  0.16709792  1
  Sn  Sn36  1  0.83271290  0.50013155  0.49991005  1
  Sn  Sn37  1  0.50134677  0.16650746  0.83376935  1
  Sn  Sn38  1  0.83206169  0.16627840  0.83307950  1
  Sn  Sn39  1  0.50026902  0.83369064  0.16667536  1
  Sn  Sn40  1  0.16674175  0.83394061  0.49931203  1
  Pb  Pb41  1  0.16729651  0.16825475  0.83330730  1
  Pb  Pb42  1  0.83459073  0.49862518  0.83375290  1
  Pb  Pb43  1  0.83613671  0.16869159  0.50301609  1
  Pb  Pb44  1  0.83570265  0.83098862  0.49769411  1
  Pb  Pb45  1  0.49728003  0.83323512  0.49712238  1
  Pb  Pb46  1  0.49763113  0.49784479  0.83581339  1
  Pb  Pb47  1  0.83330770  0.83620622  0.83619972  1
  Pb  Pb48  1  0.16542055  0.50062993  0.49978776  1
  Pb  Pb49  1  0.49761137  0.16667259  0.49953623  1
  Pb  Pb50  1  0.49996719  0.83628776  0.83595654  1
  Pb  Pb51  1  0.16685571  0.83022079  0.83344534  1
  Pb  Pb52  1  0.50354153  0.50013883  0.49726665  1
  Pb  Pb53  1  0.83347642  0.16674117  0.16579932  1
  I  I54  1  0.16864010  0.00019327  0.17062931  1
  I  I55  1  0.16617902  0.00023830  0.49070572  1
  I  I56  1  0.16636446  0.00006269  0.83553859  1
  I  I57  1  0.16858197  0.33335663  0.16645465  1
  I  I58  1  0.16556908  0.33135979  0.49666176  1
  I  I59  1  0.16555496  0.33577925  0.83906433  1
  I  I60  1  0.16862254  0.66657423  0.16689426  1
  I  I61  1  0.16472445  0.66910771  0.49431027  1
  I  I62  1  0.16399725  0.66263560  0.83971984  1
  I  I63  1  0.49577478  0.00038706  0.16170404  1
  I  I64  1  0.50297596  0.00008375  0.49759634  1
  I  I65  1  0.50034439  0.00421460  0.84143318  1
  I  I66  1  0.49661745  0.33310539  0.16272175  1
  I  I67  1  0.49591983  0.33334043  0.49705521  1
  I  I68  1  0.50255577  0.33007884  0.84118337  1
  I  I69  1  0.49628549  0.66653237  0.16876434  1
  I  I70  1  0.49543314  0.66660821  0.49846146  1
  I  I71  1  0.49854510  0.66654887  0.83374583  1
  I  I72  1  0.83455264  -0.00241833  0.16350065  1
  I  I73  1  0.83285640  -0.00014686  0.49961222  1
  I  I74  1  0.83260345  0.00405025  0.83621056  1
  I  I75  1  0.83449187  0.33613697  0.16805804  1
  I  I76  1  0.83736665  0.33614961  0.49035651  1
  I  I77  1  0.83171659  0.33085340  0.83750416  1
  I  I78  1  0.83467392  0.66582037  0.17017293  1
  I  I79  1  0.83838873  0.66333325  0.49646642  1
  I  I80  1  0.83595363  0.66664662  0.83184887  1
  I  I81  1  0.16742074  0.16470485  0.00325712  1
  I  I82  1  0.17145876  0.16886892  0.33091088  1
  I  I83  1  0.16545008  0.16487947  0.66425158  1
  I  I84  1  0.16409025  0.49860142  0.00323647  1
  I  I85  1  0.16833903  0.49976049  0.32963161  1
  I  I86  1  0.16261900  0.49708950  0.66851309  1
  I  I87  1  0.16706670  0.83652599  0.00419876  1
  I  I88  1  0.16706714  0.83203980  0.33063127  1
  I  I89  1  0.16487319  0.83848561  0.66374970  1
  I  I90  1  0.49725461  0.16670653  0.00226028  1
  I  I91  1  0.49740288  0.16683099  0.32934844  1
  I  I92  1  0.50154867  0.16876930  0.66943832  1
  I  I93  1  0.50445285  0.50222386  0.00469451  1
  I  I94  1  0.49209196  0.49729733  0.32813592  1
  I  I95  1  0.49787331  0.49707609  0.66693673  1
  I  I96  1  0.49557563  0.83045756  0.00496782  1
  I  I97  1  0.50196717  0.83648650  0.32816532  1
  I  I98  1  0.49828984  0.83422649  0.66657480  1
  I  I99  1  0.83528360  0.16901730  -0.00178218  1
  I  I100  1  0.83150082  0.16545541  0.33335852  1
  I  I101  1  0.82942170  0.17053485  0.67048665  1
  I  I102  1  0.83260011  0.50264673  0.00377945  1
  I  I103  1  0.83702882  0.50231946  0.33048133  1
  I  I104  1  0.84028246  0.49575221  0.66463965  1
  I  I105  1  0.83706323  0.82559335  0.00484259  1
  I  I106  1  0.83143879  0.83326376  0.32905108  1
  I  I107  1  0.83602610  0.83193528  0.66642966  1
  I  I108  1  0.00296219  0.16709685  0.16776557  1
  I  I109  1  0.00388791  0.16445504  0.49328404  1
  I  I110  1  -0.00122797  0.16945433  0.83460334  1
  I  I111  1  0.00061679  0.50194682  0.16666098  1
  I  I112  1  -0.00201566  0.49925633  0.49263827  1
  I  I113  1  0.00249428  0.49575005  0.84014334  1
  I  I114  1  0.00097745  0.83052837  0.17030556  1
  I  I115  1  0.00351726  0.83673764  0.49242278  1
  I  I116  1  0.00022354  0.83688562  0.83664355  1
  I  I117  1  0.33273005  0.16697859  0.16419717  1
  I  I118  1  0.32940495  0.16541931  0.49958266  1
  I  I119  1  0.33557677  0.16801798  0.83684950  1
  I  I120  1  0.33257697  0.50144720  0.16165476  1
  I  I121  1  0.33326167  0.49935974  0.50051244  1
  I  I122  1  0.32976838  0.49730946  0.83872401  1
  I  I123  1  0.33263852  0.83116824  0.16998028  1
  I  I124  1  0.32915394  0.83596386  0.49356060  1
  I  I125  1  0.33319859  0.83617695  0.83576459  1
  I  I126  1  0.66407120  0.16733294  0.16298337  1
  I  I127  1  0.66679242  0.16822888  0.49766125  1
  I  I128  1  0.66584517  0.16929207  0.84315025  1
  I  I129  1  0.66686690  0.50214996  0.17153490  1
  I  I130  1  0.67115202  0.49764792  0.49305944  1
  I  I131  1  0.66636892  0.49891409  0.83424590  1
  I  I132  1  0.66649509  0.82999614  0.16418275  1
  I  I133  1  0.66686540  0.83276936  0.49827400  1
  I  I134  1  0.66664296  0.82936780  0.83569411  1
