# generated using pymatgen
data_Cs27Sn14Pb13I81
_symmetry_space_group_name_H-M   'P 1'
_cell_length_a   18.97601085
_cell_length_b   18.98028998
_cell_length_c   18.97182077
_cell_angle_alpha   89.99882790
_cell_angle_beta   90.00074171
_cell_angle_gamma   89.99975810
_symmetry_Int_Tables_number   1
_chemical_formula_structural   Cs27Sn14Pb13I81
_chemical_formula_sum   'Cs27 Sn14 Pb13 I81'
_cell_volume   6833.08426342
_cell_formula_units_Z   1
loop_
 _symmetry_equiv_pos_site_id
 _symmetry_equiv_pos_as_xyz
  1  'x, y, z'
loop_
 _atom_site_type_symbol
 _atom_site_label
 _atom_site_symmetry_multiplicity
 _atom_site_fract_x
 _atom_site_fract_y
 _atom_site_fract_z
 _atom_site_occupancy
  Cs  Cs0  1  -0.00248532  0.00049553  0.00237243  1
  Cs  Cs1  1  0.00041397  0.00047440  0.33221252  1
  Cs  Cs2  1  0.00032110  -0.00232949  0.66531162  1
  Cs  Cs3  1  0.00127744  0.33265423  -0.00123278  1
  Cs  Cs4  1  0.00381611  0.33283511  0.33619335  1
  Cs  Cs5  1  0.00011591  0.33479776  0.66457804  1
  Cs  Cs6  1  -0.00829044  0.66677202  -0.00637221  1
  Cs  Cs7  1  -0.00180131  0.66609383  0.33383561  1
  Cs  Cs8  1  0.00165865  0.66692277  0.67070716  1
  Cs  Cs9  1  0.33625775  0.00239287  0.00226806  1
  Cs  Cs10  1  0.33194524  -0.00366326  0.32939005  1
  Cs  Cs11  1  0.33425493  -0.00460017  0.66608172  1
  Cs  Cs12  1  0.33371596  0.33067430  -0.00059956  1
  Cs  Cs13  1  0.32941327  0.33732452  0.33225425  1
  Cs  Cs14  1  0.33328734  0.33408735  0.66892345  1
  Cs  Cs15  1  0.33383321  0.66741392  -0.00098553  1
  Cs  Cs16  1  0.33436642  0.66646456  0.33519892  1
  Cs  Cs17  1  0.33018857  0.67145719  0.66543784  1
  Cs  Cs18  1  0.66471392  -0.00075175  -0.00058353  1
  Cs  Cs19  1  0.66852485  0.00115240  0.33603996  1
  Cs  Cs20  1  0.66521742  0.00503251  0.66491742  1
  Cs  Cs21  1  0.66522815  0.33415048  -0.00020995  1
  Cs  Cs22  1  0.66544750  0.33651049  0.33673950  1
  Cs  Cs23  1  0.66535201  0.32848486  0.66469766  1
  Cs  Cs24  1  0.67244130  0.66692548  0.00295067  1
  Cs  Cs25  1  0.66766422  0.66201664  0.33082997  1
  Cs  Cs26  1  0.66667914  0.66675561  0.66530963  1
  Sn  Sn27  1  0.49946007  0.83381938  0.16590220  1
  Sn  Sn28  1  0.50008269  0.83326588  0.83420671  1
  Sn  Sn29  1  0.83336958  0.16673296  0.83420179  1
  Sn  Sn30  1  0.49997791  0.50027426  0.83338234  1
  Sn  Sn31  1  0.83404589  0.50102874  0.50013984  1
  Sn  Sn32  1  0.16680882  0.16642446  0.83205841  1
  Sn  Sn33  1  0.49981821  0.16646388  0.83406897  1
  Sn  Sn34  1  0.83196379  0.16705874  0.16621491  1
  Sn  Sn35  1  0.16595636  0.49958204  0.49957784  1
  Sn  Sn36  1  0.50116349  0.16639036  0.16651162  1
  Sn  Sn37  1  0.16641620  0.50187068  0.16642741  1
  Sn  Sn38  1  0.16722044  0.16680130  0.50107754  1
  Sn  Sn39  1  0.83329309  0.83224987  0.49999673  1
  Sn  Sn40  1  0.16671000  0.83141561  0.16614265  1
  Pb  Pb41  1  0.16819767  0.49848169  0.83324111  1
  Pb  Pb42  1  0.16708440  0.16670327  0.16643863  1
  Pb  Pb43  1  0.83097558  0.49753112  0.83095353  1
  Pb  Pb44  1  0.16500688  0.83290065  0.49805300  1
  Pb  Pb45  1  0.83277487  0.83513907  0.16813631  1
  Pb  Pb46  1  0.49814376  0.50001863  0.16470997  1
  Pb  Pb47  1  0.83594046  0.49706771  0.16842385  1
  Pb  Pb48  1  0.83068673  0.83579346  0.83119837  1
  Pb  Pb49  1  0.49922995  0.50001691  0.50243514  1
  Pb  Pb50  1  0.50233674  0.83335759  0.49915458  1
  Pb  Pb51  1  0.49673381  0.16662369  0.49925543  1
  Pb  Pb52  1  0.83533372  0.16712317  0.49998490  1
  Pb  Pb53  1  0.16844242  0.83600802  0.83619694  1
  I  I54  1  0.16825437  -0.00161182  0.16682701  1
  I  I55  1  0.16471720  0.00228781  0.50227136  1
  I  I56  1  0.16855122  0.00437057  0.82827001  1
  I  I57  1  0.16652033  0.33496114  0.16876332  1
  I  I58  1  0.16092334  0.33374172  0.49731182  1
  I  I59  1  0.16986634  0.32994061  0.83476437  1
  I  I60  1  0.17399061  0.66670190  0.17425656  1
  I  I61  1  0.16496392  0.66374451  0.49715224  1
  I  I62  1  0.17008041  0.66693580  0.83054222  1
  I  I63  1  0.49674905  0.00046811  0.15869583  1
  I  I64  1  0.50127923  0.00012012  0.50468950  1
  I  I65  1  0.49986309  0.00119462  0.83766890  1
  I  I66  1  0.50150671  0.33038113  0.16193821  1
  I  I67  1  0.50500878  0.33320764  0.50050376  1
  I  I68  1  0.49945361  0.33134536  0.83639645  1
  I  I69  1  0.49700504  0.66950295  0.16256843  1
  I  I70  1  0.49641082  0.66669898  0.50172932  1
  I  I71  1  0.49860267  0.66741905  0.83627724  1
  I  I72  1  0.83533473  0.00319651  0.16599971  1
  I  I73  1  0.83411469  -0.00122704  0.49978317  1
  I  I74  1  0.83183225  0.00401034  0.83415834  1
  I  I75  1  0.82852448  0.32911818  0.16448628  1
  I  I76  1  0.83651436  0.33541474  0.50033216  1
  I  I77  1  0.83106338  0.32928471  0.83458761  1
  I  I78  1  0.83120119  0.66644524  0.16761739  1
  I  I79  1  0.83864398  0.66585935  0.49898263  1
  I  I80  1  0.83145358  0.66665553  0.83337899  1
  I  I81  1  0.16752120  0.16698497  -0.00240190  1
  I  I82  1  0.16520477  0.16798638  0.33510308  1
  I  I83  1  0.16614478  0.17282135  0.66712905  1
  I  I84  1  0.17049055  0.50017172  0.00240777  1
  I  I85  1  0.16454012  0.49540282  0.33395540  1
  I  I86  1  0.16417455  0.49592494  0.66389222  1
  I  I87  1  0.16767667  0.82957544  0.00417641  1
  I  I88  1  0.17306409  0.83634428  0.33015911  1
  I  I89  1  0.16791512  0.83222697  0.66691818  1
  I  I90  1  0.49789290  0.16601278  -0.00090106  1
  I  I91  1  0.50393341  0.16110653  0.32970035  1
  I  I92  1  0.50334266  0.16608326  0.67004661  1
  I  I93  1  0.49696737  0.49723930  -0.00318129  1
  I  I94  1  0.50125297  0.49959180  0.33321311  1
  I  I95  1  0.49876187  0.49732009  0.67054886  1
  I  I96  1  0.49549799  0.83635400  0.00025391  1
  I  I97  1  0.49663028  0.83934610  0.32958447  1
  I  I98  1  0.50169516  0.83573409  0.66967304  1
  I  I99  1  0.83529323  0.16561181  -0.00042262  1
  I  I100  1  0.83069881  0.16579220  0.33101352  1
  I  I101  1  0.82978139  0.16669008  0.66926296  1
  I  I102  1  0.83452081  0.50046303  -0.00010000  1
  I  I103  1  0.83357312  0.50068357  0.33649361  1
  I  I104  1  0.84068643  0.50164369  0.66313425  1
  I  I105  1  0.83547767  0.83334512  -0.00005495  1
  I  I106  1  0.83209181  0.83348298  0.33595191  1
  I  I107  1  0.83336355  0.83206189  0.66352454  1
  I  I108  1  -0.00161167  0.16648254  0.16404431  1
  I  I109  1  0.00309269  0.16809221  0.50254695  1
  I  I110  1  0.00009220  0.16793684  0.83411718  1
  I  I111  1  0.00400535  0.50310880  0.16797975  1
  I  I112  1  0.00102136  0.49810753  0.49592722  1
  I  I113  1  -0.00005595  0.49710193  0.83486663  1
  I  I114  1  0.00220143  0.83351477  0.17076265  1
  I  I115  1  -0.00266921  0.83428784  0.49751314  1
  I  I116  1  -0.00011906  0.83548500  0.83387910  1
  I  I117  1  0.33583561  0.16559899  0.16313058  1
  I  I118  1  0.32888822  0.17294690  0.50340642  1
  I  I119  1  0.33448286  0.16750859  0.83419817  1
  I  I120  1  0.33021521  0.49764223  0.17320973  1
  I  I121  1  0.32982686  0.49458327  0.49684216  1
  I  I122  1  0.33620330  0.49591728  0.83190253  1
  I  I123  1  0.33409112  0.83761112  0.16450018  1
  I  I124  1  0.33329960  0.83341507  0.50160644  1
  I  I125  1  0.33675234  0.83614623  0.83291257  1
  I  I126  1  0.66556421  0.16096094  0.15916384  1
  I  I127  1  0.66669607  0.16722619  0.50210609  1
  I  I128  1  0.66564869  0.16650394  0.83740677  1
  I  I129  1  0.66675809  0.50155665  0.16810188  1
  I  I130  1  0.66926551  0.50311951  0.50178013  1
  I  I131  1  0.66303749  0.49723443  0.83264810  1
  I  I132  1  0.66347293  0.83685878  0.16336857  1
  I  I133  1  0.67008814  0.82887435  0.49887975  1
  I  I134  1  0.66256309  0.83532188  0.83980874  1
