# generated using pymatgen
data_Cs27Sn13Pb14I81
_symmetry_space_group_name_H-M   'P 1'
_cell_length_a   18.97886918
_cell_length_b   18.96817594
_cell_length_c   18.98866937
_cell_angle_alpha   89.99965500
_cell_angle_beta   89.99873710
_cell_angle_gamma   90.00177019
_symmetry_Int_Tables_number   1
_chemical_formula_structural   Cs27Sn13Pb14I81
_chemical_formula_sum   'Cs27 Sn13 Pb14 I81'
_cell_volume   6835.81709516
_cell_formula_units_Z   1
loop_
 _symmetry_equiv_pos_site_id
 _symmetry_equiv_pos_as_xyz
  1  'x, y, z'
loop_
 _atom_site_type_symbol
 _atom_site_label
 _atom_site_symmetry_multiplicity
 _atom_site_fract_x
 _atom_site_fract_y
 _atom_site_fract_z
 _atom_site_occupancy
  Cs  Cs0  1  0.00039770  0.00028682  -0.00035537  1
  Cs  Cs1  1  0.00012983  -0.00206618  0.33291156  1
  Cs  Cs2  1  0.00073951  0.00005911  0.66721904  1
  Cs  Cs3  1  -0.00117982  0.33410174  0.00250690  1
  Cs  Cs4  1  0.00031160  0.33367961  0.33123553  1
  Cs  Cs5  1  -0.00406776  0.33124891  0.66627678  1
  Cs  Cs6  1  0.00103522  0.66604219  -0.00150126  1
  Cs  Cs7  1  -0.00002411  0.66928503  0.33579371  1
  Cs  Cs8  1  0.00570293  0.67050062  0.66695560  1
  Cs  Cs9  1  0.33305099  -0.00137609  0.00021860  1
  Cs  Cs10  1  0.33482571  0.00219836  0.33160284  1
  Cs  Cs11  1  0.33076620  -0.00188428  0.66835740  1
  Cs  Cs12  1  0.33156168  0.33405771  0.00274472  1
  Cs  Cs13  1  0.33179248  0.33273388  0.33179000  1
  Cs  Cs14  1  0.33557243  0.33645309  0.66572658  1
  Cs  Cs15  1  0.33185006  0.66913626  -0.01008052  1
  Cs  Cs16  1  0.33249038  0.66632809  0.34326450  1
  Cs  Cs17  1  0.33218331  0.66658964  0.66882466  1
  Cs  Cs18  1  0.66644096  -0.00058414  0.00108378  1
  Cs  Cs19  1  0.66644399  -0.00416532  0.33194039  1
  Cs  Cs20  1  0.66755031  0.00327544  0.66584418  1
  Cs  Cs21  1  0.66860668  0.33292845  0.00086275  1
  Cs  Cs22  1  0.66699146  0.33306274  0.33241888  1
  Cs  Cs23  1  0.66784886  0.33223576  0.66670520  1
  Cs  Cs24  1  0.66624199  0.66776637  0.00175701  1
  Cs  Cs25  1  0.66733265  0.67324033  0.33170696  1
  Cs  Cs26  1  0.66065507  0.66531821  0.66613765  1
  Sn  Sn27  1  0.83285355  0.83210060  0.83324809  1
  Sn  Sn28  1  0.83324871  0.50143109  0.83312671  1
  Sn  Sn29  1  0.16767693  0.16724473  0.83273638  1
  Sn  Sn30  1  0.83263500  0.16699428  0.16765204  1
  Sn  Sn31  1  0.50008598  0.16695605  0.49980176  1
  Sn  Sn32  1  0.83335010  0.16726878  0.49849618  1
  Sn  Sn33  1  0.50041657  0.49958098  0.16662966  1
  Sn  Sn34  1  0.49876159  0.16698649  0.83362593  1
  Sn  Sn35  1  0.16688861  0.83290744  0.16681417  1
  Sn  Sn36  1  0.50111352  0.16744092  0.16652478  1
  Sn  Sn37  1  0.83322541  0.49944324  0.49969649  1
  Sn  Sn38  1  0.16656442  0.16694119  0.50089056  1
  Sn  Sn39  1  0.83251861  0.49937831  0.16708094  1
  Pb  Pb40  1  0.83461674  0.83308753  0.16506490  1
  Pb  Pb41  1  0.50234233  0.49789098  0.49768025  1
  Pb  Pb42  1  0.50236402  0.83564774  0.83331561  1
  Pb  Pb43  1  0.16667295  0.83580147  0.49809417  1
  Pb  Pb44  1  0.16484231  0.83561416  0.83471702  1
  Pb  Pb45  1  0.50216240  0.49761470  0.83544047  1
  Pb  Pb46  1  0.16446190  0.49724664  0.83325237  1
  Pb  Pb47  1  0.83317131  0.83327286  0.50261608  1
  Pb  Pb48  1  0.50002504  0.83560156  0.50013436  1
  Pb  Pb49  1  0.83312414  0.16720651  0.83357263  1
  Pb  Pb50  1  0.16664812  0.16578474  0.16680926  1
  Pb  Pb51  1  0.49749309  0.83264844  0.16664434  1
  Pb  Pb52  1  0.16434183  0.49750271  0.50003792  1
  Pb  Pb53  1  0.16707452  0.50286919  0.16668213  1
  I  I54  1  0.16484636  -0.00144954  0.16630651  1
  I  I55  1  0.16303277  0.00479659  0.50358518  1
  I  I56  1  0.16648998  0.00388007  0.83033390  1
  I  I57  1  0.16556919  0.33331284  0.16641753  1
  I  I58  1  0.16808731  0.32866739  0.50141524  1
  I  I59  1  0.16746641  0.32888213  0.83181911  1
  I  I60  1  0.16349829  0.67011054  0.16509855  1
  I  I61  1  0.16403437  0.66659453  0.49786617  1
  I  I62  1  0.16617798  0.66672394  0.83565272  1
  I  I63  1  0.50361140  0.00373772  0.16727930  1
  I  I64  1  0.50410783  0.00561665  0.49641349  1
  I  I65  1  0.49983822  0.00476399  0.83609614  1
  I  I66  1  0.50449962  0.33136179  0.16639145  1
  I  I67  1  0.49871625  0.32887796  0.50214117  1
  I  I68  1  0.49972132  0.32898791  0.83130860  1
  I  I69  1  0.50689953  0.66326165  0.16650721  1
  I  I70  1  0.50251237  0.66587771  0.49704230  1
  I  I71  1  0.49985679  0.66621959  0.83613165  1
  I  I72  1  0.83070377  0.00319475  0.16870817  1
  I  I73  1  0.83302437  0.00393758  0.49748014  1
  I  I74  1  0.83380952  -0.00104758  0.83426950  1
  I  I75  1  0.83104534  0.33264708  0.16467652  1
  I  I76  1  0.83371504  0.33177277  0.50162318  1
  I  I77  1  0.83345470  0.33549343  0.83390839  1
  I  I78  1  0.83009143  0.66318379  0.16883224  1
  I  I79  1  0.83331327  0.66326551  0.49561396  1
  I  I80  1  0.83419093  0.66538452  0.83562379  1
  I  I81  1  0.16807477  0.16428868  -0.00197335  1
  I  I82  1  0.16752852  0.16471468  0.33579628  1
  I  I83  1  0.16710268  0.16604927  0.66627916  1
  I  I84  1  0.16270901  0.49634351  0.00009254  1
  I  I85  1  0.16395218  0.49757202  0.33321638  1
  I  I86  1  0.16447441  0.50126428  0.66665428  1
  I  I87  1  0.16514987  0.83762304  0.00228841  1
  I  I88  1  0.16385849  0.83635719  0.33050182  1
  I  I89  1  0.16419918  0.83471718  0.66675994  1
  I  I90  1  0.50115620  0.16957674  0.00078990  1
  I  I91  1  0.50018987  0.17004108  0.33287111  1
  I  I92  1  0.50159771  0.16483377  0.66634247  1
  I  I93  1  0.50660137  0.49270394  0.00344328  1
  I  I94  1  0.50533520  0.49311389  0.32962174  1
  I  I95  1  0.50318948  0.49719602  0.66662296  1
  I  I96  1  0.50020702  0.83800473  0.00007974  1
  I  I97  1  0.50098101  0.83677417  0.33303885  1
  I  I98  1  0.50108258  0.83562686  0.66688376  1
  I  I99  1  0.83132747  0.16901380  0.00249161  1
  I  I100  1  0.83209867  0.17289349  0.33316810  1
  I  I101  1  0.83148717  0.16906227  0.66439727  1
  I  I102  1  0.83031533  0.49804585  0.00086583  1
  I  I103  1  0.83054964  0.49283765  0.33269817  1
  I  I104  1  0.83503847  0.49639743  0.66636361  1
  I  I105  1  0.83494729  0.83235795  -0.00257605  1
  I  I106  1  0.83496221  0.83279748  0.33334901  1
  I  I107  1  0.83478574  0.83299094  0.67026453  1
  I  I108  1  -0.00291592  0.16943927  0.16825420  1
  I  I109  1  -0.00102034  0.17019027  0.50067867  1
  I  I110  1  0.00152143  0.16627468  0.83068958  1
  I  I111  1  -0.00377632  0.49484845  0.16618826  1
  I  I112  1  -0.00454609  0.49307486  0.49654498  1
  I  I113  1  -0.00446024  0.49983816  0.83706314  1
  I  I114  1  0.00195891  0.83667777  0.16513323  1
  I  I115  1  -0.00026527  0.83709058  0.49942809  1
  I  I116  1  -0.00310062  0.83286034  0.83476142  1
  I  I117  1  0.33625673  0.16903701  0.16865976  1
  I  I118  1  0.33378900  0.16435329  0.49933529  1
  I  I119  1  0.33388046  0.16539163  0.83154210  1
  I  I120  1  0.33664169  0.49282562  0.16670805  1
  I  I121  1  0.33372515  0.49808060  0.49686754  1
  I  I122  1  0.33370798  0.50019120  0.83617947  1
  I  I123  1  0.33031551  0.83834793  0.16570871  1
  I  I124  1  0.33315899  0.83537027  0.49857694  1
  I  I125  1  0.33323989  0.83439909  0.83548309  1
  I  I126  1  0.66712980  0.16928787  0.16806210  1
  I  I127  1  0.66724145  0.17039990  0.50074511  1
  I  I128  1  0.66457142  0.16667394  0.83177662  1
  I  I129  1  0.66825306  0.49415465  0.16579597  1
  I  I130  1  0.67077800  0.49226093  0.50287495  1
  I  I131  1  0.67070111  0.49962814  0.83184325  1
  I  I132  1  0.66661957  0.83496391  0.16532085  1
  I  I133  1  0.66706736  0.83750660  0.49881556  1
  I  I134  1  0.67038139  0.83266424  0.83575633  1
