# generated using pymatgen
data_Cs27Sn14Pb13I81
_symmetry_space_group_name_H-M   'P 1'
_cell_length_a   18.95752841
_cell_length_b   18.96439062
_cell_length_c   18.96035835
_cell_angle_alpha   89.99951769
_cell_angle_beta   90.00118718
_cell_angle_gamma   89.99977865
_symmetry_Int_Tables_number   1
_chemical_formula_structural   Cs27Sn14Pb13I81
_chemical_formula_sum   'Cs27 Sn14 Pb13 I81'
_cell_volume   6816.58961783
_cell_formula_units_Z   1
loop_
 _symmetry_equiv_pos_site_id
 _symmetry_equiv_pos_as_xyz
  1  'x, y, z'
loop_
 _atom_site_type_symbol
 _atom_site_label
 _atom_site_symmetry_multiplicity
 _atom_site_fract_x
 _atom_site_fract_y
 _atom_site_fract_z
 _atom_site_occupancy
  Cs  Cs0  1  0.00102298  -0.00202210  -0.00202984  1
  Cs  Cs1  1  -0.00059287  0.00092822  0.33491875  1
  Cs  Cs2  1  -0.00172346  -0.00106184  0.66770819  1
  Cs  Cs3  1  0.00178707  0.33404292  -0.00341102  1
  Cs  Cs4  1  0.00201113  0.33306610  0.33711097  1
  Cs  Cs5  1  -0.00186793  0.33624877  0.66805598  1
  Cs  Cs6  1  0.00144229  0.66916389  0.00185314  1
  Cs  Cs7  1  -0.00358577  0.66508425  0.33358865  1
  Cs  Cs8  1  0.00163794  0.66827682  0.66447658  1
  Cs  Cs9  1  0.33294099  0.00002515  0.00019750  1
  Cs  Cs10  1  0.33215560  0.00159012  0.33374607  1
  Cs  Cs11  1  0.33398263  -0.00278084  0.66607359  1
  Cs  Cs12  1  0.33218887  0.33348080  0.00231610  1
  Cs  Cs13  1  0.33167445  0.33124288  0.33097109  1
  Cs  Cs14  1  0.33281001  0.33462246  0.66583097  1
  Cs  Cs15  1  0.33202667  0.66639436  -0.00058902  1
  Cs  Cs16  1  0.33368421  0.66710330  0.33606054  1
  Cs  Cs17  1  0.33973099  0.66769147  0.66170194  1
  Cs  Cs18  1  0.66645063  0.00064497  0.00089736  1
  Cs  Cs19  1  0.66782601  0.00123259  0.33307629  1
  Cs  Cs20  1  0.66788232  0.00098329  0.66559794  1
  Cs  Cs21  1  0.66779377  0.33238903  -0.00200646  1
  Cs  Cs22  1  0.66590296  0.33117198  0.33327511  1
  Cs  Cs23  1  0.66907107  0.33567444  0.66825183  1
  Cs  Cs24  1  0.66673686  0.66477910  0.00214828  1
  Cs  Cs25  1  0.67068581  0.66362984  0.33090747  1
  Cs  Cs26  1  0.65783874  0.66144627  0.66606302  1
  Sn  Sn27  1  0.16751770  0.16646562  0.83331506  1
  Sn  Sn28  1  0.16744149  0.50100942  0.16606496  1
  Sn  Sn29  1  0.83256616  0.16591245  0.49925854  1
  Sn  Sn30  1  0.83310566  0.16660172  0.16701349  1
  Sn  Sn31  1  0.49919378  0.83335894  0.16652785  1
  Sn  Sn32  1  0.83300162  0.83375093  0.50134231  1
  Sn  Sn33  1  0.49907143  0.16638253  0.83331861  1
  Sn  Sn34  1  0.50070012  0.16652974  0.16664542  1
  Sn  Sn35  1  0.83319574  0.83322493  0.83231416  1
  Sn  Sn36  1  0.16635188  0.83283983  0.83375079  1
  Sn  Sn37  1  0.50058433  0.16636271  0.49999679  1
  Sn  Sn38  1  0.16756226  0.83272818  0.16630738  1
  Sn  Sn39  1  0.49920441  0.49991158  0.16641363  1
  Sn  Sn40  1  0.16689262  0.50075531  0.83384182  1
  Pb  Pb41  1  0.50261346  0.83531984  0.49697855  1
  Pb  Pb42  1  0.16653615  0.16649655  0.16508017  1
  Pb  Pb43  1  0.83314501  0.49977678  0.50017952  1
  Pb  Pb44  1  0.16687820  0.50020581  0.49965185  1
  Pb  Pb45  1  0.16473481  0.83339911  0.49972487  1
  Pb  Pb46  1  0.49774324  0.49742457  0.83552604  1
  Pb  Pb47  1  0.83321459  0.16533726  0.83314175  1
  Pb  Pb48  1  0.49984462  0.83496984  0.83510277  1
  Pb  Pb49  1  0.83371690  0.83512439  0.16656240  1
  Pb  Pb50  1  0.16637898  0.16652808  0.50335360  1
  Pb  Pb51  1  0.49994770  0.49706849  0.49700741  1
  Pb  Pb52  1  0.83578305  0.50381642  0.83351764  1
  Pb  Pb53  1  0.83407895  0.49674669  0.16647516  1
  I  I54  1  0.16901215  -0.00249778  0.16198696  1
  I  I55  1  0.16807546  0.00012083  0.49870516  1
  I  I56  1  0.16604553  -0.00067161  0.83777635  1
  I  I57  1  0.16947562  0.33550161  0.16212901  1
  I  I58  1  0.16455020  0.33306378  0.49923264  1
  I  I59  1  0.17127437  0.33319377  0.83781386  1
  I  I60  1  0.17345450  0.66719624  0.15860990  1
  I  I61  1  0.16399674  0.66692558  0.50306409  1
  I  I62  1  0.15982202  0.66746181  0.83939507  1
  I  I63  1  0.49994193  0.00099454  0.16618357  1
  I  I64  1  0.50146712  0.00374628  0.49758474  1
  I  I65  1  0.49510756  0.00342219  0.83683005  1
  I  I66  1  0.49928254  0.33226297  0.16700202  1
  I  I67  1  0.50620578  0.32859180  0.49898038  1
  I  I68  1  0.49617126  0.32899998  0.83559106  1
  I  I69  1  0.49566056  0.66697226  0.16549306  1
  I  I70  1  0.50115774  0.66682194  0.49945654  1
  I  I71  1  0.50069272  0.66663968  0.83497393  1
  I  I72  1  0.82923591  0.00304615  0.16742237  1
  I  I73  1  0.83023039  0.00102781  0.49955963  1
  I  I74  1  0.83953875  -0.00241411  0.83337816  1
  I  I75  1  0.82939127  0.32862702  0.17186179  1
  I  I76  1  0.82976519  0.32945483  0.49539318  1
  I  I77  1  0.83462222  0.33323525  0.83313004  1
  I  I78  1  0.83047109  0.66686081  0.16716063  1
  I  I79  1  0.83635750  0.66995148  0.50270333  1
  I  I80  1  0.83811533  0.67192995  0.82970110  1
  I  I81  1  0.16944221  0.16600827  -0.00305524  1
  I  I82  1  0.16794977  0.16701712  0.33320854  1
  I  I83  1  0.16977054  0.16610585  0.67163935  1
  I  I84  1  0.17043395  0.50025372  0.00041546  1
  I  I85  1  0.17000993  0.50358461  0.32929275  1
  I  I86  1  0.16439863  0.49899320  0.67025409  1
  I  I87  1  0.16406086  0.83348450  -0.00026821  1
  I  I88  1  0.16922606  0.82954309  0.32970686  1
  I  I89  1  0.16360043  0.83406045  0.67009039  1
  I  I90  1  0.50032207  0.16646736  0.00117985  1
  I  I91  1  0.50519940  0.16684868  0.33212848  1
  I  I92  1  0.49995791  0.16529129  0.66688408  1
  I  I93  1  0.49828172  0.49738063  0.00391862  1
  I  I94  1  0.49374339  0.49820741  0.32859971  1
  I  I95  1  0.49860809  0.49864396  0.66681415  1
  I  I96  1  0.50088213  0.83705128  0.00352233  1
  I  I97  1  0.49512492  0.83603463  0.32873428  1
  I  I98  1  0.49778463  0.83583567  0.66654710  1
  I  I99  1  0.82970767  0.16492287  0.00209644  1
  I  I100  1  0.82593463  0.16097846  0.33339639  1
  I  I101  1  0.83066401  0.16371451  0.66418181  1
  I  I102  1  0.83106933  0.49843128  0.00014124  1
  I  I103  1  0.83594241  0.50417898  0.33302294  1
  I  I104  1  0.83604052  0.49441040  0.66696217  1
  I  I105  1  0.83584487  0.83620963  -0.00203610  1
  I  I106  1  0.83281854  0.83711238  0.33527296  1
  I  I107  1  0.84080232  0.84138963  0.66704409  1
  I  I108  1  -0.00227548  0.16544097  0.16957528  1
  I  I109  1  -0.00334290  0.16325677  0.49527543  1
  I  I110  1  0.00259497  0.16763123  0.83473653  1
  I  I111  1  0.00364549  0.50408794  0.16269362  1
  I  I112  1  0.00002938  0.49649253  0.49729139  1
  I  I113  1  0.00435359  0.49256597  0.84052802  1
  I  I114  1  0.00282648  0.83075628  0.16508066  1
  I  I115  1  -0.00335110  0.84096211  0.49907909  1
  I  I116  1  0.00142798  0.83652827  0.83595118  1
  I  I117  1  0.33627042  0.16668399  0.16848720  1
  I  I118  1  0.33644544  0.16774792  0.49597848  1
  I  I119  1  0.33342241  0.16463753  0.83506732  1
  I  I120  1  0.33326589  0.49760523  0.16268509  1
  I  I121  1  0.33353868  0.49817441  0.50171422  1
  I  I122  1  0.32938075  0.50412377  0.83605273  1
  I  I123  1  0.33295262  0.83566085  0.16095799  1
  I  I124  1  0.33379896  0.83479444  0.50187699  1
  I  I125  1  0.33018821  0.83323264  0.83707388  1
  I  I126  1  0.66491077  0.16584352  0.16514408  1
  I  I127  1  0.66653588  0.16227622  0.49950477  1
  I  I128  1  0.66404915  0.16399911  0.83493400  1
  I  I129  1  0.66364341  0.50226929  0.16806469  1
  I  I130  1  0.66642195  0.50206457  0.49825604  1
  I  I131  1  0.66631933  0.49900139  0.83444825  1
  I  I132  1  0.66424102  0.83285842  0.16648606  1
  I  I133  1  0.67054209  0.83705517  0.50488578  1
  I  I134  1  0.66890339  0.83852864  0.83215456  1
