# generated using pymatgen
data_Cs27Sn14Pb13I81
_symmetry_space_group_name_H-M   'P 1'
_cell_length_a   18.98394391
_cell_length_b   18.97591086
_cell_length_c   18.97027323
_cell_angle_alpha   89.99765898
_cell_angle_beta   90.00078695
_cell_angle_gamma   89.99931182
_symmetry_Int_Tables_number   1
_chemical_formula_structural   Cs27Sn14Pb13I81
_chemical_formula_sum   'Cs27 Sn14 Pb13 I81'
_cell_volume   6833.80621410
_cell_formula_units_Z   1
loop_
 _symmetry_equiv_pos_site_id
 _symmetry_equiv_pos_as_xyz
  1  'x, y, z'
loop_
 _atom_site_type_symbol
 _atom_site_label
 _atom_site_symmetry_multiplicity
 _atom_site_fract_x
 _atom_site_fract_y
 _atom_site_fract_z
 _atom_site_occupancy
  Cs  Cs0  1  -0.00054227  0.00086642  -0.00036781  1
  Cs  Cs1  1  -0.00034102  -0.00201363  0.33400960  1
  Cs  Cs2  1  0.00183260  -0.00173347  0.66556093  1
  Cs  Cs3  1  0.00181980  0.33212917  0.00198128  1
  Cs  Cs4  1  0.00007033  0.33420588  0.33324196  1
  Cs  Cs5  1  0.00003312  0.33358750  0.66331657  1
  Cs  Cs6  1  0.00021545  0.66783799  -0.00058565  1
  Cs  Cs7  1  0.00225464  0.66865850  0.33230696  1
  Cs  Cs8  1  -0.00084487  0.66888901  0.66804435  1
  Cs  Cs9  1  0.33370730  0.00196906  -0.00030110  1
  Cs  Cs10  1  0.33467454  -0.00187128  0.33572529  1
  Cs  Cs11  1  0.33295002  -0.00028434  0.66455354  1
  Cs  Cs12  1  0.33231456  0.33234621  0.00105151  1
  Cs  Cs13  1  0.33151527  0.33327499  0.33244155  1
  Cs  Cs14  1  0.33276300  0.33269429  0.66586063  1
  Cs  Cs15  1  0.33404257  0.66790823  -0.00158485  1
  Cs  Cs16  1  0.33140216  0.66871551  0.33294326  1
  Cs  Cs17  1  0.33747268  0.66677885  0.66842345  1
  Cs  Cs18  1  0.66760470  0.00304733  0.00239448  1
  Cs  Cs19  1  0.66662454  -0.00222805  0.33199589  1
  Cs  Cs20  1  0.66381725  -0.00026659  0.66400060  1
  Cs  Cs21  1  0.66549715  0.33048639  0.00052421  1
  Cs  Cs22  1  0.66811611  0.33459331  0.33578414  1
  Cs  Cs23  1  0.66681959  0.34317549  0.66018415  1
  Cs  Cs24  1  0.66522624  0.66633205  -0.00557760  1
  Cs  Cs25  1  0.66523106  0.66941757  0.33388723  1
  Cs  Cs26  1  0.66072692  0.65532883  0.67396739  1
  Sn  Sn27  1  0.16591897  0.83459249  0.16709121  1
  Sn  Sn28  1  0.83367271  0.83291765  0.49986856  1
  Sn  Sn29  1  0.83423809  0.83310610  0.16701627  1
  Sn  Sn30  1  0.83327354  0.16676964  0.83338041  1
  Sn  Sn31  1  0.50002682  0.16764195  0.16652423  1
  Sn  Sn32  1  0.16615522  0.49918671  0.83234259  1
  Sn  Sn33  1  0.16567674  0.83219817  0.49922780  1
  Sn  Sn34  1  0.50103130  0.49927325  0.16666812  1
  Sn  Sn35  1  0.16655915  0.16548691  0.16619565  1
  Sn  Sn36  1  0.83222869  0.50019776  0.16645627  1
  Sn  Sn37  1  0.83350505  0.16678946  0.16635701  1
  Sn  Sn38  1  0.16641081  0.16748612  0.83403873  1
  Sn  Sn39  1  0.16632688  0.50100137  0.50119808  1
  Sn  Sn40  1  0.50027031  0.16691542  0.83383254  1
  Pb  Pb41  1  0.49753859  0.49722792  0.83594925  1
  Pb  Pb42  1  0.16655976  0.16624244  0.49989132  1
  Pb  Pb43  1  0.50023637  0.83636534  0.83355905  1
  Pb  Pb44  1  0.49716858  0.49995462  0.49700341  1
  Pb  Pb45  1  0.83314800  0.83554781  0.83344133  1
  Pb  Pb46  1  0.50027251  0.16686405  0.49966887  1
  Pb  Pb47  1  0.83563553  0.49725383  0.83579754  1
  Pb  Pb48  1  0.50036880  0.83304731  0.50008717  1
  Pb  Pb49  1  0.16667758  0.83376517  0.83346899  1
  Pb  Pb50  1  0.83334858  0.16451798  0.49979921  1
  Pb  Pb51  1  0.16656545  0.50019372  0.16646356  1
  Pb  Pb52  1  0.50019381  0.83362300  0.16649563  1
  Pb  Pb53  1  0.83554578  0.50287600  0.49756666  1
  I  I54  1  0.16432490  0.00084102  0.16643673  1
  I  I55  1  0.16298632  -0.00297812  0.49844532  1
  I  I56  1  0.16703387  0.00359711  0.83499620  1
  I  I57  1  0.16472065  0.33073064  0.16590415  1
  I  I58  1  0.16807660  0.33557070  0.49993601  1
  I  I59  1  0.16685592  0.33167806  0.83486051  1
  I  I60  1  0.16383918  0.66893877  0.16748241  1
  I  I61  1  0.16267985  0.66751983  0.49733664  1
  I  I62  1  0.16642794  0.66418265  0.83423510  1
  I  I63  1  0.50138123  0.00347392  0.16224560  1
  I  I64  1  0.49654673  -0.00005521  0.49886229  1
  I  I65  1  0.49610943  0.00518592  0.84154788  1
  I  I66  1  0.50141868  0.33186031  0.16288242  1
  I  I67  1  0.49791724  0.33353365  0.50063841  1
  I  I68  1  0.50120648  0.32922949  0.83746875  1
  I  I69  1  0.50139102  0.66399029  0.16858762  1
  I  I70  1  0.50054930  0.66642554  0.49712668  1
  I  I71  1  0.49786947  0.66584663  0.83439705  1
  I  I72  1  0.83401874  0.00066219  0.16655118  1
  I  I73  1  0.84185956  -0.00331147  0.49345604  1
  I  I74  1  0.83697939  0.00407926  0.84013147  1
  I  I75  1  0.83411455  0.33226070  0.16164748  1
  I  I76  1  0.83453877  0.33370894  0.49895658  1
  I  I77  1  0.83217755  0.32906117  0.84027057  1
  I  I78  1  0.83529581  0.66721553  0.17230608  1
  I  I79  1  0.83728663  0.67071494  0.49234248  1
  I  I80  1  0.83596067  0.66633239  0.83511739  1
  I  I81  1  0.16661897  0.16711320  0.00095362  1
  I  I82  1  0.16625986  0.16685604  0.32978756  1
  I  I83  1  0.16743314  0.16731455  0.66988425  1
  I  I84  1  0.16685108  0.49777439  -0.00178624  1
  I  I85  1  0.16685481  0.50104711  0.33487151  1
  I  I86  1  0.16622189  0.49869541  0.66694546  1
  I  I87  1  0.16226747  0.83414776  0.00325711  1
  I  I88  1  0.16304369  0.83295063  0.33229573  1
  I  I89  1  0.16202677  0.83332293  0.66375719  1
  I  I90  1  0.49919730  0.17015452  0.00143610  1
  I  I91  1  0.49929729  0.16935009  0.32896788  1
  I  I92  1  0.49764991  0.16396273  0.67016907  1
  I  I93  1  0.50108219  0.49819112  0.00378521  1
  I  I94  1  0.50161915  0.49231650  0.32902640  1
  I  I95  1  0.50072748  0.49885254  0.66695286  1
  I  I96  1  0.49813854  0.82997781  0.00058858  1
  I  I97  1  0.49863410  0.83668386  0.33292904  1
  I  I98  1  0.49851848  0.83678214  0.66663077  1
  I  I99  1  0.83398391  0.16437595  0.00177228  1
  I  I100  1  0.83418301  0.16837335  0.32927788  1
  I  I101  1  0.83496705  0.16373038  0.66979440  1
  I  I102  1  0.83288719  0.50503332  0.00420140  1
  I  I103  1  0.83289181  0.49313703  0.32920124  1
  I  I104  1  0.83294220  0.49951627  0.66673194  1
  I  I105  1  0.83860216  0.83251251  0.00380570  1
  I  I106  1  0.83829959  0.83595753  0.33133118  1
  I  I107  1  0.84067662  0.83771825  0.66366628  1
  I  I108  1  0.00006759  0.16639084  0.16108469  1
  I  I109  1  0.00016716  0.16891965  0.50011027  1
  I  I110  1  0.00061201  0.16966760  0.84081601  1
  I  I111  1  -0.00207715  0.49724764  0.16681684  1
  I  I112  1  0.00349139  0.50052376  0.50053160  1
  I  I113  1  0.00347037  0.49373636  0.83301851  1
  I  I114  1  0.00018964  0.83634879  0.17059557  1
  I  I115  1  0.00103913  0.83066888  0.49401180  1
  I  I116  1  0.00012023  0.83630683  0.83405476  1
  I  I117  1  0.33268639  0.16749838  0.16133463  1
  I  I118  1  0.33307258  0.16407127  0.49866575  1
  I  I119  1  0.33257788  0.17023913  0.84067857  1
  I  I120  1  0.33492228  0.49580307  0.16667486  1
  I  I121  1  0.32907926  0.50605770  0.50131985  1
  I  I122  1  0.32969070  0.49451589  0.83265283  1
  I  I123  1  0.33008389  0.83588503  0.17067371  1
  I  I124  1  0.32966748  0.83094651  0.49477817  1
  I  I125  1  0.33291432  0.83522290  0.83402096  1
  I  I126  1  0.66727545  0.16637983  0.16094370  1
  I  I127  1  0.66687525  0.16303833  0.49964416  1
  I  I128  1  0.66683666  0.16273022  0.84265758  1
  I  I129  1  0.66739136  0.49627598  0.16684420  1
  I  I130  1  0.66688685  0.50105334  0.50130386  1
  I  I131  1  0.66666191  0.49998208  0.83191527  1
  I  I132  1  0.67009268  0.83655406  0.17134069  1
  I  I133  1  0.67025241  0.83815207  0.49215402  1
  I  I134  1  0.66695306  0.83475368  0.83378230  1
