# generated using pymatgen
data_Cs27Sn14Pb13I81
_symmetry_space_group_name_H-M   'P 1'
_cell_length_a   18.97693510
_cell_length_b   18.97197447
_cell_length_c   18.97828037
_cell_angle_alpha   89.99742356
_cell_angle_beta   89.99905166
_cell_angle_gamma   90.00319998
_symmetry_Int_Tables_number   1
_chemical_formula_structural   Cs27Sn14Pb13I81
_chemical_formula_sum   'Cs27 Sn14 Pb13 I81'
_cell_volume   6832.74890003
_cell_formula_units_Z   1
loop_
 _symmetry_equiv_pos_site_id
 _symmetry_equiv_pos_as_xyz
  1  'x, y, z'
loop_
 _atom_site_type_symbol
 _atom_site_label
 _atom_site_symmetry_multiplicity
 _atom_site_fract_x
 _atom_site_fract_y
 _atom_site_fract_z
 _atom_site_occupancy
  Cs  Cs0  1  0.00230983  -0.00124727  0.00099278  1
  Cs  Cs1  1  -0.00213923  0.00188945  0.33309463  1
  Cs  Cs2  1  -0.00000512  0.00093744  0.66643559  1
  Cs  Cs3  1  0.00100898  0.33619260  0.00134022  1
  Cs  Cs4  1  0.00077179  0.33232911  0.33270179  1
  Cs  Cs5  1  -0.00299619  0.33181653  0.66643409  1
  Cs  Cs6  1  0.00128653  0.66303169  0.00079161  1
  Cs  Cs7  1  0.00227646  0.66773823  0.33463663  1
  Cs  Cs8  1  -0.00227961  0.66893572  0.66511179  1
  Cs  Cs9  1  0.33304034  0.00029894  -0.00410218  1
  Cs  Cs10  1  0.33456035  -0.00159819  0.32891505  1
  Cs  Cs11  1  0.33311655  0.00151967  0.67331611  1
  Cs  Cs12  1  0.33087797  0.33373825  -0.00129349  1
  Cs  Cs13  1  0.33212475  0.33559354  0.33655512  1
  Cs  Cs14  1  0.33631081  0.33125133  0.66458653  1
  Cs  Cs15  1  0.33519454  0.66592786  0.00103006  1
  Cs  Cs16  1  0.32987357  0.66536237  0.33515075  1
  Cs  Cs17  1  0.33407081  0.66766837  0.66341889  1
  Cs  Cs18  1  0.66524239  -0.00009567  0.00815552  1
  Cs  Cs19  1  0.66695705  0.00013890  0.32743342  1
  Cs  Cs20  1  0.66815707  -0.00366352  0.66590836  1
  Cs  Cs21  1  0.66648912  0.33542591  0.00054808  1
  Cs  Cs22  1  0.66517984  0.33112774  0.33440959  1
  Cs  Cs23  1  0.66774623  0.33184322  0.66490355  1
  Cs  Cs24  1  0.66494864  0.66533060  -0.00352507  1
  Cs  Cs25  1  0.66667926  0.66784247  0.33418681  1
  Cs  Cs26  1  0.66757212  0.66905877  0.66904024  1
  Sn  Sn27  1  0.16780533  0.50015491  0.83312362  1
  Sn  Sn28  1  0.16689645  0.49932433  0.16611736  1
  Sn  Sn29  1  0.83374019  0.16634408  0.50059365  1
  Sn  Sn30  1  0.16667625  0.16731720  0.16737495  1
  Sn  Sn31  1  0.49979516  0.50000408  0.16636055  1
  Sn  Sn32  1  0.83328353  0.50002148  0.49895659  1
  Sn  Sn33  1  0.49881618  0.50034323  0.83350550  1
  Sn  Sn34  1  0.83254897  0.83366241  0.50050110  1
  Sn  Sn35  1  0.50102586  0.83255226  0.83255511  1
  Sn  Sn36  1  0.83297563  0.16531015  0.83323500  1
  Sn  Sn37  1  0.16637661  0.16652246  0.49938961  1
  Sn  Sn38  1  0.50062660  0.83354074  0.50066696  1
  Sn  Sn39  1  0.83275188  0.83472164  0.83314775  1
  Sn  Sn40  1  0.83325574  0.50011942  0.16800747  1
  Pb  Pb41  1  0.50300581  0.16659195  0.83329355  1
  Pb  Pb42  1  0.16649726  0.83060540  0.83321911  1
  Pb  Pb43  1  0.16666060  0.83315474  0.16661690  1
  Pb  Pb44  1  0.16651637  0.83645615  0.50012497  1
  Pb  Pb45  1  0.49674499  0.16974052  0.16661359  1
  Pb  Pb46  1  0.83346358  0.83068720  0.16642209  1
  Pb  Pb47  1  0.50038853  0.16348666  0.50008221  1
  Pb  Pb48  1  0.16433030  0.16901421  0.83326594  1
  Pb  Pb49  1  0.83487700  0.16893243  0.16667553  1
  Pb  Pb50  1  0.83303918  0.50024227  0.83312367  1
  Pb  Pb51  1  0.16445989  0.49823044  0.50024515  1
  Pb  Pb52  1  0.49998839  0.83096599  0.16630903  1
  Pb  Pb53  1  0.50239372  0.50181161  0.50046325  1
  I  I54  1  0.16434738  0.00340832  0.17160363  1
  I  I55  1  0.16013454  0.00427310  0.49421456  1
  I  I56  1  0.16897061  0.00023323  0.83425668  1
  I  I57  1  0.16590909  0.33486309  0.16657356  1
  I  I58  1  0.16025243  0.33039798  0.49885856  1
  I  I59  1  0.16995448  0.33698934  0.83566517  1
  I  I60  1  0.16647945  0.66250921  0.16238615  1
  I  I61  1  0.16491911  0.66662396  0.49891096  1
  I  I62  1  0.16456430  0.66251700  0.84059370  1
  I  I63  1  0.49852060  -0.00006350  0.16639575  1
  I  I64  1  0.50509850  -0.00440593  0.50729776  1
  I  I65  1  0.50141630  -0.00336141  0.82769175  1
  I  I66  1  0.50371061  0.33812788  0.16050463  1
  I  I67  1  0.50149298  0.33340372  0.49968991  1
  I  I68  1  0.49775048  0.33664123  0.83861507  1
  I  I69  1  0.49779834  0.66262423  0.16505924  1
  I  I70  1  0.50612479  0.66962403  0.50124161  1
  I  I71  1  0.50318570  0.66636283  0.83406323  1
  I  I72  1  0.83580293  0.00015322  0.16823509  1
  I  I73  1  0.83432030  -0.00003344  0.50597161  1
  I  I74  1  0.82967794  -0.00081016  0.82439397  1
  I  I75  1  0.83195415  0.33723573  0.16917119  1
  I  I76  1  0.83813131  0.33294933  0.50106573  1
  I  I77  1  0.83457943  0.33175515  0.82981642  1
  I  I78  1  0.83637010  0.66220495  0.16970434  1
  I  I79  1  0.82932328  0.66707378  0.50071526  1
  I  I80  1  0.83240817  0.66889352  0.83013672  1
  I  I81  1  0.16493494  0.17052579  0.00237531  1
  I  I82  1  0.15997632  0.17323603  0.33340794  1
  I  I83  1  0.16305877  0.16777655  0.66424582  1
  I  I84  1  0.16415234  0.49479477  0.00106112  1
  I  I85  1  0.16890901  0.49783279  0.33056975  1
  I  I86  1  0.16942415  0.49913358  0.66915303  1
  I  I87  1  0.16571925  0.83806925  -0.00029880  1
  I  I88  1  0.16713141  0.82808098  0.33363465  1
  I  I89  1  0.16655231  0.83198704  0.66664869  1
  I  I90  1  0.50122414  0.16177721  -0.00008892  1
  I  I91  1  0.50462440  0.16600926  0.33341089  1
  I  I92  1  0.49440729  0.17341648  0.66667221  1
  I  I93  1  0.50177260  0.50568893  -0.00040003  1
  I  I94  1  0.49747553  0.50126132  0.33084805  1
  I  I95  1  0.49673562  0.50224882  0.66966678  1
  I  I96  1  0.50496322  0.83046752  -0.00346507  1
  I  I97  1  0.50523642  0.83325239  0.33617442  1
  I  I98  1  0.50496523  0.82628066  0.66760212  1
  I  I99  1  0.83430743  0.16432680  -0.00250062  1
  I  I100  1  0.83573687  0.16461931  0.33636440  1
  I  I101  1  0.83917181  0.16915354  0.66534143  1
  I  I102  1  0.83415811  0.49949921  0.00197118  1
  I  I103  1  0.83376703  0.49999481  0.33352531  1
  I  I104  1  0.83388940  0.49960978  0.66432633  1
  I  I105  1  0.82882508  0.83648252  -0.00348914  1
  I  I106  1  0.82917705  0.83570752  0.33676668  1
  I  I107  1  0.82961388  0.83101571  0.66615110  1
  I  I108  1  0.00267081  0.17452513  0.16777001  1
  I  I109  1  -0.00160035  0.16562858  0.49979262  1
  I  I110  1  -0.00357493  0.16321128  0.83104712  1
  I  I111  1  0.00046349  0.49645504  0.16513355  1
  I  I112  1  -0.00384978  0.50447233  0.49744986  1
  I  I113  1  0.00151900  0.49901125  0.83729682  1
  I  I114  1  -0.00023858  0.82892502  0.16642557  1
  I  I115  1  -0.00369951  0.83083952  0.50441018  1
  I  I116  1  -0.00344591  0.83522813  0.82816986  1
  I  I117  1  0.32871265  0.17203152  0.17295072  1
  I  I118  1  0.33053658  0.16738789  0.49514123  1
  I  I119  1  0.33317367  0.16448146  0.83351545  1
  I  I120  1  0.33295562  0.49659985  0.16078808  1
  I  I121  1  0.33339664  0.50032590  0.49783146  1
  I  I122  1  0.33411225  0.50464068  0.84182348  1
  I  I123  1  0.33355728  0.83159487  0.16781783  1
  I  I124  1  0.33629652  0.83277387  0.50400059  1
  I  I125  1  0.33662946  0.83062802  0.82933635  1
  I  I126  1  0.66676003  0.16848906  0.16726058  1
  I  I127  1  0.67039817  0.16974072  0.50475665  1
  I  I128  1  0.67099463  0.16951299  0.82566250  1
  I  I129  1  0.66672151  0.50175969  0.16530999  1
  I  I130  1  0.67066707  0.49506004  0.49658560  1
  I  I131  1  0.66444734  0.50134476  0.83688686  1
  I  I132  1  0.66677936  0.83187613  0.16721297  1
  I  I133  1  0.66825607  0.83343972  0.50483112  1
  I  I134  1  0.66693914  0.82932560  0.82811940  1
