# generated using pymatgen
data_Cs27Sn13Pb14I81
_symmetry_space_group_name_H-M   'P 1'
_cell_length_a   18.99476024
_cell_length_b   18.99457437
_cell_length_c   18.98275904
_cell_angle_alpha   90.00023244
_cell_angle_beta   90.00041276
_cell_angle_gamma   89.99817835
_symmetry_Int_Tables_number   1
_chemical_formula_structural   Cs27Sn13Pb14I81
_chemical_formula_sum   'Cs27 Sn13 Pb14 I81'
_cell_volume   6848.92984008
_cell_formula_units_Z   1
loop_
 _symmetry_equiv_pos_site_id
 _symmetry_equiv_pos_as_xyz
  1  'x, y, z'
loop_
 _atom_site_type_symbol
 _atom_site_label
 _atom_site_symmetry_multiplicity
 _atom_site_fract_x
 _atom_site_fract_y
 _atom_site_fract_z
 _atom_site_occupancy
  Cs  Cs0  1  0.00151950  -0.00253187  -0.00213948  1
  Cs  Cs1  1  -0.00721008  -0.00731612  0.33157272  1
  Cs  Cs2  1  -0.00165536  0.00314237  0.67040568  1
  Cs  Cs3  1  0.00361105  0.33431800  -0.00218865  1
  Cs  Cs4  1  -0.00540708  0.33495262  0.33529724  1
  Cs  Cs5  1  0.00107686  0.33228281  0.66700460  1
  Cs  Cs6  1  0.00051248  0.66745693  0.00001924  1
  Cs  Cs7  1  -0.00503195  0.67306489  0.33876117  1
  Cs  Cs8  1  0.00137510  0.66372677  0.66607213  1
  Cs  Cs9  1  0.33358683  0.00011143  0.00013078  1
  Cs  Cs10  1  0.33297033  -0.00128809  0.33361370  1
  Cs  Cs11  1  0.33449604  0.00254370  0.66761681  1
  Cs  Cs12  1  0.33267857  0.33389100  0.00109531  1
  Cs  Cs13  1  0.33395655  0.33260262  0.33027735  1
  Cs  Cs14  1  0.33254894  0.33121524  0.66717522  1
  Cs  Cs15  1  0.33355906  0.66715729  -0.00052397  1
  Cs  Cs16  1  0.33188126  0.67005483  0.34729273  1
  Cs  Cs17  1  0.33613383  0.66493184  0.65997056  1
  Cs  Cs18  1  0.66354414  0.00010423  -0.00024628  1
  Cs  Cs19  1  0.67452087  0.00097332  0.33286111  1
  Cs  Cs20  1  0.66508140  -0.00026922  0.66732159  1
  Cs  Cs21  1  0.66305765  0.33622490  0.00655098  1
  Cs  Cs22  1  0.67547196  0.33826027  0.32148098  1
  Cs  Cs23  1  0.66620655  0.33335988  0.66689642  1
  Cs  Cs24  1  0.66497430  0.66444147  0.00016337  1
  Cs  Cs25  1  0.67266269  0.65993330  0.34137742  1
  Cs  Cs26  1  0.66095047  0.66638253  0.66313325  1
  Sn  Sn27  1  0.16720810  0.83297675  0.83336976  1
  Sn  Sn28  1  0.83278734  0.16718104  0.83371315  1
  Sn  Sn29  1  0.16723758  0.16646734  0.49934487  1
  Sn  Sn30  1  0.16698119  0.16676480  0.83357201  1
  Sn  Sn31  1  0.16629012  0.50002918  0.83404362  1
  Sn  Sn32  1  0.49969760  0.83407710  0.83454023  1
  Sn  Sn33  1  0.83299286  0.83292697  0.83362816  1
  Sn  Sn34  1  0.49988908  0.83277124  0.16653250  1
  Sn  Sn35  1  0.16704184  0.50025356  0.16634176  1
  Sn  Sn36  1  0.49992359  0.16618001  0.83295409  1
  Sn  Sn37  1  0.16646673  0.16698868  0.16703297  1
  Sn  Sn38  1  0.83389988  0.49990539  0.83352612  1
  Sn  Sn39  1  0.49982248  0.16695311  0.49985003  1
  Pb  Pb40  1  0.49999171  0.49568548  0.49962083  1
  Pb  Pb41  1  0.16830228  0.83281318  0.16512404  1
  Pb  Pb42  1  0.83659121  0.50041645  0.16390927  1
  Pb  Pb43  1  0.49671859  0.50359017  0.16676869  1
  Pb  Pb44  1  0.50020345  0.83609651  0.50002294  1
  Pb  Pb45  1  0.83029365  0.83307524  0.16398242  1
  Pb  Pb46  1  0.83318848  0.83354425  0.50333228  1
  Pb  Pb47  1  0.83304711  0.16680442  0.50205313  1
  Pb  Pb48  1  0.83363029  0.49959821  0.50319300  1
  Pb  Pb49  1  0.83663189  0.16648717  0.16340138  1
  Pb  Pb50  1  0.49808583  0.16512515  0.16693396  1
  Pb  Pb51  1  0.49949400  0.49983169  0.83331135  1
  Pb  Pb52  1  0.16650538  0.83660881  0.50308082  1
  Pb  Pb53  1  0.16663386  0.49727442  0.49985745  1
  I  I54  1  0.16885464  0.00280605  0.16391041  1
  I  I55  1  0.17154486  0.00462912  0.50112349  1
  I  I56  1  0.16468051  0.00100309  0.83321170  1
  I  I57  1  0.16809881  0.33229572  0.15917795  1
  I  I58  1  0.17071012  0.32932308  0.50760532  1
  I  I59  1  0.16399463  0.33206241  0.83313594  1
  I  I60  1  0.16843363  0.66397991  0.15696286  1
  I  I61  1  0.16678432  0.66674772  0.50044290  1
  I  I62  1  0.16322800  0.66652490  0.83939849  1
  I  I63  1  0.49583687  -0.00245351  0.16157909  1
  I  I64  1  0.49411001  0.00371263  0.50495384  1
  I  I65  1  0.49926354  0.00058326  0.83318090  1
  I  I66  1  0.50057895  0.33336890  0.16608031  1
  I  I67  1  0.49328880  0.32785844  0.51097784  1
  I  I68  1  0.49923781  0.32990451  0.82881280  1
  I  I69  1  0.49825175  0.67098713  0.15380136  1
  I  I70  1  0.49993092  0.66683650  0.50135388  1
  I  I71  1  0.50013260  0.66989645  0.83761116  1
  I  I72  1  0.83646267  -0.00005776  0.16427823  1
  I  I73  1  0.83418640  0.00040244  0.50266842  1
  I  I74  1  0.83674035  0.00033408  0.83285052  1
  I  I75  1  0.82930690  0.33329740  0.16405179  1
  I  I76  1  0.83354904  0.33292741  0.50425244  1
  I  I77  1  0.83828131  0.33270516  0.83189343  1
  I  I78  1  0.83581604  0.66673078  0.16242109  1
  I  I79  1  0.83344500  0.66661488  0.50190118  1
  I  I80  1  0.83769556  0.66698398  0.83430035  1
  I  I81  1  0.16649699  0.16717869  -0.00219387  1
  I  I82  1  0.17499119  0.17265852  0.33322836  1
  I  I83  1  0.16694007  0.16609111  0.66909165  1
  I  I84  1  0.16329580  0.49409124  -0.00225794  1
  I  I85  1  0.17006240  0.49388729  0.33017495  1
  I  I86  1  0.16243855  0.49968492  0.67034801  1
  I  I87  1  0.16466467  0.83867121  -0.00418839  1
  I  I88  1  0.16982958  0.83305750  0.33340949  1
  I  I89  1  0.16907662  0.83213466  0.67220328  1
  I  I90  1  0.49923585  0.16429188  -0.00346803  1
  I  I91  1  0.49140105  0.16418955  0.33597237  1
  I  I92  1  0.49480128  0.16104780  0.66925162  1
  I  I93  1  0.50186476  0.49489363  -0.00027500  1
  I  I94  1  0.49702438  0.50119111  0.33314700  1
  I  I95  1  0.49838249  0.50512213  0.66706952  1
  I  I96  1  0.49953471  0.84032377  -0.00322798  1
  I  I97  1  0.49537488  0.83517757  0.33069066  1
  I  I98  1  0.50054235  0.83528992  0.67050950  1
  I  I99  1  0.83239934  0.16587079  -0.00531590  1
  I  I100  1  0.83266544  0.16660228  0.33304446  1
  I  I101  1  0.83866876  0.16589845  0.67135578  1
  I  I102  1  0.83531111  0.49933088  -0.00461522  1
  I  I103  1  0.83362700  0.49954201  0.33302596  1
  I  I104  1  0.84151906  0.49937008  0.67204678  1
  I  I105  1  0.83715875  0.83482739  -0.00500161  1
  I  I106  1  0.83251499  0.83377174  0.33317126  1
  I  I107  1  0.83117562  0.83494871  0.67245749  1
  I  I108  1  0.00490798  0.16959647  0.16598416  1
  I  I109  1  0.00311484  0.16793798  0.50335664  1
  I  I110  1  0.00121528  0.16435225  0.83334553  1
  I  I111  1  0.00443632  0.49462724  0.16210132  1
  I  I112  1  0.00038045  0.49676155  0.49972653  1
  I  I113  1  0.00120473  0.49924428  0.83657582  1
  I  I114  1  0.00012622  0.83422601  0.16517751  1
  I  I115  1  0.00010796  0.83577811  0.50023675  1
  I  I116  1  0.00051586  0.83710154  0.83236582  1
  I  I117  1  0.32998367  0.16936672  0.15999322  1
  I  I118  1  0.33254587  0.16622434  0.50800462  1
  I  I119  1  0.33232766  0.16411409  0.83273914  1
  I  I120  1  0.32905344  0.49331743  0.15569397  1
  I  I121  1  0.33302920  0.50282502  0.50411274  1
  I  I122  1  0.32981449  0.49875371  0.83682592  1
  I  I123  1  0.33581314  0.83494872  0.15688835  1
  I  I124  1  0.33330569  0.83140474  0.50316904  1
  I  I125  1  0.33328310  0.83765043  0.83748577  1
  I  I126  1  0.66675351  0.16530553  0.16668769  1
  I  I127  1  0.66349249  0.16429798  0.50861528  1
  I  I128  1  0.66614018  0.16301757  0.82732965  1
  I  I129  1  0.66670578  0.49964526  0.16557941  1
  I  I130  1  0.66678735  0.49956423  0.50282840  1
  I  I131  1  0.66946446  0.49958610  0.83178341  1
  I  I132  1  0.66267846  0.83708679  0.15819539  1
  I  I133  1  0.66647730  0.83650329  0.50265004  1
  I  I134  1  0.66626476  0.83745977  0.83692317  1
