# generated using pymatgen
data_Cs27Sn13Pb14I81
_symmetry_space_group_name_H-M   'P 1'
_cell_length_a   19.15534497
_cell_length_b   19.13817812
_cell_length_c   19.15707463
_cell_angle_alpha   89.99154756
_cell_angle_beta   90.00511483
_cell_angle_gamma   90.00635707
_symmetry_Int_Tables_number   1
_chemical_formula_structural   Cs27Sn13Pb14I81
_chemical_formula_sum   'Cs27 Sn13 Pb14 I81'
_cell_volume   7022.95283645
_cell_formula_units_Z   1
loop_
 _symmetry_equiv_pos_site_id
 _symmetry_equiv_pos_as_xyz
  1  'x, y, z'
loop_
 _atom_site_type_symbol
 _atom_site_label
 _atom_site_symmetry_multiplicity
 _atom_site_fract_x
 _atom_site_fract_y
 _atom_site_fract_z
 _atom_site_occupancy
  Cs  Cs0  1  0.00362894  0.00490560  0.00663723  1
  Cs  Cs1  1  -0.00534620  -0.00028029  0.33922323  1
  Cs  Cs2  1  -0.00295617  0.00303549  0.65500827  1
  Cs  Cs3  1  -0.00055579  0.33492874  0.00099772  1
  Cs  Cs4  1  -0.00179367  0.33583353  0.33610543  1
  Cs  Cs5  1  0.00358665  0.33206461  0.66102080  1
  Cs  Cs6  1  0.01691233  0.64804613  -0.01916499  1
  Cs  Cs7  1  -0.00169950  0.67275697  0.33925155  1
  Cs  Cs8  1  0.00472817  0.66431587  0.67620058  1
  Cs  Cs9  1  0.32921974  -0.00616605  0.00430394  1
  Cs  Cs10  1  0.33117867  -0.00541587  0.33355060  1
  Cs  Cs11  1  0.33913634  -0.00335587  0.66176385  1
  Cs  Cs12  1  0.34643400  0.32324491  -0.00952009  1
  Cs  Cs13  1  0.33800616  0.35121437  0.34042962  1
  Cs  Cs14  1  0.33867040  0.33977332  0.66882181  1
  Cs  Cs15  1  0.31628931  0.69256217  0.02024944  1
  Cs  Cs16  1  0.34923501  0.64730736  0.31291809  1
  Cs  Cs17  1  0.33377240  0.65684014  0.66769022  1
  Cs  Cs18  1  0.66723300  0.00410833  0.00023714  1
  Cs  Cs19  1  0.67898848  -0.00132219  0.33933508  1
  Cs  Cs20  1  0.66668910  -0.00757204  0.66276221  1
  Cs  Cs21  1  0.65966537  0.33418940  -0.00364779  1
  Cs  Cs22  1  0.66607557  0.34030845  0.33241215  1
  Cs  Cs23  1  0.66034679  0.32990196  0.66931674  1
  Cs  Cs24  1  0.66596177  0.65436948  -0.00755550  1
  Cs  Cs25  1  0.65649797  0.66482373  0.32419448  1
  Cs  Cs26  1  0.66759351  0.68910801  0.67674331  1
  Sn  Sn27  1  0.83330904  0.16814444  0.50024829  1
  Sn  Sn28  1  0.50032040  0.50044384  0.83256046  1
  Sn  Sn29  1  0.49990651  0.16528222  0.16771209  1
  Sn  Sn30  1  0.83281034  0.50202918  0.50037931  1
  Sn  Sn31  1  0.83459915  0.83167138  0.49811539  1
  Sn  Sn32  1  0.83358884  0.83298494  0.16536095  1
  Sn  Sn33  1  0.49982660  0.16514189  0.83404276  1
  Sn  Sn34  1  0.16675317  0.16614202  0.49923629  1
  Sn  Sn35  1  0.83412399  0.16592162  0.83345435  1
  Sn  Sn36  1  0.16673658  0.83363179  0.50038060  1
  Sn  Sn37  1  0.16696399  0.16754936  0.16791537  1
  Sn  Sn38  1  0.83327386  0.16673950  0.16658431  1
  Sn  Sn39  1  0.16624075  0.16584510  0.83276908  1
  Pb  Pb40  1  0.83405198  0.50126869  0.16841444  1
  Pb  Pb41  1  0.16549486  0.49602018  0.16672572  1
  Pb  Pb42  1  0.83147065  0.49696991  0.83097157  1
  Pb  Pb43  1  0.16596537  0.83759280  0.83002246  1
  Pb  Pb44  1  0.50362480  0.50046650  0.50358752  1
  Pb  Pb45  1  0.83448157  0.83646572  0.83559487  1
  Pb  Pb46  1  0.49929942  0.83347797  0.83439548  1
  Pb  Pb47  1  0.16985020  0.49602061  0.83316024  1
  Pb  Pb48  1  0.16250224  0.83686320  0.17014934  1
  Pb  Pb49  1  0.16434242  0.50108460  0.49977922  1
  Pb  Pb50  1  0.49787129  0.83311583  0.49907501  1
  Pb  Pb51  1  0.49904819  0.16628811  0.49924235  1
  Pb  Pb52  1  0.50402341  0.83776413  0.16662564  1
  Pb  Pb53  1  0.50075851  0.49675331  0.16270703  1
  I  I54  1  0.17617444  0.00400980  0.15498882  1
  I  I55  1  0.15064497  0.00245525  0.50187930  1
  I  I56  1  0.17393273  0.00501451  0.84347023  1
  I  I57  1  0.15768534  0.32786888  0.17399735  1
  I  I58  1  0.16065695  0.33001219  0.49954676  1
  I  I59  1  0.15786053  0.32850624  0.82677965  1
  I  I60  1  0.16853164  0.66716679  0.16750419  1
  I  I61  1  0.15421859  0.67011837  0.50524765  1
  I  I62  1  0.17050976  0.66658593  0.83045738  1
  I  I63  1  0.49149456  0.00409919  0.14926551  1
  I  I64  1  0.51020375  0.00038670  0.50836355  1
  I  I65  1  0.50000711  0.00364475  0.84042928  1
  I  I66  1  0.50645147  0.32942515  0.16754490  1
  I  I67  1  0.49835216  0.33293587  0.48998803  1
  I  I68  1  0.50036434  0.33000668  0.84047773  1
  I  I69  1  0.50087397  0.66679078  0.16768532  1
  I  I70  1  0.49760462  0.66659131  0.50852220  1
  I  I71  1  0.50985676  0.66356244  0.82031423  1
  I  I72  1  0.83124198  0.00357725  0.17641781  1
  I  I73  1  0.83751699  0.00117516  0.50076569  1
  I  I74  1  0.82563515  0.00460207  0.82180480  1
  I  I75  1  0.83365632  0.32922215  0.16624683  1
  I  I76  1  0.83986949  0.33059046  0.50189773  1
  I  I77  1  0.84085081  0.32865732  0.83695015  1
  I  I78  1  0.82855072  0.67050490  0.18343768  1
  I  I79  1  0.84100967  0.66736814  0.48745643  1
  I  I80  1  0.82315354  0.66660066  0.83442601  1
  I  I81  1  0.15976422  0.17278661  -0.00006752  1
  I  I82  1  0.15972090  0.15752550  0.33353917  1
  I  I83  1  0.15911524  0.16071556  0.66621296  1
  I  I84  1  0.16012880  0.50256439  -0.00030671  1
  I  I85  1  0.17277079  0.49412445  0.33396284  1
  I  I86  1  0.16903800  0.49782561  0.66636987  1
  I  I87  1  0.17093753  0.82749695  0.00046643  1
  I  I88  1  0.16296081  0.84903408  0.33694607  1
  I  I89  1  0.15091942  0.84261843  0.66270519  1
  I  I90  1  0.50252468  0.17634064  -0.00020899  1
  I  I91  1  0.50181414  0.16186388  0.33021923  1
  I  I92  1  0.50058936  0.17523191  0.66886992  1
  I  I93  1  0.50876646  0.49145346  -0.00390849  1
  I  I94  1  0.49626038  0.50381358  0.33325464  1
  I  I95  1  0.49701025  0.47911514  0.66978768  1
  I  I96  1  0.50249400  0.82434724  0.00035404  1
  I  I97  1  0.49379924  0.83428992  0.33297682  1
  I  I98  1  0.50782508  0.83871625  0.66655161  1
  I  I99  1  0.83722338  0.15553125  0.00022695  1
  I  I100  1  0.83608803  0.16640462  0.33406452  1
  I  I101  1  0.83733306  0.16901105  0.66605106  1
  I  I102  1  0.83060417  0.50546160  -0.00027973  1
  I  I103  1  0.83434199  0.48415447  0.33643618  1
  I  I104  1  0.83475740  0.50179128  0.66321610  1
  I  I105  1  0.82468326  0.84904470  0.00403481  1
  I  I106  1  0.83893352  0.84680576  0.33460829  1
  I  I107  1  0.83590300  0.83146030  0.66426533  1
  I  I108  1  -0.00068098  0.15930340  0.16060903  1
  I  I109  1  -0.00127509  0.16733107  0.50258657  1
  I  I110  1  -0.00041818  0.16174622  0.83741842  1
  I  I111  1  -0.00058604  0.49419440  0.16174161  1
  I  I112  1  -0.00342404  0.49445456  0.50117190  1
  I  I113  1  0.00032540  0.50724898  0.83444063  1
  I  I114  1  -0.00400711  0.84958441  0.17043767  1
  I  I115  1  -0.00175572  0.83794639  0.49242173  1
  I  I116  1  0.00012462  0.82792883  0.84012207  1
  I  I117  1  0.33295383  0.17071952  0.15769477  1
  I  I118  1  0.33000310  0.15465367  0.50081896  1
  I  I119  1  0.33317588  0.17660017  0.83779330  1
  I  I120  1  0.33368220  0.50128269  0.17419267  1
  I  I121  1  0.33382979  0.50023764  0.50045859  1
  I  I122  1  0.33670686  0.48250696  0.82730381  1
  I  I123  1  0.33298117  0.82884240  0.16627596  1
  I  I124  1  0.32935741  0.85301850  0.50802083  1
  I  I125  1  0.33297313  0.83645050  0.82726394  1
  I  I126  1  0.66751444  0.16030169  0.16058186  1
  I  I127  1  0.66980511  0.16518409  0.50106890  1
  I  I128  1  0.66697382  0.17484007  0.83804564  1
  I  I129  1  0.66694165  0.49838092  0.17112670  1
  I  I130  1  0.67048305  0.49287055  0.49447480  1
  I  I131  1  0.66430103  0.48524848  0.83417127  1
  I  I132  1  0.67070650  0.84339004  0.18382721  1
  I  I133  1  0.67021600  0.83591959  0.49758694  1
  I  I134  1  0.66714019  0.83760157  0.82363547  1
