# generated using pymatgen
data_Cs27Sn13Pb14I81
_symmetry_space_group_name_H-M   'P 1'
_cell_length_a   19.00299715
_cell_length_b   18.98987145
_cell_length_c   18.98437883
_cell_angle_alpha   90.00217666
_cell_angle_beta   90.00032996
_cell_angle_gamma   90.00025398
_symmetry_Int_Tables_number   1
_chemical_formula_structural   Cs27Sn13Pb14I81
_chemical_formula_sum   'Cs27 Sn13 Pb14 I81'
_cell_volume   6850.78785859
_cell_formula_units_Z   1
loop_
 _symmetry_equiv_pos_site_id
 _symmetry_equiv_pos_as_xyz
  1  'x, y, z'
loop_
 _atom_site_type_symbol
 _atom_site_label
 _atom_site_symmetry_multiplicity
 _atom_site_fract_x
 _atom_site_fract_y
 _atom_site_fract_z
 _atom_site_occupancy
  Cs  Cs0  1  -0.01049535  0.00091362  -0.00244353  1
  Cs  Cs1  1  0.00217958  0.00181952  0.33393022  1
  Cs  Cs2  1  -0.00114130  -0.00186118  0.66796964  1
  Cs  Cs3  1  -0.00262256  0.32891941  0.00004470  1
  Cs  Cs4  1  0.00355557  0.33615310  0.33222457  1
  Cs  Cs5  1  -0.00697513  0.33418144  0.66752434  1
  Cs  Cs6  1  0.00448387  0.67086615  -0.00417842  1
  Cs  Cs7  1  0.00301896  0.66400954  0.33517938  1
  Cs  Cs8  1  0.00016045  0.66782841  0.66896521  1
  Cs  Cs9  1  0.33492422  0.00114049  -0.00113995  1
  Cs  Cs10  1  0.33371989  0.00588124  0.33329182  1
  Cs  Cs11  1  0.33397968  0.00130575  0.66603649  1
  Cs  Cs12  1  0.33292648  0.33500961  -0.00235699  1
  Cs  Cs13  1  0.33173758  0.32974315  0.33339873  1
  Cs  Cs14  1  0.33475565  0.32959321  0.66889699  1
  Cs  Cs15  1  0.33156395  0.66440996  -0.00045325  1
  Cs  Cs16  1  0.33210952  0.66642857  0.33350224  1
  Cs  Cs17  1  0.33381459  0.66878762  0.66780638  1
  Cs  Cs18  1  0.67354421  -0.00037504  0.00679298  1
  Cs  Cs19  1  0.66434397  -0.00043219  0.32845173  1
  Cs  Cs20  1  0.66460074  0.00071864  0.66542206  1
  Cs  Cs21  1  0.67022347  0.33263553  -0.00457948  1
  Cs  Cs22  1  0.66461312  0.33591594  0.33418198  1
  Cs  Cs23  1  0.66992130  0.33571207  0.66849635  1
  Cs  Cs24  1  0.66579827  0.66942140  0.00339803  1
  Cs  Cs25  1  0.66652601  0.66655186  0.33355231  1
  Cs  Cs26  1  0.66497991  0.66366958  0.66401441  1
  Sn  Sn27  1  0.49994702  0.83437040  0.83304216  1
  Sn  Sn28  1  0.49943900  0.16522899  0.83331549  1
  Sn  Sn29  1  0.83325031  0.83418292  0.49966943  1
  Sn  Sn30  1  0.83324699  0.16565836  0.49932914  1
  Sn  Sn31  1  0.16703108  0.83282523  0.49925424  1
  Sn  Sn32  1  0.16789731  0.50052552  0.49998701  1
  Sn  Sn33  1  0.16701594  0.83320525  0.16731418  1
  Sn  Sn34  1  0.83378073  0.50052496  0.16661529  1
  Sn  Sn35  1  0.49966416  0.83293894  0.50026267  1
  Sn  Sn36  1  0.16678592  0.50086725  0.16732874  1
  Sn  Sn37  1  0.16702458  0.16634626  0.83316160  1
  Sn  Sn38  1  0.49962723  0.49998654  0.16755650  1
  Sn  Sn39  1  0.49850023  0.50061990  0.49919278  1
  Pb  Pb40  1  0.83331984  0.16894925  0.16989613  1
  Pb  Pb41  1  0.50174673  0.16691822  0.50142807  1
  Pb  Pb42  1  0.83000311  0.83306778  0.83076843  1
  Pb  Pb43  1  0.83625081  0.83107825  0.16963322  1
  Pb  Pb44  1  0.49988905  0.50044856  0.83292715  1
  Pb  Pb45  1  0.16860259  0.83527870  0.83318259  1
  Pb  Pb46  1  0.83351559  0.50076156  0.49870399  1
  Pb  Pb47  1  0.83344747  0.50063099  0.83682754  1
  Pb  Pb48  1  0.16672376  0.16642964  0.16429714  1
  Pb  Pb49  1  0.16668137  0.49799070  0.83286798  1
  Pb  Pb50  1  0.83268916  0.16637991  0.83119427  1
  Pb  Pb51  1  0.16498520  0.16684354  0.50182282  1
  Pb  Pb52  1  0.49995357  0.16965736  0.16379063  1
  Pb  Pb53  1  0.49775842  0.83159325  0.16723935  1
  I  I54  1  0.16820575  -0.00323731  0.17255879  1
  I  I55  1  0.16925015  -0.00336867  0.49670121  1
  I  I56  1  0.17011252  0.00276434  0.83192779  1
  I  I57  1  0.16664422  0.33701632  0.17084962  1
  I  I58  1  0.16945941  0.33660366  0.49601045  1
  I  I59  1  0.17408802  0.33032049  0.83296969  1
  I  I60  1  0.16672714  0.66550755  0.17081026  1
  I  I61  1  0.16527318  0.66696728  0.49648536  1
  I  I62  1  0.16788036  0.66691603  0.83393014  1
  I  I63  1  0.49803598  -0.00022439  0.16909496  1
  I  I64  1  0.49743878  -0.00314875  0.50325413  1
  I  I65  1  0.49461717  -0.00065013  0.82498900  1
  I  I66  1  0.49651767  0.33821186  0.17312724  1
  I  I67  1  0.49745304  0.33662847  0.49720483  1
  I  I68  1  0.49649898  0.33106602  0.83397920  1
  I  I69  1  0.50202449  0.66331674  0.16566424  1
  I  I70  1  0.50203431  0.66709569  0.50278869  1
  I  I71  1  0.50027260  0.66943716  0.83078782  1
  I  I72  1  0.83503449  -0.00043952  0.16452485  1
  I  I73  1  0.83408491  -0.00137862  0.50178207  1
  I  I74  1  0.83592155  -0.00020416  0.83589299  1
  I  I75  1  0.83629452  0.33711443  0.16930972  1
  I  I76  1  0.83339909  0.33199750  0.49950192  1
  I  I77  1  0.83082840  0.33313457  0.82926539  1
  I  I78  1  0.82971506  0.66334521  0.17039191  1
  I  I79  1  0.83267557  0.66949250  0.49834910  1
  I  I80  1  0.83243512  0.66702854  0.82903398  1
  I  I81  1  0.17159055  0.16823649  -0.00338666  1
  I  I82  1  0.16450719  0.16725811  0.33349495  1
  I  I83  1  0.17103542  0.16653282  0.66930354  1
  I  I84  1  0.16775347  0.50395831  0.00352183  1
  I  I85  1  0.16686955  0.50330675  0.33360748  1
  I  I86  1  0.17198032  0.50429724  0.66289076  1
  I  I87  1  0.16964642  0.82757988  0.00260678  1
  I  I88  1  0.16795605  0.82863772  0.33491077  1
  I  I89  1  0.16466005  0.82948604  0.66306270  1
  I  I90  1  0.49602089  0.16162919  -0.00426231  1
  I  I91  1  0.50168522  0.16484012  0.33345640  1
  I  I92  1  0.49656927  0.16767017  0.66923925  1
  I  I93  1  0.49924601  0.49943722  0.00294832  1
  I  I94  1  0.50013058  0.50592054  0.33438416  1
  I  I95  1  0.49550313  0.50130161  0.66316918  1
  I  I96  1  0.49674691  0.83486803  -0.00219588  1
  I  I97  1  0.50259133  0.83003133  0.33691515  1
  I  I98  1  0.49798879  0.83090072  0.66480251  1
  I  I99  1  0.83355073  0.16942737  0.00000410  1
  I  I100  1  0.83393008  0.16137393  0.33742849  1
  I  I101  1  0.83378632  0.16501702  0.66351882  1
  I  I102  1  0.83246097  0.49845840  0.00514123  1
  I  I103  1  0.83337995  0.49972810  0.33090931  1
  I  I104  1  0.83271521  0.49822307  0.66608936  1
  I  I105  1  0.83368100  0.83195866  0.00047418  1
  I  I106  1  0.82661632  0.83705153  0.33753727  1
  I  I107  1  0.84000114  0.83551200  0.66223703  1
  I  I108  1  0.00011030  0.16968824  0.16287794  1
  I  I109  1  -0.00263935  0.16375099  0.50331614  1
  I  I110  1  0.00213132  0.16855999  0.83267161  1
  I  I111  1  0.00143374  0.50260429  0.17266392  1
  I  I112  1  0.00279710  0.50198146  0.49576701  1
  I  I113  1  0.00027537  0.49647692  0.83076277  1
  I  I114  1  0.00401106  0.82718920  0.17099123  1
  I  I115  1  0.00099577  0.83281876  0.49486670  1
  I  I116  1  0.00011096  0.83517637  0.83341539  1
  I  I117  1  0.33327457  0.16940447  0.16955624  1
  I  I118  1  0.33337847  0.16537886  0.50034815  1
  I  I119  1  0.33419430  0.16404768  0.83137929  1
  I  I120  1  0.33280485  0.50400004  0.17029596  1
  I  I121  1  0.33338959  0.50736650  0.49241895  1
  I  I122  1  0.33339801  0.50015420  0.83810683  1
  I  I123  1  0.33017302  0.82652805  0.17151338  1
  I  I124  1  0.33333861  0.82742158  0.50112120  1
  I  I125  1  0.33624555  0.83477858  0.82659588  1
  I  I126  1  0.66663714  0.16822020  0.16394305  1
  I  I127  1  0.66939739  0.16419670  0.50306522  1
  I  I128  1  0.66360681  0.16443946  0.83159607  1
  I  I129  1  0.66583584  0.49857796  0.17171257  1
  I  I130  1  0.66406206  0.50251228  0.49662625  1
  I  I131  1  0.66628179  0.49613721  0.83141401  1
  I  I132  1  0.66661260  0.83116829  0.16600801  1
  I  I133  1  0.66568491  0.83217273  0.50631784  1
  I  I134  1  0.66190901  0.83903812  0.82911685  1
