# generated using pymatgen
data_Cs27Sn14Pb13I81
_symmetry_space_group_name_H-M   'P 1'
_cell_length_a   18.97040075
_cell_length_b   18.98838713
_cell_length_c   18.97033584
_cell_angle_alpha   90.00066047
_cell_angle_beta   89.99848143
_cell_angle_gamma   90.00057012
_symmetry_Int_Tables_number   1
_chemical_formula_structural   Cs27Sn14Pb13I81
_chemical_formula_sum   'Cs27 Sn14 Pb13 I81'
_cell_volume   6833.44340880
_cell_formula_units_Z   1
loop_
 _symmetry_equiv_pos_site_id
 _symmetry_equiv_pos_as_xyz
  1  'x, y, z'
loop_
 _atom_site_type_symbol
 _atom_site_label
 _atom_site_symmetry_multiplicity
 _atom_site_fract_x
 _atom_site_fract_y
 _atom_site_fract_z
 _atom_site_occupancy
  Cs  Cs0  1  0.00092561  -0.00158079  -0.00156485  1
  Cs  Cs1  1  -0.00453041  0.00081917  0.33537677  1
  Cs  Cs2  1  -0.00004860  -0.00006345  0.66670798  1
  Cs  Cs3  1  -0.00065556  0.33461490  0.00001515  1
  Cs  Cs4  1  0.00068454  0.33394705  0.33428105  1
  Cs  Cs5  1  0.00061189  0.33356698  0.66560519  1
  Cs  Cs6  1  0.00426297  0.66499890  0.00631760  1
  Cs  Cs7  1  0.00097645  0.66500298  0.33208123  1
  Cs  Cs8  1  -0.00047208  0.66702365  0.66668168  1
  Cs  Cs9  1  0.33349544  -0.00066242  -0.00101835  1
  Cs  Cs10  1  0.33582808  0.00463778  0.33615010  1
  Cs  Cs11  1  0.33368175  0.00320533  0.66571983  1
  Cs  Cs12  1  0.33431763  0.33158874  0.00040630  1
  Cs  Cs13  1  0.33237416  0.33109720  0.33310711  1
  Cs  Cs14  1  0.33601486  0.33095340  0.66686989  1
  Cs  Cs15  1  0.32893578  0.67052717  0.00297460  1
  Cs  Cs16  1  0.33531971  0.66489580  0.33277209  1
  Cs  Cs17  1  0.33182245  0.66650266  0.66491983  1
  Cs  Cs18  1  0.66584459  0.00026773  0.00080141  1
  Cs  Cs19  1  0.66831730  -0.00271658  0.33157458  1
  Cs  Cs20  1  0.66861111  -0.00137334  0.66806758  1
  Cs  Cs21  1  0.66716666  0.33601738  -0.00311632  1
  Cs  Cs22  1  0.66767571  0.33394631  0.33074829  1
  Cs  Cs23  1  0.66286629  0.33612148  0.67178215  1
  Cs  Cs24  1  0.66781070  0.66507795  -0.00156754  1
  Cs  Cs25  1  0.66379353  0.66994969  0.33562547  1
  Cs  Cs26  1  0.66690607  0.66568325  0.66606848  1
  Sn  Sn27  1  0.83447107  0.83311825  0.50097141  1
  Sn  Sn28  1  0.83416075  0.16608092  0.83244704  1
  Sn  Sn29  1  0.16599141  0.83269504  0.49996917  1
  Sn  Sn30  1  0.16590159  0.16756641  0.83406184  1
  Sn  Sn31  1  0.16682098  0.16631706  0.16577517  1
  Sn  Sn32  1  0.16660607  0.49922670  0.83271140  1
  Sn  Sn33  1  0.50005278  0.49999314  0.16642075  1
  Sn  Sn34  1  0.83294753  0.83373367  0.83303857  1
  Sn  Sn35  1  0.49942991  0.16670357  0.16627045  1
  Sn  Sn36  1  0.16608043  0.50074582  0.50095411  1
  Sn  Sn37  1  0.50002039  0.83346096  0.16562551  1
  Sn  Sn38  1  0.83380047  0.50012385  0.50026833  1
  Sn  Sn39  1  0.83315163  0.16686857  0.50122128  1
  Sn  Sn40  1  0.50064658  0.83331984  0.83379726  1
  Pb  Pb41  1  0.16891071  0.83614502  0.16991652  1
  Pb  Pb42  1  0.49693226  0.50282251  0.83542528  1
  Pb  Pb43  1  0.83353514  0.16661309  0.16570071  1
  Pb  Pb44  1  0.83541688  0.50041168  0.83154585  1
  Pb  Pb45  1  0.16496980  0.16692880  0.50037407  1
  Pb  Pb46  1  0.49959245  0.49978214  0.49842884  1
  Pb  Pb47  1  0.83160092  0.83321149  0.16621740  1
  Pb  Pb48  1  0.50009692  0.83344731  0.50056050  1
  Pb  Pb49  1  0.50025815  0.16489150  0.83513404  1
  Pb  Pb50  1  0.16621710  0.83361926  0.83167844  1
  Pb  Pb51  1  0.83110314  0.50016434  0.16945844  1
  Pb  Pb52  1  0.16833696  0.49790857  0.16708494  1
  Pb  Pb53  1  0.50373049  0.16677550  0.49772796  1
  I  I54  1  0.17196549  0.00372213  0.16135584  1
  I  I55  1  0.16312558  -0.00197228  0.49951048  1
  I  I56  1  0.16607216  0.00259056  0.83587898  1
  I  I57  1  0.17289360  0.33015881  0.16790965  1
  I  I58  1  0.16215466  0.33574072  0.49961136  1
  I  I59  1  0.16133848  0.33232217  0.83173269  1
  I  I60  1  0.16871431  0.66677326  0.16441771  1
  I  I61  1  0.15940880  0.66609023  0.50528957  1
  I  I62  1  0.16779703  0.66475920  0.83012419  1
  I  I63  1  0.49641217  0.00002532  0.16328482  1
  I  I64  1  0.49745812  -0.00004242  0.49625035  1
  I  I65  1  0.49928002  -0.00291092  0.83898023  1
  I  I66  1  0.49561527  0.33259504  0.16959524  1
  I  I67  1  0.49954322  0.33326917  0.49721274  1
  I  I68  1  0.50275073  0.33339309  0.83528599  1
  I  I69  1  0.50144829  0.66730093  0.16414468  1
  I  I70  1  0.50357931  0.66677024  0.49612828  1
  I  I71  1  0.50560801  0.67049940  0.83830574  1
  I  I72  1  0.83068214  0.00005397  0.17287216  1
  I  I73  1  0.83740777  -0.00057882  0.50295182  1
  I  I74  1  0.83484981  0.00017535  0.82551883  1
  I  I75  1  0.82957835  0.33317631  0.16768975  1
  I  I76  1  0.83780724  0.33330761  0.50168247  1
  I  I77  1  0.83541654  0.33063192  0.82984809  1
  I  I78  1  0.83127585  0.66675280  0.16604622  1
  I  I79  1  0.83678629  0.66741593  0.50328588  1
  I  I80  1  0.82933474  0.66961013  0.82866162  1
  I  I81  1  0.16494893  0.17189299  -0.00116769  1
  I  I82  1  0.17043979  0.16631295  0.33146786  1
  I  I83  1  0.16392098  0.16694310  0.66936121  1
  I  I84  1  0.16848542  0.49812703  -0.00238345  1
  I  I85  1  0.16392210  0.50255850  0.33637101  1
  I  I86  1  0.16309868  0.49813656  0.66591782  1
  I  I87  1  0.16461539  0.83062370  0.00002639  1
  I  I88  1  0.16128164  0.82812132  0.33766453  1
  I  I89  1  0.16757948  0.83414420  0.66375428  1
  I  I90  1  0.50052426  0.16781895  0.00333269  1
  I  I91  1  0.49389161  0.16380997  0.32927446  1
  I  I92  1  0.49655837  0.16412842  0.66704944  1
  I  I93  1  0.49884654  0.49691287  0.00333566  1
  I  I94  1  0.49896715  0.50278988  0.33015934  1
  I  I95  1  0.50135739  0.50214354  0.66700485  1
  I  I96  1  0.50547560  0.83406342  0.00007482  1
  I  I97  1  0.49981482  0.83350309  0.33068235  1
  I  I98  1  0.50153085  0.83394746  0.66944814  1
  I  I99  1  0.83415695  0.16082503  -0.00354782  1
  I  I100  1  0.83299241  0.16562938  0.33612147  1
  I  I101  1  0.84009765  0.16459149  0.66718563  1
  I  I102  1  0.83412524  0.49947970  -0.00035084  1
  I  I103  1  0.84020412  0.49937769  0.33807231  1
  I  I104  1  0.83463773  0.50022309  0.66321119  1
  I  I105  1  0.83055024  0.84000827  -0.00354381  1
  I  I106  1  0.83522738  0.83461679  0.33678627  1
  I  I107  1  0.83043611  0.83489288  0.66627317  1
  I  I108  1  0.00263949  0.16776581  0.16631729  1
  I  I109  1  -0.00307892  0.16573814  0.49835057  1
  I  I110  1  -0.00007223  0.16389366  0.83540272  1
  I  I111  1  0.00040595  0.49811531  0.16538513  1
  I  I112  1  0.00019466  0.50093950  0.50294705  1
  I  I113  1  0.00334802  0.50030001  0.83230620  1
  I  I114  1  0.00034927  0.83489481  0.16451227  1
  I  I115  1  -0.00128880  0.83324423  0.50596182  1
  I  I116  1  -0.00277263  0.83565062  0.82874410  1
  I  I117  1  0.33332511  0.16644990  0.16169106  1
  I  I118  1  0.33317011  0.16616650  0.50136605  1
  I  I119  1  0.33061235  0.16854090  0.83566439  1
  I  I120  1  0.33630363  0.50234332  0.16879490  1
  I  I121  1  0.32975493  0.50573163  0.50195749  1
  I  I122  1  0.32921914  0.49426006  0.82609348  1
  I  I123  1  0.33695229  0.83127469  0.16105980  1
  I  I124  1  0.33064894  0.82781301  0.49959896  1
  I  I125  1  0.33523297  0.83300902  0.83669377  1
  I  I126  1  0.66384893  0.16574764  0.16877216  1
  I  I127  1  0.67197480  0.16520786  0.50465107  1
  I  I128  1  0.66962339  0.16401928  0.83029237  1
  I  I129  1  0.66281758  0.49666469  0.16781770  1
  I  I130  1  0.66988383  0.50134016  0.49723875  1
  I  I131  1  0.66667024  0.49751298  0.83304998  1
  I  I132  1  0.66311105  0.83708056  0.16881522  1
  I  I133  1  0.66997864  0.83313448  0.49963800  1
  I  I134  1  0.66783732  0.83918521  0.83154851  1
