# generated using pymatgen
data_Cs27Sn14Pb13I81
_symmetry_space_group_name_H-M   'P 1'
_cell_length_a   18.97215980
_cell_length_b   18.97703466
_cell_length_c   18.97770623
_cell_angle_alpha   89.99909072
_cell_angle_beta   90.00291287
_cell_angle_gamma   90.00051614
_symmetry_Int_Tables_number   1
_chemical_formula_structural   Cs27Sn14Pb13I81
_chemical_formula_sum   'Cs27 Sn14 Pb13 I81'
_cell_volume   6832.64479245
_cell_formula_units_Z   1
loop_
 _symmetry_equiv_pos_site_id
 _symmetry_equiv_pos_as_xyz
  1  'x, y, z'
loop_
 _atom_site_type_symbol
 _atom_site_label
 _atom_site_symmetry_multiplicity
 _atom_site_fract_x
 _atom_site_fract_y
 _atom_site_fract_z
 _atom_site_occupancy
  Cs  Cs0  1  -0.00164721  0.00976389  -0.00333048  1
  Cs  Cs1  1  -0.00211517  -0.00214128  0.33340802  1
  Cs  Cs2  1  -0.00439213  -0.00287295  0.66897147  1
  Cs  Cs3  1  -0.00143540  0.32899956  0.00130008  1
  Cs  Cs4  1  -0.00270240  0.33457406  0.33090720  1
  Cs  Cs5  1  -0.00092727  0.33484677  0.66738397  1
  Cs  Cs6  1  0.00379003  0.66366023  0.00084054  1
  Cs  Cs7  1  0.00145516  0.66830935  0.33434310  1
  Cs  Cs8  1  0.00283777  0.66740572  0.66488796  1
  Cs  Cs9  1  0.33055893  -0.00228524  0.00208086  1
  Cs  Cs10  1  0.33544194  0.00196183  0.33321395  1
  Cs  Cs11  1  0.33384366  0.00405927  0.66415887  1
  Cs  Cs12  1  0.33224107  0.33401637  0.00021842  1
  Cs  Cs13  1  0.33471727  0.33318752  0.33414002  1
  Cs  Cs14  1  0.33574952  0.33341879  0.66508750  1
  Cs  Cs15  1  0.33298009  0.66742416  -0.00077514  1
  Cs  Cs16  1  0.33034079  0.66605818  0.33248809  1
  Cs  Cs17  1  0.33017138  0.66515649  0.66948497  1
  Cs  Cs18  1  0.67275173  -0.00978036  -0.00159707  1
  Cs  Cs19  1  0.66364104  -0.00282541  0.33408390  1
  Cs  Cs20  1  0.66926566  -0.00016001  0.66631339  1
  Cs  Cs21  1  0.66874198  0.33569300  0.00146388  1
  Cs  Cs22  1  0.66494896  0.33397922  0.33586972  1
  Cs  Cs23  1  0.66425044  0.33413184  0.66469584  1
  Cs  Cs24  1  0.66660070  0.67367211  -0.00011837  1
  Cs  Cs25  1  0.66851797  0.66683513  0.33020472  1
  Cs  Cs26  1  0.66652837  0.66560238  0.67066658  1
  Sn  Sn27  1  0.16690833  0.83321950  0.83402488  1
  Sn  Sn28  1  0.49959595  0.83246941  0.50038976  1
  Sn  Sn29  1  0.50065481  0.50057005  0.49928006  1
  Sn  Sn30  1  0.16676522  0.83309927  0.16586093  1
  Sn  Sn31  1  0.83244593  0.49938165  0.50082840  1
  Sn  Sn32  1  0.16753898  0.50037105  0.16592045  1
  Sn  Sn33  1  0.49929028  0.49940832  0.16722526  1
  Sn  Sn34  1  0.83318205  0.16758981  0.49990426  1
  Sn  Sn35  1  0.50018467  0.16715903  0.16588971  1
  Sn  Sn36  1  0.16604847  0.16682410  0.49998636  1
  Sn  Sn37  1  0.83406166  0.49986602  0.83274558  1
  Sn  Sn38  1  0.50027892  0.16669728  0.49986271  1
  Sn  Sn39  1  0.16590946  0.50007468  0.83408741  1
  Sn  Sn40  1  0.50017769  0.16647869  0.83423561  1
  Pb  Pb41  1  0.49987216  0.49874707  0.83387452  1
  Pb  Pb42  1  0.49763885  0.83601881  0.83101994  1
  Pb  Pb43  1  0.83049279  0.16911367  0.83124875  1
  Pb  Pb44  1  0.49828567  0.83287572  0.16841014  1
  Pb  Pb45  1  0.83644221  0.83039900  0.83326617  1
  Pb  Pb46  1  0.83065859  0.83255807  0.50001704  1
  Pb  Pb47  1  0.83314412  0.50012336  0.16684739  1
  Pb  Pb48  1  0.16852865  0.83579473  0.50006963  1
  Pb  Pb49  1  0.16658525  0.49833727  0.49978114  1
  Pb  Pb50  1  0.82967038  0.16673721  0.16927957  1
  Pb  Pb51  1  0.83719006  0.83331544  0.16654513  1
  Pb  Pb52  1  0.16821499  0.16719857  0.83129832  1
  Pb  Pb53  1  0.16834087  0.16712347  0.16881011  1
  I  I54  1  0.16919583  -0.00216696  0.16454217  1
  I  I55  1  0.16915333  0.00368698  0.49984339  1
  I  I56  1  0.17109825  -0.00210193  0.83602025  1
  I  I57  1  0.16920470  0.33639579  0.16354191  1
  I  I58  1  0.17286014  0.33059749  0.50050288  1
  I  I59  1  0.16434004  0.33648838  0.83653457  1
  I  I60  1  0.17324125  0.66521999  0.16379266  1
  I  I61  1  0.16760049  0.66658404  0.50007886  1
  I  I62  1  0.16421277  0.66540299  0.83567168  1
  I  I63  1  0.49771444  0.00258458  0.17045212  1
  I  I64  1  0.49868084  0.00205837  0.49966693  1
  I  I65  1  0.49710612  0.00407775  0.83151402  1
  I  I66  1  0.49353334  0.33400182  0.17284166  1
  I  I67  1  0.50048597  0.33285663  0.49939318  1
  I  I68  1  0.49731274  0.33091636  0.82701961  1
  I  I69  1  0.49802136  0.66340943  0.17227227  1
  I  I70  1  0.50378936  0.66507906  0.49498665  1
  I  I71  1  0.50172657  0.66666276  0.83193574  1
  I  I72  1  0.83289658  0.00023221  0.16928181  1
  I  I73  1  0.83211061  0.00301019  0.49907469  1
  I  I74  1  0.83384640  0.00016833  0.83173558  1
  I  I75  1  0.83923006  0.33351000  0.16458473  1
  I  I76  1  0.82780721  0.33374132  0.50359417  1
  I  I77  1  0.84062922  0.33684550  0.83127761  1
  I  I78  1  0.82709887  0.66625565  0.16976086  1
  I  I79  1  0.82909500  0.66285267  0.50314441  1
  I  I80  1  0.83224021  0.66233431  0.82571483  1
  I  I81  1  0.16996748  0.16593251  0.00006214  1
  I  I82  1  0.17065348  0.16722812  0.33676823  1
  I  I83  1  0.17172601  0.16743572  0.66333041  1
  I  I84  1  0.16779160  0.50366354  0.00012392  1
  I  I85  1  0.16839338  0.50283218  0.33092621  1
  I  I86  1  0.16650889  0.50276612  0.66884182  1
  I  I87  1  0.16959577  0.82820176  0.00007131  1
  I  I88  1  0.16882578  0.82902137  0.33099802  1
  I  I89  1  0.16860392  0.82884833  0.66906397  1
  I  I90  1  0.49618737  0.17435088  0.00078223  1
  I  I91  1  0.49935397  0.16769297  0.33496178  1
  I  I92  1  0.49906516  0.16744189  0.66447349  1
  I  I93  1  0.49841535  0.49390584  0.00277938  1
  I  I94  1  0.49919811  0.49489200  0.33434055  1
  I  I95  1  0.50008566  0.49764749  0.66378298  1
  I  I96  1  0.50072605  0.83396378  -0.00002248  1
  I  I97  1  0.49702765  0.83855128  0.33635845  1
  I  I98  1  0.49722885  0.83329520  0.66297265  1
  I  I99  1  0.83266447  0.16775179  -0.00020654  1
  I  I100  1  0.83222607  0.17459782  0.33784328  1
  I  I101  1  0.83034547  0.16866170  0.66290564  1
  I  I102  1  0.83432665  0.50055994  -0.00264429  1
  I  I103  1  0.83182399  0.49514559  0.33654877  1
  I  I104  1  0.83305775  0.49573803  0.66550253  1
  I  I105  1  0.82682451  0.83117217  -0.00030975  1
  I  I106  1  0.83606269  0.83151697  0.33370350  1
  I  I107  1  0.83598596  0.83548444  0.66652201  1
  I  I108  1  0.00000871  0.16617773  0.16935261  1
  I  I109  1  -0.00050094  0.17219486  0.50044212  1
  I  I110  1  -0.00013248  0.16441200  0.83042469  1
  I  I111  1  0.00310041  0.50498678  0.16701169  1
  I  I112  1  -0.00229687  0.49432579  0.50079846  1
  I  I113  1  0.00094418  0.50360611  0.83161664  1
  I  I114  1  0.00545961  0.82523979  0.16627302  1
  I  I115  1  0.00019593  0.83467961  0.49950811  1
  I  I116  1  0.00448525  0.83371215  0.83514164  1
  I  I117  1  0.33658016  0.16821465  0.17169629  1
  I  I118  1  0.33546532  0.16686716  0.50022746  1
  I  I119  1  0.33617717  0.16969518  0.82780299  1
  I  I120  1  0.33363854  0.49954884  0.16762008  1
  I  I121  1  0.33625351  0.49757745  0.49958472  1
  I  I122  1  0.33076692  0.50224681  0.83339466  1
  I  I123  1  0.33044386  0.83163490  0.16395040  1
  I  I124  1  0.33644721  0.83405666  0.49975886  1
  I  I125  1  0.33000448  0.82533464  0.83615314  1
  I  I126  1  0.66139972  0.17496424  0.16985074  1
  I  I127  1  0.66509356  0.16817870  0.49998779  1
  I  I128  1  0.66255648  0.16962024  0.82957654  1
  I  I129  1  0.66332660  0.49387477  0.16900711  1
  I  I130  1  0.66542582  0.49460325  0.50042425  1
  I  I131  1  0.66856106  0.49541240  0.83040538  1
  I  I132  1  0.66627814  0.83333751  0.16856758  1
  I  I133  1  0.66259483  0.83909678  0.49921967  1
  I  I134  1  0.66655721  0.83315602  0.83184270  1
