# generated using pymatgen
data_Cs27Sn14Pb13I81
_symmetry_space_group_name_H-M   'P 1'
_cell_length_a   18.97260802
_cell_length_b   18.97314530
_cell_length_c   18.98214346
_cell_angle_alpha   90.00076064
_cell_angle_beta   90.00077236
_cell_angle_gamma   89.99890360
_symmetry_Int_Tables_number   1
_chemical_formula_structural   Cs27Sn14Pb13I81
_chemical_formula_sum   'Cs27 Sn14 Pb13 I81'
_cell_volume   6833.00310519
_cell_formula_units_Z   1
loop_
 _symmetry_equiv_pos_site_id
 _symmetry_equiv_pos_as_xyz
  1  'x, y, z'
loop_
 _atom_site_type_symbol
 _atom_site_label
 _atom_site_symmetry_multiplicity
 _atom_site_fract_x
 _atom_site_fract_y
 _atom_site_fract_z
 _atom_site_occupancy
  Cs  Cs0  1  0.00001773  -0.00151264  0.00139924  1
  Cs  Cs1  1  0.00035774  -0.00214296  0.33211750  1
  Cs  Cs2  1  0.00267891  -0.00105854  0.66679061  1
  Cs  Cs3  1  -0.00242006  0.33435946  -0.00027451  1
  Cs  Cs4  1  0.00741956  0.33562715  0.33365764  1
  Cs  Cs5  1  0.00153959  0.33456572  0.66640868  1
  Cs  Cs6  1  -0.00188036  0.66722094  0.00020027  1
  Cs  Cs7  1  0.00014489  0.67011312  0.33612646  1
  Cs  Cs8  1  -0.00175435  0.66588847  0.66487883  1
  Cs  Cs9  1  0.33091974  -0.00357187  -0.00282084  1
  Cs  Cs10  1  0.33094416  0.00021446  0.33298590  1
  Cs  Cs11  1  0.32956087  -0.00204392  0.67019254  1
  Cs  Cs12  1  0.33215742  0.33482877  0.00128734  1
  Cs  Cs13  1  0.32545516  0.34048601  0.33282257  1
  Cs  Cs14  1  0.33276868  0.33237448  0.66604280  1
  Cs  Cs15  1  0.33717978  0.66864593  0.00033372  1
  Cs  Cs16  1  0.33937706  0.66037256  0.33228979  1
  Cs  Cs17  1  0.33624830  0.67022786  0.66894855  1
  Cs  Cs18  1  0.66825971  0.00232483  0.00136453  1
  Cs  Cs19  1  0.66690384  0.00148937  0.33362156  1
  Cs  Cs20  1  0.66628074  0.00322125  0.66438497  1
  Cs  Cs21  1  0.66840818  0.33225459  -0.00212529  1
  Cs  Cs22  1  0.66595857  0.32923087  0.33375012  1
  Cs  Cs23  1  0.66664949  0.33114575  0.66941208  1
  Cs  Cs24  1  0.66791774  0.66566246  0.00021074  1
  Cs  Cs25  1  0.65957554  0.66648385  0.34110412  1
  Cs  Cs26  1  0.66639863  0.66734316  0.65985754  1
  Sn  Sn27  1  0.83297080  0.50019490  0.83393234  1
  Sn  Sn28  1  0.83305224  0.16636066  0.83318077  1
  Sn  Sn29  1  0.50021690  0.16666154  0.16646441  1
  Sn  Sn30  1  0.83306575  0.50024103  0.16675570  1
  Sn  Sn31  1  0.83343857  0.16690941  0.49986889  1
  Sn  Sn32  1  0.16656250  0.50005934  0.83365620  1
  Sn  Sn33  1  0.50007196  0.16675514  0.49985598  1
  Sn  Sn34  1  0.16621539  0.83309293  0.16756835  1
  Sn  Sn35  1  0.83308759  0.16699307  0.16692303  1
  Sn  Sn36  1  0.16672534  0.83315664  0.49883150  1
  Sn  Sn37  1  0.50055699  0.49921897  0.83352293  1
  Sn  Sn38  1  0.83335798  0.83276882  0.16634054  1
  Sn  Sn39  1  0.50061359  0.16735290  0.83365700  1
  Sn  Sn40  1  0.83307746  0.83351732  0.83372002  1
  Pb  Pb41  1  0.16634427  0.16487747  0.16640699  1
  Pb  Pb42  1  0.50014565  0.49691331  0.50266133  1
  Pb  Pb43  1  0.83425709  0.83568934  0.49960028  1
  Pb  Pb44  1  0.16420430  0.50293301  0.16454687  1
  Pb  Pb45  1  0.50098574  0.83554080  0.16658874  1
  Pb  Pb46  1  0.16678381  0.16512225  0.49999533  1
  Pb  Pb47  1  0.16414191  0.83095168  0.83392377  1
  Pb  Pb48  1  0.16664967  0.50294943  0.50246124  1
  Pb  Pb49  1  0.49723627  0.83621345  0.49996514  1
  Pb  Pb50  1  0.50280023  0.49729215  0.16451685  1
  Pb  Pb51  1  0.83333223  0.49710878  0.49976275  1
  Pb  Pb52  1  0.50336197  0.83377098  0.83345309  1
  Pb  Pb53  1  0.16650093  0.16873097  0.83356140  1
  I  I54  1  0.16024595  -0.00305649  0.16838081  1
  I  I55  1  0.16577210  -0.00272018  0.49775898  1
  I  I56  1  0.16684076  -0.00048396  0.83273523  1
  I  I57  1  0.16605643  0.33378601  0.16611806  1
  I  I58  1  0.16676979  0.33348195  0.50114374  1
  I  I59  1  0.16124845  0.33654918  0.83329584  1
  I  I60  1  0.15974030  0.67070011  0.16958224  1
  I  I61  1  0.16302073  0.67060526  0.49598174  1
  I  I62  1  0.16641251  0.66323777  0.83315524  1
  I  I63  1  0.50625288  0.00407892  0.16332821  1
  I  I64  1  0.50545543  0.00448086  0.50356615  1
  I  I65  1  0.50438158  0.00382731  0.83300220  1
  I  I66  1  0.50598606  0.32901297  0.16804267  1
  I  I67  1  0.50509897  0.32875308  0.49861119  1
  I  I68  1  0.50529000  0.33220206  0.83300981  1
  I  I69  1  0.50015512  0.66635535  0.16477088  1
  I  I70  1  0.49875636  0.66654815  0.50163285  1
  I  I71  1  0.50014225  0.66369411  0.83397882  1
  I  I72  1  0.83374473  0.00059422  0.16338077  1
  I  I73  1  0.83003242  0.00380911  0.50110491  1
  I  I74  1  0.82960497  0.00107135  0.83591803  1
  I  I75  1  0.82823350  0.33251762  0.16245180  1
  I  I76  1  0.82926196  0.32880550  0.50142135  1
  I  I77  1  0.83283797  0.33306333  0.83573249  1
  I  I78  1  0.84021281  0.66695613  0.15607603  1
  I  I79  1  0.83597020  0.66677816  0.50146683  1
  I  I80  1  0.83439318  0.66597993  0.84073790  1
  I  I81  1  0.16713879  0.16314439  -0.00007350  1
  I  I82  1  0.16628180  0.16790533  0.33317748  1
  I  I83  1  0.16553178  0.16326008  0.66685990  1
  I  I84  1  0.16755684  0.50107197  -0.00338822  1
  I  I85  1  0.16501885  0.49835109  0.33298279  1
  I  I86  1  0.16239100  0.50089137  0.67064216  1
  I  I87  1  0.16330801  0.83341218  0.00254964  1
  I  I88  1  0.15826371  0.83610405  0.33223572  1
  I  I89  1  0.16529083  0.83319681  0.66513547  1
  I  I90  1  0.50732673  0.17014344  -0.00067791  1
  I  I91  1  0.50882425  0.16296729  0.33304528  1
  I  I92  1  0.50725172  0.17061049  0.66757736  1
  I  I93  1  0.49859086  0.49421165  -0.00371628  1
  I  I94  1  0.50072059  0.49930512  0.33309165  1
  I  I95  1  0.50370809  0.49482863  0.67115756  1
  I  I96  1  0.49355278  0.83614196  -0.00010269  1
  I  I97  1  0.50472711  0.83570581  0.33323388  1
  I  I98  1  0.49895275  0.83519025  0.66691081  1
  I  I99  1  0.82846079  0.16653590  -0.00021249  1
  I  I100  1  0.82688191  0.16520845  0.33236754  1
  I  I101  1  0.82796173  0.16634561  0.66790610  1
  I  I102  1  0.83367862  0.49603632  -0.00132465  1
  I  I103  1  0.83461283  0.50013381  0.33000863  1
  I  I104  1  0.83339827  0.50051868  0.67050739  1
  I  I105  1  0.83905092  0.83762577  0.00032113  1
  I  I106  1  0.83645214  0.83460335  0.33010272  1
  I  I107  1  0.83504077  0.83312961  0.66940925  1
  I  I108  1  -0.00407560  0.16801708  0.16567752  1
  I  I109  1  -0.00315631  0.16546865  0.50066471  1
  I  I110  1  -0.00392993  0.16714942  0.83380477  1
  I  I111  1  -0.00402330  0.49320217  0.15949704  1
  I  I112  1  -0.00016659  0.49584054  0.50388666  1
  I  I113  1  -0.00202353  0.49987845  0.83672522  1
  I  I114  1  -0.00198915  0.83652639  0.16595963  1
  I  I115  1  0.00205639  0.83698292  0.49935891  1
  I  I116  1  -0.00400344  0.83508562  0.83457180  1
  I  I117  1  0.33643487  0.16419518  0.16586194  1
  I  I118  1  0.33664946  0.16455265  0.50219635  1
  I  I119  1  0.33684382  0.17069247  0.83235548  1
  I  I120  1  0.33346065  0.49978063  0.16448453  1
  I  I121  1  0.33338682  0.49720373  0.50163565  1
  I  I122  1  0.33414523  0.49444294  0.83144644  1
  I  I123  1  0.33077154  0.83631225  0.17014223  1
  I  I124  1  0.32939288  0.83565199  0.49537138  1
  I  I125  1  0.33328144  0.83341555  0.83297228  1
  I  I126  1  0.66843414  0.16449143  0.16586492  1
  I  I127  1  0.66734685  0.16559487  0.50092324  1
  I  I128  1  0.66790220  0.17041706  0.83333626  1
  I  I129  1  0.67103182  0.50450005  0.16000182  1
  I  I130  1  0.66685980  0.50507612  0.50168583  1
  I  I131  1  0.66786909  0.49742944  0.83768921  1
  I  I132  1  0.67071413  0.83303549  0.16053229  1
  I  I133  1  0.66661718  0.83213857  0.50047963  1
  I  I134  1  0.67145325  0.83058370  0.84007386  1
