# generated using pymatgen
data_Cs27Sn14Pb13I81
_symmetry_space_group_name_H-M   'P 1'
_cell_length_a   18.98079491
_cell_length_b   18.97619727
_cell_length_c   18.97100186
_cell_angle_alpha   90.00029654
_cell_angle_beta   90.00034491
_cell_angle_gamma   90.00023008
_symmetry_Int_Tables_number   1
_chemical_formula_structural   Cs27Sn14Pb13I81
_chemical_formula_sum   'Cs27 Sn14 Pb13 I81'
_cell_volume   6833.03821449
_cell_formula_units_Z   1
loop_
 _symmetry_equiv_pos_site_id
 _symmetry_equiv_pos_as_xyz
  1  'x, y, z'
loop_
 _atom_site_type_symbol
 _atom_site_label
 _atom_site_symmetry_multiplicity
 _atom_site_fract_x
 _atom_site_fract_y
 _atom_site_fract_z
 _atom_site_occupancy
  Cs  Cs0  1  -0.00332454  -0.00100723  0.00297711  1
  Cs  Cs1  1  -0.00001597  -0.00175987  0.33218107  1
  Cs  Cs2  1  0.00168485  -0.00038234  0.66516017  1
  Cs  Cs3  1  -0.00094375  0.33616916  0.00250641  1
  Cs  Cs4  1  -0.00094268  0.33315104  0.33421299  1
  Cs  Cs5  1  -0.00010198  0.33562865  0.66514046  1
  Cs  Cs6  1  0.00273417  0.66521334  -0.00160850  1
  Cs  Cs7  1  0.00305723  0.66530753  0.33123907  1
  Cs  Cs8  1  -0.00201100  0.66476515  0.66873152  1
  Cs  Cs9  1  0.33513848  0.00466985  -0.00463893  1
  Cs  Cs10  1  0.33094498  -0.00547415  0.33627479  1
  Cs  Cs11  1  0.32855987  0.00201010  0.66753156  1
  Cs  Cs12  1  0.33308077  0.33115677  0.00119342  1
  Cs  Cs13  1  0.33536697  0.33559554  0.32950600  1
  Cs  Cs14  1  0.33135756  0.32994316  0.66801359  1
  Cs  Cs15  1  0.33137220  0.66533703  0.00380299  1
  Cs  Cs16  1  0.34027674  0.67088221  0.32683924  1
  Cs  Cs17  1  0.33470254  0.66773257  0.66597929  1
  Cs  Cs18  1  0.66776228  0.00072400  0.00221317  1
  Cs  Cs19  1  0.66859831  0.00220318  0.32987910  1
  Cs  Cs20  1  0.66709097  0.00019998  0.66731673  1
  Cs  Cs21  1  0.66850808  0.33151577  -0.00135029  1
  Cs  Cs22  1  0.66622986  0.33165913  0.33473386  1
  Cs  Cs23  1  0.66798355  0.33402322  0.66504801  1
  Cs  Cs24  1  0.66572134  0.66867716  -0.00365740  1
  Cs  Cs25  1  0.65766098  0.66688116  0.33417323  1
  Cs  Cs26  1  0.66762046  0.66590842  0.66785439  1
  Sn  Sn27  1  0.49863435  0.50044027  0.83300850  1
  Sn  Sn28  1  0.83350785  0.83458295  0.83241460  1
  Sn  Sn29  1  0.16803322  0.50058265  0.83235901  1
  Sn  Sn30  1  0.49875289  0.16663385  0.16798979  1
  Sn  Sn31  1  0.83326536  0.83315976  0.50041579  1
  Sn  Sn32  1  0.50026817  0.16669938  0.49935098  1
  Sn  Sn33  1  0.16750874  0.16648887  0.16701231  1
  Sn  Sn34  1  0.83385222  0.50053313  0.49858232  1
  Sn  Sn35  1  0.49990507  0.83252189  0.83293281  1
  Sn  Sn36  1  0.16683380  0.50029776  0.50016149  1
  Sn  Sn37  1  0.16652100  0.83258238  0.83314529  1
  Sn  Sn38  1  0.83284837  0.16629360  0.50091352  1
  Sn  Sn39  1  0.83367470  0.16579582  0.83235600  1
  Sn  Sn40  1  0.83290167  0.50056536  0.16817752  1
  Pb  Pb41  1  0.49977325  0.49831811  0.50198592  1
  Pb  Pb42  1  0.16451935  0.83032626  0.50195129  1
  Pb  Pb43  1  0.50245648  0.49805553  0.16390271  1
  Pb  Pb44  1  0.16359137  0.16707026  0.83482580  1
  Pb  Pb45  1  0.83356316  0.50032627  0.83265355  1
  Pb  Pb46  1  0.16666024  0.83591754  0.16400096  1
  Pb  Pb47  1  0.16635369  0.16869006  0.49800955  1
  Pb  Pb48  1  0.50224138  0.83603163  0.50238964  1
  Pb  Pb49  1  0.83323196  0.16806789  0.16727183  1
  Pb  Pb50  1  0.83322801  0.83017337  0.16693173  1
  Pb  Pb51  1  0.50004094  0.83618766  0.16400893  1
  Pb  Pb52  1  0.16538092  0.49877202  0.16686248  1
  Pb  Pb53  1  0.50204508  0.16662481  0.83282652  1
  I  I54  1  0.16818503  0.00390716  0.16576162  1
  I  I55  1  0.16595851  -0.00005953  0.50059948  1
  I  I56  1  0.16888191  -0.00249802  0.83569550  1
  I  I57  1  0.16876113  0.33089039  0.16321829  1
  I  I58  1  0.15929817  0.33641915  0.50760663  1
  I  I59  1  0.16944836  0.33623956  0.83129146  1
  I  I60  1  0.16382630  0.66659238  0.16704994  1
  I  I61  1  0.15957395  0.66238469  0.50262087  1
  I  I62  1  0.16352916  0.66623210  0.83007128  1
  I  I63  1  0.49918244  0.00426083  0.16774411  1
  I  I64  1  0.50588744  0.00403315  0.49845520  1
  I  I65  1  0.49880105  -0.00239502  0.83383775  1
  I  I66  1  0.49779021  0.33016087  0.16708830  1
  I  I67  1  0.50721031  0.33044508  0.49993070  1
  I  I68  1  0.49780998  0.33539757  0.83359689  1
  I  I69  1  0.50134382  0.66656420  0.16740393  1
  I  I70  1  0.50156373  0.66677804  0.50024836  1
  I  I71  1  0.50372517  0.66685506  0.83256846  1
  I  I72  1  0.83328060  -0.00005915  0.16701941  1
  I  I73  1  0.82843249  0.00059367  0.50612092  1
  I  I74  1  0.83276335  -0.00069740  0.82711977  1
  I  I75  1  0.83371110  0.33576760  0.16814651  1
  I  I76  1  0.83321064  0.33318091  0.50099404  1
  I  I77  1  0.83222953  0.33157232  0.83137685  1
  I  I78  1  0.83550783  0.66241489  0.16812832  1
  I  I79  1  0.83878896  0.66629086  0.50262966  1
  I  I80  1  0.83280943  0.66926909  0.83090776  1
  I  I81  1  0.17116328  0.16857155  0.00240022  1
  I  I82  1  0.16476722  0.17041820  0.33043502  1
  I  I83  1  0.16890199  0.16572708  0.66667736  1
  I  I84  1  0.16722881  0.50256822  -0.00308988  1
  I  I85  1  0.16086060  0.49548701  0.33606152  1
  I  I86  1  0.16244398  0.50169169  0.66757450  1
  I  I87  1  0.16256397  0.82621720  -0.00474229  1
  I  I88  1  0.16389113  0.83302941  0.33361289  1
  I  I89  1  0.16802569  0.83390687  0.67051034  1
  I  I90  1  0.49862640  0.16680152  0.00157865  1
  I  I91  1  0.50442591  0.16898452  0.33391019  1
  I  I92  1  0.50453434  0.16734305  0.66445825  1
  I  I93  1  0.49688103  0.50128739  -0.00413704  1
  I  I94  1  0.49842162  0.49958314  0.33341038  1
  I  I95  1  0.50249874  0.50073277  0.67003710  1
  I  I96  1  0.50428751  0.83158991  -0.00458238  1
  I  I97  1  0.50189832  0.83238294  0.33366658  1
  I  I98  1  0.49937772  0.83183718  0.67066089  1
  I  I99  1  0.83280148  0.16464877  -0.00216802  1
  I  I100  1  0.83228177  0.16531043  0.33651924  1
  I  I101  1  0.82775027  0.16894302  0.66570660  1
  I  I102  1  0.83322917  0.49735657  0.00111823  1
  I  I103  1  0.83982898  0.49708297  0.33551516  1
  I  I104  1  0.83412778  0.49880963  0.66403440  1
  I  I105  1  0.83300245  0.83731055  -0.00368116  1
  I  I106  1  0.83398956  0.83802077  0.33683302  1
  I  I107  1  0.83318000  0.83239147  0.66764961  1
  I  I108  1  0.00143440  0.16919143  0.16447614  1
  I  I109  1  -0.00337004  0.16590309  0.50280830  1
  I  I110  1  -0.00425416  0.16415468  0.82921787  1
  I  I111  1  -0.00260192  0.49551203  0.16488733  1
  I  I112  1  -0.00153302  0.49719485  0.50335514  1
  I  I113  1  0.00204482  0.50200038  0.83304767  1
  I  I114  1  -0.00023781  0.83730706  0.16328214  1
  I  I115  1  -0.00393129  0.83917577  0.50658294  1
  I  I116  1  -0.00069732  0.83277447  0.82971816  1
  I  I117  1  0.33407538  0.16906316  0.16928603  1
  I  I118  1  0.33571477  0.16956007  0.49874331  1
  I  I119  1  0.33324134  0.16440977  0.83207155  1
  I  I120  1  0.33359833  0.49881823  0.16776002  1
  I  I121  1  0.33077105  0.49570725  0.50486002  1
  I  I122  1  0.33240873  0.50640644  0.82846697  1
  I  I123  1  0.33338460  0.83058296  0.16595727  1
  I  I124  1  0.33336958  0.83458784  0.50219358  1
  I  I125  1  0.33325428  0.82883565  0.83511622  1
  I  I126  1  0.66480761  0.16863023  0.16665783  1
  I  I127  1  0.66835339  0.16934450  0.49862709  1
  I  I128  1  0.66992204  0.16455247  0.83457840  1
  I  I129  1  0.67012652  0.49657822  0.17113333  1
  I  I130  1  0.66985341  0.50034279  0.49878857  1
  I  I131  1  0.66517062  0.50179512  0.83405423  1
  I  I132  1  0.66680274  0.83581836  0.16257811  1
  I  I133  1  0.67063483  0.82806550  0.50693127  1
  I  I134  1  0.66745130  0.83264378  0.82992527  1
