# generated using pymatgen
data_Cs27Sn14Pb13I81
_symmetry_space_group_name_H-M   'P 1'
_cell_length_a   18.98015168
_cell_length_b   18.97214648
_cell_length_c   18.97593340
_cell_angle_alpha   89.99899386
_cell_angle_beta   90.00304568
_cell_angle_gamma   89.99969364
_symmetry_Int_Tables_number   1
_chemical_formula_structural   Cs27Sn14Pb13I81
_chemical_formula_sum   'Cs27 Sn14 Pb13 I81'
_cell_volume   6833.12388743
_cell_formula_units_Z   1
loop_
 _symmetry_equiv_pos_site_id
 _symmetry_equiv_pos_as_xyz
  1  'x, y, z'
loop_
 _atom_site_type_symbol
 _atom_site_label
 _atom_site_symmetry_multiplicity
 _atom_site_fract_x
 _atom_site_fract_y
 _atom_site_fract_z
 _atom_site_occupancy
  Cs  Cs0  1  -0.00052485  -0.00116888  -0.00047640  1
  Cs  Cs1  1  -0.00395844  0.00189129  0.32902098  1
  Cs  Cs2  1  -0.00084102  0.00264902  0.66952014  1
  Cs  Cs3  1  0.00123673  0.33025501  -0.00094629  1
  Cs  Cs4  1  0.00262381  0.33569773  0.33306671  1
  Cs  Cs5  1  0.00032227  0.33337391  0.66667997  1
  Cs  Cs6  1  -0.00100065  0.67121467  0.00061362  1
  Cs  Cs7  1  0.00402120  0.66163873  0.33383844  1
  Cs  Cs8  1  0.00147407  0.66166943  0.66491318  1
  Cs  Cs9  1  0.33108581  -0.00076538  -0.00182332  1
  Cs  Cs10  1  0.33292310  -0.00197380  0.33523535  1
  Cs  Cs11  1  0.33516166  0.00135026  0.66694077  1
  Cs  Cs12  1  0.33598947  0.33732915  0.00454073  1
  Cs  Cs13  1  0.33433617  0.33605027  0.32656734  1
  Cs  Cs14  1  0.33419907  0.33010700  0.66817315  1
  Cs  Cs15  1  0.33227294  0.66414366  0.00212281  1
  Cs  Cs16  1  0.32439481  0.66576822  0.33681976  1
  Cs  Cs17  1  0.33156614  0.67056026  0.66287701  1
  Cs  Cs18  1  0.66822620  -0.00110206  0.00002668  1
  Cs  Cs19  1  0.66787973  -0.00160102  0.33334605  1
  Cs  Cs20  1  0.66557782  0.00057019  0.66631875  1
  Cs  Cs21  1  0.66232875  0.33709128  0.00173102  1
  Cs  Cs22  1  0.66478955  0.33173612  0.33234623  1
  Cs  Cs23  1  0.66607014  0.33461425  0.66703257  1
  Cs  Cs24  1  0.66716483  0.66627555  -0.00000490  1
  Cs  Cs25  1  0.66904708  0.67139847  0.33264140  1
  Cs  Cs26  1  0.66734346  0.66430845  0.66753269  1
  Sn  Sn27  1  0.16668951  0.49927361  0.83316692  1
  Sn  Sn28  1  0.16664705  0.16645563  0.50048723  1
  Sn  Sn29  1  0.50035706  0.49935494  0.50025326  1
  Sn  Sn30  1  0.83337958  0.16608872  0.50081574  1
  Sn  Sn31  1  0.16690430  0.16788007  0.83269048  1
  Sn  Sn32  1  0.50035562  0.83349322  0.16585431  1
  Sn  Sn33  1  0.83299419  0.50041665  0.16648964  1
  Sn  Sn34  1  0.83251761  0.83215141  0.16656448  1
  Sn  Sn35  1  0.50089088  0.83391892  0.83419425  1
  Sn  Sn36  1  0.83346915  0.83374738  0.50066606  1
  Sn  Sn37  1  0.83270522  0.16633235  0.83266684  1
  Sn  Sn38  1  0.50004451  0.16770755  0.50051119  1
  Sn  Sn39  1  0.83234980  0.83386048  0.83258807  1
  Sn  Sn40  1  0.50042162  0.16612886  0.83300683  1
  Pb  Pb41  1  0.16692836  0.16653974  0.16634198  1
  Pb  Pb42  1  0.49814329  0.50051177  0.83180901  1
  Pb  Pb43  1  0.16290573  0.83649852  0.50028047  1
  Pb  Pb44  1  0.16923274  0.49707030  0.50208277  1
  Pb  Pb45  1  0.16670359  0.83392359  0.83322928  1
  Pb  Pb46  1  0.83479337  0.49977409  0.83493945  1
  Pb  Pb47  1  0.16656900  0.83350707  0.16674790  1
  Pb  Pb48  1  0.50181494  0.50321139  0.16936678  1
  Pb  Pb49  1  0.50167467  0.83387097  0.50040058  1
  Pb  Pb50  1  0.50004124  0.16411686  0.16652007  1
  Pb  Pb51  1  0.16406426  0.49992315  0.16391196  1
  Pb  Pb52  1  0.83316583  0.16638033  0.16638428  1
  Pb  Pb53  1  0.83181191  0.49922368  0.49829954  1
  I  I54  1  0.16329901  -0.00001679  0.16459827  1
  I  I55  1  0.17346042  0.00449655  0.50798730  1
  I  I56  1  0.16646558  0.00356127  0.82917276  1
  I  I57  1  0.16374301  0.33339581  0.16834668  1
  I  I58  1  0.15963626  0.32905369  0.50285081  1
  I  I59  1  0.16505484  0.33094293  0.82904690  1
  I  I60  1  0.16835438  0.66659829  0.16450621  1
  I  I61  1  0.16787397  0.66646280  0.50098419  1
  I  I62  1  0.16601148  0.66456902  0.83529158  1
  I  I63  1  0.50901423  -0.00360817  0.16752389  1
  I  I64  1  0.49832402  0.00319461  0.50113789  1
  I  I65  1  0.49887338  0.00083472  0.83100892  1
  I  I66  1  0.50133943  0.33357508  0.16472889  1
  I  I67  1  0.50298311  0.33081216  0.50625659  1
  I  I68  1  0.50299300  0.33006609  0.83007935  1
  I  I69  1  0.50381917  0.67091395  0.16042262  1
  I  I70  1  0.50335189  0.66524051  0.50039593  1
  I  I71  1  0.50397575  0.66986405  0.83509540  1
  I  I72  1  0.82973665  -0.00324356  0.16720772  1
  I  I73  1  0.83110430  0.00078183  0.49839515  1
  I  I74  1  0.83506170  0.00023166  0.83485737  1
  I  I75  1  0.83510067  0.33548183  0.16689571  1
  I  I76  1  0.83487318  0.32957615  0.50364106  1
  I  I77  1  0.83155896  0.32982136  0.82969736  1
  I  I78  1  0.82904117  0.66883640  0.16602390  1
  I  I79  1  0.82913827  0.66937952  0.50240476  1
  I  I80  1  0.83039047  0.66994305  0.83151075  1
  I  I81  1  0.16540618  0.16931733  -0.00420817  1
  I  I82  1  0.16546323  0.16494164  0.33694174  1
  I  I83  1  0.16592791  0.16999478  0.66754074  1
  I  I84  1  0.16857004  0.49194777  -0.00374373  1
  I  I85  1  0.16697906  0.49924377  0.33353670  1
  I  I86  1  0.16389359  0.49864883  0.66969492  1
  I  I87  1  0.16188175  0.83629758  -0.00032873  1
  I  I88  1  0.16846246  0.83496600  0.33369618  1
  I  I89  1  0.16852207  0.82947861  0.66680805  1
  I  I90  1  0.50069295  0.16460520  -0.00374359  1
  I  I91  1  0.50049805  0.16899320  0.33679847  1
  I  I92  1  0.50001597  0.16402237  0.66717617  1
  I  I93  1  0.49906152  0.49742808  0.00004029  1
  I  I94  1  0.50083250  0.49252488  0.33694026  1
  I  I95  1  0.50167920  0.49993732  0.66406214  1
  I  I96  1  0.50844352  0.83882153  -0.00136506  1
  I  I97  1  0.50611199  0.83389927  0.33153060  1
  I  I98  1  0.50367515  0.83477167  0.66951628  1
  I  I99  1  0.83438576  0.16347949  -0.00362560  1
  I  I100  1  0.83344445  0.16323264  0.33659526  1
  I  I101  1  0.83351274  0.15943557  0.66692819  1
  I  I102  1  0.83367789  0.50472658  0.00269796  1
  I  I103  1  0.83199269  0.50501513  0.33051914  1
  I  I104  1  0.83399224  0.50329279  0.66668581  1
  I  I105  1  0.83011436  0.83375161  -0.00074908  1
  I  I106  1  0.82856893  0.83497282  0.33332463  1
  I  I107  1  0.82895577  0.83911661  0.66752461  1
  I  I108  1  -0.00028494  0.16415771  0.16631888  1
  I  I109  1  -0.00087378  0.16101389  0.50623851  1
  I  I110  1  -0.00073732  0.16643743  0.82827350  1
  I  I111  1  -0.00369235  0.50762307  0.16886785  1
  I  I112  1  0.00009892  0.50053593  0.49875073  1
  I  I113  1  0.00257164  0.49516657  0.83345631  1
  I  I114  1  -0.00406356  0.83071910  0.16531248  1
  I  I115  1  -0.00543216  0.83710254  0.50041237  1
  I  I116  1  -0.00348907  0.83685135  0.83482124  1
  I  I117  1  0.33361151  0.16439363  0.16690320  1
  I  I118  1  0.33398495  0.17086276  0.50725413  1
  I  I119  1  0.33401889  0.16521155  0.82701548  1
  I  I120  1  0.33348345  0.50115122  0.16728721  1
  I  I121  1  0.33698353  0.49698397  0.50017514  1
  I  I122  1  0.33047457  0.49500952  0.83217545  1
  I  I123  1  0.33672781  0.83567069  0.16080849  1
  I  I124  1  0.33338976  0.83297981  0.49907000  1
  I  I125  1  0.33659358  0.83654221  0.83803166  1
  I  I126  1  0.66675740  0.16920250  0.16770260  1
  I  I127  1  0.66689196  0.16634468  0.50547127  1
  I  I128  1  0.66676062  0.16099923  0.82701539  1
  I  I129  1  0.66954359  0.50161210  0.16463310  1
  I  I130  1  0.66418870  0.49363477  0.50138514  1
  I  I131  1  0.66657571  0.49771083  0.83380163  1
  I  I132  1  0.66804024  0.83022328  0.16564888  1
  I  I133  1  0.66980283  0.83906845  0.49915794  1
  I  I134  1  0.66744836  0.84072035  0.83422546  1
