# generated using pymatgen
data_Cs27Sn14Pb13I81
_symmetry_space_group_name_H-M   'P 1'
_cell_length_a   18.97259945
_cell_length_b   18.97200810
_cell_length_c   18.98205629
_cell_angle_alpha   90.00295508
_cell_angle_beta   89.99964650
_cell_angle_gamma   90.00013554
_symmetry_Int_Tables_number   1
_chemical_formula_structural   Cs27Sn14Pb13I81
_chemical_formula_sum   'Cs27 Sn14 Pb13 I81'
_cell_volume   6832.55907913
_cell_formula_units_Z   1
loop_
 _symmetry_equiv_pos_site_id
 _symmetry_equiv_pos_as_xyz
  1  'x, y, z'
loop_
 _atom_site_type_symbol
 _atom_site_label
 _atom_site_symmetry_multiplicity
 _atom_site_fract_x
 _atom_site_fract_y
 _atom_site_fract_z
 _atom_site_occupancy
  Cs  Cs0  1  -0.00081888  -0.00018667  0.00318962  1
  Cs  Cs1  1  0.00024753  -0.00081634  0.33327933  1
  Cs  Cs2  1  -0.00394306  -0.00334130  0.66444339  1
  Cs  Cs3  1  -0.00007625  0.33511082  0.00042082  1
  Cs  Cs4  1  0.00021251  0.33057844  0.32995982  1
  Cs  Cs5  1  0.00084138  0.33618377  0.66997144  1
  Cs  Cs6  1  0.00111371  0.66487282  -0.00156814  1
  Cs  Cs7  1  0.00289152  0.66990634  0.33593510  1
  Cs  Cs8  1  0.00008023  0.66768817  0.66596830  1
  Cs  Cs9  1  0.33928862  0.00184017  -0.00227764  1
  Cs  Cs10  1  0.33092135  0.00211943  0.33339270  1
  Cs  Cs11  1  0.33670736  0.00694812  0.66867615  1
  Cs  Cs12  1  0.32890970  0.32847463  -0.00687948  1
  Cs  Cs13  1  0.33624097  0.33210396  0.33645982  1
  Cs  Cs14  1  0.33698340  0.32503787  0.66940030  1
  Cs  Cs15  1  0.33498292  0.66798185  0.00212279  1
  Cs  Cs16  1  0.33192418  0.66568800  0.33188082  1
  Cs  Cs17  1  0.33155935  0.66632854  0.66612275  1
  Cs  Cs18  1  0.66289235  -0.00064541  -0.00192453  1
  Cs  Cs19  1  0.66971679  -0.00122219  0.33236991  1
  Cs  Cs20  1  0.66882106  0.00016699  0.66845338  1
  Cs  Cs21  1  0.67099949  0.33853710  0.00589112  1
  Cs  Cs22  1  0.66351023  0.33655540  0.32969436  1
  Cs  Cs23  1  0.66401255  0.33261786  0.66509294  1
  Cs  Cs24  1  0.66205429  0.66337016  0.00221248  1
  Cs  Cs25  1  0.66319622  0.66470240  0.33347013  1
  Cs  Cs26  1  0.66790705  0.66663008  0.66540917  1
  Sn  Sn27  1  0.49997801  0.50045528  0.83293571  1
  Sn  Sn28  1  0.83315091  0.83305611  0.49986136  1
  Sn  Sn29  1  0.83392137  0.83369662  0.83376353  1
  Sn  Sn30  1  0.16710222  0.83296684  0.50037029  1
  Sn  Sn31  1  0.50009634  0.16646939  0.16701566  1
  Sn  Sn32  1  0.83354153  0.16625127  0.83294113  1
  Sn  Sn33  1  0.83357753  0.16710130  0.50054387  1
  Sn  Sn34  1  0.83363718  0.83290455  0.16644292  1
  Sn  Sn35  1  0.83417854  0.49995752  0.49978475  1
  Sn  Sn36  1  0.16591141  0.83269840  0.16645599  1
  Sn  Sn37  1  0.16618458  0.83348116  0.83318675  1
  Sn  Sn38  1  0.16658445  0.50052726  0.16745779  1
  Sn  Sn39  1  0.49960745  0.83343031  0.50009298  1
  Sn  Sn40  1  0.16596610  0.50028692  0.49931175  1
  Pb  Pb41  1  0.50342511  0.16906842  0.83521524  1
  Pb  Pb42  1  0.49948565  0.83440021  0.16892044  1
  Pb  Pb43  1  0.83204396  0.50063498  0.83116677  1
  Pb  Pb44  1  0.16825943  0.50215866  0.83262747  1
  Pb  Pb45  1  0.16848511  0.16628024  0.16676295  1
  Pb  Pb46  1  0.16351564  0.16332290  0.83320894  1
  Pb  Pb47  1  0.83567445  0.50294573  0.16946479  1
  Pb  Pb48  1  0.16407162  0.16679809  0.50015207  1
  Pb  Pb49  1  0.50032735  0.83213312  0.83108109  1
  Pb  Pb50  1  0.83208988  0.16443596  0.16659381  1
  Pb  Pb51  1  0.50294826  0.16406972  0.49838153  1
  Pb  Pb52  1  0.49648179  0.49787035  0.16475122  1
  Pb  Pb53  1  0.49920852  0.50177125  0.50135234  1
  I  I54  1  0.16305807  -0.00393599  0.16870916  1
  I  I55  1  0.16564210  -0.00390455  0.49857307  1
  I  I56  1  0.16717393  -0.00511801  0.83276521  1
  I  I57  1  0.16895073  0.33636374  0.17238506  1
  I  I58  1  0.16215741  0.33677520  0.49412118  1
  I  I59  1  0.16736813  0.33342561  0.83425796  1
  I  I60  1  0.16336906  0.66838816  0.16824377  1
  I  I61  1  0.16170504  0.66828138  0.49947108  1
  I  I62  1  0.15960758  0.67043929  0.83237991  1
  I  I63  1  0.49932830  0.00193791  0.16673998  1
  I  I64  1  0.49868497  -0.00400871  0.50064740  1
  I  I65  1  0.49789359  0.00004912  0.83338211  1
  I  I66  1  0.50197369  0.33057425  0.16747503  1
  I  I67  1  0.50035398  0.33323101  0.50028081  1
  I  I68  1  0.49922596  0.33632381  0.83160117  1
  I  I69  1  0.50209498  0.66661576  0.16633688  1
  I  I70  1  0.50550716  0.66979129  0.49977474  1
  I  I71  1  0.50241561  0.66472145  0.83318435  1
  I  I72  1  0.83932346  -0.00385548  0.17196689  1
  I  I73  1  0.83311059  -0.00199368  0.50062478  1
  I  I74  1  0.83622563  -0.00185643  0.82771948  1
  I  I75  1  0.83328069  0.33359021  0.16648689  1
  I  I76  1  0.83783709  0.33355570  0.50569064  1
  I  I77  1  0.82944154  0.33109703  0.82801653  1
  I  I78  1  0.83310242  0.67119811  0.16519557  1
  I  I79  1  0.83409554  0.66834732  0.50061503  1
  I  I80  1  0.83631727  0.67023235  0.83151210  1
  I  I81  1  0.16505309  0.16802571  -0.00004236  1
  I  I82  1  0.16429423  0.16171543  0.33349340  1
  I  I83  1  0.17099097  0.16836848  0.66666804  1
  I  I84  1  0.16971314  0.50493484  0.00223799  1
  I  I85  1  0.16318159  0.50939876  0.33432414  1
  I  I86  1  0.16294348  0.50593628  0.66335686  1
  I  I87  1  0.15915897  0.82948592  0.00047675  1
  I  I88  1  0.16355162  0.82982682  0.33393566  1
  I  I89  1  0.16281864  0.82879342  0.66559437  1
  I  I90  1  0.50100503  0.16400607  0.00250646  1
  I  I91  1  0.50172594  0.16646441  0.33102628  1
  I  I92  1  0.49878739  0.16701351  0.66667269  1
  I  I93  1  0.50103894  0.50199892  -0.00268737  1
  I  I94  1  0.50212495  0.49950502  0.33338328  1
  I  I95  1  0.49918860  0.50150771  0.66880967  1
  I  I96  1  0.50032372  0.83364721  -0.00000081  1
  I  I97  1  0.50213831  0.83313980  0.33675856  1
  I  I98  1  0.50098830  0.83235127  0.66324163  1
  I  I99  1  0.83115406  0.16068567  -0.00257914  1
  I  I100  1  0.83220199  0.16421826  0.33612043  1
  I  I101  1  0.83295953  0.15988763  0.66592937  1
  I  I102  1  0.83289281  0.49917666  0.00017534  1
  I  I103  1  0.83256234  0.49941420  0.33761606  1
  I  I104  1  0.83886465  0.50531902  0.66305000  1
  I  I105  1  0.84026552  0.83916876  -0.00049889  1
  I  I106  1  0.83562771  0.83425697  0.33469228  1
  I  I107  1  0.83556094  0.83401711  0.66563683  1
  I  I108  1  -0.00015271  0.16769928  0.16649824  1
  I  I109  1  -0.00402486  0.16041757  0.50190601  1
  I  I110  1  -0.00434581  0.16667245  0.82997758  1
  I  I111  1  0.00351966  0.50075163  0.16606793  1
  I  I112  1  0.00001581  0.50602599  0.49805195  1
  I  I113  1  0.00005673  0.49752393  0.83508547  1
  I  I114  1  0.00019136  0.83155144  0.17083256  1
  I  I115  1  -0.00056210  0.83308261  0.50007749  1
  I  I116  1  -0.00076374  0.83583310  0.82906364  1
  I  I117  1  0.33609877  0.16404005  0.16677200  1
  I  I118  1  0.33349714  0.16597732  0.49852985  1
  I  I119  1  0.33356760  0.16635060  0.83486918  1
  I  I120  1  0.32909598  0.50916106  0.17436390  1
  I  I121  1  0.32993335  0.50726242  0.49679563  1
  I  I122  1  0.33569813  0.50298621  0.83212455  1
  I  I123  1  0.32986510  0.83080438  0.16714484  1
  I  I124  1  0.33177060  0.82715637  0.49909005  1
  I  I125  1  0.33057933  0.82932886  0.83355890  1
  I  I126  1  0.66455317  0.16408066  0.16719575  1
  I  I127  1  0.67097622  0.16551810  0.50366829  1
  I  I128  1  0.67071394  0.15768248  0.82827668  1
  I  I129  1  0.66668865  0.50040385  0.16690076  1
  I  I130  1  0.66932898  0.50232392  0.50301832  1
  I  I131  1  0.66450751  0.50227925  0.83114346  1
  I  I132  1  0.66934393  0.83664713  0.16760681  1
  I  I133  1  0.66879873  0.83338250  0.50015684  1
  I  I134  1  0.67005660  0.83612359  0.83215899  1
