# generated using pymatgen
data_Cs27Sn14Pb13I81
_symmetry_space_group_name_H-M   'P 1'
_cell_length_a   18.96952230
_cell_length_b   18.98781849
_cell_length_c   18.96954776
_cell_angle_alpha   90.00119199
_cell_angle_beta   90.00414571
_cell_angle_gamma   89.99881557
_symmetry_Int_Tables_number   1
_chemical_formula_structural   Cs27Sn14Pb13I81
_chemical_formula_sum   'Cs27 Sn14 Pb13 I81'
_cell_volume   6832.63847139
_cell_formula_units_Z   1
loop_
 _symmetry_equiv_pos_site_id
 _symmetry_equiv_pos_as_xyz
  1  'x, y, z'
loop_
 _atom_site_type_symbol
 _atom_site_label
 _atom_site_symmetry_multiplicity
 _atom_site_fract_x
 _atom_site_fract_y
 _atom_site_fract_z
 _atom_site_occupancy
  Cs  Cs0  1  0.00152195  -0.00176846  0.00067355  1
  Cs  Cs1  1  -0.00024488  -0.00110122  0.33595672  1
  Cs  Cs2  1  -0.00143182  -0.00045654  0.66362375  1
  Cs  Cs3  1  -0.00081361  0.33188963  0.00165497  1
  Cs  Cs4  1  -0.00093704  0.33459931  0.33331593  1
  Cs  Cs5  1  0.00013772  0.33546536  0.66555307  1
  Cs  Cs6  1  -0.00103014  0.66861226  0.00292467  1
  Cs  Cs7  1  0.00103531  0.66763963  0.32896709  1
  Cs  Cs8  1  0.00285220  0.66435430  0.66708310  1
  Cs  Cs9  1  0.33135229  0.00321371  0.00256571  1
  Cs  Cs10  1  0.33323573  0.00035912  0.33006683  1
  Cs  Cs11  1  0.33241719  0.00189856  0.66836416  1
  Cs  Cs12  1  0.33145259  0.32466713  0.00102789  1
  Cs  Cs13  1  0.33498668  0.33280810  0.33405309  1
  Cs  Cs14  1  0.33249207  0.33561354  0.66504709  1
  Cs  Cs15  1  0.33089290  0.67060283  -0.00169384  1
  Cs  Cs16  1  0.33759842  0.66598371  0.33629411  1
  Cs  Cs17  1  0.33033893  0.66145026  0.66487682  1
  Cs  Cs18  1  0.66671064  -0.00028778  -0.00223241  1
  Cs  Cs19  1  0.66599498  -0.00322565  0.33802805  1
  Cs  Cs20  1  0.66802653  0.00154764  0.66591012  1
  Cs  Cs21  1  0.66834145  0.33511170  -0.00166044  1
  Cs  Cs22  1  0.66696953  0.33704546  0.32918639  1
  Cs  Cs23  1  0.66743054  0.33048461  0.66934887  1
  Cs  Cs24  1  0.66874130  0.66506335  -0.00064896  1
  Cs  Cs25  1  0.65709461  0.66596618  0.33327733  1
  Cs  Cs26  1  0.66610316  0.66749095  0.66818804  1
  Sn  Sn27  1  0.49938768  0.16658820  0.50057019  1
  Sn  Sn28  1  0.83283741  0.83351257  0.83378190  1
  Sn  Sn29  1  0.16655034  0.83389613  0.49928498  1
  Sn  Sn30  1  0.16739734  0.16602534  0.50010104  1
  Sn  Sn31  1  0.16607368  0.83245190  0.16782154  1
  Sn  Sn32  1  0.83302255  0.16637073  0.83410026  1
  Sn  Sn33  1  0.83311471  0.16524590  0.16605126  1
  Sn  Sn34  1  0.16705649  0.50074119  0.16633250  1
  Sn  Sn35  1  0.83293802  0.50011256  0.83228946  1
  Sn  Sn36  1  0.83302044  0.50051809  0.50041492  1
  Sn  Sn37  1  0.50031529  0.49975110  0.83363576  1
  Sn  Sn38  1  0.50072933  0.16663292  0.83252958  1
  Sn  Sn39  1  0.50060889  0.83353774  0.83327033  1
  Sn  Sn40  1  0.83340744  0.83431522  0.16634001  1
  Pb  Pb41  1  0.16616551  0.16670981  0.83093415  1
  Pb  Pb42  1  0.49678759  0.49995069  0.16338285  1
  Pb  Pb43  1  0.50313964  0.16648016  0.16652798  1
  Pb  Pb44  1  0.83300030  0.16813890  0.50003113  1
  Pb  Pb45  1  0.16639401  0.49982893  0.83591494  1
  Pb  Pb46  1  0.50245512  0.49753118  0.50231856  1
  Pb  Pb47  1  0.83479069  0.83089850  0.49994596  1
  Pb  Pb48  1  0.16630666  0.83345459  0.83347295  1
  Pb  Pb49  1  0.50020069  0.83339040  0.16431824  1
  Pb  Pb50  1  0.16507495  0.50011986  0.49795883  1
  Pb  Pb51  1  0.49733218  0.83538564  0.50294256  1
  Pb  Pb52  1  0.16431646  0.16598716  0.16911415  1
  Pb  Pb53  1  0.83415193  0.50070911  0.16611911  1
  I  I54  1  0.16400711  -0.00291824  0.16823637  1
  I  I55  1  0.16838094  -0.00010600  0.49493301  1
  I  I56  1  0.16739125  -0.00000572  0.83697458  1
  I  I57  1  0.16413461  0.33480581  0.16657746  1
  I  I58  1  0.16880096  0.33095259  0.49944207  1
  I  I59  1  0.16596563  0.33326433  0.83417538  1
  I  I60  1  0.15903650  0.66839504  0.17076807  1
  I  I61  1  0.16347961  0.66914569  0.49857685  1
  I  I62  1  0.16778212  0.66676652  0.82877145  1
  I  I63  1  0.49475640  0.00001792  0.16378716  1
  I  I64  1  0.50085074  0.00325406  0.50636897  1
  I  I65  1  0.50635188  0.00058668  0.82947950  1
  I  I66  1  0.49980326  0.33314418  0.16490679  1
  I  I67  1  0.49341971  0.32978078  0.50611937  1
  I  I68  1  0.50694430  0.33271641  0.82945171  1
  I  I69  1  0.50474538  0.66671118  0.16517010  1
  I  I70  1  0.49905210  0.66659014  0.50126553  1
  I  I71  1  0.50670695  0.66673495  0.83561714  1
  I  I72  1  0.83941553  -0.00081163  0.15849789  1
  I  I73  1  0.83302138  -0.00009145  0.50190810  1
  I  I74  1  0.82784228  0.00002482  0.83811627  1
  I  I75  1  0.83506205  0.33150456  0.16397690  1
  I  I76  1  0.83572966  0.33572090  0.50402144  1
  I  I77  1  0.82809833  0.33299540  0.83355847  1
  I  I78  1  0.83767560  0.66960434  0.16232112  1
  I  I79  1  0.83684765  0.66347528  0.50512776  1
  I  I80  1  0.82791188  0.66697181  0.83371688  1
  I  I81  1  0.16926242  0.16637979  0.00024153  1
  I  I82  1  0.17045864  0.16583398  0.33683137  1
  I  I83  1  0.16516356  0.16101303  0.66304632  1
  I  I84  1  0.16384097  0.50735457  0.00344144  1
  I  I85  1  0.16139092  0.50107386  0.33037018  1
  I  I86  1  0.16724877  0.50071013  0.66667895  1
  I  I87  1  0.16506203  0.82875283  0.00277717  1
  I  I88  1  0.15931136  0.83393428  0.33245773  1
  I  I89  1  0.16641280  0.83780389  0.66422768  1
  I  I90  1  0.50176803  0.16715814  -0.00374235  1
  I  I91  1  0.49685570  0.16687550  0.33615285  1
  I  I92  1  0.50220792  0.16637074  0.66832442  1
  I  I93  1  0.50895417  0.49724968  -0.00479695  1
  I  I94  1  0.50224931  0.49817984  0.33352027  1
  I  I95  1  0.50059660  0.50242777  0.67062091  1
  I  I96  1  0.49904897  0.83635706  -0.00417467  1
  I  I97  1  0.50280129  0.83486486  0.33358916  1
  I  I98  1  0.50625963  0.83188620  0.67099980  1
  I  I99  1  0.82886770  0.16896615  -0.00161748  1
  I  I100  1  0.83498792  0.16450148  0.33106740  1
  I  I101  1  0.83225368  0.16449122  0.66975511  1
  I  I102  1  0.83050452  0.49949031  -0.00330636  1
  I  I103  1  0.83777034  0.49724362  0.33491302  1
  I  I104  1  0.83157911  0.49876940  0.66881098  1
  I  I105  1  0.83592607  0.83211910  -0.00082084  1
  I  I106  1  0.83781307  0.83741706  0.33046751  1
  I  I107  1  0.83091162  0.83638506  0.66995045  1
  I  I108  1  -0.00350871  0.16635369  0.16114629  1
  I  I109  1  0.00191298  0.16453889  0.49941723  1
  I  I110  1  -0.00375378  0.16670370  0.83597167  1
  I  I111  1  0.00197417  0.50136225  0.16492325  1
  I  I112  1  -0.00268590  0.49662829  0.50750671  1
  I  I113  1  -0.00361539  0.50014081  0.83050580  1
  I  I114  1  -0.00054847  0.83318413  0.16348833  1
  I  I115  1  0.00276701  0.84008350  0.50109589  1
  I  I116  1  -0.00348596  0.83321627  0.83447689  1
  I  I117  1  0.33326491  0.16690269  0.16379673  1
  I  I118  1  0.33346898  0.16366168  0.50601558  1
  I  I119  1  0.33653394  0.16700935  0.83145429  1
  I  I120  1  0.32900419  0.50650869  0.16737921  1
  I  I121  1  0.33353034  0.50098305  0.50088409  1
  I  I122  1  0.33646674  0.50014919  0.83495365  1
  I  I123  1  0.33017551  0.82896567  0.16880851  1
  I  I124  1  0.32938649  0.83380629  0.49481702  1
  I  I125  1  0.33616578  0.83347617  0.83281394  1
  I  I126  1  0.67118131  0.16210965  0.16691787  1
  I  I127  1  0.66442525  0.16883434  0.50287525  1
  I  I128  1  0.66712912  0.16664796  0.83103654  1
  I  I129  1  0.66669803  0.49973558  0.16931537  1
  I  I130  1  0.67033814  0.49870053  0.49999610  1
  I  I131  1  0.66786095  0.49954456  0.82999113  1
  I  I132  1  0.67014024  0.83727498  0.16383959  1
  I  I133  1  0.66658432  0.83403404  0.49707226  1
  I  I134  1  0.66802430  0.83329197  0.83859206  1
