# generated using pymatgen
data_Cs27Sn13Pb14I81
_symmetry_space_group_name_H-M   'P 1'
_cell_length_a   18.97013571
_cell_length_b   18.98005589
_cell_length_c   18.98510861
_cell_angle_alpha   89.99971145
_cell_angle_beta   90.00048584
_cell_angle_gamma   89.99894545
_symmetry_Int_Tables_number   1
_chemical_formula_structural   Cs27Sn13Pb14I81
_chemical_formula_sum   'Cs27 Sn13 Pb14 I81'
_cell_volume   6835.66877533
_cell_formula_units_Z   1
loop_
 _symmetry_equiv_pos_site_id
 _symmetry_equiv_pos_as_xyz
  1  'x, y, z'
loop_
 _atom_site_type_symbol
 _atom_site_label
 _atom_site_symmetry_multiplicity
 _atom_site_fract_x
 _atom_site_fract_y
 _atom_site_fract_z
 _atom_site_occupancy
  Cs  Cs0  1  0.00054821  -0.00510664  0.00183903  1
  Cs  Cs1  1  -0.00086474  -0.00022708  0.33147900  1
  Cs  Cs2  1  -0.00134009  0.00330967  0.66743747  1
  Cs  Cs3  1  0.00049610  0.33800145  0.00185350  1
  Cs  Cs4  1  0.00060385  0.33410374  0.33403536  1
  Cs  Cs5  1  -0.00008991  0.33120280  0.66624438  1
  Cs  Cs6  1  0.00127153  0.66953669  0.00125773  1
  Cs  Cs7  1  0.00621481  0.66714253  0.32805308  1
  Cs  Cs8  1  0.00844693  0.66730907  0.67213630  1
  Cs  Cs9  1  0.33309138  0.00101608  0.00222148  1
  Cs  Cs10  1  0.33413205  -0.00050609  0.33200829  1
  Cs  Cs11  1  0.33386795  -0.00148480  0.66510971  1
  Cs  Cs12  1  0.33420952  0.33203104  0.00210798  1
  Cs  Cs13  1  0.33262900  0.33162563  0.32862217  1
  Cs  Cs14  1  0.33234299  0.33365425  0.66811419  1
  Cs  Cs15  1  0.33501082  0.66757119  -0.00099381  1
  Cs  Cs16  1  0.32847907  0.66791822  0.33643044  1
  Cs  Cs17  1  0.32824227  0.66799051  0.66468826  1
  Cs  Cs18  1  0.66689063  -0.00191359  -0.00092933  1
  Cs  Cs19  1  0.66574585  0.00133044  0.33662925  1
  Cs  Cs20  1  0.66693379  0.00061070  0.66481524  1
  Cs  Cs21  1  0.66594208  0.33514920  -0.00076977  1
  Cs  Cs22  1  0.66625464  0.33286153  0.33485114  1
  Cs  Cs23  1  0.66705355  0.33308491  0.66588206  1
  Cs  Cs24  1  0.66785846  0.66723771  0.00159567  1
  Cs  Cs25  1  0.66707092  0.66563704  0.33203598  1
  Cs  Cs26  1  0.66660515  0.66548737  0.66723300  1
  Sn  Sn27  1  0.50045810  0.83332463  0.83365650  1
  Sn  Sn28  1  0.83355911  0.83247627  0.50030943  1
  Sn  Sn29  1  0.83357489  0.16685918  0.83394482  1
  Sn  Sn30  1  0.49995990  0.16647919  0.83305093  1
  Sn  Sn31  1  0.16622187  0.16675584  0.50044829  1
  Sn  Sn32  1  0.83320552  0.50081025  0.50037749  1
  Sn  Sn33  1  0.50041334  0.50025317  0.83303873  1
  Sn  Sn34  1  0.50048746  0.49982266  0.50000661  1
  Sn  Sn35  1  0.50054129  0.83267745  0.16647362  1
  Sn  Sn36  1  0.83395305  0.16685273  0.49985986  1
  Sn  Sn37  1  0.16656371  0.16675974  0.83272538  1
  Sn  Sn38  1  0.83298925  0.16685430  0.16645265  1
  Sn  Sn39  1  0.50049455  0.50093466  0.16691936  1
  Pb  Pb40  1  0.83111373  0.83505328  0.16873598  1
  Pb  Pb41  1  0.16920993  0.83597365  0.83335175  1
  Pb  Pb42  1  0.50156053  0.83079630  0.50009129  1
  Pb  Pb43  1  0.16950108  0.83346209  0.16658723  1
  Pb  Pb44  1  0.49986610  0.16851622  0.50191043  1
  Pb  Pb45  1  0.16628797  0.49761286  0.50001803  1
  Pb  Pb46  1  0.83183551  0.49846384  0.83142783  1
  Pb  Pb47  1  0.83147217  0.49839563  0.16879329  1
  Pb  Pb48  1  0.16372247  0.16669216  0.16628231  1
  Pb  Pb49  1  0.83145592  0.83501169  0.83148806  1
  Pb  Pb50  1  0.16895643  0.49775558  0.83347348  1
  Pb  Pb51  1  0.16343866  0.83626898  0.50008580  1
  Pb  Pb52  1  0.50195078  0.16656008  0.16432203  1
  Pb  Pb53  1  0.16926945  0.49999140  0.16651733  1
  I  I54  1  0.17031555  0.00050250  0.16751411  1
  I  I55  1  0.16281564  0.00447173  0.50470305  1
  I  I56  1  0.16857244  0.00456665  0.82856024  1
  I  I57  1  0.17048943  0.33286582  0.16714057  1
  I  I58  1  0.16133910  0.32960171  0.50461593  1
  I  I59  1  0.16865198  0.32899177  0.82845703  1
  I  I60  1  0.16362990  0.66673019  0.16777075  1
  I  I61  1  0.16678431  0.66664595  0.49939227  1
  I  I62  1  0.16866366  0.66681686  0.83277237  1
  I  I63  1  0.50177949  -0.00224199  0.16182230  1
  I  I64  1  0.50104604  0.00008283  0.50015573  1
  I  I65  1  0.50050745  0.00068092  0.83780001  1
  I  I66  1  0.50165413  0.33587088  0.16626991  1
  I  I67  1  0.50547838  0.33648300  0.49971392  1
  I  I68  1  0.50040744  0.33301528  0.83278549  1
  I  I69  1  0.50153989  0.66608004  0.16109216  1
  I  I70  1  0.50602922  0.66281712  0.50419595  1
  I  I71  1  0.50136683  0.66625058  0.83416586  1
  I  I72  1  0.83013873  0.00342333  0.16878165  1
  I  I73  1  0.83666940  0.00183048  0.50049865  1
  I  I74  1  0.82978470  0.00426398  0.82996281  1
  I  I75  1  0.82996131  0.32999359  0.16836243  1
  I  I76  1  0.83214982  0.33204810  0.50048670  1
  I  I77  1  0.82989990  0.32910647  0.83034131  1
  I  I78  1  0.83251027  0.66665114  0.16949999  1
  I  I79  1  0.82328347  0.66588536  0.49966555  1
  I  I80  1  0.82961849  0.66667307  0.83038712  1
  I  I81  1  0.16861903  0.16689663  -0.00348929  1
  I  I82  1  0.16182715  0.16746802  0.33622715  1
  I  I83  1  0.16212464  0.16729030  0.66694443  1
  I  I84  1  0.16848747  0.49501109  -0.00014618  1
  I  I85  1  0.16984857  0.49599466  0.33359859  1
  I  I86  1  0.17040331  0.50028765  0.66662136  1
  I  I87  1  0.16447433  0.83723185  -0.00020960  1
  I  I88  1  0.17004520  0.83673922  0.33360406  1
  I  I89  1  0.17056634  0.83233642  0.66663308  1
  I  I90  1  0.49976487  0.17084454  -0.00396601  1
  I  I91  1  0.50033523  0.16683063  0.33333728  1
  I  I92  1  0.50427938  0.16618488  0.67025272  1
  I  I93  1  0.49869054  0.49894186  -0.00054783  1
  I  I94  1  0.50497991  0.50338893  0.33357041  1
  I  I95  1  0.50462011  0.49774605  0.66688176  1
  I  I96  1  0.50074661  0.82991758  -0.00083315  1
  I  I97  1  0.50237959  0.82970107  0.33099005  1
  I  I98  1  0.50187154  0.83474087  0.66946096  1
  I  I99  1  0.83064285  0.16657742  -0.00104502  1
  I  I100  1  0.83681327  0.16684860  0.33504601  1
  I  I101  1  0.83307709  0.16677402  0.66627692  1
  I  I102  1  0.83012446  0.49549976  -0.00002046  1
  I  I103  1  0.82581772  0.49533240  0.33721618  1
  I  I104  1  0.82549337  0.49574086  0.66294997  1
  I  I105  1  0.83255586  0.83715401  -0.00003386  1
  I  I106  1  0.82901660  0.83781994  0.33678070  1
  I  I107  1  0.82873555  0.83735635  0.66343419  1
  I  I108  1  -0.00428747  0.16652571  0.16443094  1
  I  I109  1  -0.00196781  0.16835872  0.50511562  1
  I  I110  1  -0.00089665  0.16664263  0.83001122  1
  I  I111  1  -0.00049738  0.49720989  0.16909955  1
  I  I112  1  -0.00343480  0.49869294  0.49999051  1
  I  I113  1  -0.00009061  0.49725582  0.83048798  1
  I  I114  1  -0.00049683  0.83570729  0.16815391  1
  I  I115  1  -0.00469534  0.83010389  0.50008489  1
  I  I116  1  -0.00010752  0.83543611  0.83159983  1
  I  I117  1  0.33360021  0.16683272  0.16724097  1
  I  I118  1  0.33110461  0.16898524  0.50525003  1
  I  I119  1  0.33414765  0.16737544  0.82827425  1
  I  I120  1  0.33871002  0.50087953  0.16925181  1
  I  I121  1  0.33662886  0.49839978  0.50046269  1
  I  I122  1  0.33838388  0.49724780  0.83040500  1
  I  I123  1  0.33829019  0.83151719  0.16365183  1
  I  I124  1  0.33342623  0.83384234  0.49955483  1
  I  I125  1  0.33810653  0.83510370  0.83569302  1
  I  I126  1  0.66967980  0.16700184  0.16932171  1
  I  I127  1  0.66984682  0.16564904  0.50104999  1
  I  I128  1  0.66655289  0.16702351  0.83234651  1
  I  I129  1  0.66275952  0.50200963  0.16437925  1
  I  I130  1  0.66641302  0.49586718  0.50045345  1
  I  I131  1  0.66263700  0.49608910  0.83434079  1
  I  I132  1  0.66301847  0.83002679  0.16220630  1
  I  I133  1  0.66928583  0.84102087  0.50048321  1
  I  I134  1  0.66274580  0.83644492  0.83587530  1
