# generated using pymatgen
data_Cs27Sn13Pb14I81
_symmetry_space_group_name_H-M   'P 1'
_cell_length_a   18.98396027
_cell_length_b   18.97102600
_cell_length_c   18.97453195
_cell_angle_alpha   89.99873274
_cell_angle_beta   89.99964563
_cell_angle_gamma   90.00011299
_symmetry_Int_Tables_number   1
_chemical_formula_structural   Cs27Sn13Pb14I81
_chemical_formula_sum   'Cs27 Sn13 Pb14 I81'
_cell_volume   6833.58667670
_cell_formula_units_Z   1
loop_
 _symmetry_equiv_pos_site_id
 _symmetry_equiv_pos_as_xyz
  1  'x, y, z'
loop_
 _atom_site_type_symbol
 _atom_site_label
 _atom_site_symmetry_multiplicity
 _atom_site_fract_x
 _atom_site_fract_y
 _atom_site_fract_z
 _atom_site_occupancy
  Cs  Cs0  1  -0.00022673  0.00015769  -0.00049758  1
  Cs  Cs1  1  -0.00106556  -0.00079367  0.33565401  1
  Cs  Cs2  1  0.00268625  0.00027503  0.66543065  1
  Cs  Cs3  1  0.00363910  0.33047598  -0.00197208  1
  Cs  Cs4  1  0.00061247  0.33953382  0.33410365  1
  Cs  Cs5  1  -0.00150635  0.33345899  0.66730847  1
  Cs  Cs6  1  -0.00645127  0.66932204  0.00278054  1
  Cs  Cs7  1  0.00119486  0.65995087  0.33474988  1
  Cs  Cs8  1  0.00537142  0.66540828  0.66290427  1
  Cs  Cs9  1  0.32779183  -0.00072632  0.00025860  1
  Cs  Cs10  1  0.33480264  -0.00032100  0.33280538  1
  Cs  Cs11  1  0.32986074  -0.00236391  0.66655228  1
  Cs  Cs12  1  0.33075579  0.33271962  0.00434456  1
  Cs  Cs13  1  0.33556546  0.33094070  0.32304213  1
  Cs  Cs14  1  0.33690470  0.33382204  0.66858403  1
  Cs  Cs15  1  0.33615787  0.66681889  0.00056422  1
  Cs  Cs16  1  0.33097110  0.66816498  0.33321606  1
  Cs  Cs17  1  0.33351833  0.66833054  0.66629576  1
  Cs  Cs18  1  0.67074446  -0.00406594  -0.00182356  1
  Cs  Cs19  1  0.66572121  0.00117792  0.33552353  1
  Cs  Cs20  1  0.66613026  0.00164791  0.66443893  1
  Cs  Cs21  1  0.66554019  0.33482007  -0.00336821  1
  Cs  Cs22  1  0.66431023  0.33295257  0.33188561  1
  Cs  Cs23  1  0.66698962  0.33303570  0.66686602  1
  Cs  Cs24  1  0.66819760  0.66974267  0.00158507  1
  Cs  Cs25  1  0.66778068  0.66681981  0.33187401  1
  Cs  Cs26  1  0.66395320  0.66557572  0.66807540  1
  Sn  Sn27  1  0.50031487  0.16687821  0.83332880  1
  Sn  Sn28  1  0.16633191  0.16721694  0.49985278  1
  Sn  Sn29  1  0.83247012  0.16722719  0.83333363  1
  Sn  Sn30  1  0.16686116  0.83326538  0.16690942  1
  Sn  Sn31  1  0.83274045  0.83341333  0.50036115  1
  Sn  Sn32  1  0.49945762  0.83357569  0.16743360  1
  Sn  Sn33  1  0.83422228  0.16632184  0.49970177  1
  Sn  Sn34  1  0.50084977  0.83250618  0.49936804  1
  Sn  Sn35  1  0.16686018  0.50028381  0.83333630  1
  Sn  Sn36  1  0.49990663  0.49909589  0.83260788  1
  Sn  Sn37  1  0.83317232  0.16695069  0.16685852  1
  Sn  Sn38  1  0.83336546  0.49952841  0.83292846  1
  Sn  Sn39  1  0.49981878  0.50045008  0.50014545  1
  Pb  Pb40  1  0.50004773  0.83353350  0.83298183  1
  Pb  Pb41  1  0.83348792  0.83359648  0.83021262  1
  Pb  Pb42  1  0.16993089  0.49720522  0.50151910  1
  Pb  Pb43  1  0.16644206  0.83055182  0.83569463  1
  Pb  Pb44  1  0.50021339  0.16661636  0.50146938  1
  Pb  Pb45  1  0.16424389  0.16493906  0.16916123  1
  Pb  Pb46  1  0.83322155  0.83505848  0.16945475  1
  Pb  Pb47  1  0.50015373  0.50217488  0.16631844  1
  Pb  Pb48  1  0.16689804  0.83470108  0.49835135  1
  Pb  Pb49  1  0.83317556  0.49707952  0.16383739  1
  Pb  Pb50  1  0.16657736  0.50235174  0.16407869  1
  Pb  Pb51  1  0.16654051  0.16821675  0.83175177  1
  Pb  Pb52  1  0.50209632  0.16394964  0.16334046  1
  Pb  Pb53  1  0.83132652  0.49957368  0.50190669  1
  I  I54  1  0.17161961  -0.00281538  0.16613882  1
  I  I55  1  0.16624478  0.00269649  0.50139163  1
  I  I56  1  0.16734291  0.00018235  0.83305889  1
  I  I57  1  0.16580346  0.33315999  0.16693563  1
  I  I58  1  0.15900068  0.32969372  0.50132532  1
  I  I59  1  0.16689798  0.33621599  0.83210456  1
  I  I60  1  0.17019813  0.67029076  0.16782994  1
  I  I61  1  0.16417408  0.66642495  0.50010721  1
  I  I62  1  0.16790686  0.66232856  0.83162489  1
  I  I63  1  0.49720056  -0.00363319  0.17291540  1
  I  I64  1  0.50161110  -0.00245324  0.49810972  1
  I  I65  1  0.50642786  0.00284220  0.83271493  1
  I  I66  1  0.50097645  0.33299595  0.16939083  1
  I  I67  1  0.50056828  0.33552014  0.50509258  1
  I  I68  1  0.50202885  0.33423299  0.82678150  1
  I  I69  1  0.49787936  0.67025860  0.16573345  1
  I  I70  1  0.50496784  0.66734418  0.50295210  1
  I  I71  1  0.50090869  0.66347823  0.83228472  1
  I  I72  1  0.83271289  0.00300361  0.16127528  1
  I  I73  1  0.83077492  0.00107908  0.50199678  1
  I  I74  1  0.82799915  0.00367200  0.83473551  1
  I  I75  1  0.83334665  0.32895311  0.17268288  1
  I  I76  1  0.83559884  0.33005502  0.49971417  1
  I  I77  1  0.83186367  0.33234277  0.83119881  1
  I  I78  1  0.83346356  0.66688746  0.16556775  1
  I  I79  1  0.83049767  0.66895091  0.50140869  1
  I  I80  1  0.83141550  0.66357411  0.83227595  1
  I  I81  1  0.16595348  0.16644950  0.00000123  1
  I  I82  1  0.16266764  0.16605397  0.33700288  1
  I  I83  1  0.16111270  0.16519712  0.66399427  1
  I  I84  1  0.16976161  0.49790717  -0.00425091  1
  I  I85  1  0.16769397  0.49972575  0.33347735  1
  I  I86  1  0.16442601  0.50002573  0.66966863  1
  I  I87  1  0.17333299  0.83441718  0.00356386  1
  I  I88  1  0.16866850  0.83508142  0.33072988  1
  I  I89  1  0.16707897  0.83389187  0.66631840  1
  I  I90  1  0.50443970  0.17242937  -0.00450926  1
  I  I91  1  0.50082324  0.16917618  0.33329953  1
  I  I92  1  0.50566814  0.16689926  0.66941503  1
  I  I93  1  0.50031355  0.49726591  -0.00375256  1
  I  I94  1  0.50073581  0.50177959  0.33623441  1
  I  I95  1  0.50069881  0.50235753  0.66770077  1
  I  I96  1  0.49631693  0.83370962  0.00240068  1
  I  I97  1  0.50047296  0.82874349  0.33468157  1
  I  I98  1  0.50445977  0.83230306  0.66362614  1
  I  I99  1  0.82839363  0.17069513  -0.00133044  1
  I  I100  1  0.83723554  0.16005183  0.33461643  1
  I  I101  1  0.83279868  0.16680392  0.66679629  1
  I  I102  1  0.83009615  0.49664024  -0.00477595  1
  I  I103  1  0.83182731  0.49949761  0.33364992  1
  I  I104  1  0.83374168  0.49427282  0.67010536  1
  I  I105  1  0.83283627  0.83392864  0.00008622  1
  I  I106  1  0.83091259  0.83979344  0.33716487  1
  I  I107  1  0.82683210  0.83921463  0.66248785  1
  I  I108  1  -0.00359111  0.16298769  0.16036884  1
  I  I109  1  -0.00224597  0.16015441  0.50284106  1
  I  I110  1  -0.00332798  0.17072481  0.83434795  1
  I  I111  1  -0.00017477  0.50387838  0.16582035  1
  I  I112  1  -0.00000218  0.50280345  0.50213879  1
  I  I113  1  -0.00094296  0.49517509  0.83416904  1
  I  I114  1  0.00189462  0.83538547  0.16615244  1
  I  I115  1  -0.00252503  0.83702857  0.49972865  1
  I  I116  1  -0.00019941  0.83352278  0.83425675  1
  I  I117  1  0.33343131  0.16706329  0.16692220  1
  I  I118  1  0.33177252  0.16602742  0.50387846  1
  I  I119  1  0.33588621  0.17042175  0.83017289  1
  I  I120  1  0.33351028  0.49752380  0.16422784  1
  I  I121  1  0.33754972  0.50546157  0.50748933  1
  I  I122  1  0.33477653  0.49676751  0.82921464  1
  I  I123  1  0.33447492  0.83331733  0.17221268  1
  I  I124  1  0.33637182  0.83159021  0.49870259  1
  I  I125  1  0.33350549  0.83453847  0.82923958  1
  I  I126  1  0.66987723  0.16418425  0.17199546  1
  I  I127  1  0.66951365  0.16486782  0.49989471  1
  I  I128  1  0.66776388  0.17401753  0.83101702  1
  I  I129  1  0.66662042  0.50296993  0.16437801  1
  I  I130  1  0.66349364  0.49983270  0.50667142  1
  I  I131  1  0.66622962  0.49478437  0.82930723  1
  I  I132  1  0.66425040  0.83429317  0.16844655  1
  I  I133  1  0.66599082  0.83614781  0.49525216  1
  I  I134  1  0.66669013  0.82979424  0.83797723  1
