# generated using pymatgen
data_Cs27Sn13Pb14I81
_symmetry_space_group_name_H-M   'P 1'
_cell_length_a   18.98376782
_cell_length_b   18.97056840
_cell_length_c   18.97571686
_cell_angle_alpha   89.99974715
_cell_angle_beta   90.00102867
_cell_angle_gamma   90.00012614
_symmetry_Int_Tables_number   1
_chemical_formula_structural   Cs27Sn13Pb14I81
_chemical_formula_sum   'Cs27 Sn13 Pb14 I81'
_cell_volume   6833.77929649
_cell_formula_units_Z   1
loop_
 _symmetry_equiv_pos_site_id
 _symmetry_equiv_pos_as_xyz
  1  'x, y, z'
loop_
 _atom_site_type_symbol
 _atom_site_label
 _atom_site_symmetry_multiplicity
 _atom_site_fract_x
 _atom_site_fract_y
 _atom_site_fract_z
 _atom_site_occupancy
  Cs  Cs0  1  -0.00100223  0.00150068  0.00260932  1
  Cs  Cs1  1  -0.00221545  -0.00192024  0.33097824  1
  Cs  Cs2  1  0.00241716  -0.00020140  0.66660520  1
  Cs  Cs3  1  0.00175372  0.33287633  -0.00136079  1
  Cs  Cs4  1  -0.00136098  0.33674984  0.33774485  1
  Cs  Cs5  1  0.00860690  0.34152949  0.66187359  1
  Cs  Cs6  1  -0.00280986  0.66418825  -0.00355414  1
  Cs  Cs7  1  0.00041475  0.66826785  0.33414825  1
  Cs  Cs8  1  -0.00009950  0.66220065  0.66897049  1
  Cs  Cs9  1  0.33263433  -0.00071235  0.00103442  1
  Cs  Cs10  1  0.33263440  -0.00150795  0.33295988  1
  Cs  Cs11  1  0.33210315  0.00088064  0.66561413  1
  Cs  Cs12  1  0.33300452  0.33229654  -0.00130726  1
  Cs  Cs13  1  0.33379653  0.33275338  0.33378887  1
  Cs  Cs14  1  0.32958599  0.33372155  0.66740050  1
  Cs  Cs15  1  0.33669406  0.67060827  0.00496568  1
  Cs  Cs16  1  0.33382810  0.66840949  0.33110697  1
  Cs  Cs17  1  0.33431690  0.66633401  0.66571528  1
  Cs  Cs18  1  0.66750927  0.00108392  -0.00255466  1
  Cs  Cs19  1  0.67086622  0.00267240  0.33562563  1
  Cs  Cs20  1  0.66637532  -0.00093700  0.66763744  1
  Cs  Cs21  1  0.66549768  0.33214917  0.00217399  1
  Cs  Cs22  1  0.66864114  0.33370676  0.33349340  1
  Cs  Cs23  1  0.66443320  0.33227070  0.66407063  1
  Cs  Cs24  1  0.66521106  0.66405116  -0.00307750  1
  Cs  Cs25  1  0.66550381  0.66311200  0.33218492  1
  Cs  Cs26  1  0.66554466  0.66876625  0.67039727  1
  Sn  Sn27  1  0.50067230  0.16736587  0.83398805  1
  Sn  Sn28  1  0.49995362  0.49922004  0.83286150  1
  Sn  Sn29  1  0.50027792  0.83272481  0.49984029  1
  Sn  Sn30  1  0.16668973  0.83347577  0.83291557  1
  Sn  Sn31  1  0.50019085  0.16633945  0.16608991  1
  Sn  Sn32  1  0.50003964  0.50064280  0.50064157  1
  Sn  Sn33  1  0.16636796  0.16767273  0.16684602  1
  Sn  Sn34  1  0.16655548  0.49922174  0.16656737  1
  Sn  Sn35  1  0.83334940  0.16707219  0.83324256  1
  Sn  Sn36  1  0.83312027  0.83341103  0.49959142  1
  Sn  Sn37  1  0.83280447  0.83341782  0.16679740  1
  Sn  Sn38  1  0.16657386  0.83340605  0.50103931  1
  Sn  Sn39  1  0.83335414  0.16610293  0.16589662  1
  Pb  Pb40  1  0.16647872  0.16452523  0.49714903  1
  Pb  Pb41  1  0.16470303  0.83349957  0.16674587  1
  Pb  Pb42  1  0.83516318  0.83520936  0.83325708  1
  Pb  Pb43  1  0.49994946  0.16674879  0.50047617  1
  Pb  Pb44  1  0.49836766  0.83400796  0.83152994  1
  Pb  Pb45  1  0.83549090  0.49945825  0.16653407  1
  Pb  Pb46  1  0.83362374  0.16526720  0.50063055  1
  Pb  Pb47  1  0.50299624  0.83591240  0.16897747  1
  Pb  Pb48  1  0.83092973  0.49640793  0.83330147  1
  Pb  Pb49  1  0.83071952  0.50297493  0.50022394  1
  Pb  Pb50  1  0.16939925  0.50244797  0.83553443  1
  Pb  Pb51  1  0.16665875  0.16530438  0.83505435  1
  Pb  Pb52  1  0.16905912  0.50262997  0.49792191  1
  Pb  Pb53  1  0.49845366  0.49771370  0.16670437  1
  I  I54  1  0.16794266  0.00260776  0.16690951  1
  I  I55  1  0.17044082  -0.00411640  0.50139717  1
  I  I56  1  0.16903883  -0.00264345  0.83136624  1
  I  I57  1  0.16595060  0.33187624  0.16510242  1
  I  I58  1  0.16842836  0.33375014  0.50053262  1
  I  I59  1  0.16531705  0.33335665  0.83361715  1
  I  I60  1  0.16651216  0.66508289  0.16745736  1
  I  I61  1  0.16458684  0.67077990  0.50029471  1
  I  I62  1  0.16704371  0.67019361  0.83151910  1
  I  I63  1  0.49440189  0.00399270  0.16185231  1
  I  I64  1  0.49977759  -0.00298633  0.49917223  1
  I  I65  1  0.50238031  0.00309823  0.83632258  1
  I  I66  1  0.50441628  0.32949772  0.16785264  1
  I  I67  1  0.49961713  0.33585192  0.50033463  1
  I  I68  1  0.50332232  0.33243356  0.83167628  1
  I  I69  1  0.49864621  0.66677481  0.16463086  1
  I  I70  1  0.49985718  0.66725765  0.50520443  1
  I  I71  1  0.49715399  0.66462115  0.83068134  1
  I  I72  1  0.83570715  0.00101553  0.16774314  1
  I  I73  1  0.83020971  -0.00354580  0.49762436  1
  I  I74  1  0.82640168  0.00308924  0.83574202  1
  I  I75  1  0.83102870  0.32943699  0.16239688  1
  I  I76  1  0.83070571  0.33352184  0.49808724  1
  I  I77  1  0.83222921  0.32835107  0.84256565  1
  I  I78  1  0.83661571  0.66953621  0.17210963  1
  I  I79  1  0.83632206  0.67152040  0.49315359  1
  I  I80  1  0.83299866  0.66679943  0.83423561  1
  I  I81  1  0.16699239  0.16594044  0.00338690  1
  I  I82  1  0.16757597  0.16773512  0.32856350  1
  I  I83  1  0.16729965  0.16562516  0.66681911  1
  I  I84  1  0.16863251  0.49848083  0.00315467  1
  I  I85  1  0.16898874  0.49711432  0.33023972  1
  I  I86  1  0.16619622  0.49973029  0.66664635  1
  I  I87  1  0.16583093  0.83410346  -0.00163394  1
  I  I88  1  0.16829958  0.83374898  0.33577389  1
  I  I89  1  0.16545018  0.83447643  0.66565283  1
  I  I90  1  0.50073457  0.17178813  -0.00009130  1
  I  I91  1  0.50049048  0.16567857  0.33046299  1
  I  I92  1  0.50528220  0.16653628  0.66984525  1
  I  I93  1  0.49819101  0.49733578  -0.00246463  1
  I  I94  1  0.49804636  0.50392171  0.33574193  1
  I  I95  1  0.49997964  0.49841512  0.66678350  1
  I  I96  1  0.49844893  0.83061496  0.00006656  1
  I  I97  1  0.49432479  0.82888470  0.33703851  1
  I  I98  1  0.50405607  0.83436026  0.66329131  1
  I  I99  1  0.83202853  0.15983932  0.00145202  1
  I  I100  1  0.83221306  0.16358991  0.32999940  1
  I  I101  1  0.82534950  0.16336852  0.66993447  1
  I  I102  1  0.83119412  0.50699093  0.00001742  1
  I  I103  1  0.83066214  0.49613327  0.33332029  1
  I  I104  1  0.83590309  0.50006756  0.66675626  1
  I  I105  1  0.83705879  0.83686409  0.00250172  1
  I  I106  1  0.83531402  0.83994785  0.33333380  1
  I  I107  1  0.83151026  0.83529961  0.66380323  1
  I  I108  1  -0.00070845  0.16456100  0.16274487  1
  I  I109  1  0.00002918  0.16381195  0.50019325  1
  I  I110  1  -0.00243183  0.16109036  0.83932323  1
  I  I111  1  0.00335141  0.49576837  0.16704751  1
  I  I112  1  0.00032424  0.50040953  0.49868662  1
  I  I113  1  0.00041122  0.50015270  0.83448749  1
  I  I114  1  -0.00282368  0.83985698  0.17242579  1
  I  I115  1  -0.00012115  0.83690730  0.49812709  1
  I  I116  1  0.00288556  0.83580712  0.82919082  1
  I  I117  1  0.33354162  0.17066114  0.16338072  1
  I  I118  1  0.33346118  0.16264840  0.49869878  1
  I  I119  1  0.33627270  0.16839849  0.83749615  1
  I  I120  1  0.33068716  0.49596576  0.16693173  1
  I  I121  1  0.33680132  0.50550810  0.50273341  1
  I  I122  1  0.33707475  0.49280848  0.82922201  1
  I  I123  1  0.33340945  0.83464743  0.16781525  1
  I  I124  1  0.33344743  0.83013851  0.50409703  1
  I  I125  1  0.33061653  0.83527084  0.82921870  1
  I  I126  1  0.66691850  0.16149284  0.16290479  1
  I  I127  1  0.66656400  0.16375338  0.49536489  1
  I  I128  1  0.66586281  0.16847666  0.84167930  1
  I  I129  1  0.66639896  0.49997055  0.16726462  1
  I  I130  1  0.66256593  0.50469546  0.50166912  1
  I  I131  1  0.66260232  0.50131446  0.83122028  1
  I  I132  1  0.67074117  0.83842500  0.17103742  1
  I  I133  1  0.66661429  0.83047165  0.49498095  1
  I  I134  1  0.66656969  0.83221101  0.83247796  1
