# generated using pymatgen
data_Cs27Sn14Pb13I81
_symmetry_space_group_name_H-M   'P 1'
_cell_length_a   18.95907544
_cell_length_b   18.95875193
_cell_length_c   18.96327249
_cell_angle_alpha   89.99904211
_cell_angle_beta   90.00140402
_cell_angle_gamma   90.00047241
_symmetry_Int_Tables_number   1
_chemical_formula_structural   Cs27Sn14Pb13I81
_chemical_formula_sum   'Cs27 Sn14 Pb13 I81'
_cell_volume   6816.16639721
_cell_formula_units_Z   1
loop_
 _symmetry_equiv_pos_site_id
 _symmetry_equiv_pos_as_xyz
  1  'x, y, z'
loop_
 _atom_site_type_symbol
 _atom_site_label
 _atom_site_symmetry_multiplicity
 _atom_site_fract_x
 _atom_site_fract_y
 _atom_site_fract_z
 _atom_site_occupancy
  Cs  Cs0  1  -0.00196341  0.00116716  -0.00216801  1
  Cs  Cs1  1  0.00047276  0.00263354  0.33644603  1
  Cs  Cs2  1  -0.00007961  -0.00392167  0.66611784  1
  Cs  Cs3  1  0.00033994  0.33382210  0.00054285  1
  Cs  Cs4  1  0.00034168  0.33319443  0.33109047  1
  Cs  Cs5  1  0.00313532  0.33202079  0.66833386  1
  Cs  Cs6  1  0.00125080  0.66333700  -0.00273654  1
  Cs  Cs7  1  -0.00219826  0.66282643  0.33657391  1
  Cs  Cs8  1  0.00045332  0.67438875  0.66641034  1
  Cs  Cs9  1  0.33473610  -0.00330674  0.00470657  1
  Cs  Cs10  1  0.33240060  -0.00480803  0.32891120  1
  Cs  Cs11  1  0.33401794  0.00155160  0.66592300  1
  Cs  Cs12  1  0.33160070  0.33397649  -0.00231099  1
  Cs  Cs13  1  0.33119021  0.33299981  0.33623561  1
  Cs  Cs14  1  0.33375981  0.33327876  0.66685069  1
  Cs  Cs15  1  0.33627753  0.66810381  0.00129535  1
  Cs  Cs16  1  0.33403754  0.67249272  0.33038176  1
  Cs  Cs17  1  0.33245978  0.66497825  0.66736911  1
  Cs  Cs18  1  0.66646424  0.00077758  0.00203812  1
  Cs  Cs19  1  0.66622556  0.00117047  0.32839322  1
  Cs  Cs20  1  0.66636319  0.00189144  0.66694572  1
  Cs  Cs21  1  0.66763055  0.33265329  -0.00151784  1
  Cs  Cs22  1  0.66727189  0.33508955  0.33582071  1
  Cs  Cs23  1  0.66355200  0.33226420  0.66609458  1
  Cs  Cs24  1  0.66396970  0.66704858  -0.00035194  1
  Cs  Cs25  1  0.66768819  0.66397596  0.33510612  1
  Cs  Cs26  1  0.66769207  0.66681919  0.66470579  1
  Sn  Sn27  1  0.83400521  0.16743946  0.83300026  1
  Sn  Sn28  1  0.83254663  0.16603104  0.16661102  1
  Sn  Sn29  1  0.16654238  0.49932007  0.83238997  1
  Sn  Sn30  1  0.50017126  0.50065517  0.83376002  1
  Sn  Sn31  1  0.16674738  0.49948119  0.50080712  1
  Sn  Sn32  1  0.16595136  0.16706164  0.83272128  1
  Sn  Sn33  1  0.83377256  0.16694005  0.50037493  1
  Sn  Sn34  1  0.50019612  0.83278511  0.83209040  1
  Sn  Sn35  1  0.50042486  0.16829277  0.16656686  1
  Sn  Sn36  1  0.16588501  0.16741445  0.50092983  1
  Sn  Sn37  1  0.50026031  0.83341227  0.50110946  1
  Sn  Sn38  1  0.49989997  0.49848509  0.16621206  1
  Sn  Sn39  1  0.83375429  0.83345479  0.16646378  1
  Sn  Sn40  1  0.83333109  0.49941682  0.83300365  1
  Pb  Pb41  1  0.16910105  0.83363768  0.83353405  1
  Pb  Pb42  1  0.16247471  0.83317305  0.16655099  1
  Pb  Pb43  1  0.16846302  0.83365736  0.50012982  1
  Pb  Pb44  1  0.83121776  0.83583991  0.49782608  1
  Pb  Pb45  1  0.83123958  0.83364857  0.83480960  1
  Pb  Pb46  1  0.83144197  0.49940838  0.16471300  1
  Pb  Pb47  1  0.83582479  0.49774451  0.50297663  1
  Pb  Pb48  1  0.49787940  0.50166695  0.50025574  1
  Pb  Pb49  1  0.16922422  0.50003398  0.16639501  1
  Pb  Pb50  1  0.49964353  0.16690626  0.83497385  1
  Pb  Pb51  1  0.16612662  0.16661138  0.16641655  1
  Pb  Pb52  1  0.49937643  0.16493502  0.49736772  1
  Pb  Pb53  1  0.50158638  0.83301305  0.16643843  1
  I  I54  1  0.17406900  0.00042807  0.16654391  1
  I  I55  1  0.16350042  0.00364183  0.50396598  1
  I  I56  1  0.16269625  0.00360917  0.82954839  1
  I  I57  1  0.16413321  0.33324934  0.16690852  1
  I  I58  1  0.16493557  0.33239451  0.50414580  1
  I  I59  1  0.16829020  0.33348651  0.82986455  1
  I  I60  1  0.16860888  0.66631039  0.16666347  1
  I  I61  1  0.16911348  0.66374707  0.50474474  1
  I  I62  1  0.16403106  0.66307137  0.82947583  1
  I  I63  1  0.50217326  0.00221073  0.16623106  1
  I  I64  1  0.49911207  -0.00271108  0.50466151  1
  I  I65  1  0.50052357  -0.00186776  0.83243012  1
  I  I66  1  0.50537104  0.33321214  0.16109270  1
  I  I67  1  0.50114771  0.33318633  0.50100011  1
  I  I68  1  0.49991298  0.33608228  0.83638430  1
  I  I69  1  0.50084707  0.66429026  0.16468828  1
  I  I70  1  0.49826772  0.66939641  0.49890588  1
  I  I71  1  0.49973080  0.66503333  0.83636307  1
  I  I72  1  0.82638603  0.00249239  0.16457718  1
  I  I73  1  0.83898087  0.00430208  0.50456766  1
  I  I74  1  0.83601663  0.00348676  0.83271291  1
  I  I75  1  0.83091534  0.32998833  0.16733293  1
  I  I76  1  0.83256199  0.32931315  0.49433327  1
  I  I77  1  0.83182025  0.33242078  0.83598342  1
  I  I78  1  0.83015882  0.66839260  0.16435391  1
  I  I79  1  0.83419964  0.66651447  0.49861653  1
  I  I80  1  0.83525277  0.66387319  0.83651404  1
  I  I81  1  0.16409329  0.17163833  -0.00328017  1
  I  I82  1  0.16421875  0.17049695  0.33629534  1
  I  I83  1  0.16010037  0.17070319  0.66714958  1
  I  I84  1  0.16509223  0.49519636  -0.00387253  1
  I  I85  1  0.16832646  0.49551254  0.33628233  1
  I  I86  1  0.16977773  0.49474610  0.66820441  1
  I  I87  1  0.17154889  0.83386377  -0.00031300  1
  I  I88  1  0.17243435  0.83375571  0.33357582  1
  I  I89  1  0.16528985  0.83374053  0.66687334  1
  I  I90  1  0.50395623  0.16542212  0.00282360  1
  I  I91  1  0.50429254  0.16969443  0.32949041  1
  I  I92  1  0.50255390  0.16738764  0.66670166  1
  I  I93  1  0.49830490  0.50230793  -0.00151867  1
  I  I94  1  0.49928587  0.49836039  0.33094859  1
  I  I95  1  0.50096158  0.50219019  0.66994926  1
  I  I96  1  0.50097552  0.83167281  -0.00219295  1
  I  I97  1  0.50039081  0.83437071  0.33487077  1
  I  I98  1  0.50038236  0.82863381  0.66777382  1
  I  I99  1  0.83304563  0.16639257  -0.00050070  1
  I  I100  1  0.83309986  0.16135057  0.33300534  1
  I  I101  1  0.83701321  0.17088079  0.66751536  1
  I  I102  1  0.83721402  0.49481265  -0.00366844  1
  I  I103  1  0.83284415  0.50002194  0.33352611  1
  I  I104  1  0.82683390  0.49560576  0.67123877  1
  I  I105  1  0.82909286  0.83992425  0.00253410  1
  I  I106  1  0.82945354  0.83846850  0.32997867  1
  I  I107  1  0.83280207  0.83402319  0.66668600  1
  I  I108  1  -0.00342240  0.16239335  0.16637216  1
  I  I109  1  -0.00008708  0.16966290  0.49803583  1
  I  I110  1  -0.00069644  0.17355247  0.83564392  1
  I  I111  1  -0.00018008  0.50046180  0.16558776  1
  I  I112  1  0.00385501  0.49918008  0.50332681  1
  I  I113  1  0.00026204  0.49467809  0.83080363  1
  I  I114  1  -0.00512869  0.84163044  0.16578337  1
  I  I115  1  -0.00023200  0.83201069  0.49772317  1
  I  I116  1  -0.00026921  0.83094376  0.83569312  1
  I  I117  1  0.33592658  0.16965999  0.16596769  1
  I  I118  1  0.33029415  0.16935303  0.50435857  1
  I  I119  1  0.33071919  0.16976665  0.82981222  1
  I  I120  1  0.33748254  0.49535556  0.16106284  1
  I  I121  1  0.33004648  0.49302860  0.50560114  1
  I  I122  1  0.33327867  0.49944123  0.83356569  1
  I  I123  1  0.33381507  0.83423165  0.16696536  1
  I  I124  1  0.33649267  0.83523685  0.50225115  1
  I  I125  1  0.33730392  0.83012857  0.83170663  1
  I  I126  1  0.66768267  0.16568962  0.16569473  1
  I  I127  1  0.66924549  0.16419400  0.50218893  1
  I  I128  1  0.66936548  0.16912502  0.83212418  1
  I  I129  1  0.66332342  0.49895882  0.16101181  1
  I  I130  1  0.66670630  0.49981812  0.50056245  1
  I  I131  1  0.66627642  0.49955879  0.83889657  1
  I  I132  1  0.66897523  0.83709425  0.16585255  1
  I  I133  1  0.66344110  0.83359345  0.50359796  1
  I  I134  1  0.66320397  0.82963233  0.83148727  1
