# generated using pymatgen
data_Cs27Sn13Pb14I81
_symmetry_space_group_name_H-M   'P 1'
_cell_length_a   18.97295169
_cell_length_b   18.97872258
_cell_length_c   18.97861698
_cell_angle_alpha   90.00028155
_cell_angle_beta   90.00210874
_cell_angle_gamma   89.99908450
_symmetry_Int_Tables_number   1
_chemical_formula_structural   Cs27Sn13Pb14I81
_chemical_formula_sum   'Cs27 Sn13 Pb14 I81'
_cell_volume   6833.86569049
_cell_formula_units_Z   1
loop_
 _symmetry_equiv_pos_site_id
 _symmetry_equiv_pos_as_xyz
  1  'x, y, z'
loop_
 _atom_site_type_symbol
 _atom_site_label
 _atom_site_symmetry_multiplicity
 _atom_site_fract_x
 _atom_site_fract_y
 _atom_site_fract_z
 _atom_site_occupancy
  Cs  Cs0  1  -0.00005644  0.00160164  -0.00320172  1
  Cs  Cs1  1  0.00405578  -0.00264716  0.33586141  1
  Cs  Cs2  1  0.00200222  -0.00044824  0.66750984  1
  Cs  Cs3  1  -0.00043695  0.33297933  0.00058155  1
  Cs  Cs4  1  -0.00192073  0.33831503  0.33112107  1
  Cs  Cs5  1  -0.00200568  0.32721306  0.66767089  1
  Cs  Cs6  1  -0.00040284  0.66459448  0.00217288  1
  Cs  Cs7  1  -0.00283589  0.66396977  0.33463211  1
  Cs  Cs8  1  -0.00211906  0.67204459  0.66305633  1
  Cs  Cs9  1  0.33425776  -0.00058766  0.00171902  1
  Cs  Cs10  1  0.33355539  0.00219156  0.33260113  1
  Cs  Cs11  1  0.33108896  -0.00103484  0.66695500  1
  Cs  Cs12  1  0.33129244  0.33951865  -0.00255712  1
  Cs  Cs13  1  0.33287213  0.33116492  0.33518624  1
  Cs  Cs14  1  0.33355561  0.33625709  0.66593862  1
  Cs  Cs15  1  0.33461344  0.66426264  -0.00028048  1
  Cs  Cs16  1  0.33403416  0.66629760  0.33338932  1
  Cs  Cs17  1  0.33360294  0.66523574  0.66678689  1
  Cs  Cs18  1  0.66583797  -0.00192768  0.00020969  1
  Cs  Cs19  1  0.66476273  0.00558441  0.33319854  1
  Cs  Cs20  1  0.66698296  0.00207829  0.66697358  1
  Cs  Cs21  1  0.66932494  0.33014975  0.00014924  1
  Cs  Cs22  1  0.67162709  0.32692004  0.33336273  1
  Cs  Cs23  1  0.66800516  0.33162600  0.66599593  1
  Cs  Cs24  1  0.66475786  0.66869953  -0.00209769  1
  Cs  Cs25  1  0.66637432  0.66688445  0.33354941  1
  Cs  Cs26  1  0.66544488  0.66583363  0.66885153  1
  Sn  Sn27  1  0.50035765  0.83429713  0.83327345  1
  Sn  Sn28  1  0.83348925  0.50097843  0.83326997  1
  Sn  Sn29  1  0.50011109  0.83271740  0.16701430  1
  Sn  Sn30  1  0.16697026  0.16631580  0.16710826  1
  Sn  Sn31  1  0.83309811  0.83340661  0.16618163  1
  Sn  Sn32  1  0.16711674  0.49939166  0.50014968  1
  Sn  Sn33  1  0.16702364  0.16763104  0.49920359  1
  Sn  Sn34  1  0.16674932  0.83374236  0.16651892  1
  Sn  Sn35  1  0.49972358  0.50053354  0.49866939  1
  Sn  Sn36  1  0.83254171  0.83224920  0.83416967  1
  Sn  Sn37  1  0.49948332  0.16589360  0.83349144  1
  Sn  Sn38  1  0.49989565  0.83284992  0.49982016  1
  Sn  Sn39  1  0.50025534  0.50025403  0.16786307  1
  Pb  Pb40  1  0.83686526  0.16647910  0.49975386  1
  Pb  Pb41  1  0.83030664  0.83347419  0.49994156  1
  Pb  Pb42  1  0.83034367  0.50218992  0.16485061  1
  Pb  Pb43  1  0.83650525  0.16359612  0.16666635  1
  Pb  Pb44  1  0.16669128  0.83302513  0.83596003  1
  Pb  Pb45  1  0.50130697  0.50039846  0.83309266  1
  Pb  Pb46  1  0.16849885  0.50024770  0.16842410  1
  Pb  Pb47  1  0.16905730  0.16663072  0.83360862  1
  Pb  Pb48  1  0.83270229  0.50010913  0.50210763  1
  Pb  Pb49  1  0.49836088  0.16693661  0.50181455  1
  Pb  Pb50  1  0.83108303  0.16567625  0.83350773  1
  Pb  Pb51  1  0.16343405  0.50029366  0.83019998  1
  Pb  Pb52  1  0.49808797  0.16689693  0.16487409  1
  Pb  Pb53  1  0.16901371  0.83301340  0.49770935  1
  I  I54  1  0.16908680  -0.00096860  0.17239720  1
  I  I55  1  0.16824239  0.00197133  0.49756323  1
  I  I56  1  0.16328574  -0.00021293  0.82847148  1
  I  I57  1  0.17009275  0.33109283  0.16868530  1
  I  I58  1  0.17354169  0.33348189  0.49490111  1
  I  I59  1  0.16783387  0.33341232  0.83813327  1
  I  I60  1  0.16624298  0.66967446  0.16717818  1
  I  I61  1  0.16944686  0.66420106  0.49946763  1
  I  I62  1  0.17220106  0.66675751  0.83350226  1
  I  I63  1  0.50136338  -0.00351365  0.16830196  1
  I  I64  1  0.49910751  -0.00289654  0.49772394  1
  I  I65  1  0.50483341  -0.00252717  0.83366399  1
  I  I66  1  0.49700377  0.33601532  0.16882476  1
  I  I67  1  0.49733321  0.33633044  0.49815883  1
  I  I68  1  0.50090367  0.33172139  0.83333163  1
  I  I69  1  0.49743906  0.66860388  0.16489787  1
  I  I70  1  0.49416405  0.66687432  0.50130457  1
  I  I71  1  0.50247473  0.66981098  0.83380501  1
  I  I72  1  0.82660394  -0.00478031  0.15952835  1
  I  I73  1  0.83296966  -0.00038782  0.50278951  1
  I  I74  1  0.83067637  -0.00382116  0.83778174  1
  I  I75  1  0.83311157  0.33350309  0.16453256  1
  I  I76  1  0.82798552  0.33351342  0.50347381  1
  I  I77  1  0.83120768  0.33560524  0.83125428  1
  I  I78  1  0.83791571  0.67053432  0.16488388  1
  I  I79  1  0.83918334  0.66689176  0.49894824  1
  I  I80  1  0.82625401  0.66852912  0.83638910  1
  I  I81  1  0.16786652  0.16076812  0.00304014  1
  I  I82  1  0.16940770  0.16501648  0.33322197  1
  I  I83  1  0.16831549  0.17111419  0.66376486  1
  I  I84  1  0.16850718  0.49908965  0.00025296  1
  I  I85  1  0.16898152  0.49931809  0.33637242  1
  I  I86  1  0.17549777  0.49441718  0.66227288  1
  I  I87  1  0.17139995  0.83914119  0.00425040  1
  I  I88  1  0.16673217  0.83484769  0.32963957  1
  I  I89  1  0.16674598  0.83429852  0.66634033  1
  I  I90  1  0.49829914  0.16210244  -0.00283674  1
  I  I91  1  0.49984450  0.16397818  0.33332227  1
  I  I92  1  0.49818073  0.16225435  0.66955898  1
  I  I93  1  0.50076348  0.50369825  0.00218608  1
  I  I94  1  0.49570522  0.50944505  0.33364668  1
  I  I95  1  0.49731560  0.50325639  0.66397433  1
  I  I96  1  0.50047286  0.83337710  0.00058735  1
  I  I97  1  0.49927816  0.82822915  0.33246399  1
  I  I98  1  0.50401164  0.83297564  0.66707173  1
  I  I99  1  0.83597480  0.16953048  0.00001344  1
  I  I100  1  0.82812596  0.16535708  0.33298032  1
  I  I101  1  0.83498950  0.16476025  0.66695324  1
  I  I102  1  0.83080257  0.50250287  -0.00297144  1
  I  I103  1  0.83488951  0.50146929  0.33323642  1
  I  I104  1  0.83079143  0.50752049  0.66989955  1
  I  I105  1  0.82805935  0.82977000  -0.00010365  1
  I  I106  1  0.83329370  0.83378429  0.32998667  1
  I  I107  1  0.82865432  0.82958383  0.66992921  1
  I  I108  1  0.00459546  0.16254263  0.16992850  1
  I  I109  1  0.00520806  0.17196088  0.49726864  1
  I  I110  1  0.00003833  0.16635238  0.83221859  1
  I  I111  1  -0.00006841  0.50100818  0.16729948  1
  I  I112  1  0.00288289  0.49538814  0.50114578  1
  I  I113  1  -0.00425320  0.50681941  0.83365410  1
  I  I114  1  -0.00001699  0.83868773  0.16156330  1
  I  I115  1  0.00025698  0.83372099  0.50043230  1
  I  I116  1  -0.00329073  0.82944929  0.83726582  1
  I  I117  1  0.33040630  0.15963257  0.16987262  1
  I  I118  1  0.33056677  0.16733712  0.49642271  1
  I  I119  1  0.33689908  0.15991462  0.83354642  1
  I  I120  1  0.33659596  0.50629030  0.16604308  1
  I  I121  1  0.33451909  0.50033888  0.49732810  1
  I  I122  1  0.33358754  0.49983964  0.83472915  1
  I  I123  1  0.33455459  0.83400157  0.16678253  1
  I  I124  1  0.33727507  0.83223638  0.50091317  1
  I  I125  1  0.33688640  0.83712210  0.83397231  1
  I  I126  1  0.66644140  0.16669464  0.16484981  1
  I  I127  1  0.66620716  0.16703118  0.50192143  1
  I  I128  1  0.66312061  0.16477900  0.83326504  1
  I  I129  1  0.66217762  0.50541982  0.17205167  1
  I  I130  1  0.66299788  0.50598599  0.49826093  1
  I  I131  1  0.66884120  0.50265881  0.83202597  1
  I  I132  1  0.66542407  0.82774420  0.16475673  1
  I  I133  1  0.66192160  0.82684638  0.49699072  1
  I  I134  1  0.66546987  0.83316973  0.83796285  1
