# generated using pymatgen
data_Cs27Sn14Pb13I81
_symmetry_space_group_name_H-M   'P 1'
_cell_length_a   18.95802966
_cell_length_b   18.96240364
_cell_length_c   18.96176004
_cell_angle_alpha   89.99951154
_cell_angle_beta   90.00083160
_cell_angle_gamma   90.00227553
_symmetry_Int_Tables_number   1
_chemical_formula_structural   Cs27Sn14Pb13I81
_chemical_formula_sum   'Cs27 Sn14 Pb13 I81'
_cell_volume   6816.55951904
_cell_formula_units_Z   1
loop_
 _symmetry_equiv_pos_site_id
 _symmetry_equiv_pos_as_xyz
  1  'x, y, z'
loop_
 _atom_site_type_symbol
 _atom_site_label
 _atom_site_symmetry_multiplicity
 _atom_site_fract_x
 _atom_site_fract_y
 _atom_site_fract_z
 _atom_site_occupancy
  Cs  Cs0  1  0.00118152  0.00228978  -0.00066534  1
  Cs  Cs1  1  0.00103476  -0.00089980  0.33642156  1
  Cs  Cs2  1  0.00102195  -0.00500997  0.66457431  1
  Cs  Cs3  1  -0.00133608  0.33352852  0.00137815  1
  Cs  Cs4  1  0.00227501  0.33224866  0.33164267  1
  Cs  Cs5  1  -0.00183853  0.33670918  0.66401578  1
  Cs  Cs6  1  -0.00297394  0.66390615  -0.00244464  1
  Cs  Cs7  1  0.00087152  0.66811252  0.33624610  1
  Cs  Cs8  1  -0.00135469  0.66816171  0.66548248  1
  Cs  Cs9  1  0.32714023  0.00124020  -0.00129861  1
  Cs  Cs10  1  0.33012650  -0.00573365  0.32824663  1
  Cs  Cs11  1  0.33371635  0.00147064  0.67144882  1
  Cs  Cs12  1  0.33324204  0.33290221  -0.00056965  1
  Cs  Cs13  1  0.33230735  0.33485867  0.33485041  1
  Cs  Cs14  1  0.33558360  0.33118860  0.66550472  1
  Cs  Cs15  1  0.33600690  0.66707691  0.00017127  1
  Cs  Cs16  1  0.33502070  0.66699860  0.33222448  1
  Cs  Cs17  1  0.33358863  0.66712512  0.66753097  1
  Cs  Cs18  1  0.66682476  -0.00076701  -0.00001935  1
  Cs  Cs19  1  0.66877515  0.00084196  0.33278191  1
  Cs  Cs20  1  0.66516734  0.00211529  0.66633939  1
  Cs  Cs21  1  0.66813884  0.33273136  0.00025260  1
  Cs  Cs22  1  0.66527536  0.33188960  0.33573404  1
  Cs  Cs23  1  0.66494684  0.33189250  0.65937566  1
  Cs  Cs24  1  0.66633262  0.66785836  -0.00033264  1
  Cs  Cs25  1  0.66410905  0.66737940  0.33330145  1
  Cs  Cs26  1  0.66671027  0.66560863  0.66786732  1
  Sn  Sn27  1  0.83260507  0.16658028  0.16592971  1
  Sn  Sn28  1  0.83238068  0.83437910  0.83428962  1
  Sn  Sn29  1  0.83292429  0.50002575  0.16670139  1
  Sn  Sn30  1  0.16690218  0.49934929  0.50016607  1
  Sn  Sn31  1  0.50074930  0.83285060  0.83267521  1
  Sn  Sn32  1  0.16686622  0.50000899  0.16646176  1
  Sn  Sn33  1  0.50018376  0.83342069  0.50107845  1
  Sn  Sn34  1  0.16679771  0.16692591  0.50015899  1
  Sn  Sn35  1  0.83337376  0.83346288  0.16584944  1
  Sn  Sn36  1  0.16751441  0.49999110  0.83324050  1
  Sn  Sn37  1  0.83312511  0.16608531  0.83355676  1
  Sn  Sn38  1  0.50027857  0.16729975  0.16628071  1
  Sn  Sn39  1  0.50018873  0.49898237  0.16586618  1
  Sn  Sn40  1  0.49953644  0.50024074  0.83395646  1
  Pb  Pb41  1  0.50179383  0.16690523  0.83529475  1
  Pb  Pb42  1  0.83523644  0.16661118  0.49984282  1
  Pb  Pb43  1  0.83097560  0.83334271  0.50054864  1
  Pb  Pb44  1  0.83566378  0.50001633  0.49661160  1
  Pb  Pb45  1  0.16375128  0.16946905  0.83120464  1
  Pb  Pb46  1  0.16644715  0.83108681  0.83358268  1
  Pb  Pb47  1  0.16926219  0.83310968  0.50017299  1
  Pb  Pb48  1  0.16642338  0.16855686  0.16792055  1
  Pb  Pb49  1  0.83257745  0.49985046  0.83466115  1
  Pb  Pb50  1  0.49808898  0.50129000  0.49999081  1
  Pb  Pb51  1  0.49757367  0.16401436  0.49693796  1
  Pb  Pb52  1  0.50160045  0.83345180  0.16561886  1
  Pb  Pb53  1  0.16320535  0.83040275  0.16630993  1
  I  I54  1  0.16771905  0.00012884  0.17012565  1
  I  I55  1  0.16644018  0.00238044  0.49824800  1
  I  I56  1  0.16872354  0.00028158  0.83085945  1
  I  I57  1  0.16243379  0.33715264  0.16499807  1
  I  I58  1  0.16661543  0.33497769  0.49863196  1
  I  I59  1  0.17088854  0.33767964  0.83671332  1
  I  I60  1  0.16875619  0.66170431  0.16972234  1
  I  I61  1  0.16705273  0.66334719  0.49877381  1
  I  I62  1  0.16525908  0.66251882  0.83190539  1
  I  I63  1  0.50540227  0.00229878  0.16844035  1
  I  I64  1  0.49876604  -0.00346897  0.50507362  1
  I  I65  1  0.50329509  -0.00262090  0.83085499  1
  I  I66  1  0.50412783  0.33498361  0.16222134  1
  I  I67  1  0.50051337  0.33322131  0.50166925  1
  I  I68  1  0.49713918  0.33633358  0.83669586  1
  I  I69  1  0.50007861  0.66372507  0.16637675  1
  I  I70  1  0.49807945  0.66911259  0.49863283  1
  I  I71  1  0.50152615  0.66618615  0.83534448  1
  I  I72  1  0.82723365  0.00052243  0.16323683  1
  I  I73  1  0.83693074  -0.00005670  0.49488696  1
  I  I74  1  0.82816141  -0.00087542  0.84151234  1
  I  I75  1  0.83373233  0.33340299  0.16246916  1
  I  I76  1  0.83113572  0.33335114  0.50182118  1
  I  I77  1  0.83506693  0.33121832  0.83884000  1
  I  I78  1  0.83388652  0.66623118  0.16274360  1
  I  I79  1  0.83647264  0.66668598  0.49962275  1
  I  I80  1  0.83272785  0.66900447  0.83779114  1
  I  I81  1  0.16765237  0.16767998  -0.00006815  1
  I  I82  1  0.16547187  0.17318376  0.33568593  1
  I  I83  1  0.16580278  0.17289535  0.66360716  1
  I  I84  1  0.16679173  0.50152754  0.00056619  1
  I  I85  1  0.16546764  0.49612719  0.33255529  1
  I  I86  1  0.17130118  0.49652290  0.66710500  1
  I  I87  1  0.17197638  0.83275203  -0.00000654  1
  I  I88  1  0.16763919  0.83084997  0.33322692  1
  I  I89  1  0.16191940  0.83005720  0.66684282  1
  I  I90  1  0.50142906  0.16721532  0.00353192  1
  I  I91  1  0.50669506  0.17218504  0.32906735  1
  I  I92  1  0.50142067  0.16887440  0.66673094  1
  I  I93  1  0.49565506  0.50267630  0.00060557  1
  I  I94  1  0.49989574  0.49893082  0.33010284  1
  I  I95  1  0.49594321  0.50292011  0.66962604  1
  I  I96  1  0.50322351  0.83022033  -0.00289671  1
  I  I97  1  0.50038676  0.83281859  0.33439729  1
  I  I98  1  0.50482807  0.82720965  0.66857253  1
  I  I99  1  0.83077555  0.16629218  0.00144427  1
  I  I100  1  0.83107689  0.16691844  0.32959010  1
  I  I101  1  0.83506527  0.16190077  0.66964104  1
  I  I102  1  0.83764288  0.49999069  0.00318946  1
  I  I103  1  0.83202063  0.49988266  0.32784025  1
  I  I104  1  0.83433880  0.50036358  0.66680373  1
  I  I105  1  0.82738835  0.83281671  -0.00006635  1
  I  I106  1  0.83226356  0.83308639  0.33019644  1
  I  I107  1  0.83228318  0.83737155  0.67030179  1
  I  I108  1  -0.00320284  0.16786598  0.16459540  1
  I  I109  1  0.00307315  0.17155162  0.49740227  1
  I  I110  1  -0.00412349  0.16232394  0.84086942  1
  I  I111  1  -0.00016283  0.50023020  0.16653705  1
  I  I112  1  0.00420862  0.49760360  0.50141329  1
  I  I113  1  0.00208722  0.49965918  0.83455995  1
  I  I114  1  -0.00513550  0.83448077  0.16177104  1
  I  I115  1  0.00009808  0.83276736  0.49939780  1
  I  I116  1  -0.00343587  0.83515196  0.83786899  1
  I  I117  1  0.33580698  0.17104025  0.16872815  1
  I  I118  1  0.33010184  0.17269410  0.49889177  1
  I  I119  1  0.33333029  0.16415297  0.83442968  1
  I  I120  1  0.33392166  0.49552898  0.16645268  1
  I  I121  1  0.32991739  0.49774443  0.49520252  1
  I  I122  1  0.33405226  0.50535105  0.83818616  1
  I  I123  1  0.33350936  0.83367326  0.16740871  1
  I  I124  1  0.33695841  0.83232547  0.50450669  1
  I  I125  1  0.33650317  0.83041517  0.82941583  1
  I  I126  1  0.66771393  0.17162253  0.16403290  1
  I  I127  1  0.66637750  0.16564295  0.50046953  1
  I  I128  1  0.66993390  0.16755541  0.83607085  1
  I  I129  1  0.66629894  0.49991499  0.16108958  1
  I  I130  1  0.66630566  0.50133179  0.50021343  1
  I  I131  1  0.66372697  0.50222981  0.83920160  1
  I  I132  1  0.66978205  0.82881484  0.16564922  1
  I  I133  1  0.66330027  0.83226485  0.50045767  1
  I  I134  1  0.66661396  0.82993226  0.83380416  1
