# generated using pymatgen
data_Cs27Sn14Pb13I81
_symmetry_space_group_name_H-M   'P 1'
_cell_length_a   18.97971017
_cell_length_b   18.96877914
_cell_length_c   18.98104459
_cell_angle_alpha   90.00033974
_cell_angle_beta   90.00034622
_cell_angle_gamma   90.00109279
_symmetry_Int_Tables_number   1
_chemical_formula_structural   Cs27Sn14Pb13I81
_chemical_formula_sum   'Cs27 Sn14 Pb13 I81'
_cell_volume   6833.59231283
_cell_formula_units_Z   1
loop_
 _symmetry_equiv_pos_site_id
 _symmetry_equiv_pos_as_xyz
  1  'x, y, z'
loop_
 _atom_site_type_symbol
 _atom_site_label
 _atom_site_symmetry_multiplicity
 _atom_site_fract_x
 _atom_site_fract_y
 _atom_site_fract_z
 _atom_site_occupancy
  Cs  Cs0  1  -0.00062785  -0.00463209  -0.00595171  1
  Cs  Cs1  1  -0.00283307  -0.00130665  0.33935314  1
  Cs  Cs2  1  -0.00732632  -0.00815646  0.66796622  1
  Cs  Cs3  1  0.00284067  0.33491349  0.00325725  1
  Cs  Cs4  1  0.00117614  0.33378163  0.33147915  1
  Cs  Cs5  1  0.00078880  0.33381133  0.66606677  1
  Cs  Cs6  1  -0.00153507  0.67053415  0.00529616  1
  Cs  Cs7  1  -0.00129567  0.66984461  0.32627170  1
  Cs  Cs8  1  0.00064090  0.66940214  0.66710297  1
  Cs  Cs9  1  0.33317499  0.00026813  0.00198305  1
  Cs  Cs10  1  0.33517824  0.00244812  0.33301749  1
  Cs  Cs11  1  0.33250766  -0.00133370  0.66540112  1
  Cs  Cs12  1  0.33258395  0.33229744  -0.00200430  1
  Cs  Cs13  1  0.33287884  0.33193797  0.33463420  1
  Cs  Cs14  1  0.33337017  0.33450410  0.66671993  1
  Cs  Cs15  1  0.33274065  0.67129245  0.00217857  1
  Cs  Cs16  1  0.33447248  0.66838570  0.33335479  1
  Cs  Cs17  1  0.33408029  0.66557087  0.66631981  1
  Cs  Cs18  1  0.66890142  -0.00116177  -0.00166265  1
  Cs  Cs19  1  0.66539036  -0.00024377  0.33334096  1
  Cs  Cs20  1  0.67366638  0.00105111  0.66880952  1
  Cs  Cs21  1  0.66521608  0.33242665  -0.00304313  1
  Cs  Cs22  1  0.66638376  0.33312279  0.33462220  1
  Cs  Cs23  1  0.66754029  0.33474073  0.66919966  1
  Cs  Cs24  1  0.66695913  0.66847185  0.00426638  1
  Cs  Cs25  1  0.66514719  0.66655008  0.33037145  1
  Cs  Cs26  1  0.66384142  0.66237401  0.66638891  1
  Sn  Sn27  1  0.83391514  0.49974006  0.50038454  1
  Sn  Sn28  1  0.49974923  0.16676367  0.50002021  1
  Sn  Sn29  1  0.50028422  0.16799012  0.16718678  1
  Sn  Sn30  1  0.16662399  0.16715805  0.83241076  1
  Sn  Sn31  1  0.49948068  0.49858815  0.16735581  1
  Sn  Sn32  1  0.49981425  0.49952677  0.49928346  1
  Sn  Sn33  1  0.16558620  0.49950114  0.83275793  1
  Sn  Sn34  1  0.16696798  0.16727234  0.50076346  1
  Sn  Sn35  1  0.16624326  0.49956206  0.50042915  1
  Sn  Sn36  1  0.49977673  0.83356486  0.83228213  1
  Sn  Sn37  1  0.49988337  0.83374776  0.50132730  1
  Sn  Sn38  1  0.16636032  0.16692462  0.16698174  1
  Sn  Sn39  1  0.83328488  0.16697437  0.16669344  1
  Sn  Sn40  1  0.83468335  0.49965848  0.83297872  1
  Pb  Pb41  1  0.83061944  0.82980158  0.83314854  1
  Pb  Pb42  1  0.83104621  0.49820062  0.16668779  1
  Pb  Pb43  1  0.49928527  0.50135811  0.83354746  1
  Pb  Pb44  1  0.16861681  0.83309005  0.49995340  1
  Pb  Pb45  1  0.16673645  0.83709537  0.16700398  1
  Pb  Pb46  1  0.83024810  0.82979693  0.49992643  1
  Pb  Pb47  1  0.83355844  0.16882697  0.49873818  1
  Pb  Pb48  1  0.16898926  0.49851095  0.16687291  1
  Pb  Pb49  1  0.49989381  0.83402888  0.16720590  1
  Pb  Pb50  1  0.83642351  0.16910623  0.83545712  1
  Pb  Pb51  1  0.16853498  0.83264590  0.83301919  1
  Pb  Pb52  1  0.49819768  0.16478654  0.83290136  1
  Pb  Pb53  1  0.83322934  0.83684949  0.16688432  1
  I  I54  1  0.17240367  0.00607925  0.16660974  1
  I  I55  1  0.17231599  0.00378223  0.49832367  1
  I  I56  1  0.17027483  0.00316049  0.83509052  1
  I  I57  1  0.16592136  0.32993231  0.16665214  1
  I  I58  1  0.17221483  0.33328689  0.50037787  1
  I  I59  1  0.16515829  0.33350634  0.83284696  1
  I  I60  1  0.16934430  0.66631379  0.16578535  1
  I  I61  1  0.16854842  0.66276697  0.50645192  1
  I  I62  1  0.16516116  0.66287721  0.82695825  1
  I  I63  1  0.49870925  0.00387146  0.16994170  1
  I  I64  1  0.49376761  0.00152684  0.49834475  1
  I  I65  1  0.49690308  -0.00281756  0.82991743  1
  I  I66  1  0.49977699  0.33218067  0.17431224  1
  I  I67  1  0.49886919  0.33360307  0.49435198  1
  I  I68  1  0.50175482  0.33333173  0.83263270  1
  I  I69  1  0.50077846  0.66398844  0.16963447  1
  I  I70  1  0.50021642  0.66514118  0.50008733  1
  I  I71  1  0.49868188  0.66893698  0.82887982  1
  I  I72  1  0.82965095  0.00511986  0.16736527  1
  I  I73  1  0.83347948  0.00012524  0.49758455  1
  I  I74  1  0.83411466  0.00006045  0.83572898  1
  I  I75  1  0.83489996  0.33040286  0.16721455  1
  I  I76  1  0.82756436  0.33686327  0.50292545  1
  I  I77  1  0.83127839  0.33683828  0.82888260  1
  I  I78  1  0.83019638  0.66619516  0.16610491  1
  I  I79  1  0.83408370  0.66145677  0.50366973  1
  I  I80  1  0.83987027  0.66194787  0.82950702  1
  I  I81  1  0.16789357  0.17129249  0.00003297  1
  I  I82  1  0.16893666  0.17095686  0.33398323  1
  I  I83  1  0.17442889  0.17219799  0.66553793  1
  I  I84  1  0.16447151  0.49521317  -0.00257959  1
  I  I85  1  0.16544839  0.49574816  0.33667368  1
  I  I86  1  0.16925622  0.49188991  0.66569832  1
  I  I87  1  0.17116562  0.83274857  -0.00015827  1
  I  I88  1  0.17003626  0.83143277  0.33358365  1
  I  I89  1  0.16748296  0.83883619  0.66650353  1
  I  I90  1  0.49857578  0.16975956  0.00291096  1
  I  I91  1  0.49562047  0.16571345  0.33390977  1
  I  I92  1  0.49513542  0.17025619  0.66313653  1
  I  I93  1  0.50052067  0.49684215  0.00243281  1
  I  I94  1  0.50043642  0.50163871  0.33518057  1
  I  I95  1  0.50026065  0.49789270  0.66345921  1
  I  I96  1  0.49947071  0.83213732  -0.00205407  1
  I  I97  1  0.49967248  0.83274575  0.33652950  1
  I  I98  1  0.49826532  0.83141675  0.66513438  1
  I  I99  1  0.82998732  0.16977533  0.00335377  1
  I  I100  1  0.83641731  0.17035923  0.33077635  1
  I  I101  1  0.83185262  0.16588644  0.66676668  1
  I  I102  1  0.83613543  0.49793128  -0.00240018  1
  I  I103  1  0.83441805  0.49811316  0.33617093  1
  I  I104  1  0.83013126  0.49852154  0.66579638  1
  I  I105  1  0.82949702  0.83094028  -0.00018890  1
  I  I106  1  0.83101667  0.83019752  0.33355214  1
  I  I107  1  0.83393224  0.83830421  0.66655685  1
  I  I108  1  0.00105412  0.16777054  0.16693670  1
  I  I109  1  0.00325203  0.17219201  0.49756640  1
  I  I110  1  0.00464602  0.16776862  0.83249084  1
  I  I111  1  0.00015192  0.49794892  0.16909992  1
  I  I112  1  0.00106864  0.49266501  0.50537719  1
  I  I113  1  0.00103188  0.49473857  0.82514164  1
  I  I114  1  -0.00008059  0.83130543  0.16548400  1
  I  I115  1  -0.00019141  0.83507365  0.49968546  1
  I  I116  1  -0.00011396  0.83599410  0.83442115  1
  I  I117  1  0.33377631  0.17029224  0.16778432  1
  I  I118  1  0.33374315  0.17058912  0.49546483  1
  I  I119  1  0.33017206  0.17340091  0.83743759  1
  I  I120  1  0.33700988  0.49456716  0.17015309  1
  I  I121  1  0.33371041  0.49916586  0.50067605  1
  I  I122  1  0.33049572  0.49692819  0.83024735  1
  I  I123  1  0.33384558  0.83385894  0.16546941  1
  I  I124  1  0.33703890  0.82906978  0.50300179  1
  I  I125  1  0.33625547  0.83045293  0.82955079  1
  I  I126  1  0.66505550  0.17050601  0.17217341  1
  I  I127  1  0.66342367  0.16713864  0.49447053  1
  I  I128  1  0.66679558  0.16656971  0.83456806  1
  I  I129  1  0.66305155  0.49469434  0.17025283  1
  I  I130  1  0.66543938  0.50029995  0.50034232  1
  I  I131  1  0.66818748  0.50253992  0.83040479  1
  I  I132  1  0.66612265  0.83452299  0.16602058  1
  I  I133  1  0.66186056  0.83543614  0.50315341  1
  I  I134  1  0.66289818  0.83331964  0.82920284  1
