# generated using pymatgen
data_Cs27Sn13Pb14I81
_symmetry_space_group_name_H-M   'P 1'
_cell_length_a   18.98578066
_cell_length_b   18.97474235
_cell_length_c   18.97474236
_cell_angle_alpha   90.00048488
_cell_angle_beta   89.99977503
_cell_angle_gamma   90.00022508
_symmetry_Int_Tables_number   1
_chemical_formula_structural   Cs27Sn13Pb14I81
_chemical_formula_sum   'Cs27 Sn13 Pb14 I81'
_cell_volume   6835.65656070
_cell_formula_units_Z   1
loop_
 _symmetry_equiv_pos_site_id
 _symmetry_equiv_pos_as_xyz
  1  'x, y, z'
loop_
 _atom_site_type_symbol
 _atom_site_label
 _atom_site_symmetry_multiplicity
 _atom_site_fract_x
 _atom_site_fract_y
 _atom_site_fract_z
 _atom_site_occupancy
  Cs  Cs0  1  0.00123122  -0.00153693  -0.00003431  1
  Cs  Cs1  1  0.00073994  0.00275743  0.33668104  1
  Cs  Cs2  1  -0.00886864  0.00790454  0.65876213  1
  Cs  Cs3  1  0.00142989  0.33693946  0.00086755  1
  Cs  Cs4  1  0.00008743  0.33308711  0.33357957  1
  Cs  Cs5  1  0.00073995  0.32998556  0.66390921  1
  Cs  Cs6  1  0.00109471  0.66641275  0.00025396  1
  Cs  Cs7  1  0.00142995  0.66579895  0.32972728  1
  Cs  Cs8  1  0.00123142  0.66670111  0.66820371  1
  Cs  Cs9  1  0.33329602  0.00145744  0.00061182  1
  Cs  Cs10  1  0.33135281  0.00014776  0.33460241  1
  Cs  Cs11  1  0.33239210  0.00106179  0.66560484  1
  Cs  Cs12  1  0.33517762  0.32698665  0.00046454  1
  Cs  Cs13  1  0.33709335  0.33166171  0.33500502  1
  Cs  Cs14  1  0.33135277  0.33206425  0.66651886  1
  Cs  Cs15  1  0.33127546  0.66855177  -0.00188505  1
  Cs  Cs16  1  0.33517751  0.66620205  0.33967997  1
  Cs  Cs17  1  0.33329598  0.66605490  0.66520914  1
  Cs  Cs18  1  0.66568852  -0.00128729  -0.00196208  1
  Cs  Cs19  1  0.66753618  -0.00113624  0.33624322  1
  Cs  Cs20  1  0.67403268  0.00272006  0.66394671  1
  Cs  Cs21  1  0.66372787  0.33355639  0.00107623  1
  Cs  Cs22  1  0.66464233  0.33499306  0.33167355  1
  Cs  Cs23  1  0.66753626  0.33042357  0.66780294  1
  Cs  Cs24  1  0.66664002  0.66668604  -0.00001944  1
  Cs  Cs25  1  0.66372791  0.66559037  0.33311037  1
  Cs  Cs26  1  0.66568847  0.66862875  0.66795400  1
  Sn  Sn27  1  0.49991690  0.16672945  0.49993720  1
  Sn  Sn28  1  0.49959408  0.83280642  0.16604373  1
  Sn  Sn29  1  0.49937076  0.83255894  0.83410771  1
  Sn  Sn30  1  0.16695356  0.83217827  0.16595106  1
  Sn  Sn31  1  0.83331730  0.50073629  0.49991918  1
  Sn  Sn32  1  0.49959406  0.50062295  0.83386025  1
  Sn  Sn33  1  0.83331730  0.16674747  0.16593039  1
  Sn  Sn34  1  0.16679609  0.50070098  0.16596567  1
  Sn  Sn35  1  0.16695354  0.50071557  0.83448841  1
  Sn  Sn36  1  0.83374101  0.50014782  0.16651886  1
  Sn  Sn37  1  0.83350111  0.83336986  0.16645114  1
  Sn  Sn38  1  0.83350114  0.50021555  0.83329681  1
  Sn  Sn39  1  0.16690996  0.83303876  0.83362791  1
  Pb  Pb40  1  0.16648209  0.16601617  0.83350323  1
  Pb  Pb41  1  0.50002631  0.83495763  0.50101783  1
  Pb  Pb42  1  0.50002626  0.16564887  0.83170904  1
  Pb  Pb43  1  0.49922394  0.50181357  0.16485314  1
  Pb  Pb44  1  0.16469632  0.50013262  0.49999406  1
  Pb  Pb45  1  0.83346048  0.83063555  0.49710245  1
  Pb  Pb46  1  0.16648209  0.83316345  0.50065044  1
  Pb  Pb47  1  0.16469632  0.16667266  0.16653406  1
  Pb  Pb48  1  0.50216509  0.49859205  0.50313801  1
  Pb  Pb49  1  0.83175774  0.16939342  0.49727322  1
  Pb  Pb50  1  0.16909977  0.16688216  0.49978446  1
  Pb  Pb51  1  0.83346048  0.16956417  0.83603113  1
  Pb  Pb52  1  0.83388284  0.83168951  0.83497715  1
  Pb  Pb53  1  0.50216505  0.16352869  0.16807464  1
  I  I54  1  0.16613600  -0.00384509  0.16248229  1
  I  I55  1  0.16597309  -0.00011641  0.49933423  1
  I  I56  1  0.17401189  -0.00424851  0.83990076  1
  I  I57  1  0.16080470  0.33702500  0.16235694  1
  I  I58  1  0.16607266  0.33384377  0.49996571  1
  I  I59  1  0.16688420  0.33736333  0.83761746  1
  I  I60  1  0.16013358  0.66662969  0.16242510  1
  I  I61  1  0.16741403  0.66647959  0.49894660  1
  I  I62  1  0.16706808  0.66580876  0.83799653  1
  I  I63  1  0.49934726  -0.00475235  0.16053606  1
  I  I64  1  0.50183274  0.00256824  0.49987744  1
  I  I65  1  0.49465565  -0.00403875  0.83734027  1
  I  I66  1  0.50078674  0.33342694  0.16611849  1
  I  I67  1  0.50177707  0.33099787  0.49977639  1
  I  I68  1  0.50048170  0.33641291  0.83190241  1
  I  I69  1  0.50570118  0.66998884  0.16591059  1
  I  I70  1  0.50119316  0.66663769  0.49829955  1
  I  I71  1  0.50035378  0.66656125  0.83676358  1
  I  I72  1  0.83262216  -0.00114323  0.16666153  1
  I  I73  1  0.83225046  0.00025337  0.49911116  1
  I  I74  1  0.83222345  -0.00021682  0.83466337  1
  I  I75  1  0.83773223  0.33539063  0.16687920  1
  I  I76  1  0.83262428  0.33710184  0.49878265  1
  I  I77  1  0.83296586  0.33857509  0.83523023  1
  I  I78  1  0.83425601  0.66587591  0.16659191  1
  I  I79  1  0.83227139  0.66261297  0.49862499  1
  I  I80  1  0.83252038  0.66287869  0.83579609  1
  I  I81  1  0.16741452  0.16771981  0.00018706  1
  I  I82  1  0.16607258  0.16670080  0.33282289  1
  I  I83  1  0.16597273  0.16733273  0.66678308  1
  I  I84  1  0.16013343  0.50424195  0.00003703  1
  I  I85  1  0.16080495  0.50430949  0.32964171  1
  I  I86  1  0.16613599  0.50418429  0.67051178  1
  I  I87  1  0.16706804  0.82866991  0.00085790  1
  I  I88  1  0.16688410  0.82904950  0.32930335  1
  I  I89  1  0.17401190  0.82676584  0.67091517  1
  I  I90  1  0.50119286  0.16836712  0.00002896  1
  I  I91  1  0.50177698  0.16689049  0.33566878  1
  I  I92  1  0.50183324  0.16678893  0.66409840  1
  I  I93  1  0.50570139  0.50075560  -0.00332220  1
  I  I94  1  0.50078660  0.50054829  0.33323976  1
  I  I95  1  0.49934710  0.50613091  0.67141900  1
  I  I96  1  0.50035337  0.82990352  0.00010544  1
  I  I97  1  0.50048165  0.83476397  0.33025374  1
  I  I98  1  0.49465598  0.82932617  0.67070544  1
  I  I99  1  0.83227137  0.16804153  0.00405366  1
  I  I100  1  0.83262443  0.16788409  0.32956487  1
  I  I101  1  0.83225040  0.16755533  0.66641330  1
  I  I102  1  0.83425598  0.50007465  0.00079078  1
  I  I103  1  0.83773210  0.49978750  0.33127604  1
  I  I104  1  0.83262227  0.50000514  0.66780988  1
  I  I105  1  0.83252073  0.83087063  0.00378798  1
  I  I106  1  0.83296598  0.83143635  0.32809156  1
  I  I107  1  0.83222298  0.83200330  0.66688346  1
  I  I108  1  -0.00347637  0.16419702  0.16781178  1
  I  I109  1  -0.00053838  0.16685018  0.49981653  1
  I  I110  1  -0.00015915  0.16578585  0.83212967  1
  I  I111  1  -0.00112309  0.50360225  0.16306455  1
  I  I112  1  -0.00347636  0.49885473  0.50246935  1
  I  I113  1  0.00016622  0.50380162  0.83495875  1
  I  I114  1  0.00016623  0.83170796  0.16286509  1
  I  I115  1  -0.00015913  0.83453731  0.50088135  1
  I  I116  1  0.00298668  0.82752971  0.83913669  1
  I  I117  1  0.33351601  0.16763223  0.16873505  1
  I  I118  1  0.33688631  0.16726274  0.49940421  1
  I  I119  1  0.33341075  0.17222356  0.83246145  1
  I  I120  1  0.33011365  0.50419367  0.16247284  1
  I  I121  1  0.33351601  0.49793185  0.49903448  1
  I  I122  1  0.33278434  0.50386164  0.83762855  1
  I  I123  1  0.33278434  0.82903825  0.16280510  1
  I  I124  1  0.33341073  0.83420473  0.49444336  1
  I  I125  1  0.33340744  0.82479492  0.84187156  1
  I  I126  1  0.67008802  0.16982470  0.16730208  1
  I  I127  1  0.66437071  0.16653644  0.50012993  1
  I  I128  1  0.66673800  0.16725900  0.83320278  1
  I  I129  1  0.66958935  0.50073077  0.16593595  1
  I  I130  1  0.67008796  0.49936460  0.49684197  1
  I  I131  1  0.66694717  0.50326524  0.83358263  1
  I  I132  1  0.66694724  0.83308386  0.16340122  1
  I  I133  1  0.66673801  0.83346413  0.49940733  1
  I  I134  1  0.66424859  0.82861011  0.83805703  1
