# generated using pymatgen
data_Cs27Sn14Pb13I81
_symmetry_space_group_name_H-M   'P 1'
_cell_length_a   18.96595571
_cell_length_b   18.96565828
_cell_length_c   18.95254285
_cell_angle_alpha   90.00132179
_cell_angle_beta   89.99976190
_cell_angle_gamma   90.00026333
_symmetry_Int_Tables_number   1
_chemical_formula_structural   Cs27Sn14Pb13I81
_chemical_formula_sum   'Cs27 Sn14 Pb13 I81'
_cell_volume   6817.26443826
_cell_formula_units_Z   1
loop_
 _symmetry_equiv_pos_site_id
 _symmetry_equiv_pos_as_xyz
  1  'x, y, z'
loop_
 _atom_site_type_symbol
 _atom_site_label
 _atom_site_symmetry_multiplicity
 _atom_site_fract_x
 _atom_site_fract_y
 _atom_site_fract_z
 _atom_site_occupancy
  Cs  Cs0  1  0.00144879  -0.00202781  -0.00440021  1
  Cs  Cs1  1  0.00163000  0.00147857  0.33531897  1
  Cs  Cs2  1  0.00082523  0.00024817  0.66742256  1
  Cs  Cs3  1  0.00015083  0.33295776  0.00055619  1
  Cs  Cs4  1  0.00089410  0.33236786  0.33430295  1
  Cs  Cs5  1  -0.00216098  0.33185675  0.66618297  1
  Cs  Cs6  1  -0.00260214  0.66911476  0.00325919  1
  Cs  Cs7  1  0.00102969  0.66637427  0.33111130  1
  Cs  Cs8  1  -0.00004188  0.66752425  0.66639147  1
  Cs  Cs9  1  0.33128832  0.00051229  0.00149048  1
  Cs  Cs10  1  0.33145271  0.00053939  0.33273290  1
  Cs  Cs11  1  0.33221816  -0.00045600  0.66677269  1
  Cs  Cs12  1  0.33558382  0.33358168  -0.00022393  1
  Cs  Cs13  1  0.33153259  0.33624538  0.33121625  1
  Cs  Cs14  1  0.33413778  0.33476428  0.66739631  1
  Cs  Cs15  1  0.33220948  0.66468394  -0.00340549  1
  Cs  Cs16  1  0.33580997  0.66243826  0.33460789  1
  Cs  Cs17  1  0.33628454  0.66491374  0.66659912  1
  Cs  Cs18  1  0.66781187  -0.00285952  0.00285546  1
  Cs  Cs19  1  0.66523153  0.00025607  0.33318205  1
  Cs  Cs20  1  0.66821353  0.00088201  0.66582767  1
  Cs  Cs21  1  0.66419857  0.33349828  -0.00009071  1
  Cs  Cs22  1  0.66796977  0.33073210  0.33085704  1
  Cs  Cs23  1  0.66795366  0.33324077  0.66724990  1
  Cs  Cs24  1  0.67007658  0.66853602  0.00498356  1
  Cs  Cs25  1  0.66248968  0.66989781  0.32735712  1
  Cs  Cs26  1  0.66382120  0.66476852  0.66620812  1
  Sn  Sn27  1  0.16680180  0.83394986  0.16761730  1
  Sn  Sn28  1  0.50006497  0.16603636  0.83259445  1
  Sn  Sn29  1  0.83449320  0.16655311  0.16715455  1
  Sn  Sn30  1  0.16620560  0.83366819  0.49926036  1
  Sn  Sn31  1  0.83325938  0.50039260  0.50017160  1
  Sn  Sn32  1  0.49976047  0.16672812  0.50070917  1
  Sn  Sn33  1  0.16548166  0.16590846  0.16731421  1
  Sn  Sn34  1  0.50052738  0.50018696  0.83294578  1
  Sn  Sn35  1  0.83348465  0.49988238  0.83273928  1
  Sn  Sn36  1  0.83338529  0.16658180  0.49952469  1
  Sn  Sn37  1  0.83374173  0.83315499  0.50012942  1
  Sn  Sn38  1  0.50020355  0.83369592  0.83325862  1
  Sn  Sn39  1  0.16688358  0.16622475  0.49960005  1
  Sn  Sn40  1  0.16600629  0.49983120  0.83305474  1
  Pb  Pb41  1  0.49953924  0.16659204  0.16704074  1
  Pb  Pb42  1  0.16651452  0.49978497  0.16441308  1
  Pb  Pb43  1  0.83341688  0.49768276  0.16724192  1
  Pb  Pb44  1  0.83131274  0.16809490  0.83340246  1
  Pb  Pb45  1  0.83560417  0.83609142  0.16941410  1
  Pb  Pb46  1  0.49689088  0.83352106  0.16429459  1
  Pb  Pb47  1  0.83124495  0.83090392  0.83098717  1
  Pb  Pb48  1  0.16477708  0.50002486  0.50175560  1
  Pb  Pb49  1  0.50268672  0.49748042  0.50147814  1
  Pb  Pb50  1  0.16856093  0.16831676  0.83318419  1
  Pb  Pb51  1  0.16810505  0.83130304  0.83274065  1
  Pb  Pb52  1  0.49963318  0.83530980  0.50141237  1
  Pb  Pb53  1  0.50010607  0.50010344  0.16411706  1
  I  I54  1  0.16377228  0.00113590  0.16985787  1
  I  I55  1  0.16284900  0.00094554  0.49788234  1
  I  I56  1  0.16964767  0.00003807  0.83367499  1
  I  I57  1  0.16372672  0.32980683  0.17041249  1
  I  I58  1  0.16618567  0.33007814  0.49765300  1
  I  I59  1  0.16899491  0.33628034  0.83272950  1
  I  I60  1  0.16763379  0.66963661  0.16958769  1
  I  I61  1  0.16214801  0.66952473  0.49795116  1
  I  I62  1  0.16946332  0.66335864  0.83286264  1
  I  I63  1  0.50231847  0.00030128  0.16181564  1
  I  I64  1  0.50399056  0.00362489  0.50662950  1
  I  I65  1  0.49874118  0.00087060  0.82893046  1
  I  I66  1  0.49801139  0.33283743  0.16408774  1
  I  I67  1  0.49886392  0.32905110  0.50583949  1
  I  I68  1  0.49993222  0.33343051  0.82938577  1
  I  I69  1  0.49879740  0.66699547  0.16562811  1
  I  I70  1  0.49970676  0.66661806  0.50291882  1
  I  I71  1  0.49874232  0.66576180  0.83339124  1
  I  I72  1  0.83365179  0.00410165  0.17100046  1
  I  I73  1  0.83345419  0.00104671  0.49601046  1
  I  I74  1  0.83097145  -0.00003953  0.83268189  1
  I  I75  1  0.83897097  0.32956124  0.17189762  1
  I  I76  1  0.83324739  0.33221919  0.50121420  1
  I  I77  1  0.83138263  0.33630666  0.82809721  1
  I  I78  1  0.83451491  0.66703312  0.16629899  1
  I  I79  1  0.83890993  0.66676657  0.50721109  1
  I  I80  1  0.83156392  0.66264765  0.82823041  1
  I  I81  1  0.16373137  0.16408627  0.00269814  1
  I  I82  1  0.16767107  0.16365931  0.33453058  1
  I  I83  1  0.16392697  0.16363418  0.66339301  1
  I  I84  1  0.16651424  0.49941254  -0.00394919  1
  I  I85  1  0.16455884  0.49967495  0.33359207  1
  I  I86  1  0.16924414  0.49952946  0.66985399  1
  I  I87  1  0.16963029  0.83697739  0.00223910  1
  I  I88  1  0.16271025  0.83799832  0.33450873  1
  I  I89  1  0.16388104  0.83770150  0.66342639  1
  I  I90  1  0.49979843  0.16906245  -0.00300340  1
  I  I91  1  0.50122707  0.16554439  0.33670884  1
  I  I92  1  0.50016607  0.16748327  0.66635940  1
  I  I93  1  0.50194847  0.49561720  -0.00522037  1
  I  I94  1  0.50077333  0.49834242  0.33379735  1
  I  I95  1  0.49803244  0.50114027  0.67017190  1
  I  I96  1  0.49895315  0.83485628  -0.00422580  1
  I  I97  1  0.50221999  0.83570718  0.33355637  1
  I  I98  1  0.49776628  0.83111967  0.66960235  1
  I  I99  1  0.83633221  0.16935950  0.00243570  1
  I  I100  1  0.83163850  0.16922905  0.33540278  1
  I  I101  1  0.83550072  0.16593628  0.66330914  1
  I  I102  1  0.83169718  0.49777182  -0.00307352  1
  I  I103  1  0.83527195  0.49986653  0.33683443  1
  I  I104  1  0.83301187  0.49681176  0.66651376  1
  I  I105  1  0.83354605  0.83311486  0.00010858  1
  I  I106  1  0.83325588  0.82848678  0.33775501  1
  I  I107  1  0.83962175  0.83949161  0.66275893  1
  I  I108  1  0.00060941  0.16503232  0.17437583  1
  I  I109  1  -0.00017674  0.16687702  0.49573558  1
  I  I110  1  -0.00001639  0.16967123  0.83156176  1
  I  I111  1  -0.00001092  0.50076824  0.16140508  1
  I  I112  1  -0.00327724  0.49508205  0.50705006  1
  I  I113  1  -0.00081670  0.49886535  0.82922622  1
  I  I114  1  0.00349707  0.83469571  0.16596796  1
  I  I115  1  0.00025954  0.83784119  0.49829182  1
  I  I116  1  -0.00003440  0.83092123  0.83466858  1
  I  I117  1  0.32998942  0.16324041  0.16880573  1
  I  I118  1  0.33241806  0.16170144  0.50096309  1
  I  I119  1  0.33669957  0.16983917  0.82970149  1
  I  I120  1  0.33298814  0.49716245  0.16451945  1
  I  I121  1  0.33338561  0.49982509  0.50271598  1
  I  I122  1  0.33414395  0.49973202  0.83463149  1
  I  I123  1  0.32895375  0.84103369  0.17268275  1
  I  I124  1  0.33020785  0.83851404  0.49851895  1
  I  I125  1  0.33615509  0.83111061  0.83153118  1
  I  I126  1  0.66925770  0.16869789  0.16967815  1
  I  I127  1  0.66766612  0.16726417  0.50094138  1
  I  I128  1  0.66315902  0.16943767  0.82917918  1
  I  I129  1  0.66705596  0.49759243  0.16462302  1
  I  I130  1  0.67091802  0.49969397  0.50677472  1
  I  I131  1  0.66655254  0.49852656  0.82809938  1
  I  I132  1  0.66692764  0.83396471  0.16634927  1
  I  I133  1  0.66929948  0.83453558  0.50385685  1
  I  I134  1  0.66321675  0.83274557  0.83086188  1
