# generated using pymatgen
data_Cs27Sn13Pb14I81
_symmetry_space_group_name_H-M   'P 1'
_cell_length_a   18.97829141
_cell_length_b   18.97338171
_cell_length_c   18.97827444
_cell_angle_alpha   90.00001683
_cell_angle_beta   90.00143028
_cell_angle_gamma   90.00211088
_symmetry_Int_Tables_number   1
_chemical_formula_structural   Cs27Sn13Pb14I81
_chemical_formula_sum   'Cs27 Sn13 Pb14 I81'
_cell_volume   6833.74197552
_cell_formula_units_Z   1
loop_
 _symmetry_equiv_pos_site_id
 _symmetry_equiv_pos_as_xyz
  1  'x, y, z'
loop_
 _atom_site_type_symbol
 _atom_site_label
 _atom_site_symmetry_multiplicity
 _atom_site_fract_x
 _atom_site_fract_y
 _atom_site_fract_z
 _atom_site_occupancy
  Cs  Cs0  1  -0.00109811  -0.00037445  0.00094699  1
  Cs  Cs1  1  -0.00072612  0.00176619  0.33252478  1
  Cs  Cs2  1  -0.00002654  0.00274884  0.66597127  1
  Cs  Cs3  1  -0.00204817  0.33185682  -0.00262162  1
  Cs  Cs4  1  -0.00009775  0.33160105  0.33333253  1
  Cs  Cs5  1  0.00107135  0.33286538  0.66910895  1
  Cs  Cs6  1  0.00281928  0.66927163  0.00458749  1
  Cs  Cs7  1  0.00017231  0.66497597  0.33386117  1
  Cs  Cs8  1  0.00016028  0.66489177  0.66224189  1
  Cs  Cs9  1  0.33210438  -0.00327479  -0.00187907  1
  Cs  Cs10  1  0.33595943  0.00575907  0.33651303  1
  Cs  Cs11  1  0.33554337  -0.00133173  0.66559467  1
  Cs  Cs12  1  0.33556101  0.33384867  -0.00095648  1
  Cs  Cs13  1  0.33693500  0.33161698  0.33412407  1
  Cs  Cs14  1  0.33187267  0.33454298  0.66596135  1
  Cs  Cs15  1  0.32934464  0.66866792  -0.00078984  1
  Cs  Cs16  1  0.32857504  0.66316702  0.33126804  1
  Cs  Cs17  1  0.33426391  0.66506978  0.66846450  1
  Cs  Cs18  1  0.66875856  -0.00015171  0.00120883  1
  Cs  Cs19  1  0.66575893  -0.00091993  0.33286092  1
  Cs  Cs20  1  0.66585393  -0.00481115  0.66532336  1
  Cs  Cs21  1  0.66589100  0.33446857  -0.00165487  1
  Cs  Cs22  1  0.66353634  0.33372345  0.32866797  1
  Cs  Cs23  1  0.66867221  0.33693244  0.67333603  1
  Cs  Cs24  1  0.66764591  0.66834480  0.00236031  1
  Cs  Cs25  1  0.67062837  0.66778183  0.33495357  1
  Cs  Cs26  1  0.66589820  0.66799412  0.66166930  1
  Sn  Sn27  1  0.49921423  0.16669286  0.83334535  1
  Sn  Sn28  1  0.83284886  0.16705447  0.49935687  1
  Sn  Sn29  1  0.16763775  0.16704153  0.83417741  1
  Sn  Sn30  1  0.49942788  0.49987843  0.50050355  1
  Sn  Sn31  1  0.16687430  0.83297000  0.50012780  1
  Sn  Sn32  1  0.49909378  0.49962374  0.83263451  1
  Sn  Sn33  1  0.16635770  0.16675871  0.16567873  1
  Sn  Sn34  1  0.16724985  0.49937882  0.83287832  1
  Sn  Sn35  1  0.83269195  0.83416807  0.16594712  1
  Sn  Sn36  1  0.83389593  0.16618594  0.16747974  1
  Sn  Sn37  1  0.16752898  0.50060610  0.50078661  1
  Sn  Sn38  1  0.83362241  0.83298276  0.83354932  1
  Sn  Sn39  1  0.50009828  0.83329227  0.16673362  1
  Pb  Pb40  1  0.16634048  0.83587283  0.16901215  1
  Pb  Pb41  1  0.16472998  0.83325484  0.83153599  1
  Pb  Pb42  1  0.16666298  0.49694105  0.16640131  1
  Pb  Pb43  1  0.50178720  0.83269788  0.83471723  1
  Pb  Pb44  1  0.50017368  0.16500057  0.16435987  1
  Pb  Pb45  1  0.16573898  0.16746527  0.50044406  1
  Pb  Pb46  1  0.83346179  0.49724990  0.49999499  1
  Pb  Pb47  1  0.49987951  0.50257427  0.16610292  1
  Pb  Pb48  1  0.49758540  0.83093090  0.49754125  1
  Pb  Pb49  1  0.50282703  0.16903382  0.50282069  1
  Pb  Pb50  1  0.83510814  0.83509499  0.49928136  1
  Pb  Pb51  1  0.83331423  0.16514508  0.83379628  1
  Pb  Pb52  1  0.83368054  0.50313081  0.83344313  1
  Pb  Pb53  1  0.83346652  0.49979927  0.16653413  1
  I  I54  1  0.16442642  0.00359255  0.16215478  1
  I  I55  1  0.16278221  -0.00127984  0.49942136  1
  I  I56  1  0.16881558  0.00293299  0.83528085  1
  I  I57  1  0.16059253  0.32897132  0.16726623  1
  I  I58  1  0.16876304  0.33623998  0.50139788  1
  I  I59  1  0.16901839  0.33318925  0.83105068  1
  I  I60  1  0.16584897  0.66681417  0.16509378  1
  I  I61  1  0.16845444  0.66532394  0.50486402  1
  I  I62  1  0.17026867  0.66372607  0.83066608  1
  I  I63  1  0.50183721  -0.00269483  0.16459662  1
  I  I64  1  0.49882875  0.00007839  0.50099284  1
  I  I65  1  0.49700368  0.00233938  0.83603199  1
  I  I66  1  0.50060816  0.33325521  0.16805229  1
  I  I67  1  0.49227981  0.33680994  0.49990991  1
  I  I68  1  0.49730893  0.33363325  0.83078126  1
  I  I69  1  0.50697189  0.67030432  0.16519494  1
  I  I70  1  0.49965325  0.66307355  0.50749901  1
  I  I71  1  0.49636529  0.66340484  0.83086873  1
  I  I72  1  0.83385328  0.00027758  0.16614630  1
  I  I73  1  0.83697282  0.00284977  0.49944859  1
  I  I74  1  0.83359425  -0.00243697  0.83483065  1
  I  I75  1  0.83773869  0.32942667  0.17072588  1
  I  I76  1  0.83629995  0.32947826  0.49472771  1
  I  I77  1  0.83305781  0.33333074  0.83352942  1
  I  I78  1  0.82938506  0.67033721  0.16251855  1
  I  I79  1  0.83278681  0.66658485  0.49979510  1
  I  I80  1  0.83330756  0.67075598  0.83945740  1
  I  I81  1  0.16366176  0.17081207  -0.00096592  1
  I  I82  1  0.16271402  0.16521933  0.33135977  1
  I  I83  1  0.16732861  0.16770495  0.66951443  1
  I  I84  1  0.17115570  0.49830059  -0.00348126  1
  I  I85  1  0.16984999  0.50289217  0.33647130  1
  I  I86  1  0.17011894  0.49791946  0.66712549  1
  I  I87  1  0.16704226  0.83127500  0.00014463  1
  I  I88  1  0.16457093  0.82797286  0.33652622  1
  I  I89  1  0.16407506  0.83428695  0.66389502  1
  I  I90  1  0.50091582  0.17312341  -0.00348277  1
  I  I91  1  0.49794572  0.16738104  0.33330997  1
  I  I92  1  0.49484036  0.16659946  0.67062617  1
  I  I93  1  0.49609645  0.49670247  -0.00366850  1
  I  I94  1  0.49557007  0.50138622  0.33612297  1
  I  I95  1  0.49565581  0.49647432  0.66754842  1
  I  I96  1  0.50185245  0.83244492  0.00260621  1
  I  I97  1  0.50744834  0.83367242  0.33001729  1
  I  I98  1  0.50204057  0.83529833  0.66662693  1
  I  I99  1  0.83516742  0.16320549  0.00264785  1
  I  I100  1  0.83999943  0.16128725  0.33180173  1
  I  I101  1  0.83465439  0.16492137  0.66525559  1
  I  I102  1  0.83272690  0.49587203  -0.00030438  1
  I  I103  1  0.83341306  0.50373691  0.33352504  1
  I  I104  1  0.83346685  0.49955226  0.66677198  1
  I  I105  1  0.83088155  0.83928061  0.00125595  1
  I  I106  1  0.83056765  0.83645127  0.33024111  1
  I  I107  1  0.83493589  0.83583705  0.66839623  1
  I  I108  1  -0.00048436  0.16123582  0.16493360  1
  I  I109  1  -0.00213174  0.16730194  0.50035479  1
  I  I110  1  0.00265392  0.16988258  0.83378173  1
  I  I111  1  0.00032959  0.50446281  0.16690491  1
  I  I112  1  0.00336516  0.50264537  0.50433434  1
  I  I113  1  0.00354378  0.49512470  0.82855129  1
  I  I114  1  -0.00282219  0.83634717  0.16361588  1
  I  I115  1  0.00283521  0.82712558  0.49908285  1
  I  I116  1  -0.00287964  0.83505910  0.83979920  1
  I  I117  1  0.33090611  0.16494430  0.16483592  1
  I  I118  1  0.33348333  0.16455400  0.49701685  1
  I  I119  1  0.33224958  0.16986487  0.83855190  1
  I  I120  1  0.33321810  0.50129628  0.16751021  1
  I  I121  1  0.33242572  0.50359541  0.50448110  1
  I  I122  1  0.33294329  0.49600242  0.82892294  1
  I  I123  1  0.33520525  0.83389036  0.16742552  1
  I  I124  1  0.32987667  0.83405856  0.49955424  1
  I  I125  1  0.33323708  0.83418005  0.83484381  1
  I  I126  1  0.66948711  0.16382840  0.16923198  1
  I  I127  1  0.67024803  0.16594710  0.49444131  1
  I  I128  1  0.66439976  0.17060324  0.83306222  1
  I  I129  1  0.66645866  0.49591677  0.16657194  1
  I  I130  1  0.66372679  0.49839344  0.50524129  1
  I  I131  1  0.66344357  0.49527643  0.82932861  1
  I  I132  1  0.66818800  0.83877807  0.16287334  1
  I  I133  1  0.66662324  0.83259173  0.50147402  1
  I  I134  1  0.66962269  0.83530801  0.83492045  1
