# generated using pymatgen
data_Cs27Sn14Pb13I81
_symmetry_space_group_name_H-M   'P 1'
_cell_length_a   18.96083682
_cell_length_b   18.95930433
_cell_length_c   18.96095791
_cell_angle_alpha   89.99940326
_cell_angle_beta   89.99989242
_cell_angle_gamma   89.99852411
_symmetry_Int_Tables_number   1
_chemical_formula_structural   Cs27Sn14Pb13I81
_chemical_formula_sum   'Cs27 Sn14 Pb13 I81'
_cell_volume   6816.16621859
_cell_formula_units_Z   1
loop_
 _symmetry_equiv_pos_site_id
 _symmetry_equiv_pos_as_xyz
  1  'x, y, z'
loop_
 _atom_site_type_symbol
 _atom_site_label
 _atom_site_symmetry_multiplicity
 _atom_site_fract_x
 _atom_site_fract_y
 _atom_site_fract_z
 _atom_site_occupancy
  Cs  Cs0  1  -0.00105635  0.00091201  0.00023222  1
  Cs  Cs1  1  0.00121322  -0.00011804  0.33206259  1
  Cs  Cs2  1  -0.00251760  -0.00190732  0.66715549  1
  Cs  Cs3  1  0.00463410  0.33356941  0.00184019  1
  Cs  Cs4  1  -0.00055077  0.33684560  0.33031676  1
  Cs  Cs5  1  0.00103067  0.33464422  0.66769248  1
  Cs  Cs6  1  0.00119161  0.66633028  -0.00073737  1
  Cs  Cs7  1  -0.00308562  0.66270376  0.34424257  1
  Cs  Cs8  1  0.00091141  0.66669923  0.65690154  1
  Cs  Cs9  1  0.33235064  -0.00124973  0.00049680  1
  Cs  Cs10  1  0.33273253  0.00108462  0.33353143  1
  Cs  Cs11  1  0.33438340  0.00074002  0.66603513  1
  Cs  Cs12  1  0.32911838  0.33322280  -0.00070813  1
  Cs  Cs13  1  0.33083347  0.32948786  0.32997051  1
  Cs  Cs14  1  0.33643778  0.33303616  0.66778684  1
  Cs  Cs15  1  0.33612172  0.66815522  -0.00079623  1
  Cs  Cs16  1  0.33551927  0.66797800  0.33310058  1
  Cs  Cs17  1  0.33205732  0.66679989  0.66814010  1
  Cs  Cs18  1  0.66888787  -0.00036814  -0.00046072  1
  Cs  Cs19  1  0.66559245  0.00260034  0.33148025  1
  Cs  Cs20  1  0.66748438  0.00085528  0.66819723  1
  Cs  Cs21  1  0.66750042  0.33372564  -0.00170005  1
  Cs  Cs22  1  0.66840418  0.33283971  0.33449814  1
  Cs  Cs23  1  0.66353808  0.33192113  0.66833619  1
  Cs  Cs24  1  0.66403454  0.66576063  0.00216516  1
  Cs  Cs25  1  0.66705482  0.66261628  0.32927966  1
  Cs  Cs26  1  0.66720714  0.66654407  0.66729227  1
  Sn  Sn27  1  0.83460804  0.16631448  0.49950377  1
  Sn  Sn28  1  0.16701415  0.83423502  0.83389635  1
  Sn  Sn29  1  0.50079432  0.16659729  0.16521876  1
  Sn  Sn30  1  0.49960800  0.83355401  0.83248962  1
  Sn  Sn31  1  0.49990153  0.50105589  0.50057215  1
  Sn  Sn32  1  0.83462563  0.83360061  0.16661521  1
  Sn  Sn33  1  0.83261867  0.16603066  0.16731433  1
  Sn  Sn34  1  0.50093743  0.50012872  0.83268988  1
  Sn  Sn35  1  0.49933748  0.16639732  0.83454830  1
  Sn  Sn36  1  0.50026572  0.83233811  0.50073979  1
  Sn  Sn37  1  0.16527980  0.16647028  0.50107026  1
  Sn  Sn38  1  0.16740425  0.16549671  0.83228710  1
  Sn  Sn39  1  0.16524210  0.83332759  0.16629238  1
  Sn  Sn40  1  0.83308316  0.50026229  0.83340054  1
  Pb  Pb41  1  0.16713278  0.50060823  0.83328893  1
  Pb  Pb42  1  0.83045724  0.83539675  0.49744427  1
  Pb  Pb43  1  0.83382402  0.16803946  0.83372691  1
  Pb  Pb44  1  0.50010844  0.83518754  0.16634195  1
  Pb  Pb45  1  0.83344282  0.49987871  0.16453590  1
  Pb  Pb46  1  0.16858584  0.83517846  0.50037036  1
  Pb  Pb47  1  0.16625245  0.16528167  0.16624502  1
  Pb  Pb48  1  0.83094974  0.49734976  0.50232300  1
  Pb  Pb49  1  0.83363980  0.83106680  0.83493118  1
  Pb  Pb50  1  0.49978322  0.49681718  0.16636492  1
  Pb  Pb51  1  0.16660016  0.50428276  0.16685704  1
  Pb  Pb52  1  0.16977220  0.49691014  0.50010297  1
  Pb  Pb53  1  0.50002450  0.16671486  0.50030694  1
  I  I54  1  0.16657345  -0.00250004  0.16457872  1
  I  I55  1  0.16727715  0.00328042  0.50138993  1
  I  I56  1  0.17461210  0.00029280  0.83352961  1
  I  I57  1  0.16705224  0.33291881  0.16613523  1
  I  I58  1  0.16585764  0.32863510  0.50581388  1
  I  I59  1  0.16998252  0.33024698  0.83001903  1
  I  I60  1  0.16374069  0.67240913  0.15878909  1
  I  I61  1  0.16616642  0.66687910  0.49992997  1
  I  I62  1  0.17077310  0.67012902  0.83898534  1
  I  I63  1  0.50137203  0.00320936  0.16394460  1
  I  I64  1  0.49959046  -0.00185110  0.50279937  1
  I  I65  1  0.49552458  0.00014366  0.83280889  1
  I  I66  1  0.50532633  0.32856275  0.16430279  1
  I  I67  1  0.50042470  0.33508397  0.50403256  1
  I  I68  1  0.50048702  0.33269631  0.83235986  1
  I  I69  1  0.49999693  0.66688108  0.16516906  1
  I  I70  1  0.49936927  0.66704670  0.50755854  1
  I  I71  1  0.49967210  0.66727565  0.82914652  1
  I  I72  1  0.83224974  0.00094462  0.16854075  1
  I  I73  1  0.83338906  0.00356360  0.50024911  1
  I  I74  1  0.83061518  0.00002109  0.83238621  1
  I  I75  1  0.82831972  0.32992421  0.16956057  1
  I  I76  1  0.83424783  0.32933617  0.49375195  1
  I  I77  1  0.82763314  0.33564613  0.83368876  1
  I  I78  1  0.83625961  0.66962597  0.16353471  1
  I  I79  1  0.83404465  0.66665455  0.49910125  1
  I  I80  1  0.82763275  0.66361575  0.83629841  1
  I  I81  1  0.16840325  0.16504061  -0.00286178  1
  I  I82  1  0.16827471  0.16500573  0.33511984  1
  I  I83  1  0.16829438  0.16165380  0.66802821  1
  I  I84  1  0.16827796  0.49386067  -0.00039735  1
  I  I85  1  0.16862017  0.49810288  0.33366692  1
  I  I86  1  0.16400390  0.50341483  0.66686710  1
  I  I87  1  0.16942344  0.83967818  -0.00131927  1
  I  I88  1  0.16588286  0.83654211  0.33111101  1
  I  I89  1  0.17028540  0.83569912  0.66976778  1
  I  I90  1  0.50012048  0.16607517  -0.00151420  1
  I  I91  1  0.50044419  0.16564826  0.33160518  1
  I  I92  1  0.49930286  0.16686899  0.66950482  1
  I  I93  1  0.50338739  0.50262796  -0.00370160  1
  I  I94  1  0.49946521  0.50365899  0.33616601  1
  I  I95  1  0.50357827  0.49751446  0.66827439  1
  I  I96  1  0.49884532  0.83169820  -0.00306089  1
  I  I97  1  0.49980504  0.83173289  0.33538481  1
  I  I98  1  0.49492549  0.83543766  0.66845173  1
  I  I99  1  0.83133413  0.16433753  0.00254821  1
  I  I100  1  0.83120601  0.16300763  0.33255564  1
  I  I101  1  0.83287621  0.16915238  0.66477763  1
  I  I102  1  0.82555915  0.49758223  -0.00331951  1
  I  I103  1  0.83164880  0.50096677  0.33360983  1
  I  I104  1  0.83061384  0.49857956  0.67006397  1
  I  I105  1  0.83209000  0.84049566  0.00290288  1
  I  I106  1  0.83768250  0.83553872  0.32944765  1
  I  I107  1  0.83487812  0.83408456  0.66655402  1
  I  I108  1  -0.00256697  0.16413851  0.16720740  1
  I  I109  1  0.00014060  0.16524537  0.50032559  1
  I  I110  1  0.00283344  0.16406176  0.83265776  1
  I  I111  1  -0.00021836  0.49370074  0.16256155  1
  I  I112  1  -0.00019571  0.50083060  0.50160767  1
  I  I113  1  -0.00220556  0.49770035  0.83604598  1
  I  I114  1  0.00010990  0.84118536  0.15960389  1
  I  I115  1  -0.00010349  0.83339359  0.50197695  1
  I  I116  1  0.00293716  0.83786072  0.83701339  1
  I  I117  1  0.33541538  0.16539315  0.16663566  1
  I  I118  1  0.33161955  0.16642375  0.50081912  1
  I  I119  1  0.33434435  0.16805484  0.83316146  1
  I  I120  1  0.33364592  0.49794775  0.16472685  1
  I  I121  1  0.33773353  0.50146553  0.50815577  1
  I  I122  1  0.33691872  0.49914166  0.82948578  1
  I  I123  1  0.33139789  0.83599863  0.16516792  1
  I  I124  1  0.33670983  0.83339954  0.49947570  1
  I  I125  1  0.33419955  0.83283022  0.83578518  1
  I  I126  1  0.66694430  0.16095694  0.16715706  1
  I  I127  1  0.66836432  0.16684750  0.49852035  1
  I  I128  1  0.66381301  0.16488669  0.83352681  1
  I  I129  1  0.66645609  0.50402941  0.16719225  1
  I  I130  1  0.66297891  0.50078450  0.50257658  1
  I  I131  1  0.66431216  0.49849935  0.83033401  1
  I  I132  1  0.66871260  0.83684692  0.16667869  1
  I  I133  1  0.66251815  0.83336566  0.50566064  1
  I  I134  1  0.66344264  0.83638343  0.83147283  1
