# generated using pymatgen
data_Cs27Sn14Pb13I81
_symmetry_space_group_name_H-M   'P 1'
_cell_length_a   18.97793563
_cell_length_b   18.97769280
_cell_length_c   18.97280187
_cell_angle_alpha   89.99865418
_cell_angle_beta   89.99861636
_cell_angle_gamma   90.00069046
_symmetry_Int_Tables_number   1
_chemical_formula_structural   Cs27Sn14Pb13I81
_chemical_formula_sum   'Cs27 Sn14 Pb13 I81'
_cell_volume   6833.19560362
_cell_formula_units_Z   1
loop_
 _symmetry_equiv_pos_site_id
 _symmetry_equiv_pos_as_xyz
  1  'x, y, z'
loop_
 _atom_site_type_symbol
 _atom_site_label
 _atom_site_symmetry_multiplicity
 _atom_site_fract_x
 _atom_site_fract_y
 _atom_site_fract_z
 _atom_site_occupancy
  Cs  Cs0  1  -0.00066232  -0.00307408  0.00323385  1
  Cs  Cs1  1  0.00272425  -0.00049940  0.33002153  1
  Cs  Cs2  1  -0.00051105  0.00195838  0.66759788  1
  Cs  Cs3  1  -0.00411178  0.33442186  -0.00224689  1
  Cs  Cs4  1  -0.00166049  0.33419036  0.33338373  1
  Cs  Cs5  1  0.00189553  0.33130442  0.66899720  1
  Cs  Cs6  1  0.00353458  0.66960777  -0.00161010  1
  Cs  Cs7  1  0.00165700  0.66658406  0.33430947  1
  Cs  Cs8  1  -0.00255928  0.66817488  0.66743292  1
  Cs  Cs9  1  0.33477983  -0.00109743  0.00323120  1
  Cs  Cs10  1  0.33128626  -0.00009863  0.33087903  1
  Cs  Cs11  1  0.33447750  0.00309936  0.66772019  1
  Cs  Cs12  1  0.33554347  0.33403075  -0.00208527  1
  Cs  Cs13  1  0.33322360  0.33415118  0.33439722  1
  Cs  Cs14  1  0.33152348  0.32994274  0.66928898  1
  Cs  Cs15  1  0.33106693  0.66753319  0.00080327  1
  Cs  Cs16  1  0.33215610  0.66555297  0.33262430  1
  Cs  Cs17  1  0.33480100  0.66912356  0.66734212  1
  Cs  Cs18  1  0.66569965  0.00229264  -0.00088560  1
  Cs  Cs19  1  0.66661090  0.00148628  0.33320617  1
  Cs  Cs20  1  0.66661976  -0.00277445  0.66649899  1
  Cs  Cs21  1  0.66739599  0.33308284  -0.00152672  1
  Cs  Cs22  1  0.66875432  0.33859441  0.33365776  1
  Cs  Cs23  1  0.66700229  0.33309629  0.66922090  1
  Cs  Cs24  1  0.66596235  0.66391284  -0.00129337  1
  Cs  Cs25  1  0.66698329  0.65826884  0.34194511  1
  Cs  Cs26  1  0.66809583  0.67309491  0.65945813  1
  Sn  Sn27  1  0.50098605  0.16678867  0.49958575  1
  Sn  Sn28  1  0.16691775  0.83319473  0.16750150  1
  Sn  Sn29  1  0.16721891  0.16727901  0.16640681  1
  Sn  Sn30  1  0.83241678  0.16706598  0.83253242  1
  Sn  Sn31  1  0.83218835  0.49983753  0.83319566  1
  Sn  Sn32  1  0.50093956  0.49978678  0.83315235  1
  Sn  Sn33  1  0.83251442  0.16664815  0.50042839  1
  Sn  Sn34  1  0.50090042  0.83328475  0.16703705  1
  Sn  Sn35  1  0.16665633  0.49962812  0.16720663  1
  Sn  Sn36  1  0.83230239  0.83272451  0.16712140  1
  Sn  Sn37  1  0.16683717  0.50072501  0.49969472  1
  Sn  Sn38  1  0.16682442  0.83276248  0.49953140  1
  Sn  Sn39  1  0.50097866  0.16726716  0.83338373  1
  Sn  Sn40  1  0.49946968  0.16653647  0.16709494  1
  Pb  Pb41  1  0.16681800  0.83358052  0.83301198  1
  Pb  Pb42  1  0.16677842  0.49999053  0.83302086  1
  Pb  Pb43  1  0.50012084  0.83368205  0.83538880  1
  Pb  Pb44  1  0.49829553  0.49974228  0.16511746  1
  Pb  Pb45  1  0.83576988  0.50273820  0.16460154  1
  Pb  Pb46  1  0.83568254  0.49769133  0.50256009  1
  Pb  Pb47  1  0.83546530  0.83586893  0.49748803  1
  Pb  Pb48  1  0.83267952  0.16561945  0.16646399  1
  Pb  Pb49  1  0.16664209  0.16658606  0.49789825  1
  Pb  Pb50  1  0.83304756  0.83379293  0.83519330  1
  Pb  Pb51  1  0.16658249  0.16646580  0.83649111  1
  Pb  Pb52  1  0.49769135  0.49757646  0.50280159  1
  Pb  Pb53  1  0.49779929  0.83570841  0.49716367  1
  I  I54  1  0.16723281  -0.00054280  0.16994909  1
  I  I55  1  0.16645702  -0.00199277  0.49396056  1
  I  I56  1  0.16614216  0.00036310  0.83290404  1
  I  I57  1  0.17185425  0.33304750  0.17048736  1
  I  I58  1  0.16670959  0.33519814  0.49501317  1
  I  I59  1  0.16654647  0.33319112  0.83379898  1
  I  I60  1  0.16663280  0.66739260  0.16964802  1
  I  I61  1  0.16670136  0.66681698  0.49085999  1
  I  I62  1  0.16677469  0.66645867  0.83889676  1
  I  I63  1  0.49431047  0.00116246  0.16443871  1
  I  I64  1  0.50073555  0.00400280  0.50538983  1
  I  I65  1  0.50389346  0.00379725  0.83245884  1
  I  I66  1  0.49440791  0.32999295  0.16724923  1
  I  I67  1  0.50060186  0.32930943  0.49373205  1
  I  I68  1  0.50308194  0.33165561  0.83663937  1
  I  I69  1  0.49709138  0.66916960  0.16269554  1
  I  I70  1  0.50008713  0.66662389  0.50062201  1
  I  I71  1  0.50210269  0.66381308  0.83667142  1
  I  I72  1  0.83943564  -0.00222688  0.16499717  1
  I  I73  1  0.83189642  0.00371827  0.50682930  1
  I  I74  1  0.82893712  0.00351371  0.83098754  1
  I  I75  1  0.83523110  0.33348987  0.16781600  1
  I  I76  1  0.83230218  0.32973096  0.49912254  1
  I  I77  1  0.83014250  0.33213969  0.83150832  1
  I  I78  1  0.83391478  0.67070151  0.16389416  1
  I  I79  1  0.83340998  0.66665117  0.50115701  1
  I  I80  1  0.83111696  0.66389069  0.83707808  1
  I  I81  1  0.17018768  0.16559099  0.00478198  1
  I  I82  1  0.17004346  0.16541239  0.32982830  1
  I  I83  1  0.16890440  0.16677495  0.66654641  1
  I  I84  1  0.16692548  0.50127466  0.00287083  1
  I  I85  1  0.16723663  0.50090596  0.33219632  1
  I  I86  1  0.16658047  0.50435251  0.66387675  1
  I  I87  1  0.16656626  0.83270798  0.00412040  1
  I  I88  1  0.16661247  0.83341404  0.33129233  1
  I  I89  1  0.16615738  0.82791778  0.66313136  1
  I  I90  1  0.49936851  0.16606314  0.00022126  1
  I  I91  1  0.49856294  0.16057057  0.33253384  1
  I  I92  1  0.50318965  0.17175555  0.66713456  1
  I  I93  1  0.50081811  0.49392098  -0.00274802  1
  I  I94  1  0.49989284  0.49913143  0.33350350  1
  I  I95  1  0.50049298  0.49360196  0.67069784  1
  I  I96  1  0.49541761  0.83961932  0.00390785  1
  I  I97  1  0.49998576  0.83988209  0.32892530  1
  I  I98  1  0.49709341  0.83420635  0.66627060  1
  I  I99  1  0.83117239  0.16899168  -0.00252058  1
  I  I100  1  0.83175810  0.16342298  0.33528523  1
  I  I101  1  0.82738243  0.16968873  0.66738021  1
  I  I102  1  0.83187309  0.49205102  -0.00311111  1
  I  I103  1  0.83321749  0.49892721  0.33348879  1
  I  I104  1  0.83228784  0.49828194  0.67044557  1
  I  I105  1  0.83833008  0.83651085  0.00344253  1
  I  I106  1  0.83327533  0.83690490  0.32947354  1
  I  I107  1  0.83646705  0.83213739  0.66634934  1
  I  I108  1  0.00234562  0.16459011  0.16731715  1
  I  I109  1  -0.00206286  0.16670434  0.50375643  1
  I  I110  1  -0.00315850  0.17103887  0.82954299  1
  I  I111  1  0.00413136  0.49838142  0.16774511  1
  I  I112  1  0.00350743  0.50111146  0.49687218  1
  I  I113  1  -0.00251933  0.49466088  0.83414504  1
  I  I114  1  0.00153448  0.83492640  0.16895867  1
  I  I115  1  0.00342557  0.83216634  0.49293133  1
  I  I116  1  -0.00016458  0.83332606  0.83768553  1
  I  I117  1  0.33394018  0.16153763  0.16659641  1
  I  I118  1  0.33585278  0.16667415  0.50257570  1
  I  I119  1  0.33671857  0.17097242  0.83074452  1
  I  I120  1  0.33000498  0.50372159  0.16706497  1
  I  I121  1  0.32990215  0.50123910  0.49686785  1
  I  I122  1  0.33595716  0.49412314  0.83411341  1
  I  I123  1  0.33259535  0.83556908  0.16924882  1
  I  I124  1  0.32985446  0.83189920  0.49330331  1
  I  I125  1  0.33358690  0.83312759  0.83640541  1
  I  I126  1  0.66355785  0.16068733  0.16580102  1
  I  I127  1  0.66599014  0.16610750  0.49816259  1
  I  I128  1  0.66592124  0.17098218  0.83611487  1
  I  I129  1  0.66672266  0.50035392  0.16640509  1
  I  I130  1  0.66663876  0.50069198  0.49859421  1
  I  I131  1  0.66646640  0.49352883  0.83646474  1
  I  I132  1  0.66574777  0.84258190  0.16259351  1
  I  I133  1  0.66657901  0.83274922  0.49802732  1
  I  I134  1  0.66656174  0.83292661  0.83715632  1
