# generated using pymatgen
data_Cs27Sn14Pb13I81
_symmetry_space_group_name_H-M   'P 1'
_cell_length_a   18.96206942
_cell_length_b   18.96436463
_cell_length_c   18.95694288
_cell_angle_alpha   90.00027532
_cell_angle_beta   89.99953751
_cell_angle_gamma   90.00007157
_symmetry_Int_Tables_number   1
_chemical_formula_structural   Cs27Sn14Pb13I81
_chemical_formula_sum   'Cs27 Sn14 Pb13 I81'
_cell_volume   6816.98487941
_cell_formula_units_Z   1
loop_
 _symmetry_equiv_pos_site_id
 _symmetry_equiv_pos_as_xyz
  1  'x, y, z'
loop_
 _atom_site_type_symbol
 _atom_site_label
 _atom_site_symmetry_multiplicity
 _atom_site_fract_x
 _atom_site_fract_y
 _atom_site_fract_z
 _atom_site_occupancy
  Cs  Cs0  1  -0.00037036  0.00215891  -0.00080893  1
  Cs  Cs1  1  0.00207546  -0.00084811  0.33482687  1
  Cs  Cs2  1  0.00025618  0.00202920  0.66547455  1
  Cs  Cs3  1  -0.00329220  0.33913830  -0.00439576  1
  Cs  Cs4  1  -0.00082536  0.33309177  0.33403182  1
  Cs  Cs5  1  0.00140830  0.33212291  0.66865586  1
  Cs  Cs6  1  -0.00121469  0.66039348  -0.00115308  1
  Cs  Cs7  1  0.00092091  0.66708200  0.33570025  1
  Cs  Cs8  1  -0.00256927  0.66568514  0.66310409  1
  Cs  Cs9  1  0.33366452  -0.00130793  -0.00059951  1
  Cs  Cs10  1  0.33014521  -0.00066974  0.33250251  1
  Cs  Cs11  1  0.33340032  -0.00070868  0.66777630  1
  Cs  Cs12  1  0.32968747  0.33712338  -0.00129486  1
  Cs  Cs13  1  0.33863812  0.33384764  0.33217822  1
  Cs  Cs14  1  0.33424462  0.33245132  0.66793925  1
  Cs  Cs15  1  0.33354501  0.66728538  0.00047631  1
  Cs  Cs16  1  0.33184072  0.66741490  0.33212282  1
  Cs  Cs17  1  0.33515187  0.66903461  0.66679637  1
  Cs  Cs18  1  0.66800487  -0.00058533  0.00016659  1
  Cs  Cs19  1  0.66705823  0.00092801  0.33253593  1
  Cs  Cs20  1  0.66627742  -0.00107977  0.66732204  1
  Cs  Cs21  1  0.67329196  0.33183850  0.00893435  1
  Cs  Cs22  1  0.66147591  0.33179551  0.32931750  1
  Cs  Cs23  1  0.66323401  0.33435918  0.66297013  1
  Cs  Cs24  1  0.66780306  0.66871551  -0.00257084  1
  Cs  Cs25  1  0.66702427  0.66715807  0.33426327  1
  Cs  Cs26  1  0.66639298  0.66737736  0.66719272  1
  Sn  Sn27  1  0.83231462  0.83362954  0.49931400  1
  Sn  Sn28  1  0.16607061  0.83395397  0.16529870  1
  Sn  Sn29  1  0.50037035  0.49974661  0.83377083  1
  Sn  Sn30  1  0.16630476  0.16789015  0.49919526  1
  Sn  Sn31  1  0.16649701  0.49860447  0.49988961  1
  Sn  Sn32  1  0.83378511  0.49960170  0.49986541  1
  Sn  Sn33  1  0.50032827  0.16686338  0.83385293  1
  Sn  Sn34  1  0.16650427  0.16637765  0.16692950  1
  Sn  Sn35  1  0.83391626  0.83340720  0.16738811  1
  Sn  Sn36  1  0.50000766  0.83355800  0.16665242  1
  Sn  Sn37  1  0.16673314  0.83333561  0.83427340  1
  Sn  Sn38  1  0.49920124  0.83349618  0.83345208  1
  Sn  Sn39  1  0.83374979  0.16675099  0.49993359  1
  Sn  Sn40  1  0.50082843  0.83359590  0.49980508  1
  Pb  Pb41  1  0.49997118  0.50243702  0.16381092  1
  Pb  Pb42  1  0.49990727  0.50229789  0.50118114  1
  Pb  Pb43  1  0.49750408  0.16455379  0.16408696  1
  Pb  Pb44  1  0.83592112  0.16448449  0.16885000  1
  Pb  Pb45  1  0.83363702  0.83341178  0.83332152  1
  Pb  Pb46  1  0.49958639  0.16432860  0.50112168  1
  Pb  Pb47  1  0.83334214  0.50248418  0.16940618  1
  Pb  Pb48  1  0.16802717  0.16497637  0.83341897  1
  Pb  Pb49  1  0.16645337  0.83361597  0.50001753  1
  Pb  Pb50  1  0.83063054  0.49979763  0.83080066  1
  Pb  Pb51  1  0.16828543  0.50274799  0.83068445  1
  Pb  Pb52  1  0.83068358  0.16675651  0.83097093  1
  Pb  Pb53  1  0.16660801  0.49993807  0.16891674  1
  I  I54  1  0.16743909  -0.00169757  0.17013435  1
  I  I55  1  0.16439783  0.00200581  0.49952715  1
  I  I56  1  0.17341065  -0.00335427  0.83161964  1
  I  I57  1  0.16794026  0.33024357  0.16994963  1
  I  I58  1  0.15955118  0.33234512  0.49633555  1
  I  I59  1  0.17021668  0.33343433  0.83455166  1
  I  I60  1  0.16786676  0.67044217  0.16499772  1
  I  I61  1  0.16435207  0.66535377  0.50104077  1
  I  I62  1  0.17295600  0.67092257  0.83708084  1
  I  I63  1  0.50156610  -0.00427512  0.16529927  1
  I  I64  1  0.50275121  -0.00417274  0.50275195  1
  I  I65  1  0.49606521  -0.00199436  0.83227140  1
  I  I66  1  0.49844040  0.33300120  0.16573534  1
  I  I67  1  0.50209203  0.33323346  0.50382483  1
  I  I68  1  0.49926013  0.33323631  0.82808463  1
  I  I69  1  0.49686459  0.67163093  0.16607290  1
  I  I70  1  0.50249567  0.67084190  0.50253905  1
  I  I71  1  0.49631570  0.66870364  0.83242429  1
  I  I72  1  0.83083246  -0.00404837  0.17261466  1
  I  I73  1  0.83375148  -0.00079939  0.49688740  1
  I  I74  1  0.83056451  -0.00032725  0.82950576  1
  I  I75  1  0.83417231  0.33305310  0.16753886  1
  I  I76  1  0.83912254  0.33314492  0.50348381  1
  I  I77  1  0.83227890  0.33330775  0.83163530  1
  I  I78  1  0.83502140  0.67134630  0.17199173  1
  I  I79  1  0.83394705  0.66759130  0.49697126  1
  I  I80  1  0.83128497  0.66699659  0.83050992  1
  I  I81  1  0.17058609  0.16091158  0.00255195  1
  I  I82  1  0.16356837  0.16222574  0.33429631  1
  I  I83  1  0.16427270  0.16753595  0.66368987  1
  I  I84  1  0.16854001  0.49873223  -0.00026478  1
  I  I85  1  0.16356634  0.50310406  0.33722637  1
  I  I86  1  0.16318341  0.49669553  0.66266603  1
  I  I87  1  0.17109164  0.83873162  0.00092006  1
  I  I88  1  0.16946275  0.83391289  0.33108951  1
  I  I89  1  0.17146675  0.83316296  0.66842707  1
  I  I90  1  0.49754328  0.16265595  -0.00381837  1
  I  I91  1  0.50124371  0.16456782  0.33313256  1
  I  I92  1  0.49826564  0.16195358  0.66913116  1
  I  I93  1  0.49761594  0.50349613  -0.00428408  1
  I  I94  1  0.50006325  0.50243019  0.33340554  1
  I  I95  1  0.49994119  0.50482325  0.66916696  1
  I  I96  1  0.49876834  0.83315032  -0.00042243  1
  I  I97  1  0.49988221  0.83329693  0.33332391  1
  I  I98  1  0.49928399  0.83308098  0.66729853  1
  I  I99  1  0.83339905  0.16398681  0.00039643  1
  I  I100  1  0.83368722  0.16708078  0.33744229  1
  I  I101  1  0.83975631  0.16212892  0.66209437  1
  I  I102  1  0.83234036  0.50202772  0.00010739  1
  I  I103  1  0.83638352  0.49995013  0.33787138  1
  I  I104  1  0.83672390  0.50509196  0.66225775  1
  I  I105  1  0.83056296  0.83414197  0.00304198  1
  I  I106  1  0.83042002  0.83305451  0.33441952  1
  I  I107  1  0.83033422  0.83278252  0.66309379  1
  I  I108  1  0.00383638  0.15850460  0.16876479  1
  I  I109  1  0.00029565  0.16367851  0.49723316  1
  I  I110  1  0.00017683  0.16323802  0.83347302  1
  I  I111  1  0.00007073  0.50409800  0.16461810  1
  I  I112  1  -0.00034334  0.50380401  0.50006184  1
  I  I113  1  0.00006875  0.50239746  0.83363409  1
  I  I114  1  0.00052826  0.83715476  0.16901447  1
  I  I115  1  -0.00251859  0.83287450  0.49761458  1
  I  I116  1  0.00295514  0.83440702  0.83479942  1
  I  I117  1  0.32971840  0.15916584  0.17443294  1
  I  I118  1  0.33032673  0.16861518  0.49825546  1
  I  I119  1  0.33617343  0.16531686  0.82983978  1
  I  I120  1  0.33322914  0.50327967  0.17037248  1
  I  I121  1  0.33086116  0.49790907  0.50165106  1
  I  I122  1  0.33637014  0.50056995  0.82971094  1
  I  I123  1  0.33326833  0.83658151  0.16635701  1
  I  I124  1  0.33544336  0.83310061  0.49956052  1
  I  I125  1  0.33481456  0.83344216  0.83436984  1
  I  I126  1  0.66667770  0.16505070  0.16712228  1
  I  I127  1  0.66913411  0.16737298  0.50330765  1
  I  I128  1  0.66239376  0.16081995  0.83073888  1
  I  I129  1  0.66663936  0.50134145  0.16891584  1
  I  I130  1  0.66933116  0.49984235  0.50266693  1
  I  I131  1  0.66256614  0.50640087  0.82990495  1
  I  I132  1  0.66627467  0.83190723  0.16741830  1
  I  I133  1  0.66710047  0.83289894  0.49854575  1
  I  I134  1  0.66325888  0.83287603  0.83430178  1
