# generated using pymatgen
data_Cs27Sn13Pb14I81
_symmetry_space_group_name_H-M   'P 1'
_cell_length_a   18.98190104
_cell_length_b   18.97206168
_cell_length_c   18.98238397
_cell_angle_alpha   89.99866001
_cell_angle_beta   89.99938867
_cell_angle_gamma   90.00154641
_symmetry_Int_Tables_number   1
_chemical_formula_structural   Cs27Sn13Pb14I81
_chemical_formula_sum   'Cs27 Sn13 Pb14 I81'
_cell_volume   6836.04615470
_cell_formula_units_Z   1
loop_
 _symmetry_equiv_pos_site_id
 _symmetry_equiv_pos_as_xyz
  1  'x, y, z'
loop_
 _atom_site_type_symbol
 _atom_site_label
 _atom_site_symmetry_multiplicity
 _atom_site_fract_x
 _atom_site_fract_y
 _atom_site_fract_z
 _atom_site_occupancy
  Cs  Cs0  1  -0.00027462  0.00014136  -0.00394264  1
  Cs  Cs1  1  -0.00041616  -0.00163246  0.33417630  1
  Cs  Cs2  1  -0.00099594  -0.00101837  0.66806506  1
  Cs  Cs3  1  0.00039551  0.33935879  0.00104435  1
  Cs  Cs4  1  0.00631502  0.33362144  0.33141084  1
  Cs  Cs5  1  -0.00085848  0.33362403  0.66805945  1
  Cs  Cs6  1  -0.00069618  0.66029651  0.00345817  1
  Cs  Cs7  1  -0.00113128  0.66790571  0.33097248  1
  Cs  Cs8  1  0.00043299  0.67009856  0.66588879  1
  Cs  Cs9  1  0.33514871  -0.00010198  -0.00019221  1
  Cs  Cs10  1  0.33351625  0.00615670  0.33141625  1
  Cs  Cs11  1  0.33155170  -0.00096178  0.66832089  1
  Cs  Cs12  1  0.32968935  0.33433473  0.00392134  1
  Cs  Cs13  1  0.33096323  0.32989682  0.33599330  1
  Cs  Cs14  1  0.33498340  0.34056292  0.65924368  1
  Cs  Cs15  1  0.33706802  0.66582445  -0.00245962  1
  Cs  Cs16  1  0.33271405  0.66506226  0.33549100  1
  Cs  Cs17  1  0.33643377  0.66285183  0.66702162  1
  Cs  Cs18  1  0.66445931  -0.00024037  0.00061546  1
  Cs  Cs19  1  0.66636757  -0.00015281  0.33109306  1
  Cs  Cs20  1  0.66939144  0.00048689  0.66759169  1
  Cs  Cs21  1  0.66870017  0.33400792  -0.00095459  1
  Cs  Cs22  1  0.66322301  0.33219915  0.33487560  1
  Cs  Cs23  1  0.66662147  0.33408354  0.66634850  1
  Cs  Cs24  1  0.66246800  0.66310341  0.00486305  1
  Cs  Cs25  1  0.66786817  0.66753055  0.33071286  1
  Cs  Cs26  1  0.66427284  0.66563677  0.66675598  1
  Sn  Sn27  1  0.16669560  0.16629014  0.83284865  1
  Sn  Sn28  1  0.16695936  0.83380438  0.50006559  1
  Sn  Sn29  1  0.16574272  0.83376588  0.83370948  1
  Sn  Sn30  1  0.83365760  0.50015205  0.50011452  1
  Sn  Sn31  1  0.83357298  0.16578697  0.83359631  1
  Sn  Sn32  1  0.50018390  0.83407032  0.50004264  1
  Sn  Sn33  1  0.83358345  0.16628009  0.16646164  1
  Sn  Sn34  1  0.83356153  0.16669359  0.49978383  1
  Sn  Sn35  1  0.49964663  0.16683236  0.83292020  1
  Sn  Sn36  1  0.16661211  0.83371497  0.16611472  1
  Sn  Sn37  1  0.49993143  0.49968187  0.16701782  1
  Sn  Sn38  1  0.83359746  0.83344574  0.83331965  1
  Sn  Sn39  1  0.83307665  0.83337389  0.50069523  1
  Pb  Pb40  1  0.16410090  0.50255857  0.50008791  1
  Pb  Pb41  1  0.50220883  0.50213706  0.49827559  1
  Pb  Pb42  1  0.83324140  0.50059515  0.83142552  1
  Pb  Pb43  1  0.16442182  0.16453001  0.16425093  1
  Pb  Pb44  1  0.16653789  0.50046123  0.83313851  1
  Pb  Pb45  1  0.50196991  0.16458247  0.50205807  1
  Pb  Pb46  1  0.16898443  0.50243190  0.16683700  1
  Pb  Pb47  1  0.49735699  0.83230349  0.16910929  1
  Pb  Pb48  1  0.16445365  0.16457563  0.50238835  1
  Pb  Pb49  1  0.83474094  0.83484238  0.16605017  1
  Pb  Pb50  1  0.50183057  0.16829422  0.16456862  1
  Pb  Pb51  1  0.50013703  0.49689668  0.83509002  1
  Pb  Pb52  1  0.50025208  0.83476546  0.83169666  1
  Pb  Pb53  1  0.83204185  0.49719280  0.16942864  1
  I  I54  1  0.16691985  -0.00349406  0.16979766  1
  I  I55  1  0.16402198  -0.00410045  0.49841682  1
  I  I56  1  0.16463901  -0.00099734  0.83263789  1
  I  I57  1  0.16608211  0.33299088  0.16472179  1
  I  I58  1  0.16527865  0.33300939  0.50115465  1
  I  I59  1  0.16370665  0.32979505  0.83464216  1
  I  I60  1  0.16406681  0.67084704  0.16481275  1
  I  I61  1  0.16432676  0.67158533  0.50327287  1
  I  I62  1  0.16123907  0.67119351  0.83262387  1
  I  I63  1  0.50014064  0.00013589  0.16696701  1
  I  I64  1  0.50213210  -0.00358741  0.49956287  1
  I  I65  1  0.50182562  0.00279668  0.83345157  1
  I  I66  1  0.50213102  0.33593305  0.16645425  1
  I  I67  1  0.50257446  0.33315528  0.50054262  1
  I  I68  1  0.50312038  0.32860242  0.83270945  1
  I  I69  1  0.50168726  0.66451177  0.16662374  1
  I  I70  1  0.50168284  0.67037399  0.50120488  1
  I  I71  1  0.50016384  0.66681632  0.83302245  1
  I  I72  1  0.83301434  0.00285289  0.17025220  1
  I  I73  1  0.83373822  -0.00076137  0.50167794  1
  I  I74  1  0.83431721  0.00053814  0.82840186  1
  I  I75  1  0.83291963  0.32922009  0.16371849  1
  I  I76  1  0.83155828  0.33212234  0.50131737  1
  I  I77  1  0.83402079  0.32958871  0.83226977  1
  I  I78  1  0.83361886  0.66665896  0.16682794  1
  I  I79  1  0.83380822  0.66876792  0.50453580  1
  I  I80  1  0.83876039  0.67054402  0.82797936  1
  I  I81  1  0.16449797  0.16003250  -0.00386746  1
  I  I82  1  0.16461489  0.16455115  0.33347023  1
  I  I83  1  0.16373416  0.15996354  0.67049737  1
  I  I84  1  0.16606151  0.50229258  0.00004839  1
  I  I85  1  0.16572662  0.50225636  0.33349232  1
  I  I86  1  0.16768904  0.50146563  0.66651444  1
  I  I87  1  0.16173970  0.83781132  -0.00150491  1
  I  I88  1  0.16502914  0.83103482  0.33443017  1
  I  I89  1  0.16408843  0.83760438  0.66686831  1
  I  I90  1  0.50328973  0.16496646  -0.00351354  1
  I  I91  1  0.50265631  0.16645712  0.33350206  1
  I  I92  1  0.50294474  0.16518823  0.66999859  1
  I  I93  1  0.50164380  0.50239184  0.00274435  1
  I  I94  1  0.50220305  0.50091009  0.33084755  1
  I  I95  1  0.50043102  0.50009956  0.66634214  1
  I  I96  1  0.50027882  0.83271113  -0.00006021  1
  I  I97  1  0.50329895  0.83277673  0.33713452  1
  I  I98  1  0.49796778  0.83364778  0.66367515  1
  I  I99  1  0.83271443  0.16109668  -0.00178877  1
  I  I100  1  0.83217158  0.16517773  0.33446625  1
  I  I101  1  0.83324836  0.16512101  0.66712393  1
  I  I102  1  0.83224041  0.50004116  0.00026630  1
  I  I103  1  0.83223734  0.50357370  0.33715133  1
  I  I104  1  0.83218999  0.49707977  0.66343008  1
  I  I105  1  0.83797593  0.83942530  -0.00333189  1
  I  I106  1  0.83456703  0.83458030  0.33653796  1
  I  I107  1  0.83754440  0.83770358  0.66589303  1
  I  I108  1  -0.00363294  0.16629514  0.16629904  1
  I  I109  1  -0.00430093  0.16438256  0.50182640  1
  I  I110  1  -0.00121871  0.16108660  0.83232321  1
  I  I111  1  -0.00001155  0.49977118  0.16710452  1
  I  I112  1  -0.00407111  0.50093972  0.49987207  1
  I  I113  1  -0.00025651  0.49613265  0.83421677  1
  I  I114  1  0.00264445  0.83444876  0.17097349  1
  I  I115  1  -0.00087434  0.83350781  0.50114079  1
  I  I116  1  -0.00039382  0.84195519  0.82737901  1
  I  I117  1  0.33306654  0.16690427  0.16460988  1
  I  I118  1  0.33316180  0.16474648  0.50139920  1
  I  I119  1  0.33249605  0.15990122  0.83500352  1
  I  I120  1  0.33647487  0.50017602  0.16662923  1
  I  I121  1  0.33342593  0.50208588  0.49932755  1
  I  I122  1  0.33336391  0.50125980  0.83311876  1
  I  I123  1  0.32942323  0.83298983  0.16474008  1
  I  I124  1  0.33246791  0.83272181  0.50072887  1
  I  I125  1  0.33027147  0.83786689  0.83239428  1
  I  I126  1  0.67012532  0.16532328  0.16508641  1
  I  I127  1  0.67081160  0.16365738  0.50268135  1
  I  I128  1  0.66869537  0.16282769  0.83297122  1
  I  I129  1  0.66451189  0.50162735  0.16677841  1
  I  I130  1  0.67018206  0.50199260  0.50002199  1
  I  I131  1  0.66683940  0.50041016  0.83321576  1
  I  I132  1  0.66663111  0.83320222  0.16706271  1
  I  I133  1  0.66866214  0.83346135  0.50485731  1
  I  I134  1  0.66991362  0.83853080  0.82738422  1
