# generated using pymatgen
data_Cs27Sn14Pb13I81
_symmetry_space_group_name_H-M   'P 1'
_cell_length_a   18.98307185
_cell_length_b   18.97405727
_cell_length_c   18.96911354
_cell_angle_alpha   90.00167237
_cell_angle_beta   89.99804506
_cell_angle_gamma   90.00052218
_symmetry_Int_Tables_number   1
_chemical_formula_structural   Cs27Sn14Pb13I81
_chemical_formula_sum   'Cs27 Sn14 Pb13 I81'
_cell_volume   6832.40708138
_cell_formula_units_Z   1
loop_
 _symmetry_equiv_pos_site_id
 _symmetry_equiv_pos_as_xyz
  1  'x, y, z'
loop_
 _atom_site_type_symbol
 _atom_site_label
 _atom_site_symmetry_multiplicity
 _atom_site_fract_x
 _atom_site_fract_y
 _atom_site_fract_z
 _atom_site_occupancy
  Cs  Cs0  1  0.00046913  0.00183336  0.00105332  1
  Cs  Cs1  1  -0.00078426  -0.00264934  0.33885602  1
  Cs  Cs2  1  0.00350189  -0.00062971  0.65926760  1
  Cs  Cs3  1  0.00006891  0.33447574  0.00015898  1
  Cs  Cs4  1  -0.00251318  0.33490777  0.33151716  1
  Cs  Cs5  1  0.00290659  0.33561049  0.66788610  1
  Cs  Cs6  1  0.00083789  0.66316833  -0.00120106  1
  Cs  Cs7  1  -0.00058462  0.66724538  0.33685489  1
  Cs  Cs8  1  -0.00052427  0.66491353  0.66478269  1
  Cs  Cs9  1  0.33391240  0.00045738  -0.00116377  1
  Cs  Cs10  1  0.32979489  0.00084671  0.33391611  1
  Cs  Cs11  1  0.33144515  -0.00176932  0.66659865  1
  Cs  Cs12  1  0.32847164  0.33186435  0.00142297  1
  Cs  Cs13  1  0.33809646  0.33866018  0.33386864  1
  Cs  Cs14  1  0.33383802  0.32980945  0.66443135  1
  Cs  Cs15  1  0.33267610  0.66689337  0.00310751  1
  Cs  Cs16  1  0.33499401  0.66155144  0.33097334  1
  Cs  Cs17  1  0.33658719  0.67086075  0.66627266  1
  Cs  Cs18  1  0.66623765  0.00018447  0.00037835  1
  Cs  Cs19  1  0.67236911  -0.00006774  0.33150419  1
  Cs  Cs20  1  0.66584205  -0.00019433  0.66851047  1
  Cs  Cs21  1  0.67037007  0.32877443  -0.00121000  1
  Cs  Cs22  1  0.66669982  0.33348832  0.33693734  1
  Cs  Cs23  1  0.66542441  0.33389211  0.66475629  1
  Cs  Cs24  1  0.66597683  0.67017007  -0.00177427  1
  Cs  Cs25  1  0.66603582  0.66726249  0.32937919  1
  Cs  Cs26  1  0.66399378  0.66551768  0.67049656  1
  Sn  Sn27  1  0.49948734  0.49941992  0.83402338  1
  Sn  Sn28  1  0.50023606  0.16650008  0.16611475  1
  Sn  Sn29  1  0.83384852  0.83447655  0.83334691  1
  Sn  Sn30  1  0.83343143  0.16720316  0.16608913  1
  Sn  Sn31  1  0.16638327  0.49985789  0.50016374  1
  Sn  Sn32  1  0.50041032  0.83383047  0.49976705  1
  Sn  Sn33  1  0.16641646  0.83392907  0.16599739  1
  Sn  Sn34  1  0.83367307  0.49995833  0.49942011  1
  Sn  Sn35  1  0.83316302  0.16557970  0.83358146  1
  Sn  Sn36  1  0.50046822  0.16687326  0.83416201  1
  Sn  Sn37  1  0.16631409  0.83342562  0.83413946  1
  Sn  Sn38  1  0.83302424  0.49970193  0.16712539  1
  Sn  Sn39  1  0.49993765  0.83354928  0.83295996  1
  Sn  Sn40  1  0.16641222  0.16595541  0.16669252  1
  Pb  Pb41  1  0.49807083  0.83558244  0.16624373  1
  Pb  Pb42  1  0.50016827  0.16404636  0.50027019  1
  Pb  Pb43  1  0.83560206  0.83372153  0.16460471  1
  Pb  Pb44  1  0.16469348  0.49999877  0.16814870  1
  Pb  Pb45  1  0.16944708  0.50248594  0.83141056  1
  Pb  Pb46  1  0.50273192  0.49734376  0.16395668  1
  Pb  Pb47  1  0.83335960  0.16869875  0.50062890  1
  Pb  Pb48  1  0.50049773  0.50189303  0.50183738  1
  Pb  Pb49  1  0.16853205  0.83157841  0.49971907  1
  Pb  Pb50  1  0.16672500  0.16930193  0.49666133  1
  Pb  Pb51  1  0.83095230  0.83094052  0.50289295  1
  Pb  Pb52  1  0.16637637  0.16474419  0.83474929  1
  Pb  Pb53  1  0.83187539  0.49950985  0.83345617  1
  I  I54  1  0.16567208  0.00042169  0.16203925  1
  I  I55  1  0.16833407  -0.00024275  0.50106995  1
  I  I56  1  0.17153528  -0.00349382  0.83451868  1
  I  I57  1  0.16821697  0.33037191  0.16811039  1
  I  I58  1  0.16360727  0.33704482  0.50008457  1
  I  I59  1  0.16686870  0.33329998  0.83376488  1
  I  I60  1  0.16598122  0.66917650  0.16353013  1
  I  I61  1  0.16294241  0.66404395  0.49854898  1
  I  I62  1  0.16595008  0.67083309  0.83964910  1
  I  I63  1  0.50511249  0.00361288  0.16103527  1
  I  I64  1  0.49825884  -0.00353028  0.50745669  1
  I  I65  1  0.50102239  -0.00012304  0.83358135  1
  I  I66  1  0.49419021  0.32924005  0.16195896  1
  I  I67  1  0.49929460  0.33340004  0.50143289  1
  I  I68  1  0.50633663  0.33186452  0.83712937  1
  I  I69  1  0.49921010  0.66670452  0.16598622  1
  I  I70  1  0.49983159  0.66960562  0.50758390  1
  I  I71  1  0.50074455  0.66811748  0.82766415  1
  I  I72  1  0.83078852  0.00318619  0.16329902  1
  I  I73  1  0.83220422  -0.00027829  0.49732519  1
  I  I74  1  0.82735128  0.00048988  0.83984668  1
  I  I75  1  0.83550853  0.33189307  0.16395810  1
  I  I76  1  0.83571373  0.33670946  0.50070721  1
  I  I77  1  0.82763075  0.33042335  0.83470396  1
  I  I78  1  0.83573229  0.66451472  0.16869113  1
  I  I79  1  0.83695368  0.66320549  0.49499646  1
  I  I80  1  0.83139171  0.66902244  0.83319045  1
  I  I81  1  0.16686399  0.16611511  0.00310198  1
  I  I82  1  0.16594339  0.15853601  0.32819916  1
  I  I83  1  0.16709725  0.16596181  0.66671807  1
  I  I84  1  0.16595590  0.49949886  0.00002294  1
  I  I85  1  0.16606960  0.50211695  0.33595051  1
  I  I86  1  0.15885812  0.50184034  0.66378259  1
  I  I87  1  0.16966281  0.83616450  -0.00076951  1
  I  I88  1  0.16837396  0.83676604  0.33058366  1
  I  I89  1  0.16634641  0.83145919  0.66961017  1
  I  I90  1  0.50137206  0.16422058  -0.00106777  1
  I  I91  1  0.50040596  0.16524295  0.33007737  1
  I  I92  1  0.50539034  0.16852863  0.67052359  1
  I  I93  1  0.50124168  0.50746917  -0.00384164  1
  I  I94  1  0.49846292  0.50091972  0.33306982  1
  I  I95  1  0.50280056  0.49664355  0.66993237  1
  I  I96  1  0.50159820  0.83198427  -0.00351503  1
  I  I97  1  0.49696507  0.83336657  0.33516680  1
  I  I98  1  0.49787281  0.83430304  0.66948221  1
  I  I99  1  0.83209043  0.16899335  0.00029169  1
  I  I100  1  0.83223831  0.16922200  0.32994776  1
  I  I101  1  0.82673824  0.16417665  0.67038095  1
  I  I102  1  0.83193378  0.49801290  0.00217049  1
  I  I103  1  0.83644479  0.49436982  0.33271983  1
  I  I104  1  0.83539037  0.50129703  0.66475126  1
  I  I105  1  0.82706094  0.83195718  -0.00357791  1
  I  I106  1  0.83308933  0.83516858  0.33330722  1
  I  I107  1  0.83742134  0.83780967  0.67120432  1
  I  I108  1  -0.00086784  0.16785036  0.16177848  1
  I  I109  1  0.00000591  0.16380009  0.50121556  1
  I  I110  1  -0.00298345  0.16339519  0.83805590  1
  I  I111  1  -0.00313056  0.49440291  0.16630878  1
  I  I112  1  -0.00081323  0.50132865  0.49662865  1
  I  I113  1  0.00000814  0.50065099  0.83402267  1
  I  I114  1  0.00333446  0.83802761  0.16141610  1
  I  I115  1  -0.00013353  0.83321371  0.50140568  1
  I  I116  1  -0.00016549  0.83710633  0.83900820  1
  I  I117  1  0.33350161  0.16128359  0.16208810  1
  I  I118  1  0.33346985  0.16976482  0.50028243  1
  I  I119  1  0.33632311  0.16614872  0.83729218  1
  I  I120  1  0.33347368  0.49912350  0.16857953  1
  I  I121  1  0.33165303  0.50214105  0.50108987  1
  I  I122  1  0.33735659  0.49900196  0.83128329  1
  I  I123  1  0.33023548  0.83792604  0.16147562  1
  I  I124  1  0.33605947  0.83079639  0.50734037  1
  I  I125  1  0.33421770  0.83301609  0.83252539  1
  I  I126  1  0.66714935  0.17121348  0.16181774  1
  I  I127  1  0.66668764  0.16944607  0.49560285  1
  I  I128  1  0.66625938  0.16222407  0.84118947  1
  I  I129  1  0.67050393  0.49606700  0.17321799  1
  I  I130  1  0.66921428  0.50058369  0.49755265  1
  I  I131  1  0.66404758  0.50482814  0.83157803  1
  I  I132  1  0.66677823  0.83306032  0.16671580  1
  I  I133  1  0.66336326  0.83152187  0.50598236  1
  I  I134  1  0.66599717  0.83323591  0.82871626  1
