# generated using pymatgen
data_Cs27Sn13Pb14I81
_symmetry_space_group_name_H-M   'P 1'
_cell_length_a   19.04518957
_cell_length_b   19.05207357
_cell_length_c   19.05269275
_cell_angle_alpha   90.00038395
_cell_angle_beta   90.00056958
_cell_angle_gamma   90.00032828
_symmetry_Int_Tables_number   1
_chemical_formula_structural   Cs27Sn13Pb14I81
_chemical_formula_sum   'Cs27 Sn13 Pb14 I81'
_cell_volume   6913.27628710
_cell_formula_units_Z   1
loop_
 _symmetry_equiv_pos_site_id
 _symmetry_equiv_pos_as_xyz
  1  'x, y, z'
loop_
 _atom_site_type_symbol
 _atom_site_label
 _atom_site_symmetry_multiplicity
 _atom_site_fract_x
 _atom_site_fract_y
 _atom_site_fract_z
 _atom_site_occupancy
  Cs  Cs0  1  -0.00080217  -0.00320921  -0.00375770  1
  Cs  Cs1  1  -0.00351264  -0.00035868  0.33303232  1
  Cs  Cs2  1  -0.00164759  0.00172861  0.67101926  1
  Cs  Cs3  1  0.00035325  0.33667473  -0.00482807  1
  Cs  Cs4  1  0.00048030  0.32945532  0.33780328  1
  Cs  Cs5  1  -0.00122559  0.32937086  0.66585646  1
  Cs  Cs6  1  -0.00001217  0.66900967  -0.00116076  1
  Cs  Cs7  1  0.00337239  0.66746365  0.33576307  1
  Cs  Cs8  1  0.00000808  0.66702892  0.66540481  1
  Cs  Cs9  1  0.33415664  0.00002940  -0.00183250  1
  Cs  Cs10  1  0.33621252  -0.00294027  0.33353067  1
  Cs  Cs11  1  0.34566199  0.00735285  0.66872545  1
  Cs  Cs12  1  0.34078431  0.32784750  0.00099358  1
  Cs  Cs13  1  0.33365127  0.33474649  0.33149060  1
  Cs  Cs14  1  0.33163141  0.32157344  0.66840764  1
  Cs  Cs15  1  0.33031127  0.66943229  0.00145783  1
  Cs  Cs16  1  0.33082777  0.66727238  0.33517392  1
  Cs  Cs17  1  0.33406461  0.66833863  0.66264942  1
  Cs  Cs18  1  0.66934453  0.00325974  0.00220315  1
  Cs  Cs19  1  0.66775913  0.01358462  0.33025183  1
  Cs  Cs20  1  0.65852441  -0.00096723  0.66612857  1
  Cs  Cs21  1  0.65620242  0.34747220  0.00868420  1
  Cs  Cs22  1  0.66473922  0.32078223  0.32331923  1
  Cs  Cs23  1  0.66935432  0.33687679  0.66966574  1
  Cs  Cs24  1  0.66827515  0.65232260  -0.00009270  1
  Cs  Cs25  1  0.66914062  0.66610320  0.33564312  1
  Cs  Cs26  1  0.66433872  0.66625360  0.66669790  1
  Sn  Sn27  1  0.83359719  0.50085019  0.49949347  1
  Sn  Sn28  1  0.16671569  0.50068252  0.50064303  1
  Sn  Sn29  1  0.16559338  0.16624306  0.16659927  1
  Sn  Sn30  1  0.16612694  0.50001706  0.16661795  1
  Sn  Sn31  1  0.16704398  0.50118636  0.83262653  1
  Sn  Sn32  1  0.50005333  0.50006427  0.49983119  1
  Sn  Sn33  1  0.16726621  0.83357009  0.16694139  1
  Sn  Sn34  1  0.83355378  0.83375054  0.83220757  1
  Sn  Sn35  1  0.83322734  0.16586892  0.83381166  1
  Sn  Sn36  1  0.16606904  0.83339711  0.50096592  1
  Sn  Sn37  1  0.16648211  0.83261637  0.83202835  1
  Sn  Sn38  1  0.50018197  0.83235494  0.16674925  1
  Sn  Sn39  1  0.83407002  0.83281646  0.50104901  1
  Pb  Pb40  1  0.49685431  0.50287914  0.16937301  1
  Pb  Pb41  1  0.83637537  0.16686946  0.16316289  1
  Pb  Pb42  1  0.16540757  0.16612394  0.83549285  1
  Pb  Pb43  1  0.50056577  0.83280854  0.83581091  1
  Pb  Pb44  1  0.16651711  0.16549347  0.49811828  1
  Pb  Pb45  1  0.49680388  0.16373669  0.16650985  1
  Pb  Pb46  1  0.50007028  0.17009510  0.49991484  1
  Pb  Pb47  1  0.83351114  0.83306999  0.16678385  1
  Pb  Pb48  1  0.83645425  0.50029420  0.17005390  1
  Pb  Pb49  1  0.50055733  0.83189425  0.49784866  1
  Pb  Pb50  1  0.83365787  0.16585428  0.50226644  1
  Pb  Pb51  1  0.50418609  0.16681098  0.83378123  1
  Pb  Pb52  1  0.83564373  0.50097437  0.83121618  1
  Pb  Pb53  1  0.49603137  0.50055089  0.83048250  1
  I  I54  1  0.17164407  -0.00163321  0.16622102  1
  I  I55  1  0.15893196  -0.00396352  0.49876285  1
  I  I56  1  0.16390076  -0.00355714  0.83470876  1
  I  I57  1  0.16308133  0.33436826  0.16802566  1
  I  I58  1  0.16612197  0.33684858  0.49986663  1
  I  I59  1  0.16446690  0.33608807  0.83196669  1
  I  I60  1  0.17166751  0.66713081  0.16745214  1
  I  I61  1  0.16606760  0.66651670  0.49472377  1
  I  I62  1  0.15952130  0.66764236  0.83891724  1
  I  I63  1  0.49179090  -0.00358233  0.16921690  1
  I  I64  1  0.49978515  -0.00008328  0.49881682  1
  I  I65  1  0.49111359  -0.00034297  0.83198847  1
  I  I66  1  0.50050782  0.33348297  0.16775021  1
  I  I67  1  0.49676449  0.33833670  0.49913068  1
  I  I68  1  0.49959812  0.33366587  0.83328477  1
  I  I69  1  0.49089884  0.66959445  0.16580863  1
  I  I70  1  0.49764983  0.66432381  0.49865126  1
  I  I71  1  0.50841445  0.66671838  0.83544746  1
  I  I72  1  0.83501344  -0.00029870  0.17459645  1
  I  I73  1  0.84194670  -0.00368499  0.49982154  1
  I  I74  1  0.84382881  -0.00218274  0.82702483  1
  I  I75  1  0.83507503  0.33346881  0.16681429  1
  I  I76  1  0.83643694  0.33642486  0.50165233  1
  I  I77  1  0.83810759  0.33193176  0.83015225  1
  I  I78  1  0.83357955  0.66687048  0.15823951  1
  I  I79  1  0.83559567  0.66712072  0.50699193  1
  I  I80  1  0.83616468  0.67001216  0.83211983  1
  I  I81  1  0.16473227  0.16668372  0.00301704  1
  I  I82  1  0.16696659  0.16741853  0.33026212  1
  I  I83  1  0.16587797  0.16930773  0.66686527  1
  I  I84  1  0.16463434  0.50454107  0.00008046  1
  I  I85  1  0.16680167  0.50352191  0.33402351  1
  I  I86  1  0.16620755  0.50957634  0.66573185  1
  I  I87  1  0.16650532  0.82967523  -0.00007469  1
  I  I88  1  0.16678651  0.82957025  0.33360776  1
  I  I89  1  0.15938068  0.82184438  0.66645016  1
  I  I90  1  0.49931917  0.16815950  0.00030126  1
  I  I91  1  0.50296671  0.16616605  0.33293440  1
  I  I92  1  0.49564885  0.16431265  0.66688294  1
  I  I93  1  0.50185948  0.49827482  0.00021916  1
  I  I94  1  0.49654811  0.50241888  0.33645583  1
  I  I95  1  0.49865187  0.50358826  0.66299738  1
  I  I96  1  0.49020323  0.83450824  0.00310560  1
  I  I97  1  0.49031487  0.83079569  0.33074117  1
  I  I98  1  0.49648427  0.83346368  0.66663750  1
  I  I99  1  0.83635670  0.15357484  -0.00393291  1
  I  I100  1  0.83103281  0.16722728  0.33311644  1
  I  I101  1  0.83876881  0.16594162  0.66942746  1
  I  I102  1  0.83380987  0.49971973  0.00004571  1
  I  I103  1  0.83689421  0.51030599  0.33804491  1
  I  I104  1  0.83701870  0.50022368  0.66342544  1
  I  I105  1  0.83910682  0.84045147  -0.00271221  1
  I  I106  1  0.83850926  0.82579090  0.33628250  1
  I  I107  1  0.84486285  0.83313147  0.66638693  1
  I  I108  1  0.00379157  0.16214502  0.16948345  1
  I  I109  1  0.00018841  0.17473449  0.49751184  1
  I  I110  1  -0.00186755  0.16447689  0.83387322  1
  I  I111  1  0.00485862  0.50616994  0.16839743  1
  I  I112  1  0.00144135  0.50479274  0.49890283  1
  I  I113  1  0.00356184  0.50077658  0.83278787  1
  I  I114  1  0.00373087  0.83242533  0.16680758  1
  I  I115  1  0.00140313  0.82355219  0.49697556  1
  I  I116  1  0.00158140  0.83323753  0.83611295  1
  I  I117  1  0.32936211  0.17235626  0.16449225  1
  I  I118  1  0.33305668  0.16546843  0.50202727  1
  I  I119  1  0.33355239  0.16800912  0.83391904  1
  I  I120  1  0.32880654  0.49700851  0.16959769  1
  I  I121  1  0.33083798  0.50634545  0.49795557  1
  I  I122  1  0.32796808  0.50860438  0.83282944  1
  I  I123  1  0.32966087  0.83283938  0.16739368  1
  I  I124  1  0.32986478  0.82805862  0.50121321  1
  I  I125  1  0.32980937  0.82715757  0.83060767  1
  I  I126  1  0.66646275  0.16414141  0.16746133  1
  I  I127  1  0.66702841  0.16488571  0.49916200  1
  I  I128  1  0.67172915  0.15425921  0.82967927  1
  I  I129  1  0.66637161  0.50099756  0.16608970  1
  I  I130  1  0.66747933  0.50825799  0.50321261  1
  I  I131  1  0.66653820  0.49866202  0.83216945  1
  I  I132  1  0.66417699  0.83417543  0.16802479  1
  I  I133  1  0.66993148  0.82676748  0.50502215  1
  I  I134  1  0.67013793  0.84090648  0.82720393  1
