# generated using pymatgen
data_Cs27Sn14Pb13I81
_symmetry_space_group_name_H-M   'P 1'
_cell_length_a   18.98872202
_cell_length_b   18.96806712
_cell_length_c   18.97539911
_cell_angle_alpha   90.00096375
_cell_angle_beta   89.99989616
_cell_angle_gamma   90.00042495
_symmetry_Int_Tables_number   1
_chemical_formula_structural   Cs27Sn14Pb13I81
_chemical_formula_sum   'Cs27 Sn14 Pb13 I81'
_cell_volume   6834.54699148
_cell_formula_units_Z   1
loop_
 _symmetry_equiv_pos_site_id
 _symmetry_equiv_pos_as_xyz
  1  'x, y, z'
loop_
 _atom_site_type_symbol
 _atom_site_label
 _atom_site_symmetry_multiplicity
 _atom_site_fract_x
 _atom_site_fract_y
 _atom_site_fract_z
 _atom_site_occupancy
  Cs  Cs0  1  0.00265977  -0.00261824  0.00129628  1
  Cs  Cs1  1  -0.00211254  0.00047226  0.33073050  1
  Cs  Cs2  1  0.00237360  -0.00412337  0.66936480  1
  Cs  Cs3  1  -0.00328075  0.33403157  -0.00365213  1
  Cs  Cs4  1  -0.00012182  0.33349782  0.33462502  1
  Cs  Cs5  1  -0.00295895  0.33340092  0.66771266  1
  Cs  Cs6  1  -0.00515724  0.66578085  0.00116471  1
  Cs  Cs7  1  0.00458686  0.66760631  0.33395707  1
  Cs  Cs8  1  0.00092630  0.66971132  0.66390853  1
  Cs  Cs9  1  0.33167105  0.00024519  0.00232563  1
  Cs  Cs10  1  0.33420392  0.00153405  0.33034965  1
  Cs  Cs11  1  0.33278692  -0.00380673  0.66886504  1
  Cs  Cs12  1  0.33479369  0.33307666  -0.00166262  1
  Cs  Cs13  1  0.33374290  0.33308978  0.33412520  1
  Cs  Cs14  1  0.33493258  0.33226929  0.66750666  1
  Cs  Cs15  1  0.33523490  0.66638702  0.00305252  1
  Cs  Cs16  1  0.32783799  0.66635478  0.33142428  1
  Cs  Cs17  1  0.33279117  0.67210840  0.66452077  1
  Cs  Cs18  1  0.66743052  -0.00100631  0.00151645  1
  Cs  Cs19  1  0.66729152  0.00118992  0.33346271  1
  Cs  Cs20  1  0.66521531  -0.00248309  0.66463143  1
  Cs  Cs21  1  0.66628684  0.33449961  -0.00252492  1
  Cs  Cs22  1  0.66586186  0.33122162  0.33664437  1
  Cs  Cs23  1  0.66724242  0.33346566  0.66616792  1
  Cs  Cs24  1  0.66892932  0.66539320  -0.00049264  1
  Cs  Cs25  1  0.66918590  0.66758320  0.33267822  1
  Cs  Cs26  1  0.66619575  0.66777271  0.66838234  1
  Sn  Sn27  1  0.16729050  0.16667698  0.16715060  1
  Sn  Sn28  1  0.83251183  0.49912741  0.50085894  1
  Sn  Sn29  1  0.83234465  0.16676109  0.83232520  1
  Sn  Sn30  1  0.83342593  0.16715621  0.50135156  1
  Sn  Sn31  1  0.49935693  0.16624204  0.16652273  1
  Sn  Sn32  1  0.49968760  0.49925903  0.83210952  1
  Sn  Sn33  1  0.50044077  0.49944515  0.50087545  1
  Sn  Sn34  1  0.83314491  0.49896099  0.83181622  1
  Sn  Sn35  1  0.16699577  0.50005198  0.83316900  1
  Sn  Sn36  1  0.50080822  0.16701238  0.83303618  1
  Sn  Sn37  1  0.16674197  0.16683586  0.49969320  1
  Sn  Sn38  1  0.16757543  0.83411360  0.16644212  1
  Sn  Sn39  1  0.49955237  0.83406555  0.16677876  1
  Sn  Sn40  1  0.49973994  0.16713304  0.50046387  1
  Pb  Pb41  1  0.50018061  0.49934410  0.16726941  1
  Pb  Pb42  1  0.50004157  0.83301100  0.49750314  1
  Pb  Pb43  1  0.83317210  0.16689176  0.16645177  1
  Pb  Pb44  1  0.16665726  0.16780700  0.83342687  1
  Pb  Pb45  1  0.16684482  0.83670493  0.49763471  1
  Pb  Pb46  1  0.50005483  0.83345935  0.83561495  1
  Pb  Pb47  1  0.16665464  0.49895455  0.16446303  1
  Pb  Pb48  1  0.83308657  0.83371961  0.83306995  1
  Pb  Pb49  1  0.83318235  0.49961812  0.16750698  1
  Pb  Pb50  1  0.16695724  0.49778537  0.50209090  1
  Pb  Pb51  1  0.83326492  0.83351704  0.16678006  1
  Pb  Pb52  1  0.83316760  0.83328706  0.50015786  1
  Pb  Pb53  1  0.16683127  0.83000748  0.83605070  1
  I  I54  1  0.17127654  0.00151940  0.17001607  1
  I  I55  1  0.16724183  0.00522040  0.50056209  1
  I  I56  1  0.16617983  0.00018007  0.83154401  1
  I  I57  1  0.17209563  0.32964356  0.17025241  1
  I  I58  1  0.16722413  0.32964230  0.49220809  1
  I  I59  1  0.16682491  0.33568366  0.83632219  1
  I  I60  1  0.17168138  0.66926620  0.16385543  1
  I  I61  1  0.16566379  0.66643194  0.49897051  1
  I  I62  1  0.16649301  0.66182203  0.83394459  1
  I  I63  1  0.49588664  0.00226348  0.16647378  1
  I  I64  1  0.50080151  0.00388762  0.50254674  1
  I  I65  1  0.50424961  0.00390484  0.83038490  1
  I  I66  1  0.49516186  0.32968931  0.16642284  1
  I  I67  1  0.50080509  0.33194222  0.49794249  1
  I  I68  1  0.50068987  0.33276634  0.83588190  1
  I  I69  1  0.49517597  0.66908438  0.16618747  1
  I  I70  1  0.50568158  0.66300128  0.50417990  1
  I  I71  1  0.50123726  0.66294848  0.83055074  1
  I  I72  1  0.83320447  0.00055085  0.16640434  1
  I  I73  1  0.83201767  0.00425342  0.50308010  1
  I  I74  1  0.82841762  0.00404833  0.82953196  1
  I  I75  1  0.83461737  0.33289581  0.16555810  1
  I  I76  1  0.83216965  0.33229463  0.50383288  1
  I  I77  1  0.83263820  0.33340332  0.83031696  1
  I  I78  1  0.83327262  0.66664820  0.16561816  1
  I  I79  1  0.82783242  0.66270499  0.50447750  1
  I  I80  1  0.83242308  0.66266859  0.83038311  1
  I  I81  1  0.17015375  0.16417178  0.00256103  1
  I  I82  1  0.16962009  0.16381246  0.33330471  1
  I  I83  1  0.16880553  0.17082857  0.66415761  1
  I  I84  1  0.16701415  0.49765051  -0.00365199  1
  I  I85  1  0.16628582  0.50251048  0.33357960  1
  I  I86  1  0.16663766  0.49584462  0.66995280  1
  I  I87  1  0.17120926  0.84254533  0.00382563  1
  I  I88  1  0.17161471  0.83238393  0.32958321  1
  I  I89  1  0.16512500  0.83413653  0.66668408  1
  I  I90  1  0.49959016  0.16737416  -0.00041268  1
  I  I91  1  0.49989371  0.16690839  0.33396726  1
  I  I92  1  0.50019208  0.17223694  0.66646165  1
  I  I93  1  0.50091491  0.49698752  -0.00314218  1
  I  I94  1  0.50505917  0.49619122  0.33681206  1
  I  I95  1  0.50074977  0.49144490  0.66714603  1
  I  I96  1  0.49533296  0.83772252  0.00353435  1
  I  I97  1  0.49578206  0.83800437  0.32960565  1
  I  I98  1  0.50081784  0.83569669  0.66659477  1
  I  I99  1  0.83035272  0.17178130  -0.00333553  1
  I  I100  1  0.83122699  0.17075337  0.33663251  1
  I  I101  1  0.83073758  0.17160158  0.66636500  1
  I  I102  1  0.83258318  0.49612942  -0.00385687  1
  I  I103  1  0.82774056  0.49499676  0.33766886  1
  I  I104  1  0.83245733  0.49435364  0.66722026  1
  I  I105  1  0.83359561  0.83234509  -0.00004609  1
  I  I106  1  0.83310351  0.83272076  0.33340285  1
  I  I107  1  0.83400683  0.83427258  0.66663322  1
  I  I108  1  0.00297296  0.16220049  0.16945928  1
  I  I109  1  -0.00062658  0.17094582  0.49883091  1
  I  I110  1  -0.00255806  0.17184826  0.83104991  1
  I  I111  1  0.00012667  0.50116354  0.16558260  1
  I  I112  1  -0.00277205  0.49533243  0.50382027  1
  I  I113  1  -0.00144282  0.49494203  0.83185447  1
  I  I114  1  0.00344264  0.83869916  0.16631045  1
  I  I115  1  0.00010511  0.83224075  0.49612712  1
  I  I116  1  0.00003965  0.83458661  0.83751138  1
  I  I117  1  0.33424235  0.16292557  0.16909271  1
  I  I118  1  0.33458072  0.17096169  0.49852750  1
  I  I119  1  0.33632795  0.17149912  0.83206361  1
  I  I120  1  0.33353378  0.50057079  0.16566302  1
  I  I121  1  0.33633614  0.49528479  0.50358617  1
  I  I122  1  0.33504259  0.49464356  0.83136984  1
  I  I123  1  0.33360986  0.83881750  0.16615523  1
  I  I124  1  0.33345288  0.83112396  0.50202734  1
  I  I125  1  0.33347374  0.83333228  0.83189503  1
  I  I126  1  0.66327843  0.16278093  0.16867990  1
  I  I127  1  0.66603578  0.17025035  0.49918265  1
  I  I128  1  0.66580185  0.17400489  0.83246406  1
  I  I129  1  0.66636708  0.50152413  0.16170155  1
  I  I130  1  0.66626365  0.49149714  0.50688865  1
  I  I131  1  0.66640519  0.49569675  0.83058835  1
  I  I132  1  0.66325007  0.83829304  0.16654323  1
  I  I133  1  0.66644571  0.83793710  0.49541019  1
  I  I134  1  0.66643585  0.82952316  0.83822339  1
