# generated using pymatgen
data_Cs27Sn13Pb14I81
_symmetry_space_group_name_H-M   'P 1'
_cell_length_a   18.97621434
_cell_length_b   18.97253164
_cell_length_c   18.98046425
_cell_angle_alpha   90.00105353
_cell_angle_beta   90.00134624
_cell_angle_gamma   90.00086445
_symmetry_Int_Tables_number   1
_chemical_formula_structural   Cs27Sn13Pb14I81
_chemical_formula_sum   'Cs27 Sn13 Pb14 I81'
_cell_volume   6833.47631357
_cell_formula_units_Z   1
loop_
 _symmetry_equiv_pos_site_id
 _symmetry_equiv_pos_as_xyz
  1  'x, y, z'
loop_
 _atom_site_type_symbol
 _atom_site_label
 _atom_site_symmetry_multiplicity
 _atom_site_fract_x
 _atom_site_fract_y
 _atom_site_fract_z
 _atom_site_occupancy
  Cs  Cs0  1  -0.00096901  0.00199310  0.00097606  1
  Cs  Cs1  1  -0.00117572  0.00109544  0.33207683  1
  Cs  Cs2  1  -0.00290606  0.00035127  0.66811940  1
  Cs  Cs3  1  -0.00046972  0.33195761  0.00193112  1
  Cs  Cs4  1  0.00167571  0.33103831  0.33153930  1
  Cs  Cs5  1  0.00143116  0.33409532  0.66753044  1
  Cs  Cs6  1  -0.00204197  0.66448746  -0.00469725  1
  Cs  Cs7  1  0.00056614  0.66792465  0.33601908  1
  Cs  Cs8  1  0.00519463  0.66418609  0.66635119  1
  Cs  Cs9  1  0.33531837  -0.00453026  -0.00012275  1
  Cs  Cs10  1  0.33090150  -0.00081455  0.33051223  1
  Cs  Cs11  1  0.33662757  0.00006678  0.67081868  1
  Cs  Cs12  1  0.33420552  0.33251029  0.00113175  1
  Cs  Cs13  1  0.33028715  0.33189495  0.33268146  1
  Cs  Cs14  1  0.33449467  0.33361893  0.66896978  1
  Cs  Cs15  1  0.34112623  0.67481269  -0.00516840  1
  Cs  Cs16  1  0.33387628  0.66957069  0.33436419  1
  Cs  Cs17  1  0.32495946  0.66604637  0.66918893  1
  Cs  Cs18  1  0.66888134  -0.00070326  -0.00079857  1
  Cs  Cs19  1  0.66903971  0.00012540  0.33600941  1
  Cs  Cs20  1  0.66676179  0.00075753  0.66507131  1
  Cs  Cs21  1  0.66548100  0.34094715  0.00042690  1
  Cs  Cs22  1  0.66596061  0.33474518  0.33538633  1
  Cs  Cs23  1  0.66211618  0.33237190  0.66396254  1
  Cs  Cs24  1  0.66252342  0.65836094  0.00083918  1
  Cs  Cs25  1  0.66592991  0.66530439  0.33463617  1
  Cs  Cs26  1  0.66790246  0.66706772  0.66261057  1
  Sn  Sn27  1  0.83267673  0.16630710  0.16583560  1
  Sn  Sn28  1  0.83344137  0.83338398  0.16632071  1
  Sn  Sn29  1  0.83370572  0.16637036  0.83423606  1
  Sn  Sn30  1  0.16667113  0.16624456  0.50028667  1
  Sn  Sn31  1  0.83320629  0.50042952  0.49979226  1
  Sn  Sn32  1  0.50003117  0.50086972  0.49978090  1
  Sn  Sn33  1  0.16686774  0.16729594  0.16630653  1
  Sn  Sn34  1  0.83293498  0.83243301  0.50006613  1
  Sn  Sn35  1  0.16593700  0.16659322  0.83379455  1
  Sn  Sn36  1  0.50033546  0.83269101  0.49993406  1
  Sn  Sn37  1  0.50056787  0.16659393  0.16675001  1
  Sn  Sn38  1  0.83309814  0.83362368  0.83349286  1
  Sn  Sn39  1  0.16687677  0.50043450  0.16624138  1
  Pb  Pb40  1  0.16415685  0.83580132  0.83352104  1
  Pb  Pb41  1  0.49741829  0.16631127  0.49813530  1
  Pb  Pb42  1  0.83471662  0.16662767  0.50014251  1
  Pb  Pb43  1  0.83489996  0.49992088  0.16876088  1
  Pb  Pb44  1  0.49723904  0.49827475  0.16881404  1
  Pb  Pb45  1  0.50075360  0.16667003  0.83621585  1
  Pb  Pb46  1  0.16443916  0.83324013  0.16645264  1
  Pb  Pb47  1  0.49988639  0.50012090  0.83030265  1
  Pb  Pb48  1  0.83326619  0.49945389  0.83050437  1
  Pb  Pb49  1  0.50319486  0.83335722  0.83057063  1
  Pb  Pb50  1  0.16680844  0.49798151  0.49840669  1
  Pb  Pb51  1  0.16643242  0.83591590  0.50002629  1
  Pb  Pb52  1  0.50288966  0.83533515  0.16871264  1
  Pb  Pb53  1  0.16664948  0.49763446  0.83678474  1
  I  I54  1  0.16746930  0.00392533  0.16727029  1
  I  I55  1  0.16527971  0.00409372  0.49562916  1
  I  I56  1  0.16474494  0.00444029  0.83611460  1
  I  I57  1  0.16381584  0.33041384  0.16795906  1
  I  I58  1  0.16545000  0.32986898  0.50011010  1
  I  I59  1  0.15908517  0.32887358  0.83079945  1
  I  I60  1  0.16319603  0.66404187  0.17138408  1
  I  I61  1  0.16615297  0.66665428  0.49721548  1
  I  I62  1  0.16514388  0.66670076  0.83328309  1
  I  I63  1  0.49438662  0.00347652  0.16958894  1
  I  I64  1  0.50537167  -0.00254395  0.49872720  1
  I  I65  1  0.49771369  0.00018164  0.82972423  1
  I  I66  1  0.50449740  0.32993605  0.16956659  1
  I  I67  1  0.50434485  0.33555038  0.49805392  1
  I  I68  1  0.50251394  0.33291864  0.83007440  1
  I  I69  1  0.49922552  0.66678455  0.16643937  1
  I  I70  1  0.50617729  0.66687924  0.49819632  1
  I  I71  1  0.50192453  0.66695476  0.83786297  1
  I  I72  1  0.83550702  0.00123333  0.16921253  1
  I  I73  1  0.83059462  -0.00263348  0.49966371  1
  I  I74  1  0.83748089  0.00059745  0.83183556  1
  I  I75  1  0.83333009  0.32985661  0.16417215  1
  I  I76  1  0.83073678  0.33536020  0.49908873  1
  I  I77  1  0.83811944  0.32969514  0.83747086  1
  I  I78  1  0.83620815  0.66946405  0.16573095  1
  I  I79  1  0.82988049  0.66780010  0.49893460  1
  I  I80  1  0.83214102  0.66983643  0.83584843  1
  I  I81  1  0.16418746  0.17102504  0.00086934  1
  I  I82  1  0.16578043  0.17012385  0.33191638  1
  I  I83  1  0.16069755  0.16549846  0.66715668  1
  I  I84  1  0.16333805  0.49211658  0.00441075  1
  I  I85  1  0.16532436  0.49071062  0.33087306  1
  I  I86  1  0.16678929  0.49741898  0.66664490  1
  I  I87  1  0.16561026  0.83478003  0.00009039  1
  I  I88  1  0.16297103  0.83782469  0.33331643  1
  I  I89  1  0.16441538  0.83552458  0.66658686  1
  I  I90  1  0.49563063  0.16636141  0.00415026  1
  I  I91  1  0.50086287  0.16658000  0.33031995  1
  I  I92  1  0.49920696  0.16717548  0.66645999  1
  I  I93  1  0.49941446  0.49806728  0.00049689  1
  I  I94  1  0.50448863  0.50272871  0.33668370  1
  I  I95  1  0.50455618  0.50070564  0.66176531  1
  I  I96  1  0.49975444  0.83529746  0.00011683  1
  I  I97  1  0.50637783  0.83091148  0.33668327  1
  I  I98  1  0.50595059  0.83240239  0.66237549  1
  I  I99  1  0.83888035  0.15841789  0.00089748  1
  I  I100  1  0.83541690  0.16395868  0.33059356  1
  I  I101  1  0.83905907  0.16379526  0.66903118  1
  I  I102  1  0.83528485  0.50221672  0.00017102  1
  I  I103  1  0.83094580  0.50277590  0.33663664  1
  I  I104  1  0.83070348  0.50263783  0.66243489  1
  I  I105  1  0.83662223  0.84122834  0.00026169  1
  I  I106  1  0.83048921  0.83513914  0.33360880  1
  I  I107  1  0.82937238  0.83561034  0.66621868  1
  I  I108  1  -0.00013351  0.16650398  0.16671735  1
  I  I109  1  0.00250918  0.16701530  0.49512954  1
  I  I110  1  -0.00051366  0.16285470  0.83732697  1
  I  I111  1  0.00242286  0.49187608  0.17042535  1
  I  I112  1  -0.00245900  0.50356739  0.49890018  1
  I  I113  1  -0.00014439  0.50196602  0.82950571  1
  I  I114  1  -0.00418223  0.84026039  0.17065415  1
  I  I115  1  -0.00375606  0.83050733  0.49967610  1
  I  I116  1  -0.00437924  0.83563039  0.83017167  1
  I  I117  1  0.33208842  0.17204024  0.16866154  1
  I  I118  1  0.32965732  0.16744778  0.49901615  1
  I  I119  1  0.33033091  0.16863396  0.83295945  1
  I  I120  1  0.32970315  0.49054411  0.17059121  1
  I  I121  1  0.33589759  0.50266101  0.49757052  1
  I  I122  1  0.33303377  0.49678405  0.83013305  1
  I  I123  1  0.33360470  0.83533799  0.17009059  1
  I  I124  1  0.33616384  0.83046974  0.49823018  1
  I  I125  1  0.33353935  0.83460728  0.83143159  1
  I  I126  1  0.66814623  0.16141463  0.16392540  1
  I  I127  1  0.66663063  0.16736064  0.49927379  1
  I  I128  1  0.67047313  0.16213610  0.83624132  1
  I  I129  1  0.66662207  0.49810259  0.16681155  1
  I  I130  1  0.66729500  0.50265676  0.49856397  1
  I  I131  1  0.66703795  0.49645040  0.83667594  1
  I  I132  1  0.67118224  0.83958682  0.16590902  1
  I  I133  1  0.66834565  0.83067735  0.49965226  1
  I  I134  1  0.67146192  0.84231612  0.83447438  1
