# generated using pymatgen
data_Cs27Sn14Pb13I81
_symmetry_space_group_name_H-M   'P 1'
_cell_length_a   18.97296318
_cell_length_b   18.97861235
_cell_length_c   18.97456032
_cell_angle_alpha   89.99999843
_cell_angle_beta   90.00057594
_cell_angle_gamma   89.99907000
_symmetry_Int_Tables_number   1
_chemical_formula_structural   Cs27Sn14Pb13I81
_chemical_formula_sum   'Cs27 Sn14 Pb13 I81'
_cell_volume   6832.36941802
_cell_formula_units_Z   1
loop_
 _symmetry_equiv_pos_site_id
 _symmetry_equiv_pos_as_xyz
  1  'x, y, z'
loop_
 _atom_site_type_symbol
 _atom_site_label
 _atom_site_symmetry_multiplicity
 _atom_site_fract_x
 _atom_site_fract_y
 _atom_site_fract_z
 _atom_site_occupancy
  Cs  Cs0  1  -0.00123972  -0.00054811  0.00000196  1
  Cs  Cs1  1  -0.00059935  0.00167563  0.33182232  1
  Cs  Cs2  1  0.00243532  -0.00156344  0.67001215  1
  Cs  Cs3  1  -0.00153138  0.33184862  0.00055290  1
  Cs  Cs4  1  0.00005582  0.32929008  0.33185548  1
  Cs  Cs5  1  0.00069437  0.33766689  0.66802601  1
  Cs  Cs6  1  -0.00064055  0.66759415  -0.00032557  1
  Cs  Cs7  1  0.00266042  0.66713736  0.33224350  1
  Cs  Cs8  1  0.00026219  0.66556801  0.66754404  1
  Cs  Cs9  1  0.33339414  -0.00088564  -0.00031397  1
  Cs  Cs10  1  0.33250737  -0.00125420  0.33213157  1
  Cs  Cs11  1  0.33346733  0.00314853  0.66811722  1
  Cs  Cs12  1  0.33754714  0.33347058  -0.00022270  1
  Cs  Cs13  1  0.33202407  0.33774914  0.33018375  1
  Cs  Cs14  1  0.33718177  0.32752781  0.66999987  1
  Cs  Cs15  1  0.33378507  0.66810575  0.00290366  1
  Cs  Cs16  1  0.33237475  0.66424083  0.33095716  1
  Cs  Cs17  1  0.32962583  0.66874400  0.66486503  1
  Cs  Cs18  1  0.66910426  -0.00213695  0.00234388  1
  Cs  Cs19  1  0.66809908  0.00300475  0.33668880  1
  Cs  Cs20  1  0.66419748  0.00050622  0.65920867  1
  Cs  Cs21  1  0.66702432  0.33704345  -0.00275547  1
  Cs  Cs22  1  0.66807892  0.32917844  0.34096113  1
  Cs  Cs23  1  0.65913335  0.34145024  0.66263174  1
  Cs  Cs24  1  0.66860597  0.66747426  -0.00100790  1
  Cs  Cs25  1  0.66478511  0.66606918  0.33996917  1
  Cs  Cs26  1  0.66861915  0.65946466  0.66019508  1
  Sn  Sn27  1  0.83256033  0.83441243  0.83357782  1
  Sn  Sn28  1  0.16643448  0.49961828  0.50099856  1
  Sn  Sn29  1  0.49947571  0.16583681  0.16621229  1
  Sn  Sn30  1  0.16659310  0.83416209  0.16661566  1
  Sn  Sn31  1  0.16641278  0.83363709  0.49988486  1
  Sn  Sn32  1  0.83268459  0.16602100  0.83273842  1
  Sn  Sn33  1  0.50057330  0.83328623  0.83364397  1
  Sn  Sn34  1  0.16636326  0.16667182  0.49932760  1
  Sn  Sn35  1  0.83321580  0.50098291  0.16691940  1
  Sn  Sn36  1  0.16689930  0.50066082  0.83323545  1
  Sn  Sn37  1  0.16766389  0.16574374  0.16691666  1
  Sn  Sn38  1  0.83315168  0.83212965  0.16636312  1
  Sn  Sn39  1  0.16681265  0.83254671  0.83349680  1
  Sn  Sn40  1  0.50024262  0.83416523  0.16591290  1
  Pb  Pb41  1  0.49659641  0.50003141  0.49987010  1
  Pb  Pb42  1  0.16565128  0.16645923  0.83392872  1
  Pb  Pb43  1  0.83508557  0.50070740  0.83463303  1
  Pb  Pb44  1  0.83303374  0.16616310  0.16544452  1
  Pb  Pb45  1  0.49702409  0.50330136  0.83365333  1
  Pb  Pb46  1  0.83587407  0.16659087  0.50384077  1
  Pb  Pb47  1  0.83575553  0.83349786  0.50014862  1
  Pb  Pb48  1  0.49729153  0.83334962  0.49969826  1
  Pb  Pb49  1  0.83604139  0.50001911  0.49709331  1
  Pb  Pb50  1  0.16532068  0.49979115  0.16626257  1
  Pb  Pb51  1  0.49708921  0.16642140  0.49715926  1
  Pb  Pb52  1  0.50323461  0.50028326  0.16672902  1
  Pb  Pb53  1  0.50328235  0.16404453  0.83562641  1
  I  I54  1  0.16474491  -0.00148223  0.16902374  1
  I  I55  1  0.16640628  -0.00069205  0.49911782  1
  I  I56  1  0.16756364  -0.00345951  0.83165489  1
  I  I57  1  0.16808363  0.33060673  0.16959955  1
  I  I58  1  0.16556012  0.33315099  0.49894487  1
  I  I59  1  0.16225816  0.33531390  0.83064945  1
  I  I60  1  0.16857030  0.66991129  0.16846658  1
  I  I61  1  0.16649805  0.66753596  0.50047815  1
  I  I62  1  0.16436048  0.66894194  0.83082243  1
  I  I63  1  0.49925410  -0.00163419  0.16268402  1
  I  I64  1  0.49700273  -0.00018162  0.50218094  1
  I  I65  1  0.49212241  -0.00410096  0.83572182  1
  I  I66  1  0.49413469  0.33040096  0.16749068  1
  I  I67  1  0.49800104  0.33306214  0.49809383  1
  I  I68  1  0.49986610  0.33317502  0.83482197  1
  I  I69  1  0.49532139  0.67059549  0.16285484  1
  I  I70  1  0.49735242  0.66702705  0.49751892  1
  I  I71  1  0.50376223  0.67161616  0.84154220  1
  I  I72  1  0.83515045  -0.00333516  0.16385029  1
  I  I73  1  0.83678909  -0.00003029  0.49499216  1
  I  I74  1  0.83850642  -0.00252701  0.84080876  1
  I  I75  1  0.83663706  0.33478410  0.16395348  1
  I  I76  1  0.83796242  0.33326770  0.49792439  1
  I  I77  1  0.83906288  0.33157773  0.83758174  1
  I  I78  1  0.83605973  0.66937266  0.16025508  1
  I  I79  1  0.83646505  0.66683349  0.50349884  1
  I  I80  1  0.83350424  0.67042213  0.83673445  1
  I  I81  1  0.16796172  0.16320623  0.00302704  1
  I  I82  1  0.16903852  0.16366785  0.33233721  1
  I  I83  1  0.16295484  0.16412558  0.66457606  1
  I  I84  1  0.16430822  0.50441820  -0.00235702  1
  I  I85  1  0.16472236  0.50264877  0.33545258  1
  I  I86  1  0.16481636  0.50477573  0.66675193  1
  I  I87  1  0.16618345  0.83313511  0.00020043  1
  I  I88  1  0.16646374  0.83334083  0.33231479  1
  I  I89  1  0.16618043  0.83248059  0.66742906  1
  I  I90  1  0.49081098  0.16460874  0.00354545  1
  I  I91  1  0.50070359  0.15871216  0.32900060  1
  I  I92  1  0.49906609  0.16545105  0.66683186  1
  I  I93  1  0.49555717  0.49739103  0.00022021  1
  I  I94  1  0.49734053  0.50316092  0.33295572  1
  I  I95  1  0.50347413  0.50135503  0.66694179  1
  I  I96  1  0.49463813  0.83658836  0.00087708  1
  I  I97  1  0.49991692  0.83654185  0.32954504  1
  I  I98  1  0.49887854  0.83275192  0.66979859  1
  I  I99  1  0.83828423  0.16412689  -0.00211257  1
  I  I100  1  0.83222349  0.16716553  0.33328739  1
  I  I101  1  0.83734410  0.15798165  0.67141358  1
  I  I102  1  0.83797254  0.50205197  0.00250703  1
  I  I103  1  0.83601862  0.50653990  0.32916903  1
  I  I104  1  0.83390088  0.50025090  0.66663584  1
  I  I105  1  0.83877581  0.83338452  0.00035857  1
  I  I106  1  0.83415787  0.82969319  0.32979627  1
  I  I107  1  0.83497962  0.83775381  0.67026770  1
  I  I108  1  0.00274370  0.16375635  0.16937571  1
  I  I109  1  0.00444026  0.16558704  0.49111509  1
  I  I110  1  -0.00185807  0.16023841  0.83645919  1
  I  I111  1  -0.00220497  0.50477217  0.16613429  1
  I  I112  1  0.00437062  0.50159873  0.50417679  1
  I  I113  1  0.00325002  0.50616738  0.83037744  1
  I  I114  1  0.00095544  0.83334527  0.16451302  1
  I  I115  1  0.00461133  0.83311559  0.49949754  1
  I  I116  1  0.00079248  0.83339753  0.83597003  1
  I  I117  1  0.33189010  0.15903654  0.16986624  1
  I  I118  1  0.32858011  0.16538245  0.50103103  1
  I  I119  1  0.33345144  0.16707605  0.83132981  1
  I  I120  1  0.33318527  0.50180248  0.16771474  1
  I  I121  1  0.32802786  0.50200115  0.50111846  1
  I  I122  1  0.32863080  0.50389752  0.83063911  1
  I  I123  1  0.33215777  0.83767083  0.16439547  1
  I  I124  1  0.32844279  0.83297145  0.49994296  1
  I  I125  1  0.33208361  0.82832028  0.83627428  1
  I  I126  1  0.66430646  0.16284724  0.16271869  1
  I  I127  1  0.66652549  0.16666357  0.49823146  1
  I  I128  1  0.67083190  0.16077041  0.83861943  1
  I  I129  1  0.67089143  0.50443886  0.16309342  1
  I  I130  1  0.66683334  0.49984622  0.49930877  1
  I  I131  1  0.66671178  0.49959413  0.83559654  1
  I  I132  1  0.66677582  0.83346117  0.15780361  1
  I  I133  1  0.66659961  0.83308054  0.49982361  1
  I  I134  1  0.66728454  0.83959464  0.84431518  1
