# generated using pymatgen
data_Cs27Sn13Pb14I81
_symmetry_space_group_name_H-M   'P 1'
_cell_length_a   18.96750148
_cell_length_b   18.98031206
_cell_length_c   18.98389933
_cell_angle_alpha   89.99974004
_cell_angle_beta   89.99834810
_cell_angle_gamma   90.00092561
_symmetry_Int_Tables_number   1
_chemical_formula_structural   Cs27Sn13Pb14I81
_chemical_formula_sum   'Cs27 Sn13 Pb14 I81'
_cell_volume   6834.37645496
_cell_formula_units_Z   1
loop_
 _symmetry_equiv_pos_site_id
 _symmetry_equiv_pos_as_xyz
  1  'x, y, z'
loop_
 _atom_site_type_symbol
 _atom_site_label
 _atom_site_symmetry_multiplicity
 _atom_site_fract_x
 _atom_site_fract_y
 _atom_site_fract_z
 _atom_site_occupancy
  Cs  Cs0  1  0.00225373  -0.00263095  -0.00178324  1
  Cs  Cs1  1  0.00075198  0.00138564  0.33526795  1
  Cs  Cs2  1  -0.00847796  -0.00103751  0.66422487  1
  Cs  Cs3  1  -0.00407779  0.33467137  -0.00081625  1
  Cs  Cs4  1  -0.00377531  0.33201334  0.33310268  1
  Cs  Cs5  1  -0.00402169  0.33475543  0.66789422  1
  Cs  Cs6  1  0.00327616  0.66763691  -0.00970903  1
  Cs  Cs7  1  0.00048455  0.66637283  0.33473570  1
  Cs  Cs8  1  -0.00606646  0.66732185  0.67338269  1
  Cs  Cs9  1  0.33237908  -0.00021050  0.00166555  1
  Cs  Cs10  1  0.33206334  -0.00035177  0.33321068  1
  Cs  Cs11  1  0.33513438  0.00517257  0.66282297  1
  Cs  Cs12  1  0.33319305  0.33365137  0.00043911  1
  Cs  Cs13  1  0.33286081  0.33517674  0.33361839  1
  Cs  Cs14  1  0.33284755  0.33148276  0.66505399  1
  Cs  Cs15  1  0.33290982  0.66653670  0.00016382  1
  Cs  Cs16  1  0.33429561  0.66621351  0.33307953  1
  Cs  Cs17  1  0.33415549  0.66440322  0.66545264  1
  Cs  Cs18  1  0.66659150  0.00228398  0.00017675  1
  Cs  Cs19  1  0.66795226  -0.00201328  0.33237531  1
  Cs  Cs20  1  0.67137094  0.00459300  0.66938542  1
  Cs  Cs21  1  0.67182344  0.33026186  0.00159059  1
  Cs  Cs22  1  0.67354987  0.33445867  0.33054096  1
  Cs  Cs23  1  0.67016356  0.32482228  0.66893212  1
  Cs  Cs24  1  0.66307826  0.66628908  0.00229762  1
  Cs  Cs25  1  0.66523108  0.66702723  0.33374015  1
  Cs  Cs26  1  0.66773082  0.66846488  0.66402195  1
  Sn  Sn27  1  0.83312835  0.83260503  0.16653578  1
  Sn  Sn28  1  0.49924291  0.49955597  0.16672941  1
  Sn  Sn29  1  0.49925459  0.83296453  0.83301410  1
  Sn  Sn30  1  0.16730346  0.49940992  0.16718434  1
  Sn  Sn31  1  0.49966195  0.50030118  0.83309605  1
  Sn  Sn32  1  0.16756288  0.83219330  0.50029499  1
  Sn  Sn33  1  0.16771413  0.16775702  0.16564906  1
  Sn  Sn34  1  0.16729662  0.50117958  0.49935996  1
  Sn  Sn35  1  0.49901888  0.83293444  0.50034000  1
  Sn  Sn36  1  0.16717137  0.16660215  0.83393062  1
  Sn  Sn37  1  0.49961283  0.50040070  0.50015796  1
  Sn  Sn38  1  0.50046298  0.83344559  0.16668349  1
  Sn  Sn39  1  0.49901046  0.16696889  0.16707811  1
  Pb  Pb40  1  0.83691708  0.16652123  0.83396223  1
  Pb  Pb41  1  0.16671152  0.16736780  0.49955072  1
  Pb  Pb42  1  0.16708309  0.83281331  0.16799364  1
  Pb  Pb43  1  0.83273046  0.83301107  0.49799874  1
  Pb  Pb44  1  0.82940071  0.50021274  0.83351613  1
  Pb  Pb45  1  0.16941332  0.83552008  0.82984300  1
  Pb  Pb46  1  0.49856108  0.16682736  0.83576959  1
  Pb  Pb47  1  0.83401250  0.50267411  0.16652801  1
  Pb  Pb48  1  0.83006533  0.83315423  0.83614951  1
  Pb  Pb49  1  0.50022525  0.16713517  0.49704451  1
  Pb  Pb50  1  0.16873370  0.49847403  0.83301069  1
  Pb  Pb51  1  0.83416762  0.16422206  0.16667800  1
  Pb  Pb52  1  0.83319160  0.16671954  0.49956622  1
  Pb  Pb53  1  0.83303151  0.50028564  0.49987277  1
  I  I54  1  0.17001071  0.00204301  0.16517924  1
  I  I55  1  0.17169648  -0.00268775  0.49862044  1
  I  I56  1  0.17019753  0.00292451  0.84101293  1
  I  I57  1  0.17539113  0.33401805  0.16873427  1
  I  I58  1  0.17289666  0.33687978  0.49859617  1
  I  I59  1  0.17105079  0.33082071  0.83382840  1
  I  I60  1  0.17055021  0.66372118  0.16955881  1
  I  I61  1  0.17231410  0.66593722  0.49250464  1
  I  I62  1  0.16573861  0.66668637  0.83660400  1
  I  I63  1  0.49987922  -0.00073721  0.16637176  1
  I  I64  1  0.49544135  -0.00337219  0.49924899  1
  I  I65  1  0.49819369  -0.00272259  0.83390499  1
  I  I66  1  0.49465005  0.33427176  0.16650406  1
  I  I67  1  0.49413289  0.33716845  0.50077548  1
  I  I68  1  0.49747308  0.33622273  0.83273320  1
  I  I69  1  0.50040973  0.66649788  0.16655719  1
  I  I70  1  0.49630277  0.66686292  0.49577000  1
  I  I71  1  0.49881663  0.66677277  0.83835307  1
  I  I72  1  0.82731147  -0.00337355  0.16760290  1
  I  I73  1  0.83456452  -0.00062396  0.49847631  1
  I  I74  1  0.83065950  -0.00025522  0.83347552  1
  I  I75  1  0.83031069  0.33347843  0.16673741  1
  I  I76  1  0.83340838  0.33375534  0.49891189  1
  I  I77  1  0.83042977  0.33324205  0.83369276  1
  I  I78  1  0.82606598  0.67005406  0.16846458  1
  I  I79  1  0.83353919  0.66673489  0.49830455  1
  I  I80  1  0.83846785  0.66693910  0.83413405  1
  I  I81  1  0.17176005  0.17093235  0.00201209  1
  I  I82  1  0.17090620  0.16683968  0.33001130  1
  I  I83  1  0.16798121  0.16615867  0.66882341  1
  I  I84  1  0.17141317  0.49808664  0.00294170  1
  I  I85  1  0.17489222  0.49845321  0.33269126  1
  I  I86  1  0.17207821  0.50152496  0.66360690  1
  I  I87  1  0.16657123  0.83187744  -0.00012032  1
  I  I88  1  0.17219171  0.83451854  0.33582392  1
  I  I89  1  0.17246129  0.82866175  0.66205474  1
  I  I90  1  0.49773204  0.16576841  0.00391990  1
  I  I91  1  0.49275821  0.16506331  0.32874976  1
  I  I92  1  0.49864157  0.16640916  0.66682231  1
  I  I93  1  0.49607392  0.50375862  0.00134060  1
  I  I94  1  0.49581860  0.50322651  0.33269770  1
  I  I95  1  0.49504584  0.50840804  0.66587557  1
  I  I96  1  0.50447188  0.83090870  0.00100535  1
  I  I97  1  0.50025950  0.83136184  0.33284446  1
  I  I98  1  0.49403500  0.82581702  0.66597544  1
  I  I99  1  0.82999015  0.16588837  0.00048833  1
  I  I100  1  0.83511461  0.16603249  0.33253657  1
  I  I101  1  0.83384512  0.16551057  0.66704950  1
  I  I102  1  0.83403119  0.50090710  0.00030436  1
  I  I103  1  0.82912836  0.50016793  0.33306951  1
  I  I104  1  0.83535476  0.50051541  0.66665761  1
  I  I105  1  0.82850870  0.83360054  0.00393711  1
  I  I106  1  0.82603625  0.83384847  0.33037701  1
  I  I107  1  0.83347876  0.83440498  0.66677286  1
  I  I108  1  0.00384081  0.16995547  0.16407706  1
  I  I109  1  0.00073004  0.16508135  0.49768670  1
  I  I110  1  0.00484512  0.16725359  0.84059186  1
  I  I111  1  0.00380928  0.49580484  0.17249498  1
  I  I112  1  0.00388652  0.50279109  0.49383568  1
  I  I113  1  0.00034675  0.49794701  0.83363411  1
  I  I114  1  -0.00154460  0.83464235  0.17065434  1
  I  I115  1  0.00306134  0.83097070  0.49652784  1
  I  I116  1  0.00027626  0.83530139  0.83389671  1
  I  I117  1  0.33364864  0.16480229  0.16340765  1
  I  I118  1  0.33340463  0.16475343  0.50164719  1
  I  I119  1  0.33094937  0.16645836  0.83618500  1
  I  I120  1  0.33469191  0.50123429  0.16752320  1
  I  I121  1  0.33421073  0.50443896  0.49796302  1
  I  I122  1  0.33701717  0.50376909  0.83475794  1
  I  I123  1  0.33683100  0.83371152  0.16538180  1
  I  I124  1  0.33482868  0.82988345  0.49640860  1
  I  I125  1  0.33744802  0.82964138  0.84068664  1
  I  I126  1  0.66344076  0.16929454  0.16741001  1
  I  I127  1  0.66598509  0.16627048  0.49877196  1
  I  I128  1  0.66645391  0.16676644  0.83388268  1
  I  I129  1  0.66276217  0.49763768  0.16750226  1
  I  I130  1  0.66219241  0.50556734  0.49780933  1
  I  I131  1  0.66075494  0.50375865  0.83462920  1
  I  I132  1  0.66327014  0.83356572  0.16858949  1
  I  I133  1  0.66249754  0.82852799  0.50037653  1
  I  I134  1  0.66151438  0.83025327  0.82833691  1
