# generated using pymatgen
data_Cs27Sn14Pb13I81
_symmetry_space_group_name_H-M   'P 1'
_cell_length_a   18.96573678
_cell_length_b   18.97668362
_cell_length_c   18.98549103
_cell_angle_alpha   90.00015641
_cell_angle_beta   90.00046998
_cell_angle_gamma   89.99743171
_symmetry_Int_Tables_number   1
_chemical_formula_structural   Cs27Sn14Pb13I81
_chemical_formula_sum   'Cs27 Sn14 Pb13 I81'
_cell_volume   6833.00705976
_cell_formula_units_Z   1
loop_
 _symmetry_equiv_pos_site_id
 _symmetry_equiv_pos_as_xyz
  1  'x, y, z'
loop_
 _atom_site_type_symbol
 _atom_site_label
 _atom_site_symmetry_multiplicity
 _atom_site_fract_x
 _atom_site_fract_y
 _atom_site_fract_z
 _atom_site_occupancy
  Cs  Cs0  1  0.00001034  -0.00111534  -0.00531023  1
  Cs  Cs1  1  -0.00215096  -0.00003958  0.33353222  1
  Cs  Cs2  1  -0.00033267  -0.00114542  0.67232460  1
  Cs  Cs3  1  0.00382521  0.32994233  -0.00084329  1
  Cs  Cs4  1  -0.00193566  0.33703152  0.33708771  1
  Cs  Cs5  1  -0.00608300  0.33427989  0.66454723  1
  Cs  Cs6  1  0.00071098  0.67208567  0.00248188  1
  Cs  Cs7  1  0.00526659  0.66340497  0.33218264  1
  Cs  Cs8  1  -0.00087185  0.66763668  0.66572684  1
  Cs  Cs9  1  0.33302461  0.00277239  -0.00156358  1
  Cs  Cs10  1  0.33546508  0.00100917  0.33577377  1
  Cs  Cs11  1  0.33366606  0.00230270  0.66620850  1
  Cs  Cs12  1  0.33272596  0.33150747  -0.00313972  1
  Cs  Cs13  1  0.33322133  0.33267735  0.33303537  1
  Cs  Cs14  1  0.33388702  0.33017010  0.67063319  1
  Cs  Cs15  1  0.33306290  0.66481064  0.00170235  1
  Cs  Cs16  1  0.33042731  0.66621392  0.33244972  1
  Cs  Cs17  1  0.33524519  0.66721753  0.66472370  1
  Cs  Cs18  1  0.66816692  -0.00000998  0.00402331  1
  Cs  Cs19  1  0.66539194  -0.00231743  0.33182366  1
  Cs  Cs20  1  0.66498835  -0.00179589  0.66384226  1
  Cs  Cs21  1  0.66942783  0.33594021  0.00236432  1
  Cs  Cs22  1  0.66873282  0.33259689  0.33126166  1
  Cs  Cs23  1  0.67225634  0.33838920  0.66730565  1
  Cs  Cs24  1  0.66605991  0.66540221  0.00139029  1
  Cs  Cs25  1  0.66537357  0.66957131  0.33146569  1
  Cs  Cs26  1  0.66540272  0.66468215  0.66806325  1
  Sn  Sn27  1  0.49969666  0.49963962  0.49909636  1
  Sn  Sn28  1  0.16753251  0.16789260  0.83274083  1
  Sn  Sn29  1  0.83270522  0.83334574  0.49915930  1
  Sn  Sn30  1  0.83263666  0.83236766  0.16792366  1
  Sn  Sn31  1  0.50043372  0.83318654  0.49989504  1
  Sn  Sn32  1  0.50008056  0.83262822  0.16658260  1
  Sn  Sn33  1  0.16709288  0.16656904  0.50029026  1
  Sn  Sn34  1  0.16672495  0.16638458  0.16707136  1
  Sn  Sn35  1  0.16664969  0.49976288  0.83309926  1
  Sn  Sn36  1  0.49982325  0.83416728  0.83357212  1
  Sn  Sn37  1  0.49975829  0.16735836  0.50090181  1
  Sn  Sn38  1  0.83295911  0.50079488  0.16659337  1
  Sn  Sn39  1  0.50052215  0.16611915  0.83256779  1
  Sn  Sn40  1  0.50029961  0.50042164  0.16749470  1
  Pb  Pb41  1  0.83242933  0.16672207  0.83320105  1
  Pb  Pb42  1  0.16680835  0.83569449  0.16684113  1
  Pb  Pb43  1  0.83025088  0.83327816  0.83352179  1
  Pb  Pb44  1  0.83248692  0.16422418  0.50000021  1
  Pb  Pb45  1  0.16698194  0.49795014  0.16520494  1
  Pb  Pb46  1  0.83618472  0.16628830  0.16678220  1
  Pb  Pb47  1  0.16915415  0.49751149  0.50234556  1
  Pb  Pb48  1  0.16681040  0.83549724  0.49996299  1
  Pb  Pb49  1  0.49896121  0.49965082  0.83359740  1
  Pb  Pb50  1  0.83083696  0.50287207  0.49777149  1
  Pb  Pb51  1  0.16936877  0.83348029  0.83320017  1
  Pb  Pb52  1  0.83656845  0.50032171  0.83630631  1
  Pb  Pb53  1  0.49878762  0.16682846  0.16666247  1
  I  I54  1  0.16810625  0.00371509  0.16326348  1
  I  I55  1  0.17315827  0.00384156  0.50279271  1
  I  I56  1  0.16850927  0.00356855  0.83333352  1
  I  I57  1  0.16816710  0.33002415  0.16756351  1
  I  I58  1  0.17268605  0.32928498  0.49720700  1
  I  I59  1  0.17440180  0.33123574  0.83485597  1
  I  I60  1  0.16684447  0.66657953  0.16367573  1
  I  I61  1  0.16768300  0.66643498  0.50166353  1
  I  I62  1  0.16879768  0.66421723  0.83573117  1
  I  I63  1  0.50278431  -0.00277370  0.16848247  1
  I  I64  1  0.49949203  -0.00020712  0.50028663  1
  I  I65  1  0.49415639  0.00034760  0.83076069  1
  I  I66  1  0.50248399  0.33595279  0.16931718  1
  I  I67  1  0.49364321  0.33271805  0.49961450  1
  I  I68  1  0.49586989  0.33050221  0.83063240  1
  I  I69  1  0.50286270  0.66722135  0.16848742  1
  I  I70  1  0.50485740  0.66745491  0.50071144  1
  I  I71  1  0.49831179  0.66909379  0.83100532  1
  I  I72  1  0.82829765  -0.00353023  0.17025257  1
  I  I73  1  0.82705431  -0.00354403  0.49269998  1
  I  I74  1  0.83896855  -0.00022442  0.83648501  1
  I  I75  1  0.82833494  0.33617552  0.16539356  1
  I  I76  1  0.83304749  0.33360120  0.49836061  1
  I  I77  1  0.82809518  0.33358460  0.83557619  1
  I  I78  1  0.82868186  0.66755177  0.16971791  1
  I  I79  1  0.82722498  0.67073134  0.49925434  1
  I  I80  1  0.83422831  0.66685316  0.83083741  1
  I  I81  1  0.17075983  0.17028562  -0.00113935  1
  I  I82  1  0.17214901  0.16445054  0.33416251  1
  I  I83  1  0.17316467  0.16949705  0.66697312  1
  I  I84  1  0.16975506  0.49237742  -0.00241164  1
  I  I85  1  0.16527123  0.49743295  0.33343794  1
  I  I86  1  0.17015183  0.49456262  0.66992604  1
  I  I87  1  0.16682201  0.83681607  0.00004066  1
  I  I88  1  0.17131484  0.83637837  0.33331910  1
  I  I89  1  0.16570805  0.83470924  0.66664657  1
  I  I90  1  0.49439701  0.16337053  -0.00238622  1
  I  I91  1  0.49509456  0.16408816  0.33605433  1
  I  I92  1  0.49113984  0.16205987  0.66617228  1
  I  I93  1  0.50191304  0.50329144  0.00276719  1
  I  I94  1  0.50253458  0.50224967  0.33304345  1
  I  I95  1  0.49667958  0.50273287  0.66424058  1
  I  I96  1  0.50268022  0.83351359  0.00072636  1
  I  I97  1  0.50401066  0.83425288  0.33346840  1
  I  I98  1  0.50272246  0.83415071  0.66575998  1
  I  I99  1  0.83354359  0.16421939  0.00021369  1
  I  I100  1  0.83456379  0.16793464  0.33332148  1
  I  I101  1  0.83796597  0.16450844  0.66645614  1
  I  I102  1  0.82443030  0.50645471  0.00419015  1
  I  I103  1  0.83321381  0.50069270  0.32989695  1
  I  I104  1  0.83289781  0.50046913  0.66638180  1
  I  I105  1  0.82977520  0.82996205  0.00344546  1
  I  I106  1  0.82369662  0.83184708  0.33259869  1
  I  I107  1  0.82941859  0.83589985  0.66377935  1
  I  I108  1  0.00430559  0.16670042  0.16540629  1
  I  I109  1  0.00288683  0.16482088  0.50065321  1
  I  I110  1  0.00356608  0.17052359  0.83341374  1
  I  I111  1  -0.00245168  0.50405686  0.16387582  1
  I  I112  1  -0.00001361  0.49978513  0.49931472  1
  I  I113  1  0.00438726  0.49109096  0.83424209  1
  I  I114  1  -0.00326916  0.82967877  0.17177358  1
  I  I115  1  -0.00299103  0.83541516  0.49413749  1
  I  I116  1  -0.00005821  0.83444043  0.83406211  1
  I  I117  1  0.33084976  0.16685435  0.16584901  1
  I  I118  1  0.33470864  0.16387933  0.50066951  1
  I  I119  1  0.33352099  0.16608675  0.83289840  1
  I  I120  1  0.33648629  0.50423221  0.16927615  1
  I  I121  1  0.33755626  0.50616480  0.49310243  1
  I  I122  1  0.33132819  0.49700585  0.83614044  1
  I  I123  1  0.33706022  0.82963246  0.16788675  1
  I  I124  1  0.33732801  0.83228159  0.49922330  1
  I  I125  1  0.33775573  0.83550427  0.83287187  1
  I  I126  1  0.66660656  0.16694888  0.16625204  1
  I  I127  1  0.66256394  0.16762863  0.50461263  1
  I  I128  1  0.66234491  0.16182946  0.82840080  1
  I  I129  1  0.66523854  0.50307992  0.16937564  1
  I  I130  1  0.66232791  0.49385464  0.50098798  1
  I  I131  1  0.66649530  0.49947637  0.83183901  1
  I  I132  1  0.66516636  0.83075904  0.16705122  1
  I  I133  1  0.66435888  0.83645937  0.49910072  1
  I  I134  1  0.66190860  0.83901347  0.83305661  1
