# generated using pymatgen
data_Cs27Sn14Pb13I81
_symmetry_space_group_name_H-M   'P 1'
_cell_length_a   19.03233199
_cell_length_b   19.03269513
_cell_length_c   19.03224679
_cell_angle_alpha   90.00101607
_cell_angle_beta   90.00093235
_cell_angle_gamma   89.99637101
_symmetry_Int_Tables_number   1
_chemical_formula_structural   Cs27Sn14Pb13I81
_chemical_formula_sum   'Cs27 Sn14 Pb13 I81'
_cell_volume   6894.17582775
_cell_formula_units_Z   1
loop_
 _symmetry_equiv_pos_site_id
 _symmetry_equiv_pos_as_xyz
  1  'x, y, z'
loop_
 _atom_site_type_symbol
 _atom_site_label
 _atom_site_symmetry_multiplicity
 _atom_site_fract_x
 _atom_site_fract_y
 _atom_site_fract_z
 _atom_site_occupancy
  Cs  Cs0  1  -0.00146952  0.00038892  0.00101406  1
  Cs  Cs1  1  -0.00199793  -0.00394322  0.33587410  1
  Cs  Cs2  1  0.00583611  0.00219575  0.66703530  1
  Cs  Cs3  1  -0.00469757  0.32877960  0.00006874  1
  Cs  Cs4  1  0.00191063  0.33852908  0.33876519  1
  Cs  Cs5  1  -0.00099136  0.33721619  0.66366653  1
  Cs  Cs6  1  -0.00342143  0.66957269  -0.00430617  1
  Cs  Cs7  1  0.00019102  0.66576735  0.33783227  1
  Cs  Cs8  1  0.00305783  0.66173755  0.67094955  1
  Cs  Cs9  1  0.33218747  0.00427107  0.00047999  1
  Cs  Cs10  1  0.33415487  0.00035960  0.33708328  1
  Cs  Cs11  1  0.33234389  0.00246549  0.66478584  1
  Cs  Cs12  1  0.33413510  0.32231402  0.01223578  1
  Cs  Cs13  1  0.33133389  0.33810351  0.31445308  1
  Cs  Cs14  1  0.33576670  0.33251234  0.66988585  1
  Cs  Cs15  1  0.33617444  0.66784611  -0.00050138  1
  Cs  Cs16  1  0.33161363  0.66353108  0.33004651  1
  Cs  Cs17  1  0.33469378  0.66683852  0.66727969  1
  Cs  Cs18  1  0.67155577  -0.00119327  -0.00020640  1
  Cs  Cs19  1  0.66765323  -0.00246955  0.34963389  1
  Cs  Cs20  1  0.66189892  0.00338602  0.65548453  1
  Cs  Cs21  1  0.66921021  0.33444570  0.00133957  1
  Cs  Cs22  1  0.66540506  0.32780238  0.33151256  1
  Cs  Cs23  1  0.66669266  0.33313066  0.66421552  1
  Cs  Cs24  1  0.66688732  0.66522311  -0.00145828  1
  Cs  Cs25  1  0.66820084  0.67335902  0.33582299  1
  Cs  Cs26  1  0.66070191  0.66482623  0.66983469  1
  Sn  Sn27  1  0.49961285  0.83373775  0.16523080  1
  Sn  Sn28  1  0.16687547  0.83343450  0.50039770  1
  Sn  Sn29  1  0.83311836  0.16643061  0.83333056  1
  Sn  Sn30  1  0.83334676  0.16716642  0.16642470  1
  Sn  Sn31  1  0.49943066  0.49980572  0.50035653  1
  Sn  Sn32  1  0.16761053  0.49992124  0.83428791  1
  Sn  Sn33  1  0.83342881  0.49961220  0.16605661  1
  Sn  Sn34  1  0.49921874  0.50013193  0.83338519  1
  Sn  Sn35  1  0.49964902  0.83328147  0.83438467  1
  Sn  Sn36  1  0.16727775  0.83269359  0.83379038  1
  Sn  Sn37  1  0.16738484  0.83306448  0.16593098  1
  Sn  Sn38  1  0.83281297  0.83369173  0.83302876  1
  Sn  Sn39  1  0.83320952  0.49994829  0.83396223  1
  Sn  Sn40  1  0.16707652  0.16705065  0.50001250  1
  Pb  Pb41  1  0.83084194  0.50021029  0.50025282  1
  Pb  Pb42  1  0.83555325  0.16687079  0.50000776  1
  Pb  Pb43  1  0.49710375  0.83138467  0.50054320  1
  Pb  Pb44  1  0.83619785  0.83276770  0.50410702  1
  Pb  Pb45  1  0.49632775  0.17042624  0.49981208  1
  Pb  Pb46  1  0.16373438  0.16369965  0.16901325  1
  Pb  Pb47  1  0.83306136  0.83329161  0.16505923  1
  Pb  Pb48  1  0.16935822  0.50006702  0.50234599  1
  Pb  Pb49  1  0.50270755  0.16654148  0.83353159  1
  Pb  Pb50  1  0.16459967  0.16687035  0.83222402  1
  Pb  Pb51  1  0.50326483  0.16261926  0.16653952  1
  Pb  Pb52  1  0.16384511  0.50275136  0.16293685  1
  Pb  Pb53  1  0.50256768  0.50230924  0.16556876  1
  I  I54  1  0.16773275  -0.00401864  0.15783206  1
  I  I55  1  0.16561445  -0.00176921  0.50396307  1
  I  I56  1  0.16593209  -0.00362617  0.83499242  1
  I  I57  1  0.16912487  0.33344472  0.16856585  1
  I  I58  1  0.16483517  0.33139176  0.50469241  1
  I  I59  1  0.16534661  0.33645398  0.82734247  1
  I  I60  1  0.16823527  0.67029506  0.17429250  1
  I  I61  1  0.16736085  0.66947411  0.49832240  1
  I  I62  1  0.16032789  0.66801659  0.83035828  1
  I  I63  1  0.49574281  -0.00487572  0.15750183  1
  I  I64  1  0.50339807  0.00009637  0.49909743  1
  I  I65  1  0.49857156  -0.00346663  0.83838555  1
  I  I66  1  0.49797582  0.33308049  0.16802363  1
  I  I67  1  0.50068455  0.33746975  0.51209890  1
  I  I68  1  0.50004549  0.33663614  0.82611061  1
  I  I69  1  0.49778845  0.66971319  0.16473086  1
  I  I70  1  0.49828852  0.66429656  0.50366317  1
  I  I71  1  0.50524465  0.66704027  0.83273599  1
  I  I72  1  0.83499192  0.00177123  0.15939620  1
  I  I73  1  0.82849013  -0.00017926  0.49817110  1
  I  I74  1  0.83583262  -0.00064105  0.84013270  1
  I  I75  1  0.83274016  0.33379955  0.15493204  1
  I  I76  1  0.83770011  0.33346649  0.50608585  1
  I  I77  1  0.83420915  0.33434833  0.83788552  1
  I  I78  1  0.83297594  0.66470409  0.16097625  1
  I  I79  1  0.83727118  0.66659548  0.49462954  1
  I  I80  1  0.83435368  0.66647848  0.83788881  1
  I  I81  1  0.16852854  0.16706594  0.00024015  1
  I  I82  1  0.16386493  0.15996287  0.33657835  1
  I  I83  1  0.16292071  0.15805982  0.66486813  1
  I  I84  1  0.17252972  0.50732061  -0.00463040  1
  I  I85  1  0.16640057  0.50044785  0.33304840  1
  I  I86  1  0.15831914  0.50747590  0.67026480  1
  I  I87  1  0.16594622  0.82665276  -0.00146124  1
  I  I88  1  0.17248008  0.84040049  0.33313442  1
  I  I89  1  0.16448650  0.83373976  0.66821133  1
  I  I90  1  0.49387047  0.17281232  0.00002917  1
  I  I91  1  0.50499487  0.16669206  0.33329484  1
  I  I92  1  0.50437715  0.16016390  0.66666034  1
  I  I93  1  0.49960306  0.50437654  -0.00373890  1
  I  I94  1  0.50096484  0.50192073  0.33481479  1
  I  I95  1  0.50281885  0.50777188  0.66949919  1
  I  I96  1  0.49497984  0.82576980  -0.00194250  1
  I  I97  1  0.49603885  0.83119006  0.33112004  1
  I  I98  1  0.50170059  0.83079960  0.67007803  1
  I  I99  1  0.83516162  0.16776517  -0.00127193  1
  I  I100  1  0.83449174  0.17322357  0.33041913  1
  I  I101  1  0.83458905  0.16702831  0.66971030  1
  I  I102  1  0.83089852  0.50000672  -0.00255019  1
  I  I103  1  0.83196384  0.49308649  0.33043025  1
  I  I104  1  0.83701737  0.50015639  0.67080451  1
  I  I105  1  0.83919079  0.83277497  -0.00342406  1
  I  I106  1  0.83220787  0.83421979  0.33370158  1
  I  I107  1  0.83080960  0.83208137  0.67230418  1
  I  I108  1  -0.00339727  0.16832613  0.15948537  1
  I  I109  1  0.00272176  0.16076701  0.50111328  1
  I  I110  1  -0.00317671  0.16588409  0.83722940  1
  I  I111  1  -0.00358015  0.49811877  0.16038077  1
  I  I112  1  0.00030116  0.49979214  0.50006217  1
  I  I113  1  -0.00039941  0.50483289  0.83754254  1
  I  I114  1  0.00233917  0.83385587  0.16617738  1
  I  I115  1  0.00394276  0.83679030  0.49630514  1
  I  I116  1  0.00024765  0.82984789  0.83310357  1
  I  I117  1  0.33337834  0.16979055  0.16921954  1
  I  I118  1  0.32950769  0.15667726  0.50365024  1
  I  I119  1  0.33344160  0.16721360  0.83003023  1
  I  I120  1  0.33325604  0.49799107  0.16798457  1
  I  I121  1  0.33636700  0.50191106  0.50932050  1
  I  I122  1  0.33334275  0.51222158  0.82403685  1
  I  I123  1  0.33283550  0.83169869  0.16031465  1
  I  I124  1  0.32989656  0.83787118  0.50679396  1
  I  I125  1  0.33294131  0.82376257  0.83303148  1
  I  I126  1  0.67074513  0.17126712  0.16000430  1
  I  I127  1  0.66639586  0.16652839  0.49936880  1
  I  I128  1  0.67077984  0.16641871  0.83777017  1
  I  I129  1  0.66987364  0.49881690  0.15861362  1
  I  I130  1  0.66364461  0.50193002  0.50896224  1
  I  I131  1  0.66697402  0.50430152  0.83293783  1
  I  I132  1  0.66443550  0.83149349  0.15934680  1
  I  I133  1  0.66641006  0.83324495  0.49710877  1
  I  I134  1  0.66656186  0.82890840  0.84175682  1
