# generated using pymatgen
data_Cs27Sn14Pb13I81
_symmetry_space_group_name_H-M   'P 1'
_cell_length_a   18.96894288
_cell_length_b   18.98569386
_cell_length_c   18.97429444
_cell_angle_alpha   90.00086767
_cell_angle_beta   89.99744350
_cell_angle_gamma   90.00051595
_symmetry_Int_Tables_number   1
_chemical_formula_structural   Cs27Sn14Pb13I81
_chemical_formula_sum   'Cs27 Sn14 Pb13 I81'
_cell_volume   6833.37473163
_cell_formula_units_Z   1
loop_
 _symmetry_equiv_pos_site_id
 _symmetry_equiv_pos_as_xyz
  1  'x, y, z'
loop_
 _atom_site_type_symbol
 _atom_site_label
 _atom_site_symmetry_multiplicity
 _atom_site_fract_x
 _atom_site_fract_y
 _atom_site_fract_z
 _atom_site_occupancy
  Cs  Cs0  1  0.00100155  -0.00143091  0.00054243  1
  Cs  Cs1  1  -0.00027139  -0.00211200  0.33141369  1
  Cs  Cs2  1  -0.00139467  0.00074193  0.66739524  1
  Cs  Cs3  1  0.00215427  0.33217133  -0.00000343  1
  Cs  Cs4  1  0.00023389  0.33432545  0.33442177  1
  Cs  Cs5  1  0.00094992  0.33275287  0.66568633  1
  Cs  Cs6  1  0.00049400  0.66952656  0.00255115  1
  Cs  Cs7  1  -0.00027604  0.66803678  0.33168601  1
  Cs  Cs8  1  -0.00293270  0.66682459  0.66527534  1
  Cs  Cs9  1  0.33166733  -0.00235280  -0.00013009  1
  Cs  Cs10  1  0.33548117  0.00042592  0.33431896  1
  Cs  Cs11  1  0.33492503  0.00095136  0.66545183  1
  Cs  Cs12  1  0.33361486  0.33776641  -0.00193986  1
  Cs  Cs13  1  0.33932585  0.33171395  0.33907463  1
  Cs  Cs14  1  0.32615606  0.34096722  0.66069128  1
  Cs  Cs15  1  0.33252631  0.66812483  -0.00063315  1
  Cs  Cs16  1  0.33311377  0.66789907  0.33496614  1
  Cs  Cs17  1  0.33632445  0.66213258  0.66495049  1
  Cs  Cs18  1  0.66646191  0.00053308  -0.00232597  1
  Cs  Cs19  1  0.66346089  0.00384099  0.33274708  1
  Cs  Cs20  1  0.66803860  -0.00086518  0.66812251  1
  Cs  Cs21  1  0.66304383  0.33300423  0.00525958  1
  Cs  Cs22  1  0.65942560  0.33088016  0.32371700  1
  Cs  Cs23  1  0.67137747  0.33346952  0.66879320  1
  Cs  Cs24  1  0.66593327  0.66525293  -0.00005130  1
  Cs  Cs25  1  0.66621260  0.66412078  0.33363306  1
  Cs  Cs26  1  0.66841296  0.66721625  0.66667903  1
  Sn  Sn27  1  0.50012340  0.83407151  0.83401515  1
  Sn  Sn28  1  0.16669560  0.49990614  0.16684270  1
  Sn  Sn29  1  0.83400668  0.83361708  0.50052732  1
  Sn  Sn30  1  0.49982973  0.16632594  0.83273623  1
  Sn  Sn31  1  0.16682657  0.16669488  0.16671892  1
  Sn  Sn32  1  0.49945285  0.83340018  0.16589962  1
  Sn  Sn33  1  0.83331664  0.83333309  0.83281887  1
  Sn  Sn34  1  0.83270919  0.16659418  0.83294029  1
  Sn  Sn35  1  0.16757449  0.83350722  0.16687401  1
  Sn  Sn36  1  0.83322051  0.49982957  0.50015239  1
  Sn  Sn37  1  0.83357626  0.49999304  0.83333951  1
  Sn  Sn38  1  0.83332303  0.16650030  0.50020226  1
  Sn  Sn39  1  0.16595747  0.83360719  0.50034678  1
  Sn  Sn40  1  0.16681462  0.83338792  0.83246354  1
  Pb  Pb41  1  0.50059077  0.83333740  0.50058231  1
  Pb  Pb42  1  0.83276597  0.83343814  0.16680282  1
  Pb  Pb43  1  0.16447855  0.16428481  0.49799856  1
  Pb  Pb44  1  0.49696879  0.50284735  0.16647410  1
  Pb  Pb45  1  0.50340564  0.49981475  0.50020105  1
  Pb  Pb46  1  0.50261442  0.16662558  0.50342011  1
  Pb  Pb47  1  0.83502138  0.16657873  0.16620594  1
  Pb  Pb48  1  0.83504400  0.49994483  0.16663535  1
  Pb  Pb49  1  0.16682463  0.16500218  0.83444314  1
  Pb  Pb50  1  0.50234757  0.49994352  0.83317175  1
  Pb  Pb51  1  0.16435340  0.50247774  0.49789566  1
  Pb  Pb52  1  0.49713366  0.16430475  0.16388864  1
  Pb  Pb53  1  0.16407546  0.50270064  0.83478124  1
  I  I54  1  0.16905134  -0.00204742  0.16607011  1
  I  I55  1  0.16039585  -0.00412588  0.49798773  1
  I  I56  1  0.16143828  -0.00386567  0.83667901  1
  I  I57  1  0.16100684  0.33326108  0.16441260  1
  I  I58  1  0.16484464  0.33339887  0.49727174  1
  I  I59  1  0.16622766  0.33347514  0.83777579  1
  I  I60  1  0.16922855  0.66872863  0.16620816  1
  I  I61  1  0.16061252  0.67083852  0.49816309  1
  I  I62  1  0.16686224  0.67146869  0.83628358  1
  I  I63  1  0.49438761  -0.00357323  0.16500484  1
  I  I64  1  0.50193513  -0.00026487  0.49682616  1
  I  I65  1  0.50570447  -0.00178488  0.83732081  1
  I  I66  1  0.49922517  0.33308934  0.16556146  1
  I  I67  1  0.49998306  0.33303917  0.50036337  1
  I  I68  1  0.50664710  0.33020759  0.83415870  1
  I  I69  1  0.49561998  0.67096559  0.15992145  1
  I  I70  1  0.50183218  0.66714352  0.50102744  1
  I  I71  1  0.50041887  0.67036980  0.83736371  1
  I  I72  1  0.83729760  -0.00026516  0.16719514  1
  I  I73  1  0.83776382  -0.00087641  0.50641737  1
  I  I74  1  0.83302226  -0.00095685  0.82833946  1
  I  I75  1  0.83723261  0.33325377  0.16633271  1
  I  I76  1  0.83390025  0.33315899  0.50817176  1
  I  I77  1  0.82946579  0.33268950  0.82742093  1
  I  I78  1  0.83601151  0.66699228  0.16615821  1
  I  I79  1  0.83775701  0.66772036  0.50636699  1
  I  I80  1  0.83412455  0.66813623  0.82819362  1
  I  I81  1  0.16326094  0.16216890  0.00257844  1
  I  I82  1  0.16333047  0.16267333  0.32990119  1
  I  I83  1  0.16816822  0.16463773  0.66662194  1
  I  I84  1  0.16328938  0.50364404  0.00282890  1
  I  I85  1  0.16249221  0.50435314  0.33005101  1
  I  I86  1  0.16813575  0.50092103  0.66649956  1
  I  I87  1  0.16602401  0.83331436  0.00006711  1
  I  I88  1  0.16528703  0.83290701  0.33273634  1
  I  I89  1  0.16433174  0.83435403  0.66724587  1
  I  I90  1  0.50922634  0.16348761  -0.00360204  1
  I  I91  1  0.50159227  0.16554856  0.33315663  1
  I  I92  1  0.50154882  0.15617197  0.67125669  1
  I  I93  1  0.50389077  0.49892088  -0.00011663  1
  I  I94  1  0.50332250  0.50233450  0.33305869  1
  I  I95  1  0.49575517  0.50392205  0.66700128  1
  I  I96  1  0.49684721  0.83645925  -0.00122650  1
  I  I97  1  0.49587697  0.83222639  0.33086265  1
  I  I98  1  0.49847415  0.83694912  0.67030878  1
  I  I99  1  0.83120277  0.16509348  -0.00377408  1
  I  I100  1  0.83734395  0.16523481  0.33630939  1
  I  I101  1  0.83049604  0.16544822  0.66770639  1
  I  I102  1  0.83476598  0.50172390  -0.00324679  1
  I  I103  1  0.83640271  0.50273676  0.33652197  1
  I  I104  1  0.83385116  0.50149546  0.66714562  1
  I  I105  1  0.83617998  0.83370797  -0.00347041  1
  I  I106  1  0.83745307  0.83246511  0.33661018  1
  I  I107  1  0.83638905  0.83320057  0.66756818  1
  I  I108  1  0.00301410  0.16121947  0.16394702  1
  I  I109  1  -0.00386824  0.16784778  0.50748268  1
  I  I110  1  -0.00331377  0.16527030  0.83123976  1
  I  I111  1  0.00300168  0.50598464  0.16601885  1
  I  I112  1  -0.00376501  0.49898213  0.50432149  1
  I  I113  1  -0.00414661  0.49939276  0.82986426  1
  I  I114  1  0.00322442  0.83297858  0.16427356  1
  I  I115  1  -0.00084922  0.83319123  0.50195735  1
  I  I116  1  -0.00055645  0.83335929  0.83411005  1
  I  I117  1  0.32933538  0.16644175  0.16480813  1
  I  I118  1  0.33321814  0.16471204  0.49961239  1
  I  I119  1  0.33584553  0.15871149  0.83851481  1
  I  I120  1  0.32893884  0.49957778  0.16489088  1
  I  I121  1  0.33287964  0.50174551  0.49879075  1
  I  I122  1  0.33306979  0.49998065  0.83589828  1
  I  I123  1  0.33168280  0.83310888  0.16278522  1
  I  I124  1  0.33039042  0.83323052  0.50084042  1
  I  I125  1  0.33320210  0.83868571  0.83570789  1
  I  I126  1  0.66624798  0.16518514  0.16915608  1
  I  I127  1  0.67135208  0.16161758  0.50038407  1
  I  I128  1  0.66826232  0.16041080  0.82998563  1
  I  I129  1  0.66645204  0.50154780  0.16758171  1
  I  I130  1  0.67207758  0.50630949  0.50439413  1
  I  I131  1  0.67086837  0.50599351  0.82943764  1
  I  I132  1  0.66386847  0.83380921  0.16282533  1
  I  I133  1  0.67044443  0.83275341  0.50340922  1
  I  I134  1  0.66767559  0.83368910  0.83349487  1
