# generated using pymatgen
data_Cs27Sn14Pb13I81
_symmetry_space_group_name_H-M   'P 1'
_cell_length_a   18.96952513
_cell_length_b   18.97596051
_cell_length_c   18.98087546
_cell_angle_alpha   89.99890268
_cell_angle_beta   89.99966153
_cell_angle_gamma   89.99912759
_symmetry_Int_Tables_number   1
_chemical_formula_structural   Cs27Sn14Pb13I81
_chemical_formula_sum   'Cs27 Sn14 Pb13 I81'
_cell_volume   6832.45006817
_cell_formula_units_Z   1
loop_
 _symmetry_equiv_pos_site_id
 _symmetry_equiv_pos_as_xyz
  1  'x, y, z'
loop_
 _atom_site_type_symbol
 _atom_site_label
 _atom_site_symmetry_multiplicity
 _atom_site_fract_x
 _atom_site_fract_y
 _atom_site_fract_z
 _atom_site_occupancy
  Cs  Cs0  1  -0.00092147  -0.00072375  -0.00201559  1
  Cs  Cs1  1  -0.00029109  -0.00057038  0.33272173  1
  Cs  Cs2  1  0.00201370  0.00284972  0.67201420  1
  Cs  Cs3  1  -0.00611845  0.33310538  -0.01018048  1
  Cs  Cs4  1  0.00172210  0.33526086  0.33737855  1
  Cs  Cs5  1  0.00707862  0.33857144  0.67197441  1
  Cs  Cs6  1  0.00118661  0.66784689  0.00168012  1
  Cs  Cs7  1  -0.00179702  0.66587905  0.33279760  1
  Cs  Cs8  1  0.00424080  0.65825938  0.66447838  1
  Cs  Cs9  1  0.33176869  -0.00068292  0.00270230  1
  Cs  Cs10  1  0.33137299  0.00088770  0.33094722  1
  Cs  Cs11  1  0.33245211  -0.00098886  0.66696226  1
  Cs  Cs12  1  0.33653722  0.33169291  0.00464709  1
  Cs  Cs13  1  0.33202310  0.33046121  0.33336097  1
  Cs  Cs14  1  0.33252652  0.33508592  0.66324528  1
  Cs  Cs15  1  0.33435539  0.66839445  0.00084577  1
  Cs  Cs16  1  0.33390003  0.66887582  0.33111406  1
  Cs  Cs17  1  0.33418592  0.66604285  0.66886660  1
  Cs  Cs18  1  0.66680736  -0.00033333  0.00082340  1
  Cs  Cs19  1  0.66760095  -0.00020535  0.33506887  1
  Cs  Cs20  1  0.66663350  0.00025214  0.66440405  1
  Cs  Cs21  1  0.66682773  0.33384123  -0.00193654  1
  Cs  Cs22  1  0.66667242  0.33185490  0.33296348  1
  Cs  Cs23  1  0.66531627  0.33027529  0.66912081  1
  Cs  Cs24  1  0.66500635  0.66712317  0.00188702  1
  Cs  Cs25  1  0.66906783  0.66818154  0.33476401  1
  Cs  Cs26  1  0.66488434  0.66938291  0.66137108  1
  Sn  Sn27  1  0.50110143  0.83366220  0.83421603  1
  Sn  Sn28  1  0.83239848  0.83280304  0.83352456  1
  Sn  Sn29  1  0.50058684  0.16717137  0.50044296  1
  Sn  Sn30  1  0.50032428  0.49928647  0.49930468  1
  Sn  Sn31  1  0.16724229  0.50020791  0.16640963  1
  Sn  Sn32  1  0.83332226  0.16678886  0.49970658  1
  Sn  Sn33  1  0.83303368  0.83416918  0.16615251  1
  Sn  Sn34  1  0.50026534  0.83283044  0.16623117  1
  Sn  Sn35  1  0.50020973  0.50025871  0.83349839  1
  Sn  Sn36  1  0.16663746  0.83273120  0.16777581  1
  Sn  Sn37  1  0.16658711  0.83354666  0.49953161  1
  Sn  Sn38  1  0.83340125  0.16630793  0.16748584  1
  Sn  Sn39  1  0.50005840  0.16613699  0.83256291  1
  Sn  Sn40  1  0.49937447  0.50087887  0.16719503  1
  Pb  Pb41  1  0.16674171  0.83322170  0.83388929  1
  Pb  Pb42  1  0.49862161  0.83373754  0.49985901  1
  Pb  Pb43  1  0.83064028  0.50345886  0.83324692  1
  Pb  Pb44  1  0.50163811  0.16659928  0.16692060  1
  Pb  Pb45  1  0.83585163  0.83509377  0.50052431  1
  Pb  Pb46  1  0.16938578  0.50225195  0.49748135  1
  Pb  Pb47  1  0.83131243  0.16469703  0.83297111  1
  Pb  Pb48  1  0.83322444  0.50007546  0.16672058  1
  Pb  Pb49  1  0.83107045  0.49689201  0.50014453  1
  Pb  Pb50  1  0.16312565  0.16720902  0.16649803  1
  Pb  Pb51  1  0.16961031  0.50014941  0.83669630  1
  Pb  Pb52  1  0.17008608  0.16684602  0.83354828  1
  Pb  Pb53  1  0.16666695  0.16474598  0.49989101  1
  I  I54  1  0.17070520  -0.00342067  0.16965873  1
  I  I55  1  0.17041845  -0.00312261  0.49249134  1
  I  I56  1  0.16983857  -0.00045732  0.83506028  1
  I  I57  1  0.17433526  0.33646183  0.16680335  1
  I  I58  1  0.16554556  0.33362470  0.49832417  1
  I  I59  1  0.16595410  0.33371083  0.83460679  1
  I  I60  1  0.16695035  0.66822475  0.17034272  1
  I  I61  1  0.16786338  0.67004223  0.49805604  1
  I  I62  1  0.16834737  0.66686637  0.83023926  1
  I  I63  1  0.49778012  -0.00301798  0.16377843  1
  I  I64  1  0.50239401  0.00255259  0.50310277  1
  I  I65  1  0.50393511  -0.00090302  0.83316777  1
  I  I66  1  0.49713142  0.33597540  0.16446088  1
  I  I67  1  0.50350420  0.33324477  0.50268178  1
  I  I68  1  0.49884510  0.33354342  0.83367253  1
  I  I69  1  0.50080159  0.66747111  0.16397866  1
  I  I70  1  0.49683265  0.66453722  0.50207817  1
  I  I71  1  0.50331507  0.66720754  0.83440427  1
  I  I72  1  0.83193517  -0.00166365  0.16668816  1
  I  I73  1  0.82456410  0.00275271  0.49769094  1
  I  I74  1  0.82668283  -0.00318967  0.83552616  1
  I  I75  1  0.83136561  0.33057899  0.17130725  1
  I  I76  1  0.83099280  0.32872935  0.49172881  1
  I  I77  1  0.83172577  0.33315629  0.83508948  1
  I  I78  1  0.83283739  0.67015966  0.16239888  1
  I  I79  1  0.83245665  0.66687410  0.49933093  1
  I  I80  1  0.82811914  0.67146151  0.84143962  1
  I  I81  1  0.16726560  0.16348135  0.00036457  1
  I  I82  1  0.17240621  0.16694365  0.33308198  1
  I  I83  1  0.16200448  0.16276887  0.66652588  1
  I  I84  1  0.17220453  0.50856265  0.00445468  1
  I  I85  1  0.17330764  0.50251835  0.32974254  1
  I  I86  1  0.16740806  0.50162874  0.66659132  1
  I  I87  1  0.16738835  0.82956730  0.00359734  1
  I  I88  1  0.16816866  0.83045741  0.33103812  1
  I  I89  1  0.16857115  0.83591132  0.66454609  1
  I  I90  1  0.50168508  0.16847021  -0.00214764  1
  I  I91  1  0.50225840  0.16945287  0.33572928  1
  I  I92  1  0.50576209  0.16860746  0.66639901  1
  I  I93  1  0.49605572  0.50089698  0.00047973  1
  I  I94  1  0.49638343  0.50002134  0.33245356  1
  I  I95  1  0.50227870  0.50009348  0.66692132  1
  I  I96  1  0.49875779  0.83108939  0.00072148  1
  I  I97  1  0.50197627  0.83043767  0.33026351  1
  I  I98  1  0.50251756  0.83127316  0.66930446  1
  I  I99  1  0.83233528  0.16410904  0.00236417  1
  I  I100  1  0.82592658  0.16015764  0.33302538  1
  I  I101  1  0.82859384  0.16350902  0.66421750  1
  I  I102  1  0.83141912  0.49410365  0.00018246  1
  I  I103  1  0.82953985  0.50444658  0.33320401  1
  I  I104  1  0.83183240  0.50139412  0.66673012  1
  I  I105  1  0.83368636  0.83942653  0.00167474  1
  I  I106  1  0.83027078  0.83520301  0.33022942  1
  I  I107  1  0.82715252  0.83528168  0.66936343  1
  I  I108  1  -0.00471857  0.16123431  0.17323796  1
  I  I109  1  -0.00296066  0.16201112  0.49342977  1
  I  I110  1  -0.00056247  0.16406457  0.83346130  1
  I  I111  1  0.00268775  0.50475535  0.16853635  1
  I  I112  1  0.00046797  0.49975209  0.49819380  1
  I  I113  1  0.00008608  0.50029437  0.83419075  1
  I  I114  1  -0.00022846  0.83341566  0.16666253  1
  I  I115  1  0.00326023  0.83562791  0.49447637  1
  I  I116  1  -0.00284447  0.83656858  0.83728397  1
  I  I117  1  0.33352276  0.16391401  0.16632091  1
  I  I118  1  0.33678722  0.16989597  0.50458371  1
  I  I119  1  0.33898677  0.16276407  0.82792678  1
  I  I120  1  0.33517792  0.50836967  0.16587519  1
  I  I121  1  0.33772064  0.49368399  0.50254717  1
  I  I122  1  0.33822248  0.50427617  0.83047975  1
  I  I123  1  0.33420305  0.82899882  0.16630944  1
  I  I124  1  0.33108873  0.83465361  0.49496796  1
  I  I125  1  0.33703492  0.83293882  0.83626163  1
  I  I126  1  0.66929708  0.16171432  0.16764361  1
  I  I127  1  0.66539451  0.16886196  0.49963353  1
  I  I128  1  0.66290736  0.16860401  0.83243668  1
  I  I129  1  0.66295725  0.50332050  0.16589599  1
  I  I130  1  0.66212125  0.50170369  0.49661108  1
  I  I131  1  0.66188795  0.49701807  0.83817326  1
  I  I132  1  0.66605843  0.83300569  0.16183278  1
  I  I133  1  0.66655033  0.83164917  0.49779481  1
  I  I134  1  0.66498961  0.83331153  0.84163062  1
