# generated using pymatgen
data_Cs27Sn13Pb14I81
_symmetry_space_group_name_H-M   'P 1'
_cell_length_a   18.97555681
_cell_length_b   18.97860951
_cell_length_c   18.97792057
_cell_angle_alpha   90.00103778
_cell_angle_beta   89.99988042
_cell_angle_gamma   90.00096759
_symmetry_Int_Tables_number   1
_chemical_formula_structural   Cs27Sn13Pb14I81
_chemical_formula_sum   'Cs27 Sn13 Pb14 I81'
_cell_volume   6834.51251981
_cell_formula_units_Z   1
loop_
 _symmetry_equiv_pos_site_id
 _symmetry_equiv_pos_as_xyz
  1  'x, y, z'
loop_
 _atom_site_type_symbol
 _atom_site_label
 _atom_site_symmetry_multiplicity
 _atom_site_fract_x
 _atom_site_fract_y
 _atom_site_fract_z
 _atom_site_occupancy
  Cs  Cs0  1  0.00049831  0.00136329  0.00135241  1
  Cs  Cs1  1  0.00067794  0.00132756  0.33371872  1
  Cs  Cs2  1  0.00015593  0.00131466  0.66625429  1
  Cs  Cs3  1  -0.00342497  0.33257654  0.00486253  1
  Cs  Cs4  1  -0.00180479  0.33032347  0.32675060  1
  Cs  Cs5  1  0.00316300  0.33059685  0.66697686  1
  Cs  Cs6  1  -0.00074553  0.66384228  -0.00089834  1
  Cs  Cs7  1  0.00000222  0.66492374  0.33365759  1
  Cs  Cs8  1  -0.00303390  0.66613654  0.66735636  1
  Cs  Cs9  1  0.33396097  -0.00170552  -0.00086514  1
  Cs  Cs10  1  0.33217101  -0.00262062  0.33401741  1
  Cs  Cs11  1  0.33299037  0.00040772  0.66708118  1
  Cs  Cs12  1  0.33565751  0.33432042  0.00120643  1
  Cs  Cs13  1  0.34147381  0.33719918  0.32928933  1
  Cs  Cs14  1  0.33170097  0.33337779  0.66702996  1
  Cs  Cs15  1  0.33214930  0.66876185  -0.00165920  1
  Cs  Cs16  1  0.33334567  0.66817864  0.33149165  1
  Cs  Cs17  1  0.33177023  0.66674646  0.66869717  1
  Cs  Cs18  1  0.66541017  -0.00011688  0.00125417  1
  Cs  Cs19  1  0.66704112  -0.00078017  0.33150434  1
  Cs  Cs20  1  0.66775727  0.00048400  0.66688764  1
  Cs  Cs21  1  0.66813769  0.33184985  0.00792068  1
  Cs  Cs22  1  0.65990199  0.34116755  0.32784532  1
  Cs  Cs23  1  0.66407681  0.33251041  0.66358895  1
  Cs  Cs24  1  0.66829865  0.66810088  -0.00254761  1
  Cs  Cs25  1  0.66718880  0.66329254  0.33630973  1
  Cs  Cs26  1  0.67396825  0.66637954  0.66624386  1
  Sn  Sn27  1  0.16650544  0.49971472  0.50051595  1
  Sn  Sn28  1  0.16627783  0.16716515  0.50040863  1
  Sn  Sn29  1  0.49961484  0.83341459  0.50079845  1
  Sn  Sn30  1  0.50104400  0.83326895  0.16657730  1
  Sn  Sn31  1  0.16719547  0.83311291  0.50113829  1
  Sn  Sn32  1  0.83299982  0.83322503  0.16667332  1
  Sn  Sn33  1  0.16723916  0.49991549  0.83254291  1
  Sn  Sn34  1  0.16587368  0.16668331  0.83294559  1
  Sn  Sn35  1  0.16697146  0.83335509  0.83232646  1
  Sn  Sn36  1  0.83350296  0.16693535  0.50050157  1
  Sn  Sn37  1  0.49962344  0.83241137  0.83254137  1
  Sn  Sn38  1  0.49969735  0.50083164  0.83284293  1
  Sn  Sn39  1  0.83384333  0.16666336  0.83236921  1
  Pb  Pb40  1  0.16701271  0.16665020  0.16691629  1
  Pb  Pb41  1  0.83337009  0.50316281  0.16672334  1
  Pb  Pb42  1  0.83366511  0.83531688  0.83468102  1
  Pb  Pb43  1  0.83334050  0.16489384  0.16725016  1
  Pb  Pb44  1  0.83342455  0.49679067  0.83307637  1
  Pb  Pb45  1  0.49967320  0.16676361  0.83331008  1
  Pb  Pb46  1  0.49767508  0.50289368  0.50259688  1
  Pb  Pb47  1  0.49974464  0.50332010  0.16348741  1
  Pb  Pb48  1  0.83393629  0.83502363  0.49835003  1
  Pb  Pb49  1  0.16674423  0.83332056  0.16660432  1
  Pb  Pb50  1  0.83622111  0.49645985  0.50025029  1
  Pb  Pb51  1  0.49943001  0.16481721  0.50000643  1
  Pb  Pb52  1  0.16682845  0.50005877  0.16637934  1
  Pb  Pb53  1  0.49971663  0.16412372  0.16679784  1
  I  I54  1  0.16755963  -0.00034641  0.16594323  1
  I  I55  1  0.16684442  -0.00041206  0.50524493  1
  I  I56  1  0.16720438  -0.00054326  0.82860429  1
  I  I57  1  0.16532269  0.33335175  0.16606831  1
  I  I58  1  0.16079473  0.33281332  0.50846669  1
  I  I59  1  0.16753194  0.33324734  0.82703513  1
  I  I60  1  0.16549005  0.66701610  0.16687974  1
  I  I61  1  0.17188112  0.66756838  0.50512845  1
  I  I62  1  0.17206635  0.66738194  0.82853259  1
  I  I63  1  0.50288523  -0.00477495  0.16283742  1
  I  I64  1  0.49421884  -0.00403443  0.50281056  1
  I  I65  1  0.49659848  -0.00353693  0.83421970  1
  I  I66  1  0.50016930  0.33409533  0.16564186  1
  I  I67  1  0.49968817  0.33374814  0.50153386  1
  I  I68  1  0.49554842  0.33609485  0.83228748  1
  I  I69  1  0.50307413  0.67128193  0.16924294  1
  I  I70  1  0.49505331  0.67118258  0.49680669  1
  I  I71  1  0.49134100  0.66833345  0.83468800  1
  I  I72  1  0.82860604  -0.00286464  0.16609664  1
  I  I73  1  0.83938695  0.00272682  0.50329507  1
  I  I74  1  0.83774832  0.00303925  0.83052729  1
  I  I75  1  0.83426118  0.33311854  0.16583600  1
  I  I76  1  0.83882567  0.32844893  0.50541373  1
  I  I77  1  0.83795886  0.32890930  0.82977034  1
  I  I78  1  0.82986976  0.67120152  0.16586077  1
  I  I79  1  0.83399385  0.66670737  0.49723883  1
  I  I80  1  0.83574052  0.66676126  0.83644174  1
  I  I81  1  0.16280272  0.16528226  -0.00406811  1
  I  I82  1  0.16150352  0.16403305  0.33746584  1
  I  I83  1  0.16257431  0.16535048  0.66710958  1
  I  I84  1  0.17022990  0.50144865  -0.00428028  1
  I  I85  1  0.16509107  0.50146591  0.33695944  1
  I  I86  1  0.17072772  0.50018909  0.66754772  1
  I  I87  1  0.16959445  0.83365684  -0.00358806  1
  I  I88  1  0.16949125  0.83423706  0.33681484  1
  I  I89  1  0.17365926  0.83435861  0.66697670  1
  I  I90  1  0.49993929  0.16422579  -0.00049008  1
  I  I91  1  0.49949934  0.16432964  0.33367594  1
  I  I92  1  0.50173717  0.16281925  0.66683331  1
  I  I93  1  0.49237382  0.50451124  -0.00440239  1
  I  I94  1  0.49880316  0.50033518  0.33351160  1
  I  I95  1  0.49723019  0.50547358  0.67044827  1
  I  I96  1  0.49925869  0.83031136  -0.00121245  1
  I  I97  1  0.49860017  0.83668839  0.33390743  1
  I  I98  1  0.49377025  0.83112480  0.66743949  1
  I  I99  1  0.83826390  0.16544629  -0.00283608  1
  I  I100  1  0.84073378  0.16316512  0.33657650  1
  I  I101  1  0.83859422  0.16392059  0.66691084  1
  I  I102  1  0.83596546  0.49721381  -0.00040564  1
  I  I103  1  0.83548858  0.49791130  0.33363288  1
  I  I104  1  0.83064701  0.50538431  0.66674256  1
  I  I105  1  0.82939225  0.83667722  0.00241009  1
  I  I106  1  0.82956544  0.83670517  0.33063171  1
  I  I107  1  0.83060144  0.83334989  0.66662838  1
  I  I108  1  0.00003753  0.16233310  0.16592446  1
  I  I109  1  0.00166662  0.16330093  0.50472702  1
  I  I110  1  0.00174432  0.16515409  0.82947366  1
  I  I111  1  0.00016650  0.50298404  0.16418138  1
  I  I112  1  0.00476923  0.50775039  0.50769419  1
  I  I113  1  0.00380672  0.50414958  0.82961668  1
  I  I114  1  -0.00216914  0.83523187  0.16649289  1
  I  I115  1  0.00368098  0.83217075  0.50305367  1
  I  I116  1  0.00348531  0.83120453  0.83042832  1
  I  I117  1  0.33322853  0.16374646  0.16600102  1
  I  I118  1  0.32938362  0.16662826  0.50601771  1
  I  I119  1  0.32973312  0.16558844  0.82844645  1
  I  I120  1  0.33345568  0.50231689  0.16864663  1
  I  I121  1  0.32933579  0.49465095  0.50224518  1
  I  I122  1  0.33187866  0.49981377  0.83001390  1
  I  I123  1  0.33624144  0.83301817  0.16629965  1
  I  I124  1  0.33227078  0.83600367  0.49840612  1
  I  I125  1  0.33280251  0.83511281  0.83524224  1
  I  I126  1  0.66682655  0.16613006  0.16503031  1
  I  I127  1  0.66942202  0.16192469  0.50528827  1
  I  I128  1  0.66933548  0.16454801  0.82965147  1
  I  I129  1  0.66630970  0.49790677  0.16504133  1
  I  I130  1  0.66641799  0.50020052  0.50074119  1
  I  I131  1  0.66372178  0.50595253  0.83444625  1
  I  I132  1  0.66536871  0.83517725  0.16551379  1
  I  I133  1  0.66397889  0.83601617  0.50220500  1
  I  I134  1  0.66363880  0.83060400  0.83184020  1
