# generated using pymatgen
data_Cs27Sn13Pb14I81
_symmetry_space_group_name_H-M   'P 1'
_cell_length_a   18.97728961
_cell_length_b   18.97706217
_cell_length_c   18.97724669
_cell_angle_alpha   89.99978393
_cell_angle_beta   90.00295663
_cell_angle_gamma   90.00122449
_symmetry_Int_Tables_number   1
_chemical_formula_structural   Cs27Sn13Pb14I81
_chemical_formula_sum   'Cs27 Sn13 Pb14 I81'
_cell_volume   6834.33665632
_cell_formula_units_Z   1
loop_
 _symmetry_equiv_pos_site_id
 _symmetry_equiv_pos_as_xyz
  1  'x, y, z'
loop_
 _atom_site_type_symbol
 _atom_site_label
 _atom_site_symmetry_multiplicity
 _atom_site_fract_x
 _atom_site_fract_y
 _atom_site_fract_z
 _atom_site_occupancy
  Cs  Cs0  1  -0.00013582  0.00023399  0.00032951  1
  Cs  Cs1  1  0.00047122  0.00119472  0.33382048  1
  Cs  Cs2  1  0.00045188  -0.00097898  0.66594364  1
  Cs  Cs3  1  0.00227644  0.33888388  0.00139639  1
  Cs  Cs4  1  0.00018271  0.33247851  0.33298395  1
  Cs  Cs5  1  0.00045171  0.33358317  0.66405584  1
  Cs  Cs6  1  0.00017472  0.66151756  -0.00081329  1
  Cs  Cs7  1  -0.00146701  0.66510056  0.33396686  1
  Cs  Cs8  1  -0.00192215  0.66684792  0.66702083  1
  Cs  Cs9  1  0.33222437  -0.00130734  0.00158679  1
  Cs  Cs10  1  0.33362212  -0.00190988  0.33338598  1
  Cs  Cs11  1  0.33232314  -0.00056701  0.66446595  1
  Cs  Cs12  1  0.33176008  0.33624776  0.00003695  1
  Cs  Cs13  1  0.33213775  0.33140659  0.33210690  1
  Cs  Cs14  1  0.33940315  0.33446435  0.66799859  1
  Cs  Cs15  1  0.33261295  0.66709594  -0.00043482  1
  Cs  Cs16  1  0.33553394  0.67359742  0.33467097  1
  Cs  Cs17  1  0.33435096  0.66734410  0.66533734  1
  Cs  Cs18  1  0.66887193  -0.00099467  -0.00033454  1
  Cs  Cs19  1  0.66724943  -0.00036424  0.33088567  1
  Cs  Cs20  1  0.66926463  0.00482583  0.67176858  1
  Cs  Cs21  1  0.66483540  0.33328060  -0.00439214  1
  Cs  Cs22  1  0.66789928  0.33502410  0.33493090  1
  Cs  Cs23  1  0.65636330  0.33911342  0.67179040  1
  Cs  Cs24  1  0.66871952  0.66940037  -0.00090539  1
  Cs  Cs25  1  0.66561535  0.66521270  0.33486728  1
  Cs  Cs26  1  0.66953032  0.65597787  0.66810876  1
  Sn  Sn27  1  0.83348312  0.16605924  0.16726049  1
  Sn  Sn28  1  0.16652539  0.16601005  0.83347263  1
  Sn  Sn29  1  0.16749981  0.83431516  0.83417897  1
  Sn  Sn30  1  0.16551377  0.83399757  0.16593399  1
  Sn  Sn31  1  0.16620522  0.16760080  0.49999311  1
  Sn  Sn32  1  0.83309460  0.83439005  0.49929590  1
  Sn  Sn33  1  0.83460285  0.83408654  0.16767457  1
  Sn  Sn34  1  0.49982799  0.49931335  0.16697672  1
  Sn  Sn35  1  0.16642135  0.16599961  0.16649227  1
  Sn  Sn36  1  0.49936886  0.83385288  0.83293846  1
  Sn  Sn37  1  0.16682070  0.49903768  0.49959788  1
  Sn  Sn38  1  0.83363402  0.16598256  0.49965842  1
  Sn  Sn39  1  0.50009016  0.16753622  0.16685816  1
  Pb  Pb40  1  0.16828043  0.50046988  0.16857693  1
  Pb  Pb41  1  0.50403474  0.83374084  0.50323755  1
  Pb  Pb42  1  0.83109051  0.49964759  0.16670716  1
  Pb  Pb43  1  0.49715959  0.49995044  0.49746219  1
  Pb  Pb44  1  0.83415106  0.83341574  0.83348741  1
  Pb  Pb45  1  0.16674856  0.50016597  0.83077427  1
  Pb  Pb46  1  0.83510825  0.49886085  0.49972914  1
  Pb  Pb47  1  0.50043947  0.16628243  0.49793047  1
  Pb  Pb48  1  0.16523408  0.83402237  0.49993112  1
  Pb  Pb49  1  0.83361806  0.49939395  0.83343762  1
  Pb  Pb50  1  0.83581034  0.16696376  0.83335995  1
  Pb  Pb51  1  0.50029024  0.83386912  0.16559060  1
  Pb  Pb52  1  0.49944790  0.50279279  0.83610184  1
  Pb  Pb53  1  0.49719092  0.16464140  0.83616779  1
  I  I54  1  0.16845704  0.00098843  0.16788328  1
  I  I55  1  0.16450201  0.00316116  0.49970274  1
  I  I56  1  0.17011436  -0.00006685  0.83308489  1
  I  I57  1  0.16434806  0.32985244  0.16446353  1
  I  I58  1  0.16065637  0.33066674  0.49864852  1
  I  I59  1  0.16476566  0.32988542  0.83729177  1
  I  I60  1  0.16449127  0.67009478  0.16384622  1
  I  I61  1  0.16524105  0.66536626  0.49926871  1
  I  I62  1  0.16953257  0.67025258  0.83716585  1
  I  I63  1  0.49927204  0.00281415  0.16529321  1
  I  I64  1  0.49366111  -0.00001813  0.49664422  1
  I  I65  1  0.49820539  -0.00295686  0.83660488  1
  I  I66  1  0.49874676  0.33150267  0.16736143  1
  I  I67  1  0.50378475  0.33306664  0.50203471  1
  I  I68  1  0.49973893  0.33313276  0.83246028  1
  I  I69  1  0.49889826  0.66521035  0.16461062  1
  I  I70  1  0.49826972  0.66689381  0.49637163  1
  I  I71  1  0.49325673  0.67047755  0.83631899  1
  I  I72  1  0.83241885  0.00051715  0.17042584  1
  I  I73  1  0.84029748  0.00094841  0.49532101  1
  I  I74  1  0.83068069  0.00001084  0.83301618  1
  I  I75  1  0.83708253  0.32934377  0.17115363  1
  I  I76  1  0.83785950  0.32930283  0.49340657  1
  I  I77  1  0.83537000  0.33256688  0.83419425  1
  I  I78  1  0.83627671  0.67016073  0.16963780  1
  I  I79  1  0.83524047  0.66939058  0.49633218  1
  I  I80  1  0.83493493  0.66732300  0.83319977  1
  I  I81  1  0.16716163  0.16125428  0.00131242  1
  I  I82  1  0.16627523  0.16686775  0.33242427  1
  I  I83  1  0.16116825  0.16563842  0.66612150  1
  I  I84  1  0.16785500  0.49817591  0.00023282  1
  I  I85  1  0.16694626  0.49517684  0.33616398  1
  I  I86  1  0.16542899  0.49643697  0.66296943  1
  I  I87  1  0.16555550  0.84063012  0.00109937  1
  I  I88  1  0.16548003  0.83596595  0.33044579  1
  I  I89  1  0.16875552  0.83617221  0.66902509  1
  I  I90  1  0.50128916  0.16952116  0.00437653  1
  I  I91  1  0.49492650  0.16809926  0.32935633  1
  I  I92  1  0.50033446  0.16567915  0.66707015  1
  I  I93  1  0.49795942  0.49451736  0.00363460  1
  I  I94  1  0.50035200  0.49724901  0.32974014  1
  I  I95  1  0.50063806  0.50119248  0.66681459  1
  I  I96  1  0.49916715  0.83361629  -0.00208911  1
  I  I97  1  0.49709815  0.83251971  0.33312564  1
  I  I98  1  0.49108181  0.83406039  0.67075312  1
  I  I99  1  0.83307768  0.16123864  0.00377089  1
  I  I100  1  0.83846349  0.16245342  0.33242183  1
  I  I101  1  0.84004530  0.16057735  0.66319283  1
  I  I102  1  0.83441636  0.50146007  0.00068939  1
  I  I103  1  0.83275004  0.50179672  0.33317448  1
  I  I104  1  0.83420098  0.50260303  0.66608163  1
  I  I105  1  0.83335821  0.83808325  0.00334126  1
  I  I106  1  0.83918918  0.83732505  0.33199711  1
  I  I107  1  0.83461282  0.83790439  0.66381716  1
  I  I108  1  0.00078483  0.16130782  0.16763105  1
  I  I109  1  0.00094074  0.16639636  0.49523172  1
  I  I110  1  0.00422845  0.15898794  0.83681808  1
  I  I111  1  0.00015651  0.49879819  0.16741036  1
  I  I112  1  0.00301674  0.49823447  0.49836781  1
  I  I113  1  0.00081255  0.50334734  0.83487242  1
  I  I114  1  0.00068695  0.84059711  0.16499382  1
  I  I115  1  -0.00262200  0.83468579  0.50011266  1
  I  I116  1  0.00341785  0.83770146  0.83437340  1
  I  I117  1  0.33173830  0.16629351  0.16666288  1
  I  I118  1  0.32984182  0.17030531  0.49903336  1
  I  I119  1  0.32896387  0.16467046  0.83239257  1
  I  I120  1  0.33591795  0.49548726  0.16780267  1
  I  I121  1  0.32928814  0.49372772  0.50008767  1
  I  I122  1  0.33306237  0.49862766  0.83294933  1
  I  I123  1  0.33054436  0.83617540  0.16478058  1
  I  I124  1  0.33318234  0.83275071  0.49738167  1
  I  I125  1  0.33131666  0.83673075  0.84016548  1
  I  I126  1  0.66771560  0.16554914  0.17194147  1
  I  I127  1  0.67035506  0.16105761  0.49409903  1
  I  I128  1  0.66640929  0.16520174  0.83346463  1
  I  I129  1  0.66330172  0.49703574  0.16655472  1
  I  I130  1  0.66662874  0.50093533  0.50022704  1
  I  I131  1  0.66609880  0.50224658  0.83273902  1
  I  I132  1  0.66945399  0.83624018  0.16803188  1
  I  I133  1  0.67186181  0.83945811  0.49232562  1
  I  I134  1  0.66471278  0.83223899  0.83533920  1
