# generated using pymatgen
data_Cs27Sn14Pb13I81
_symmetry_space_group_name_H-M   'P 1'
_cell_length_a   18.97872830
_cell_length_b   18.97924657
_cell_length_c   18.97040890
_cell_angle_alpha   89.99930559
_cell_angle_beta   89.99889882
_cell_angle_gamma   90.00003275
_symmetry_Int_Tables_number   1
_chemical_formula_structural   Cs27Sn14Pb13I81
_chemical_formula_sum   'Cs27 Sn14 Pb13 I81'
_cell_volume   6833.17853741
_cell_formula_units_Z   1
loop_
 _symmetry_equiv_pos_site_id
 _symmetry_equiv_pos_as_xyz
  1  'x, y, z'
loop_
 _atom_site_type_symbol
 _atom_site_label
 _atom_site_symmetry_multiplicity
 _atom_site_fract_x
 _atom_site_fract_y
 _atom_site_fract_z
 _atom_site_occupancy
  Cs  Cs0  1  -0.00113333  -0.00112095  -0.00071716  1
  Cs  Cs1  1  0.00292686  0.00045956  0.33619460  1
  Cs  Cs2  1  0.00024502  0.00123666  0.66385095  1
  Cs  Cs3  1  -0.00606119  0.33279199  -0.00721486  1
  Cs  Cs4  1  0.00131067  0.33208256  0.33229564  1
  Cs  Cs5  1  0.00028442  0.33080690  0.67378578  1
  Cs  Cs6  1  -0.00014477  0.66727925  0.00067045  1
  Cs  Cs7  1  0.00049845  0.66609282  0.33394508  1
  Cs  Cs8  1  -0.00312530  0.66585521  0.66422847  1
  Cs  Cs9  1  0.33425244  -0.00211460  0.00010666  1
  Cs  Cs10  1  0.33140080  0.00260746  0.33448827  1
  Cs  Cs11  1  0.33459252  -0.00130195  0.66717303  1
  Cs  Cs12  1  0.33247749  0.33660632  -0.00112955  1
  Cs  Cs13  1  0.33253215  0.33259980  0.33363104  1
  Cs  Cs14  1  0.33237477  0.33402253  0.66751758  1
  Cs  Cs15  1  0.33450552  0.66722543  0.00104282  1
  Cs  Cs16  1  0.33057368  0.66537594  0.32986962  1
  Cs  Cs17  1  0.33473706  0.66735883  0.66718518  1
  Cs  Cs18  1  0.66628255  -0.00141144  0.00020526  1
  Cs  Cs19  1  0.66427522  0.00542632  0.33440293  1
  Cs  Cs20  1  0.66404633  -0.00146219  0.66676425  1
  Cs  Cs21  1  0.67300883  0.33155657  0.00227018  1
  Cs  Cs22  1  0.66907581  0.33114299  0.33445656  1
  Cs  Cs23  1  0.66698193  0.33732267  0.66330930  1
  Cs  Cs24  1  0.66289507  0.67033914  -0.00004398  1
  Cs  Cs25  1  0.66911457  0.66351525  0.33936798  1
  Cs  Cs26  1  0.66677519  0.66491371  0.65989548  1
  Sn  Sn27  1  0.50007369  0.83296147  0.83401445  1
  Sn  Sn28  1  0.83321189  0.83322915  0.83375840  1
  Sn  Sn29  1  0.49999870  0.50016896  0.83453341  1
  Sn  Sn30  1  0.16685660  0.49908313  0.49961869  1
  Sn  Sn31  1  0.49962251  0.50049097  0.16585242  1
  Sn  Sn32  1  0.49990553  0.16697237  0.83382556  1
  Sn  Sn33  1  0.16598005  0.16791715  0.49959078  1
  Sn  Sn34  1  0.16652628  0.83321729  0.83398298  1
  Sn  Sn35  1  0.16689369  0.49960919  0.16680156  1
  Sn  Sn36  1  0.16664318  0.83340944  0.16581601  1
  Sn  Sn37  1  0.83406358  0.16660158  0.49998781  1
  Sn  Sn38  1  0.50014649  0.83266376  0.16670548  1
  Sn  Sn39  1  0.83312932  0.83328694  0.16657656  1
  Sn  Sn40  1  0.16658966  0.16702274  0.16632259  1
  Pb  Pb41  1  0.49750051  0.49999758  0.49894670  1
  Pb  Pb42  1  0.16682604  0.83325156  0.49966325  1
  Pb  Pb43  1  0.49793244  0.16705376  0.16473352  1
  Pb  Pb44  1  0.83065852  0.16421459  0.83134652  1
  Pb  Pb45  1  0.83335331  0.83524223  0.49954785  1
  Pb  Pb46  1  0.83610877  0.16403054  0.16810930  1
  Pb  Pb47  1  0.83327868  0.50229940  0.16653020  1
  Pb  Pb48  1  0.82996415  0.50294466  0.83363677  1
  Pb  Pb49  1  0.49986688  0.83318676  0.49887771  1
  Pb  Pb50  1  0.16820099  0.16443234  0.83348674  1
  Pb  Pb51  1  0.49909130  0.16685409  0.50231584  1
  Pb  Pb52  1  0.16812678  0.50254292  0.83380792  1
  Pb  Pb53  1  0.83677395  0.49714990  0.49983713  1
  I  I54  1  0.16709278  -0.00100949  0.16738994  1
  I  I55  1  0.16321103  0.00276480  0.49699189  1
  I  I56  1  0.17000486  -0.00375177  0.83700904  1
  I  I57  1  0.17364211  0.33387354  0.17339594  1
  I  I58  1  0.16423294  0.33286970  0.49142038  1
  I  I59  1  0.16977739  0.33345869  0.83489884  1
  I  I60  1  0.16791117  0.66717531  0.16729240  1
  I  I61  1  0.16912136  0.66413971  0.49669180  1
  I  I62  1  0.16911954  0.67070508  0.83673271  1
  I  I63  1  0.49913647  -0.00313000  0.16239803  1
  I  I64  1  0.49747484  0.00016475  0.50081982  1
  I  I65  1  0.49970031  -0.00196657  0.83582743  1
  I  I66  1  0.49372385  0.33631362  0.16228091  1
  I  I67  1  0.50216812  0.33338722  0.50154223  1
  I  I68  1  0.49691442  0.33411267  0.83611746  1
  I  I69  1  0.49383129  0.66751920  0.15806867  1
  I  I70  1  0.49877422  0.66650595  0.50565397  1
  I  I71  1  0.49907072  0.66784768  0.83784391  1
  I  I72  1  0.83181846  -0.00418788  0.16243208  1
  I  I73  1  0.84204981  0.00274118  0.50002175  1
  I  I74  1  0.83122870  -0.00390713  0.83730281  1
  I  I75  1  0.83231753  0.33308132  0.16913468  1
  I  I76  1  0.83367085  0.32948865  0.49974491  1
  I  I77  1  0.83217192  0.33321711  0.83126594  1
  I  I78  1  0.83804213  0.67075508  0.16266503  1
  I  I79  1  0.83368770  0.66660139  0.50096000  1
  I  I80  1  0.83341508  0.67131940  0.83698032  1
  I  I81  1  0.16994201  0.16762729  0.00286835  1
  I  I82  1  0.16444427  0.16390096  0.33279549  1
  I  I83  1  0.16451614  0.16965160  0.66408739  1
  I  I84  1  0.16967221  0.49865583  0.00337557  1
  I  I85  1  0.17244763  0.50198321  0.33161437  1
  I  I86  1  0.16836211  0.49638639  0.66455953  1
  I  I87  1  0.16754376  0.83380054  0.00130329  1
  I  I88  1  0.16700981  0.83350367  0.32958498  1
  I  I89  1  0.16782131  0.83387792  0.66965243  1
  I  I90  1  0.49736790  0.16398352  -0.00318413  1
  I  I91  1  0.50155735  0.16559086  0.33308634  1
  I  I92  1  0.49772574  0.16395052  0.67048601  1
  I  I93  1  0.49241807  0.50259935  0.00056962  1
  I  I94  1  0.49746586  0.50636525  0.32946321  1
  I  I95  1  0.49901483  0.50174430  0.66956060  1
  I  I96  1  0.49919014  0.83296580  -0.00029714  1
  I  I97  1  0.49873483  0.82872673  0.32868614  1
  I  I98  1  0.49968047  0.83312840  0.67048102  1
  I  I99  1  0.83418836  0.16765836  -0.00008959  1
  I  I100  1  0.83404431  0.16353143  0.33608713  1
  I  I101  1  0.84167735  0.16406514  0.66369851  1
  I  I102  1  0.83982866  0.49516177  0.00004693  1
  I  I103  1  0.82768790  0.50399120  0.33322735  1
  I  I104  1  0.83275812  0.50365368  0.66671095  1
  I  I105  1  0.83344064  0.83433426  0.00010968  1
  I  I106  1  0.83470784  0.83398690  0.32989354  1
  I  I107  1  0.83274728  0.83480182  0.66980408  1
  I  I108  1  0.00453287  0.16653192  0.16791719  1
  I  I109  1  0.00181092  0.16882220  0.49592248  1
  I  I110  1  0.00003727  0.16448281  0.83427060  1
  I  I111  1  0.00356123  0.50199950  0.17236187  1
  I  I112  1  0.00468236  0.50117677  0.49285305  1
  I  I113  1  0.00005568  0.50160087  0.83251422  1
  I  I114  1  0.00120401  0.83388378  0.16063479  1
  I  I115  1  0.00028204  0.83157301  0.50137175  1
  I  I116  1  0.00042031  0.83428727  0.83983997  1
  I  I117  1  0.32979308  0.16124581  0.17288539  1
  I  I118  1  0.32972211  0.16964613  0.49644902  1
  I  I119  1  0.33604172  0.16265270  0.83137977  1
  I  I120  1  0.33268286  0.50537238  0.16682568  1
  I  I121  1  0.32977472  0.49318235  0.49842168  1
  I  I122  1  0.33632302  0.50311304  0.83383552  1
  I  I123  1  0.33291258  0.83261145  0.16102940  1
  I  I124  1  0.33307439  0.83695267  0.50253161  1
  I  I125  1  0.33411305  0.83378235  0.83825585  1
  I  I126  1  0.66664869  0.16625437  0.16848965  1
  I  I127  1  0.66887403  0.16302496  0.50220927  1
  I  I128  1  0.66281092  0.16381290  0.83234559  1
  I  I129  1  0.66308972  0.50488214  0.16136848  1
  I  I130  1  0.66669040  0.49897583  0.50049783  1
  I  I131  1  0.66162634  0.50112255  0.83939865  1
  I  I132  1  0.66562420  0.82925579  0.15942571  1
  I  I133  1  0.66670560  0.83643962  0.50049671  1
  I  I134  1  0.66557514  0.83455766  0.83962601  1
