# generated using pymatgen
data_Cs27Sn13Pb14I81
_symmetry_space_group_name_H-M   'P 1'
_cell_length_a   18.97049149
_cell_length_b   18.97528628
_cell_length_c   18.98496295
_cell_angle_alpha   90.00103174
_cell_angle_beta   90.00094396
_cell_angle_gamma   90.00084145
_symmetry_Int_Tables_number   1
_chemical_formula_structural   Cs27Sn13Pb14I81
_chemical_formula_sum   'Cs27 Sn13 Pb14 I81'
_cell_volume   6834.02673437
_cell_formula_units_Z   1
loop_
 _symmetry_equiv_pos_site_id
 _symmetry_equiv_pos_as_xyz
  1  'x, y, z'
loop_
 _atom_site_type_symbol
 _atom_site_label
 _atom_site_symmetry_multiplicity
 _atom_site_fract_x
 _atom_site_fract_y
 _atom_site_fract_z
 _atom_site_occupancy
  Cs  Cs0  1  0.00184465  -0.00097354  -0.00237854  1
  Cs  Cs1  1  -0.00069845  -0.00023138  0.33343255  1
  Cs  Cs2  1  0.00172089  -0.00158424  0.66914199  1
  Cs  Cs3  1  -0.00125107  0.33396459  0.00198474  1
  Cs  Cs4  1  -0.00300440  0.34046672  0.33056373  1
  Cs  Cs5  1  0.00067749  0.33561673  0.66688197  1
  Cs  Cs6  1  -0.00042834  0.66744208  0.00003686  1
  Cs  Cs7  1  -0.00105301  0.66108904  0.33510299  1
  Cs  Cs8  1  -0.00242641  0.66677513  0.66464119  1
  Cs  Cs9  1  0.33213922  -0.00169967  0.00200078  1
  Cs  Cs10  1  0.33399185  -0.00080613  0.33227889  1
  Cs  Cs11  1  0.33112218  -0.00009259  0.66653989  1
  Cs  Cs12  1  0.33396485  0.33338519  -0.00325417  1
  Cs  Cs13  1  0.33076486  0.33760827  0.33556239  1
  Cs  Cs14  1  0.33537668  0.33240486  0.66761690  1
  Cs  Cs15  1  0.33388691  0.66927481  0.00120842  1
  Cs  Cs16  1  0.33494774  0.66501545  0.33345981  1
  Cs  Cs17  1  0.33364994  0.66862388  0.66512110  1
  Cs  Cs18  1  0.66639525  -0.00090219  0.00341731  1
  Cs  Cs19  1  0.66853062  0.00619555  0.33202084  1
  Cs  Cs20  1  0.66844281  0.00067047  0.66381952  1
  Cs  Cs21  1  0.66837180  0.33477213  -0.00318838  1
  Cs  Cs22  1  0.67228297  0.32321007  0.33155503  1
  Cs  Cs23  1  0.66325722  0.33305487  0.67051945  1
  Cs  Cs24  1  0.66609373  0.66594987  -0.00110038  1
  Cs  Cs25  1  0.66203541  0.66934945  0.33509149  1
  Cs  Cs26  1  0.66756346  0.66549759  0.66679976  1
  Sn  Sn27  1  0.16564774  0.83371117  0.16807314  1
  Sn  Sn28  1  0.16679983  0.16624655  0.16692910  1
  Sn  Sn29  1  0.50026782  0.49950026  0.16756335  1
  Sn  Sn30  1  0.50014819  0.50024441  0.49893525  1
  Sn  Sn31  1  0.16658767  0.16614050  0.49965765  1
  Sn  Sn32  1  0.83411228  0.16569095  0.83317039  1
  Sn  Sn33  1  0.49928271  0.83308613  0.50078264  1
  Sn  Sn34  1  0.16593152  0.16777429  0.83341420  1
  Sn  Sn35  1  0.83211525  0.83426806  0.83408326  1
  Sn  Sn36  1  0.50113662  0.83365276  0.83246041  1
  Sn  Sn37  1  0.16726643  0.83395404  0.49871046  1
  Sn  Sn38  1  0.16662945  0.49926256  0.83337354  1
  Sn  Sn39  1  0.83422694  0.83307206  0.16630537  1
  Pb  Pb40  1  0.83333995  0.83334277  0.49985251  1
  Pb  Pb41  1  0.83026887  0.50282658  0.16671264  1
  Pb  Pb42  1  0.83668671  0.16663705  0.50273261  1
  Pb  Pb43  1  0.49788097  0.16629426  0.49993860  1
  Pb  Pb44  1  0.83600243  0.16446202  0.16432566  1
  Pb  Pb45  1  0.49986545  0.16372438  0.83345197  1
  Pb  Pb46  1  0.16813440  0.50029458  0.50199254  1
  Pb  Pb47  1  0.16643259  0.83369890  0.83317253  1
  Pb  Pb48  1  0.82945174  0.49982303  0.49997183  1
  Pb  Pb49  1  0.49741854  0.16976164  0.16656363  1
  Pb  Pb50  1  0.49998438  0.83253967  0.16724129  1
  Pb  Pb51  1  0.83568337  0.50029653  0.83335708  1
  Pb  Pb52  1  0.16803975  0.50036177  0.16481490  1
  Pb  Pb53  1  0.49814951  0.50236308  0.83304377  1
  I  I54  1  0.16447642  -0.00073556  0.16433090  1
  I  I55  1  0.17242036  -0.00088863  0.50209509  1
  I  I56  1  0.16590230  0.00240132  0.83299881  1
  I  I57  1  0.16987621  0.33055566  0.16771331  1
  I  I58  1  0.16832706  0.33060908  0.49944877  1
  I  I59  1  0.16269674  0.33149302  0.83324404  1
  I  I60  1  0.16504919  0.66996356  0.16854799  1
  I  I61  1  0.16907400  0.66986793  0.49781496  1
  I  I62  1  0.16825616  0.66542551  0.83369924  1
  I  I63  1  0.50093715  -0.00009273  0.16626851  1
  I  I64  1  0.49704589  -0.00347857  0.50489874  1
  I  I65  1  0.49787964  -0.00440394  0.82822861  1
  I  I66  1  0.49692355  0.33758772  0.17201980  1
  I  I67  1  0.49716961  0.33611785  0.49688930  1
  I  I68  1  0.50141624  0.33336863  0.83277138  1
  I  I69  1  0.49680694  0.66484916  0.16730709  1
  I  I70  1  0.49311428  0.66817347  0.50025088  1
  I  I71  1  0.50249920  0.67036467  0.83233919  1
  I  I72  1  0.83324296  -0.00366122  0.16455988  1
  I  I73  1  0.82809486  -0.00018852  0.49862619  1
  I  I74  1  0.83692401  -0.00088561  0.83644302  1
  I  I75  1  0.83365796  0.33307895  0.16523828  1
  I  I76  1  0.83415712  0.33305688  0.50165997  1
  I  I77  1  0.83669897  0.33032346  0.83257207  1
  I  I78  1  0.84130075  0.67105306  0.15916284  1
  I  I79  1  0.83944210  0.66713575  0.50319926  1
  I  I80  1  0.83138188  0.67018673  0.83663494  1
  I  I81  1  0.16345186  0.16565130  -0.00036760  1
  I  I82  1  0.17013871  0.16012678  0.33332004  1
  I  I83  1  0.16376569  0.16532954  0.66700821  1
  I  I84  1  0.17010794  0.49724870  -0.00291697  1
  I  I85  1  0.16703549  0.49773704  0.33344156  1
  I  I86  1  0.16924105  0.49716161  0.66968479  1
  I  I87  1  0.16705848  0.83559084  0.00197656  1
  I  I88  1  0.16788364  0.84057025  0.33338109  1
  I  I89  1  0.16840421  0.83566676  0.66455427  1
  I  I90  1  0.49589667  0.16647650  -0.00016021  1
  I  I91  1  0.49905827  0.16171765  0.33332848  1
  I  I92  1  0.49713098  0.17070121  0.66678173  1
  I  I93  1  0.49727780  0.50259309  0.00168745  1
  I  I94  1  0.49636054  0.50884784  0.33422101  1
  I  I95  1  0.49726980  0.50324406  0.66418373  1
  I  I96  1  0.49955489  0.83141694  -0.00194900  1
  I  I97  1  0.49749314  0.82982535  0.33605047  1
  I  I98  1  0.49809350  0.82790757  0.66607258  1
  I  I99  1  0.83985008  0.16402437  -0.00356562  1
  I  I100  1  0.83307399  0.16505384  0.33306331  1
  I  I101  1  0.83889080  0.15918176  0.67088657  1
  I  I102  1  0.83044757  0.49934031  -0.00009384  1
  I  I103  1  0.83839291  0.50197305  0.33312298  1
  I  I104  1  0.83294253  0.50298391  0.66707342  1
  I  I105  1  0.83393582  0.83690860  -0.00083243  1
  I  I106  1  0.83465872  0.83227391  0.33052021  1
  I  I107  1  0.83326143  0.83674131  0.66969111  1
  I  I108  1  0.00437977  0.16538505  0.16810588  1
  I  I109  1  0.00509546  0.15860169  0.49913946  1
  I  I110  1  0.00144237  0.16315752  0.83303854  1
  I  I111  1  0.00008457  0.49882134  0.16456558  1
  I  I112  1  0.00038819  0.50108192  0.50212780  1
  I  I113  1  0.00373090  0.50095769  0.83371446  1
  I  I114  1  0.00122576  0.83736651  0.16453392  1
  I  I115  1  0.00332313  0.83823718  0.50069309  1
  I  I116  1  -0.00206400  0.83437858  0.83429923  1
  I  I117  1  0.32872664  0.15842501  0.16290746  1
  I  I118  1  0.32927129  0.16467114  0.50391774  1
  I  I119  1  0.32966747  0.16903417  0.83286956  1
  I  I120  1  0.33569548  0.50348929  0.16952888  1
  I  I121  1  0.33599346  0.50282505  0.49735825  1
  I  I122  1  0.33033068  0.49533982  0.83346927  1
  I  I123  1  0.33051104  0.83566333  0.16600856  1
  I  I124  1  0.33280911  0.83324941  0.50114863  1
  I  I125  1  0.33494591  0.83229179  0.83269360  1
  I  I126  1  0.66709604  0.16572895  0.16524230  1
  I  I127  1  0.66677510  0.16690194  0.50163104  1
  I  I128  1  0.66962595  0.16430799  0.83352884  1
  I  I129  1  0.66243189  0.50356653  0.16915557  1
  I  I130  1  0.66124278  0.50956893  0.49871971  1
  I  I131  1  0.66650606  0.49791482  0.83295713  1
  I  I132  1  0.66885476  0.82984287  0.16392158  1
  I  I133  1  0.66356560  0.82736259  0.50197922  1
  I  I134  1  0.66720657  0.83715022  0.83411129  1
