# generated using pymatgen
data_Cs27Sn14Pb13I81
_symmetry_space_group_name_H-M   'P 1'
_cell_length_a   18.97147325
_cell_length_b   18.98450014
_cell_length_c   18.97209398
_cell_angle_alpha   89.99922529
_cell_angle_beta   90.00090890
_cell_angle_gamma   89.99938819
_symmetry_Int_Tables_number   1
_chemical_formula_structural   Cs27Sn14Pb13I81
_chemical_formula_sum   'Cs27 Sn14 Pb13 I81'
_cell_volume   6833.06404635
_cell_formula_units_Z   1
loop_
 _symmetry_equiv_pos_site_id
 _symmetry_equiv_pos_as_xyz
  1  'x, y, z'
loop_
 _atom_site_type_symbol
 _atom_site_label
 _atom_site_symmetry_multiplicity
 _atom_site_fract_x
 _atom_site_fract_y
 _atom_site_fract_z
 _atom_site_occupancy
  Cs  Cs0  1  0.00063630  -0.00081535  0.00249923  1
  Cs  Cs1  1  -0.00000515  0.00085023  0.33258338  1
  Cs  Cs2  1  -0.00067376  0.00705693  0.66527685  1
  Cs  Cs3  1  -0.00052008  0.33410151  -0.00874762  1
  Cs  Cs4  1  0.00255162  0.32699387  0.33569669  1
  Cs  Cs5  1  0.00369951  0.32679454  0.67629915  1
  Cs  Cs6  1  -0.00317663  0.66609610  0.00108167  1
  Cs  Cs7  1  -0.00065584  0.66861724  0.33269668  1
  Cs  Cs8  1  0.00180490  0.66446536  0.66580507  1
  Cs  Cs9  1  0.33354563  -0.00219674  0.00077667  1
  Cs  Cs10  1  0.33224576  -0.00074203  0.33198697  1
  Cs  Cs11  1  0.33529695  -0.00145091  0.66754966  1
  Cs  Cs12  1  0.33415985  0.33228895  0.00334597  1
  Cs  Cs13  1  0.33634077  0.33476807  0.32992867  1
  Cs  Cs14  1  0.33042799  0.33541899  0.66816059  1
  Cs  Cs15  1  0.33293206  0.67047012  -0.00077540  1
  Cs  Cs16  1  0.33122201  0.66683525  0.33476874  1
  Cs  Cs17  1  0.33493074  0.66595774  0.66503453  1
  Cs  Cs18  1  0.66551837  -0.00270949  -0.00037383  1
  Cs  Cs19  1  0.66784756  0.00030635  0.33438444  1
  Cs  Cs20  1  0.66567781  -0.00048801  0.66656331  1
  Cs  Cs21  1  0.66670151  0.33738141  0.00181799  1
  Cs  Cs22  1  0.66265220  0.33512616  0.33380115  1
  Cs  Cs23  1  0.66813672  0.33326962  0.66528659  1
  Cs  Cs24  1  0.67212516  0.66618824  0.00016519  1
  Cs  Cs25  1  0.66956256  0.66520752  0.33498619  1
  Cs  Cs26  1  0.66386088  0.66767032  0.66492172  1
  Sn  Sn27  1  0.16730054  0.83294837  0.16604476  1
  Sn  Sn28  1  0.50056014  0.50006250  0.50083748  1
  Sn  Sn29  1  0.50067487  0.83336433  0.49874506  1
  Sn  Sn30  1  0.16632876  0.50025244  0.16670922  1
  Sn  Sn31  1  0.49982293  0.83294681  0.16787116  1
  Sn  Sn32  1  0.50012286  0.16803631  0.83266200  1
  Sn  Sn33  1  0.83484102  0.83344773  0.83185428  1
  Sn  Sn34  1  0.16552353  0.16671038  0.16641815  1
  Sn  Sn35  1  0.50008624  0.49897852  0.83292549  1
  Sn  Sn36  1  0.49986887  0.16664769  0.50091207  1
  Sn  Sn37  1  0.16513258  0.83331651  0.83354498  1
  Sn  Sn38  1  0.83283227  0.83268534  0.50110091  1
  Sn  Sn39  1  0.83374976  0.16696121  0.16650517  1
  Sn  Sn40  1  0.83359541  0.50006006  0.50022311  1
  Pb  Pb41  1  0.83122411  0.50215189  0.83070712  1
  Pb  Pb42  1  0.83139020  0.16683967  0.49865435  1
  Pb  Pb43  1  0.83605968  0.49716134  0.16933727  1
  Pb  Pb44  1  0.49874833  0.50291497  0.16683734  1
  Pb  Pb45  1  0.49992682  0.16471365  0.16666232  1
  Pb  Pb46  1  0.83076738  0.16440622  0.83553250  1
  Pb  Pb47  1  0.16920353  0.16427810  0.83564846  1
  Pb  Pb48  1  0.50011671  0.83299789  0.83299959  1
  Pb  Pb49  1  0.16616964  0.83339584  0.50017208  1
  Pb  Pb50  1  0.16974588  0.16676809  0.49796571  1
  Pb  Pb51  1  0.16898075  0.50240404  0.83548244  1
  Pb  Pb52  1  0.83359783  0.83437119  0.16727860  1
  Pb  Pb53  1  0.16630184  0.49982823  0.49843826  1
  I  I54  1  0.16782991  -0.00089127  0.16301396  1
  I  I55  1  0.16735000  -0.00017892  0.49691279  1
  I  I56  1  0.16678201  -0.00356281  0.83968176  1
  I  I57  1  0.16401529  0.33281227  0.17026998  1
  I  I58  1  0.16694175  0.33330028  0.49569794  1
  I  I59  1  0.16654346  0.33327104  0.83514155  1
  I  I60  1  0.17325312  0.66814125  0.16359887  1
  I  I61  1  0.17183421  0.66686705  0.49661052  1
  I  I62  1  0.16645314  0.67031226  0.84007072  1
  I  I63  1  0.49503967  -0.00314363  0.16938323  1
  I  I64  1  0.50337714  -0.00094235  0.49964839  1
  I  I65  1  0.49969289  0.00142333  0.83121122  1
  I  I66  1  0.49832527  0.33343119  0.16869968  1
  I  I67  1  0.50394421  0.33387213  0.50327382  1
  I  I68  1  0.49968492  0.33336046  0.82622044  1
  I  I69  1  0.49443850  0.67086353  0.16931114  1
  I  I70  1  0.50344658  0.66700701  0.50032253  1
  I  I71  1  0.49911719  0.66485557  0.83034152  1
  I  I72  1  0.83745538  0.00194145  0.16876962  1
  I  I73  1  0.82840924  -0.00288645  0.50163307  1
  I  I74  1  0.83372436  -0.00362414  0.82745589  1
  I  I75  1  0.83601780  0.32968941  0.16876928  1
  I  I76  1  0.82696484  0.33585695  0.49445876  1
  I  I77  1  0.83380196  0.33333390  0.83336361  1
  I  I78  1  0.83336561  0.66656872  0.16502546  1
  I  I79  1  0.82423582  0.66781548  0.50224018  1
  I  I80  1  0.83357380  0.67029394  0.83472796  1
  I  I81  1  0.16628712  0.16739565  0.00387540  1
  I  I82  1  0.16520853  0.16205729  0.32935239  1
  I  I83  1  0.16571966  0.16496805  0.66713477  1
  I  I84  1  0.16934753  0.49836451  0.00359179  1
  I  I85  1  0.17018690  0.50379252  0.33010278  1
  I  I86  1  0.16658071  0.50285929  0.66694718  1
  I  I87  1  0.16899989  0.83390635  0.00149167  1
  I  I88  1  0.16886153  0.83390644  0.33016747  1
  I  I89  1  0.16815158  0.83259508  0.66936954  1
  I  I90  1  0.49937467  0.16831756  -0.00206850  1
  I  I91  1  0.49984417  0.16833708  0.33582622  1
  I  I92  1  0.50125957  0.16306806  0.66587438  1
  I  I93  1  0.49687627  0.49661578  -0.00223897  1
  I  I94  1  0.50200401  0.49750645  0.33642699  1
  I  I95  1  0.50275365  0.50278644  0.66534985  1
  I  I96  1  0.49850807  0.83485867  0.00179572  1
  I  I97  1  0.49951755  0.83439658  0.33439148  1
  I  I98  1  0.50054820  0.83355210  0.66387115  1
  I  I99  1  0.83520256  0.16337179  0.00326357  1
  I  I100  1  0.83532952  0.16281962  0.33079246  1
  I  I101  1  0.83348131  0.16712943  0.66672807  1
  I  I102  1  0.83149813  0.50130296  -0.00006427  1
  I  I103  1  0.82424502  0.50873397  0.33685991  1
  I  I104  1  0.83047430  0.50206178  0.66267593  1
  I  I105  1  0.83234049  0.83623013  -0.00172859  1
  I  I106  1  0.83112205  0.83125205  0.33611952  1
  I  I107  1  0.83061338  0.83033859  0.66569035  1
  I  I108  1  0.00103322  0.16222704  0.16863350  1
  I  I109  1  -0.00016298  0.16588913  0.49858333  1
  I  I110  1  0.00005307  0.16704737  0.83289597  1
  I  I111  1  0.00376153  0.50787943  0.16856154  1
  I  I112  1  -0.00319304  0.50830238  0.49515775  1
  I  I113  1  -0.00001676  0.49973782  0.83264517  1
  I  I114  1  0.00288044  0.83275949  0.16569096  1
  I  I115  1  -0.00328253  0.82785699  0.49960284  1
  I  I116  1  0.00004927  0.83299067  0.83562074  1
  I  I117  1  0.33098210  0.16654494  0.16699368  1
  I  I118  1  0.33833023  0.16508873  0.50111696  1
  I  I119  1  0.33709011  0.16670565  0.83148851  1
  I  I120  1  0.33081126  0.49580998  0.16875831  1
  I  I121  1  0.33695407  0.50172817  0.50215474  1
  I  I122  1  0.33699854  0.49959459  0.82622113  1
  I  I123  1  0.33270705  0.83624207  0.16591271  1
  I  I124  1  0.33654973  0.83269439  0.49885973  1
  I  I125  1  0.33168750  0.83386189  0.83633867  1
  I  I126  1  0.66816433  0.16249197  0.16726664  1
  I  I127  1  0.66303676  0.16529716  0.49963705  1
  I  I128  1  0.66288439  0.16624959  0.83232472  1
  I  I129  1  0.66672651  0.49969336  0.16475282  1
  I  I130  1  0.66504012  0.50192420  0.50235203  1
  I  I131  1  0.66299996  0.49940934  0.83365714  1
  I  I132  1  0.66447408  0.83671517  0.16669745  1
  I  I133  1  0.66549662  0.83293322  0.49973040  1
  I  I134  1  0.66847213  0.83390210  0.83330321  1
