# generated using pymatgen
data_Cs27Sn14Pb13I81
_symmetry_space_group_name_H-M   'P 1'
_cell_length_a   18.96341896
_cell_length_b   18.98448388
_cell_length_c   18.97965489
_cell_angle_alpha   90.00003130
_cell_angle_beta   89.99958850
_cell_angle_gamma   90.00091355
_symmetry_Int_Tables_number   1
_chemical_formula_structural   Cs27Sn14Pb13I81
_chemical_formula_sum   'Cs27 Sn14 Pb13 I81'
_cell_volume   6832.87924754
_cell_formula_units_Z   1
loop_
 _symmetry_equiv_pos_site_id
 _symmetry_equiv_pos_as_xyz
  1  'x, y, z'
loop_
 _atom_site_type_symbol
 _atom_site_label
 _atom_site_symmetry_multiplicity
 _atom_site_fract_x
 _atom_site_fract_y
 _atom_site_fract_z
 _atom_site_occupancy
  Cs  Cs0  1  0.00187356  -0.00272360  -0.00144954  1
  Cs  Cs1  1  0.00772919  -0.00911818  0.34002899  1
  Cs  Cs2  1  -0.00209727  0.00151282  0.66424089  1
  Cs  Cs3  1  -0.00223490  0.33429001  0.00027474  1
  Cs  Cs4  1  0.00840906  0.33256933  0.33349629  1
  Cs  Cs5  1  -0.00201410  0.33087571  0.66445444  1
  Cs  Cs6  1  -0.00082556  0.66816716  0.00056725  1
  Cs  Cs7  1  0.00498431  0.67563704  0.33393871  1
  Cs  Cs8  1  0.00198147  0.66664252  0.66685973  1
  Cs  Cs9  1  0.33381344  0.00087909  -0.00186748  1
  Cs  Cs10  1  0.33288155  0.00168209  0.33317375  1
  Cs  Cs11  1  0.33497457  -0.00085086  0.66994676  1
  Cs  Cs12  1  0.33094065  0.33323417  -0.00039924  1
  Cs  Cs13  1  0.33285055  0.33181587  0.33244899  1
  Cs  Cs14  1  0.33211327  0.33572721  0.66747967  1
  Cs  Cs15  1  0.33243960  0.66409604  -0.00586200  1
  Cs  Cs16  1  0.33131527  0.66687966  0.33469743  1
  Cs  Cs17  1  0.33281695  0.66440360  0.67112808  1
  Cs  Cs18  1  0.66613885  0.00197596  0.00077186  1
  Cs  Cs19  1  0.66561389  -0.00179179  0.33276161  1
  Cs  Cs20  1  0.66814137  0.00224116  0.66628550  1
  Cs  Cs21  1  0.66873036  0.33280687  0.00386191  1
  Cs  Cs22  1  0.66433024  0.33665178  0.33035984  1
  Cs  Cs23  1  0.66912020  0.33285907  0.66447019  1
  Cs  Cs24  1  0.66698853  0.66623605  0.00004664  1
  Cs  Cs25  1  0.66735583  0.66442643  0.33226646  1
  Cs  Cs26  1  0.66494426  0.66525564  0.66725687  1
  Sn  Sn27  1  0.50045223  0.83300523  0.49927050  1
  Sn  Sn28  1  0.50047533  0.16695873  0.49980640  1
  Sn  Sn29  1  0.16709934  0.16620670  0.83353731  1
  Sn  Sn30  1  0.16557504  0.83420971  0.83337284  1
  Sn  Sn31  1  0.83334151  0.16656674  0.16748421  1
  Sn  Sn32  1  0.50063488  0.50005036  0.49922204  1
  Sn  Sn33  1  0.83290147  0.49991250  0.49900439  1
  Sn  Sn34  1  0.83308896  0.49930634  0.16769592  1
  Sn  Sn35  1  0.50020586  0.83303058  0.16715015  1
  Sn  Sn36  1  0.49959757  0.16710043  0.83345963  1
  Sn  Sn37  1  0.50024605  0.50019249  0.16718169  1
  Sn  Sn38  1  0.83299143  0.50073674  0.83337651  1
  Sn  Sn39  1  0.83363999  0.83282722  0.83335986  1
  Sn  Sn40  1  0.50074476  0.16676519  0.16671415  1
  Pb  Pb41  1  0.83091278  0.83105829  0.50229293  1
  Pb  Pb42  1  0.16934745  0.16665839  0.50270799  1
  Pb  Pb43  1  0.83137078  0.16866930  0.49620724  1
  Pb  Pb44  1  0.16691725  0.50003789  0.49986056  1
  Pb  Pb45  1  0.16335142  0.49946489  0.83339922  1
  Pb  Pb46  1  0.50047032  0.83512168  0.83339422  1
  Pb  Pb47  1  0.16638265  0.16651530  0.16474742  1
  Pb  Pb48  1  0.83151195  0.83338044  0.16521058  1
  Pb  Pb49  1  0.17013902  0.83336618  0.16418073  1
  Pb  Pb50  1  0.16648813  0.50008306  0.16669757  1
  Pb  Pb51  1  0.83326528  0.16672575  0.83493873  1
  Pb  Pb52  1  0.16985101  0.83333005  0.50293310  1
  Pb  Pb53  1  0.50217037  0.49714672  0.83354587  1
  I  I54  1  0.16645792  -0.00003734  0.16625538  1
  I  I55  1  0.16766245  -0.00003234  0.49882865  1
  I  I56  1  0.16607059  0.00014945  0.83444393  1
  I  I57  1  0.17077734  0.33322566  0.16311499  1
  I  I58  1  0.16875238  0.33326499  0.50365329  1
  I  I59  1  0.17174917  0.33046472  0.83378272  1
  I  I60  1  0.16692785  0.66679838  0.16309900  1
  I  I61  1  0.16969420  0.66680057  0.50335136  1
  I  I62  1  0.16601183  0.66927594  0.83327892  1
  I  I63  1  0.50368417  0.00094746  0.16806961  1
  I  I64  1  0.49834565  0.00037988  0.49792049  1
  I  I65  1  0.50096936  0.00309685  0.83386702  1
  I  I66  1  0.50397460  0.33330484  0.16837548  1
  I  I67  1  0.50368754  0.33363858  0.49836466  1
  I  I68  1  0.49567018  0.32915713  0.83346292  1
  I  I69  1  0.50420855  0.66577046  0.17267240  1
  I  I70  1  0.50388616  0.66589074  0.49376985  1
  I  I71  1  0.49731237  0.66647163  0.83341665  1
  I  I72  1  0.82592961  0.00253081  0.16074460  1
  I  I73  1  0.83099680  0.00001224  0.50208544  1
  I  I74  1  0.83328285  -0.00193483  0.83610238  1
  I  I75  1  0.82359837  0.33425640  0.16204164  1
  I  I76  1  0.82644685  0.33691726  0.50796193  1
  I  I77  1  0.83186183  0.33585397  0.83233823  1
  I  I78  1  0.82782570  0.66350761  0.16646469  1
  I  I79  1  0.82634272  0.66278096  0.49583896  1
  I  I80  1  0.83766276  0.66620787  0.83567769  1
  I  I81  1  0.17384611  0.16298724  -0.00325413  1
  I  I82  1  0.16722607  0.16792886  0.33338193  1
  I  I83  1  0.17119489  0.16297204  0.67086123  1
  I  I84  1  0.16891475  0.50025037  -0.00025255  1
  I  I85  1  0.16369582  0.49959256  0.33330823  1
  I  I86  1  0.16873690  0.50033924  0.66690422  1
  I  I87  1  0.16514594  0.83738482  -0.00374903  1
  I  I88  1  0.16472408  0.83266248  0.33351149  1
  I  I89  1  0.16486178  0.83744558  0.67072610  1
  I  I90  1  0.49990351  0.16565886  0.00078210  1
  I  I91  1  0.50521200  0.16674989  0.33275806  1
  I  I92  1  0.49511576  0.16580997  0.66659230  1
  I  I93  1  0.50394740  0.50076198  0.00293528  1
  I  I94  1  0.50776701  0.49603727  0.33304514  1
  I  I95  1  0.50374163  0.50053367  0.66402326  1
  I  I96  1  0.50023283  0.83360416  0.00242559  1
  I  I97  1  0.50152185  0.83745948  0.33308325  1
  I  I98  1  0.49977945  0.83310869  0.66434661  1
  I  I99  1  0.82582059  0.17282708  0.00257565  1
  I  I100  1  0.82514587  0.17187604  0.32846481  1
  I  I101  1  0.83219288  0.16806381  0.66646506  1
  I  I102  1  0.82921546  0.49964894  0.00071946  1
  I  I103  1  0.82536093  0.49390923  0.33258596  1
  I  I104  1  0.82866455  0.50463463  0.66642951  1
  I  I105  1  0.83353025  0.82797847  -0.00285180  1
  I  I106  1  0.83389292  0.83340939  0.33339886  1
  I  I107  1  0.83410306  0.82923583  0.67040280  1
  I  I108  1  -0.00335704  0.17469655  0.16172221  1
  I  I109  1  -0.00032556  0.16937394  0.50102811  1
  I  I110  1  0.00202205  0.16592920  0.83660410  1
  I  I111  1  -0.00415330  0.49357334  0.16543798  1
  I  I112  1  -0.00360078  0.49907603  0.50093153  1
  I  I113  1  -0.00481723  0.49886434  0.83399212  1
  I  I114  1  -0.00008355  0.83302885  0.16607453  1
  I  I115  1  -0.00012108  0.83146899  0.49926789  1
  I  I116  1  -0.00038427  0.83511735  0.83477155  1
  I  I117  1  0.33728467  0.16746407  0.16834173  1
  I  I118  1  0.33850384  0.16960927  0.49414246  1
  I  I119  1  0.33461955  0.16052736  0.83485144  1
  I  I120  1  0.33757555  0.49850419  0.17127707  1
  I  I121  1  0.33774210  0.49957645  0.49561714  1
  I  I122  1  0.33359749  0.50246126  0.83318939  1
  I  I123  1  0.33868637  0.83444232  0.16873408  1
  I  I124  1  0.33828079  0.83108302  0.49791655  1
  I  I125  1  0.33177372  0.83697244  0.83333117  1
  I  I126  1  0.66462351  0.16804660  0.16283408  1
  I  I127  1  0.66248799  0.16434009  0.50714711  1
  I  I128  1  0.66392943  0.16596716  0.83226858  1
  I  I129  1  0.66595164  0.49879523  0.16660224  1
  I  I130  1  0.66548490  0.49984533  0.49998416  1
  I  I131  1  0.67007286  0.50526266  0.83362073  1
  I  I132  1  0.66298142  0.83378244  0.16666643  1
  I  I133  1  0.66258660  0.83571803  0.49943480  1
  I  I134  1  0.66886624  0.83009528  0.83361839  1
