# generated using pymatgen
data_Cs27Sn14Pb13I81
_symmetry_space_group_name_H-M   'P 1'
_cell_length_a   18.97357474
_cell_length_b   18.96897078
_cell_length_c   18.98290865
_cell_angle_alpha   90.00127223
_cell_angle_beta   90.00189376
_cell_angle_gamma   90.00195028
_symmetry_Int_Tables_number   1
_chemical_formula_structural   Cs27Sn14Pb13I81
_chemical_formula_sum   'Cs27 Sn14 Pb13 I81'
_cell_volume   6832.12316606
_cell_formula_units_Z   1
loop_
 _symmetry_equiv_pos_site_id
 _symmetry_equiv_pos_as_xyz
  1  'x, y, z'
loop_
 _atom_site_type_symbol
 _atom_site_label
 _atom_site_symmetry_multiplicity
 _atom_site_fract_x
 _atom_site_fract_y
 _atom_site_fract_z
 _atom_site_occupancy
  Cs  Cs0  1  0.00101950  -0.00139078  -0.00503802  1
  Cs  Cs1  1  0.00573429  0.00383921  0.33755008  1
  Cs  Cs2  1  -0.00223964  0.00058259  0.66787160  1
  Cs  Cs3  1  0.00191626  0.33770073  0.00517408  1
  Cs  Cs4  1  0.00794020  0.33148015  0.33075949  1
  Cs  Cs5  1  -0.00291546  0.33154851  0.66343363  1
  Cs  Cs6  1  -0.00411810  0.66365284  0.00321477  1
  Cs  Cs7  1  -0.00377177  0.66468454  0.33152374  1
  Cs  Cs8  1  -0.00086419  0.66829329  0.66666116  1
  Cs  Cs9  1  0.33453440  0.00029938  -0.00120769  1
  Cs  Cs10  1  0.33423247  -0.00128947  0.33209106  1
  Cs  Cs11  1  0.33452493  -0.00195313  0.66955867  1
  Cs  Cs12  1  0.33321604  0.33302696  -0.00146331  1
  Cs  Cs13  1  0.32845645  0.33362568  0.33384882  1
  Cs  Cs14  1  0.33484543  0.34273365  0.66830618  1
  Cs  Cs15  1  0.33250252  0.66836260  -0.00448381  1
  Cs  Cs16  1  0.33452760  0.67062703  0.33772331  1
  Cs  Cs17  1  0.33337262  0.66369823  0.66741007  1
  Cs  Cs18  1  0.66669978  0.00027790  -0.00024722  1
  Cs  Cs19  1  0.66369442  0.00042860  0.33280110  1
  Cs  Cs20  1  0.66755473  0.00158770  0.66752511  1
  Cs  Cs21  1  0.66538933  0.33190591  0.00233235  1
  Cs  Cs22  1  0.66571327  0.33231059  0.33069563  1
  Cs  Cs23  1  0.66706549  0.33391537  0.66671307  1
  Cs  Cs24  1  0.67127071  0.66761713  0.00590568  1
  Cs  Cs25  1  0.66827923  0.66652530  0.33142972  1
  Cs  Cs26  1  0.66732549  0.66413606  0.66534275  1
  Sn  Sn27  1  0.50042202  0.16765016  0.16673129  1
  Sn  Sn28  1  0.49940211  0.49953355  0.16672376  1
  Sn  Sn29  1  0.16717786  0.83398684  0.83335669  1
  Sn  Sn30  1  0.16653628  0.83327017  0.16628455  1
  Sn  Sn31  1  0.49928147  0.16621289  0.83288903  1
  Sn  Sn32  1  0.16673575  0.83343302  0.50036146  1
  Sn  Sn33  1  0.83316859  0.50005493  0.50048318  1
  Sn  Sn34  1  0.50040507  0.83410966  0.50110691  1
  Sn  Sn35  1  0.49971043  0.16638431  0.50040943  1
  Sn  Sn36  1  0.83333668  0.16597811  0.16669739  1
  Sn  Sn37  1  0.50003047  0.83380951  0.83257340  1
  Sn  Sn38  1  0.16746323  0.16640196  0.83297316  1
  Sn  Sn39  1  0.83301262  0.83310587  0.50012051  1
  Sn  Sn40  1  0.83310322  0.49984247  0.83276552  1
  Pb  Pb41  1  0.83321489  0.16871010  0.83513089  1
  Pb  Pb42  1  0.83597507  0.83620414  0.16956078  1
  Pb  Pb43  1  0.16415893  0.50023099  0.83321407  1
  Pb  Pb44  1  0.83137484  0.16665190  0.49801767  1
  Pb  Pb45  1  0.83183778  0.49786943  0.16751084  1
  Pb  Pb46  1  0.16994645  0.50288911  0.16665259  1
  Pb  Pb47  1  0.83295518  0.83180689  0.83159700  1
  Pb  Pb48  1  0.16992982  0.16467366  0.50301630  1
  Pb  Pb49  1  0.50195981  0.50046668  0.83520552  1
  Pb  Pb50  1  0.49866306  0.83391210  0.16638142  1
  Pb  Pb51  1  0.50174854  0.50027829  0.49807075  1
  Pb  Pb52  1  0.16761771  0.16470299  0.16444610  1
  Pb  Pb53  1  0.16381945  0.50260386  0.50003773  1
  I  I54  1  0.16901750  -0.00319432  0.16953655  1
  I  I55  1  0.16114524  -0.00391872  0.49760579  1
  I  I56  1  0.17023782  -0.00136121  0.83386598  1
  I  I57  1  0.16399740  0.33300091  0.16474248  1
  I  I58  1  0.16595638  0.33298016  0.50067393  1
  I  I59  1  0.17156983  0.33034815  0.83511864  1
  I  I60  1  0.16741684  0.67102903  0.16429191  1
  I  I61  1  0.17363404  0.67156146  0.50322941  1
  I  I62  1  0.17136709  0.67057232  0.83229335  1
  I  I63  1  0.50222109  0.00289366  0.16684342  1
  I  I64  1  0.50227057  -0.00099085  0.49802238  1
  I  I65  1  0.49686711  0.00010427  0.83486648  1
  I  I66  1  0.50506707  0.33132166  0.16618835  1
  I  I67  1  0.50336749  0.33050767  0.50238518  1
  I  I68  1  0.49691035  0.33015504  0.83143526  1
  I  I69  1  0.49870941  0.66519600  0.16676166  1
  I  I70  1  0.49752366  0.67023158  0.50267498  1
  I  I71  1  0.49570723  0.66998274  0.82965444  1
  I  I72  1  0.82367610  0.00336860  0.16628965  1
  I  I73  1  0.83499809  -0.00292726  0.49827412  1
  I  I74  1  0.83361932  0.00006233  0.83312324  1
  I  I75  1  0.83082332  0.33016178  0.16754041  1
  I  I76  1  0.82941497  0.33559943  0.50322085  1
  I  I77  1  0.83235832  0.33627895  0.82668160  1
  I  I78  1  0.83252110  0.66685096  0.16519718  1
  I  I79  1  0.83174331  0.66780346  0.50354426  1
  I  I80  1  0.83278362  0.66403954  0.83260666  1
  I  I81  1  0.17146262  0.15968293  -0.00322184  1
  I  I82  1  0.16652577  0.16484971  0.33352029  1
  I  I83  1  0.16934224  0.16018239  0.67075125  1
  I  I84  1  0.16245803  0.50341518  -0.00008259  1
  I  I85  1  0.16394685  0.50078073  0.33328991  1
  I  I86  1  0.16993239  0.50172365  0.66670331  1
  I  I87  1  0.17303280  0.83740225  -0.00144842  1
  I  I88  1  0.16769383  0.83241568  0.33435856  1
  I  I89  1  0.16729892  0.83716002  0.66694427  1
  I  I90  1  0.50030216  0.16625480  -0.00042440  1
  I  I91  1  0.50616028  0.16558499  0.33330101  1
  I  I92  1  0.49675349  0.16059075  0.66717670  1
  I  I93  1  0.50350776  0.49631919  0.00278799  1
  I  I94  1  0.50338506  0.49676863  0.33042427  1
  I  I95  1  0.50041377  0.49779149  0.66662344  1
  I  I96  1  0.49475279  0.83569052  -0.00276103  1
  I  I97  1  0.49875208  0.83559161  0.33605008  1
  I  I98  1  0.49596472  0.84043238  0.66639077  1
  I  I99  1  0.82705148  0.16869025  0.00271699  1
  I  I100  1  0.82686689  0.16716757  0.33036410  1
  I  I101  1  0.83289650  0.16607498  0.66653225  1
  I  I102  1  0.83224244  0.49883290  -0.00153839  1
  I  I103  1  0.83082402  0.50544546  0.33603069  1
  I  I104  1  0.83179831  0.50375049  0.66592623  1
  I  I105  1  0.83332713  0.83103004  0.00011818  1
  I  I106  1  0.83079134  0.82642144  0.33755141  1
  I  I107  1  0.83674659  0.83285397  0.66338664  1
  I  I108  1  -0.00164708  0.16511412  0.16573237  1
  I  I109  1  0.00025781  0.16608760  0.49906607  1
  I  I110  1  0.00252410  0.16187819  0.83547398  1
  I  I111  1  -0.00005291  0.49887824  0.16648474  1
  I  I112  1  -0.00430959  0.50486178  0.50314087  1
  I  I113  1  -0.00354840  0.50058819  0.83030282  1
  I  I114  1  0.00367665  0.83470141  0.16439694  1
  I  I115  1  0.00029456  0.82788793  0.49966948  1
  I  I116  1  0.00289457  0.83697453  0.83220691  1
  I  I117  1  0.33678844  0.16875730  0.16822008  1
  I  I118  1  0.33800641  0.16127661  0.49302231  1
  I  I119  1  0.33489923  0.16175453  0.83629209  1
  I  I120  1  0.33749772  0.49133863  0.16603579  1
  I  I121  1  0.33359667  0.50063384  0.49831621  1
  I  I122  1  0.33354050  0.50026284  0.83541151  1
  I  I123  1  0.33081248  0.83494213  0.17088535  1
  I  I124  1  0.33390626  0.83858195  0.49935588  1
  I  I125  1  0.33359685  0.83653229  0.82973764  1
  I  I126  1  0.66449151  0.16982362  0.16477980  1
  I  I127  1  0.66307830  0.16067195  0.50414657  1
  I  I128  1  0.66314371  0.16289250  0.83248853  1
  I  I129  1  0.66397213  0.49936391  0.16621733  1
  I  I130  1  0.66945284  0.50666637  0.50287910  1
  I  I131  1  0.66940679  0.50008872  0.82966102  1
  I  I132  1  0.66666656  0.83130723  0.16651556  1
  I  I133  1  0.66552324  0.83332316  0.50456728  1
  I  I134  1  0.66348284  0.83724892  0.82910398  1
