# generated using pymatgen
data_Cs27Sn14Pb13I81
_symmetry_space_group_name_H-M   'P 1'
_cell_length_a   18.96453536
_cell_length_b   18.95780727
_cell_length_c   18.96137505
_cell_angle_alpha   90.00152309
_cell_angle_beta   89.99971459
_cell_angle_gamma   89.99771514
_symmetry_Int_Tables_number   1
_chemical_formula_structural   Cs27Sn14Pb13I81
_chemical_formula_sum   'Cs27 Sn14 Pb13 I81'
_cell_volume   6817.10743951
_cell_formula_units_Z   1
loop_
 _symmetry_equiv_pos_site_id
 _symmetry_equiv_pos_as_xyz
  1  'x, y, z'
loop_
 _atom_site_type_symbol
 _atom_site_label
 _atom_site_symmetry_multiplicity
 _atom_site_fract_x
 _atom_site_fract_y
 _atom_site_fract_z
 _atom_site_occupancy
  Cs  Cs0  1  0.00203722  -0.00128865  0.00261285  1
  Cs  Cs1  1  0.00086970  -0.00100811  0.33161252  1
  Cs  Cs2  1  -0.00221055  -0.00098605  0.66496136  1
  Cs  Cs3  1  0.00193336  0.33493919  -0.00125735  1
  Cs  Cs4  1  0.00014476  0.33281367  0.33314426  1
  Cs  Cs5  1  -0.00096398  0.33555425  0.66735642  1
  Cs  Cs6  1  -0.00106800  0.66708837  -0.00450880  1
  Cs  Cs7  1  -0.00218675  0.66792131  0.33507614  1
  Cs  Cs8  1  -0.00187740  0.66522789  0.66859702  1
  Cs  Cs9  1  0.33289131  -0.00015874  -0.00045343  1
  Cs  Cs10  1  0.33212276  -0.00101803  0.33311314  1
  Cs  Cs11  1  0.33440652  -0.00145961  0.66748462  1
  Cs  Cs12  1  0.33227836  0.33390127  0.00204369  1
  Cs  Cs13  1  0.33229512  0.33455864  0.33074278  1
  Cs  Cs14  1  0.33344154  0.33239633  0.66683290  1
  Cs  Cs15  1  0.33448217  0.66672749  -0.00050462  1
  Cs  Cs16  1  0.33462190  0.66626749  0.33359226  1
  Cs  Cs17  1  0.33474684  0.66898912  0.66693352  1
  Cs  Cs18  1  0.66642488  -0.00151397  -0.00033919  1
  Cs  Cs19  1  0.66815633  -0.00085283  0.33627734  1
  Cs  Cs20  1  0.67079362  0.00954658  0.66109995  1
  Cs  Cs21  1  0.66604938  0.33139454  0.00020593  1
  Cs  Cs22  1  0.66832167  0.33534603  0.33311980  1
  Cs  Cs23  1  0.66712583  0.32781404  0.66740337  1
  Cs  Cs24  1  0.66526256  0.67008973  -0.00102612  1
  Cs  Cs25  1  0.66770909  0.66463273  0.33331589  1
  Cs  Cs26  1  0.66496597  0.66661770  0.66817780  1
  Sn  Sn27  1  0.49955245  0.83327334  0.83364295  1
  Sn  Sn28  1  0.16762049  0.83362376  0.16590895  1
  Sn  Sn29  1  0.16681509  0.49952022  0.49980322  1
  Sn  Sn30  1  0.16683543  0.16623590  0.16655951  1
  Sn  Sn31  1  0.49987467  0.49983337  0.50105662  1
  Sn  Sn32  1  0.49997357  0.16570840  0.16680874  1
  Sn  Sn33  1  0.49908098  0.83426795  0.16621790  1
  Sn  Sn34  1  0.16748131  0.83414688  0.83419489  1
  Sn  Sn35  1  0.83333199  0.49984184  0.49938082  1
  Sn  Sn36  1  0.83348683  0.16758591  0.16656787  1
  Sn  Sn37  1  0.16682941  0.16593499  0.83339307  1
  Sn  Sn38  1  0.83353402  0.49948822  0.16669058  1
  Sn  Sn39  1  0.49969060  0.50020504  0.83262680  1
  Sn  Sn40  1  0.16703488  0.16739900  0.49995649  1
  Pb  Pb41  1  0.83028756  0.49984594  0.83334057  1
  Pb  Pb42  1  0.83589892  0.16878611  0.49774149  1
  Pb  Pb43  1  0.49778639  0.16904156  0.49724620  1
  Pb  Pb44  1  0.83292116  0.83369694  0.83325804  1
  Pb  Pb45  1  0.50012008  0.83164507  0.50012509  1
  Pb  Pb46  1  0.83648374  0.16660204  0.83604974  1
  Pb  Pb47  1  0.16666817  0.83347328  0.50022638  1
  Pb  Pb48  1  0.16458972  0.50079565  0.16835246  1
  Pb  Pb49  1  0.50172346  0.50038771  0.16654058  1
  Pb  Pb50  1  0.49816154  0.16609559  0.83521467  1
  Pb  Pb51  1  0.83326346  0.83343011  0.16665429  1
  Pb  Pb52  1  0.16869440  0.50038575  0.83110626  1
  Pb  Pb53  1  0.83316044  0.83080719  0.50014429  1
  I  I54  1  0.16503744  0.00115842  0.16833055  1
  I  I55  1  0.16696450  0.00308227  0.49855073  1
  I  I56  1  0.17236558  -0.00015256  0.83325014  1
  I  I57  1  0.16898719  0.33035822  0.16498848  1
  I  I58  1  0.16688822  0.33317364  0.49885748  1
  I  I59  1  0.16794611  0.33076088  0.83641691  1
  I  I60  1  0.17053555  0.66976038  0.16377458  1
  I  I61  1  0.16615021  0.66363589  0.49917022  1
  I  I62  1  0.16865845  0.66957511  0.83733436  1
  I  I63  1  0.50025530  -0.00022904  0.16111976  1
  I  I64  1  0.49799877  0.00045251  0.50175221  1
  I  I65  1  0.49633827  -0.00300442  0.83770613  1
  I  I66  1  0.49711241  0.33100660  0.16708228  1
  I  I67  1  0.50168166  0.33741372  0.50411838  1
  I  I68  1  0.49886820  0.33540766  0.83105181  1
  I  I69  1  0.49645549  0.66930075  0.16609678  1
  I  I70  1  0.49711134  0.66282670  0.49823928  1
  I  I71  1  0.49453939  0.66735340  0.83553052  1
  I  I72  1  0.83470552  0.00309659  0.16557290  1
  I  I73  1  0.83470707  0.00070687  0.49896938  1
  I  I74  1  0.82896584  0.00023688  0.83496729  1
  I  I75  1  0.83330226  0.33277791  0.17082386  1
  I  I76  1  0.83144390  0.33700662  0.49707531  1
  I  I77  1  0.83347608  0.33333035  0.83308502  1
  I  I78  1  0.83280294  0.66397727  0.17190086  1
  I  I79  1  0.83675929  0.66173380  0.49236170  1
  I  I80  1  0.83836073  0.66649622  0.83520355  1
  I  I81  1  0.16635501  0.16236850  0.00115359  1
  I  I82  1  0.16646451  0.16727544  0.33202932  1
  I  I83  1  0.16794876  0.16745064  0.66672222  1
  I  I84  1  0.16660304  0.49733491  -0.00003281  1
  I  I85  1  0.17105703  0.49627142  0.33655602  1
  I  I86  1  0.16235027  0.49621444  0.66292728  1
  I  I87  1  0.17023967  0.84083845  0.00060513  1
  I  I88  1  0.17014226  0.83620540  0.33015111  1
  I  I89  1  0.17136202  0.83577706  0.66989338  1
  I  I90  1  0.49772853  0.16910244  0.00363450  1
  I  I91  1  0.49760327  0.16307554  0.32894005  1
  I  I92  1  0.49802562  0.16537507  0.66654748  1
  I  I93  1  0.50103251  0.50127642  -0.00203319  1
  I  I94  1  0.49890822  0.49926958  0.33559365  1
  I  I95  1  0.50037665  0.50595251  0.66643797  1
  I  I96  1  0.49588228  0.83001753  0.00044137  1
  I  I97  1  0.49536312  0.83543838  0.32990366  1
  I  I98  1  0.49354510  0.82845105  0.67007492  1
  I  I99  1  0.83493587  0.17347900  0.00458983  1
  I  I100  1  0.83529253  0.16881837  0.32945144  1
  I  I101  1  0.83403530  0.16803756  0.66640421  1
  I  I102  1  0.83249489  0.49645017  0.00290815  1
  I  I103  1  0.83121810  0.49627873  0.33356208  1
  I  I104  1  0.83630476  0.50140103  0.66346370  1
  I  I105  1  0.83383347  0.82954913  0.00032929  1
  I  I106  1  0.83414644  0.83407437  0.33285183  1
  I  I107  1  0.83515074  0.83045957  0.66682457  1
  I  I108  1  0.00143168  0.16678554  0.16726343  1
  I  I109  1  0.00412738  0.17190784  0.49823099  1
  I  I110  1  0.00500935  0.16227067  0.83477664  1
  I  I111  1  -0.00320147  0.49625182  0.17211194  1
  I  I112  1  0.00025565  0.49607265  0.49468669  1
  I  I113  1  0.00026518  0.50049548  0.83237495  1
  I  I114  1  0.00331217  0.83627080  0.16344829  1
  I  I115  1  0.00048177  0.83074457  0.49904121  1
  I  I116  1  0.00380024  0.83659563  0.83824725  1
  I  I117  1  0.33222874  0.16306289  0.16694851  1
  I  I118  1  0.32954158  0.17278314  0.49709242  1
  I  I119  1  0.32976250  0.16658750  0.83570565  1
  I  I120  1  0.33333748  0.49740748  0.16854222  1
  I  I121  1  0.33322789  0.49653898  0.50346090  1
  I  I122  1  0.33652451  0.50137509  0.82944983  1
  I  I123  1  0.33300770  0.84007900  0.16342508  1
  I  I124  1  0.33319662  0.82927277  0.49858997  1
  I  I125  1  0.33301867  0.83242753  0.83807045  1
  I  I126  1  0.66633996  0.16768631  0.16627316  1
  I  I127  1  0.66669223  0.16780975  0.49875433  1
  I  I128  1  0.66643594  0.16704994  0.83509382  1
  I  I129  1  0.66945966  0.49612349  0.17198213  1
  I  I130  1  0.66661012  0.50267115  0.49831007  1
  I  I131  1  0.66229297  0.50599753  0.82964337  1
  I  I132  1  0.66341375  0.83526375  0.16255761  1
  I  I133  1  0.66629967  0.83112595  0.49855697  1
  I  I134  1  0.66263541  0.82625924  0.83967840  1
