# generated using pymatgen
data_Cs27Sn14Pb13I81
_symmetry_space_group_name_H-M   'P 1'
_cell_length_a   18.97024773
_cell_length_b   18.98220732
_cell_length_c   18.97426022
_cell_angle_alpha   90.00141442
_cell_angle_beta   90.00144616
_cell_angle_gamma   90.00121443
_symmetry_Int_Tables_number   1
_chemical_formula_structural   Cs27Sn14Pb13I81
_chemical_formula_sum   'Cs27 Sn14 Pb13 I81'
_cell_volume   6832.57749958
_cell_formula_units_Z   1
loop_
 _symmetry_equiv_pos_site_id
 _symmetry_equiv_pos_as_xyz
  1  'x, y, z'
loop_
 _atom_site_type_symbol
 _atom_site_label
 _atom_site_symmetry_multiplicity
 _atom_site_fract_x
 _atom_site_fract_y
 _atom_site_fract_z
 _atom_site_occupancy
  Cs  Cs0  1  0.00038966  -0.00033441  -0.00122012  1
  Cs  Cs1  1  -0.00426449  0.00351323  0.33626739  1
  Cs  Cs2  1  0.01227535  0.00709539  0.66079203  1
  Cs  Cs3  1  -0.00505947  0.33183077  -0.00245005  1
  Cs  Cs4  1  0.00233681  0.33366290  0.34103124  1
  Cs  Cs5  1  -0.00739010  0.32755247  0.66127035  1
  Cs  Cs6  1  -0.00110270  0.66847139  0.00127276  1
  Cs  Cs7  1  0.00203849  0.66249192  0.33666235  1
  Cs  Cs8  1  -0.00123313  0.66576693  0.65857991  1
  Cs  Cs9  1  0.33343841  -0.00081172  0.00012394  1
  Cs  Cs10  1  0.33570036  -0.00013009  0.33127425  1
  Cs  Cs11  1  0.32699075  -0.00111814  0.66704817  1
  Cs  Cs12  1  0.33514014  0.33584473  0.00142913  1
  Cs  Cs13  1  0.33331574  0.33477533  0.33190406  1
  Cs  Cs14  1  0.33537628  0.33189299  0.66782709  1
  Cs  Cs15  1  0.33339062  0.66573273  0.00056069  1
  Cs  Cs16  1  0.33206021  0.66451629  0.33264065  1
  Cs  Cs17  1  0.33272035  0.66969785  0.66912397  1
  Cs  Cs18  1  0.66622002  -0.00214353  0.00220135  1
  Cs  Cs19  1  0.66767433  -0.00141998  0.33251932  1
  Cs  Cs20  1  0.66524802  -0.00365968  0.66282019  1
  Cs  Cs21  1  0.66670007  0.33384130  -0.00067472  1
  Cs  Cs22  1  0.66451989  0.33090522  0.33156085  1
  Cs  Cs23  1  0.66821891  0.33622230  0.66947570  1
  Cs  Cs24  1  0.66636727  0.66773264  0.00047146  1
  Cs  Cs25  1  0.66571045  0.66996420  0.33176863  1
  Cs  Cs26  1  0.66840150  0.66551570  0.66644574  1
  Sn  Sn27  1  0.50090860  0.50018380  0.16670114  1
  Sn  Sn28  1  0.49915804  0.50026885  0.83325812  1
  Sn  Sn29  1  0.49989412  0.49947102  0.50004508  1
  Sn  Sn30  1  0.83358329  0.83224180  0.16584218  1
  Sn  Sn31  1  0.50014770  0.16623740  0.83331647  1
  Sn  Sn32  1  0.83328985  0.83364642  0.83354707  1
  Sn  Sn33  1  0.83269326  0.50049234  0.16642731  1
  Sn  Sn34  1  0.49921998  0.16659462  0.16633298  1
  Sn  Sn35  1  0.50088965  0.83339320  0.83422202  1
  Sn  Sn36  1  0.16643083  0.49988588  0.83333644  1
  Sn  Sn37  1  0.16646609  0.83409312  0.16645073  1
  Sn  Sn38  1  0.49992849  0.16741740  0.50008982  1
  Sn  Sn39  1  0.16731968  0.16630758  0.16603177  1
  Sn  Sn40  1  0.49981852  0.83320702  0.16574607  1
  Pb  Pb41  1  0.16882645  0.16926935  0.83580686  1
  Pb  Pb42  1  0.16952578  0.49979275  0.50365727  1
  Pb  Pb43  1  0.16630712  0.49959273  0.16523443  1
  Pb  Pb44  1  0.83026088  0.50010049  0.49683126  1
  Pb  Pb45  1  0.16981515  0.16691074  0.49709002  1
  Pb  Pb46  1  0.49982710  0.83322176  0.50028894  1
  Pb  Pb47  1  0.16639166  0.83151645  0.83511251  1
  Pb  Pb48  1  0.83085972  0.16310055  0.83340588  1
  Pb  Pb49  1  0.83315612  0.50199701  0.83507840  1
  Pb  Pb50  1  0.16691677  0.83317781  0.49649103  1
  Pb  Pb51  1  0.83012838  0.16655141  0.50015159  1
  Pb  Pb52  1  0.83327651  0.83343667  0.50023471  1
  Pb  Pb53  1  0.83330081  0.16664095  0.16661678  1
  I  I54  1  0.17214269  -0.00053228  0.16541904  1
  I  I55  1  0.16969784  0.00020072  0.50375728  1
  I  I56  1  0.16730826  0.00002797  0.83274473  1
  I  I57  1  0.17274874  0.33107732  0.16509079  1
  I  I58  1  0.16617640  0.33340288  0.49537280  1
  I  I59  1  0.17495918  0.33676903  0.83778649  1
  I  I60  1  0.16998653  0.66905128  0.16446570  1
  I  I61  1  0.16953865  0.66629044  0.49701690  1
  I  I62  1  0.17587217  0.66405844  0.83794948  1
  I  I63  1  0.49954395  -0.00041510  0.16501027  1
  I  I64  1  0.50027162  0.00288313  0.49842412  1
  I  I65  1  0.50502184  -0.00039420  0.83725089  1
  I  I66  1  0.49979098  0.33354134  0.16501913  1
  I  I67  1  0.49967298  0.33353203  0.49829754  1
  I  I68  1  0.49506749  0.33378407  0.83614409  1
  I  I69  1  0.50028114  0.66688837  0.16480834  1
  I  I70  1  0.50044938  0.66368150  0.49882905  1
  I  I71  1  0.49960851  0.66656224  0.83642087  1
  I  I72  1  0.83000473  -0.00336541  0.16356246  1
  I  I73  1  0.82918286  -0.00011087  0.49606709  1
  I  I74  1  0.82681073  -0.00488491  0.84353700  1
  I  I75  1  0.82798767  0.33606516  0.16618954  1
  I  I76  1  0.83478720  0.33358002  0.49800717  1
  I  I77  1  0.83236488  0.33341559  0.83548279  1
  I  I78  1  0.82861269  0.66752503  0.16297832  1
  I  I79  1  0.82995742  0.66660308  0.50083770  1
  I  I80  1  0.82549721  0.66983948  0.83784883  1
  I  I81  1  0.17412327  0.16271578  0.00365802  1
  I  I82  1  0.17277221  0.16358876  0.32896868  1
  I  I83  1  0.16796676  0.16702615  0.66682445  1
  I  I84  1  0.17579541  0.50045448  -0.00208020  1
  I  I85  1  0.16682594  0.50058236  0.33317569  1
  I  I86  1  0.17409283  0.50242461  0.67137311  1
  I  I87  1  0.16861159  0.83613686  0.00354510  1
  I  I88  1  0.16920279  0.83511803  0.32764253  1
  I  I89  1  0.16739660  0.83174332  0.66705657  1
  I  I90  1  0.49649450  0.16860231  0.00075946  1
  I  I91  1  0.49648042  0.16956889  0.33187883  1
  I  I92  1  0.50246197  0.17030764  0.66737135  1
  I  I93  1  0.49982217  0.49837830  0.00046272  1
  I  I94  1  0.50450227  0.49761950  0.33182919  1
  I  I95  1  0.49493581  0.49726795  0.66774017  1
  I  I96  1  0.50035796  0.83317469  0.00114946  1
  I  I97  1  0.50071445  0.83344594  0.32965000  1
  I  I98  1  0.50504349  0.83265445  0.67032360  1
  I  I99  1  0.83052059  0.16944347  0.00020377  1
  I  I100  1  0.83077641  0.16435303  0.33282881  1
  I  I101  1  0.83171622  0.16612326  0.66698926  1
  I  I102  1  0.82624659  0.50179753  0.00325715  1
  I  I103  1  0.82911939  0.50693697  0.32847594  1
  I  I104  1  0.83267928  0.50221178  0.66674767  1
  I  I105  1  0.83024189  0.82939050  0.00159156  1
  I  I106  1  0.83093190  0.83047565  0.32921640  1
  I  I107  1  0.82370626  0.83172389  0.67022904  1
  I  I108  1  0.00280687  0.16330810  0.16567607  1
  I  I109  1  0.00046393  0.16597592  0.49822071  1
  I  I110  1  0.00021607  0.16803466  0.83590875  1
  I  I111  1  -0.00241548  0.50416240  0.16252666  1
  I  I112  1  -0.00008677  0.50092296  0.49933219  1
  I  I113  1  0.00204528  0.50316426  0.83982407  1
  I  I114  1  -0.00057765  0.83269843  0.16161812  1
  I  I115  1  -0.00000719  0.83282269  0.50103008  1
  I  I116  1  -0.00262886  0.82907479  0.84127515  1
  I  I117  1  0.33594868  0.16367599  0.16691489  1
  I  I118  1  0.33793897  0.17076035  0.50166223  1
  I  I119  1  0.33797565  0.16153672  0.83187997  1
  I  I120  1  0.33686802  0.50201806  0.16802127  1
  I  I121  1  0.33798422  0.49647776  0.49240742  1
  I  I122  1  0.33684724  0.50208364  0.83658772  1
  I  I123  1  0.33503512  0.83371880  0.16323049  1
  I  I124  1  0.33391406  0.83300117  0.50036086  1
  I  I125  1  0.33684434  0.83440207  0.83728645  1
  I  I126  1  0.66270513  0.16501304  0.16706418  1
  I  I127  1  0.66148987  0.17007917  0.49520124  1
  I  I128  1  0.66155082  0.17327445  0.83770532  1
  I  I129  1  0.66410439  0.50257955  0.16508926  1
  I  I130  1  0.66197031  0.49601400  0.50550667  1
  I  I131  1  0.66266700  0.49781304  0.83192652  1
  I  I132  1  0.66523501  0.83273171  0.16362153  1
  I  I133  1  0.66619300  0.83437997  0.49495385  1
  I  I134  1  0.66450498  0.83177599  0.84190839  1
