# generated using pymatgen
data_Cs27Sn13Pb14I81
_symmetry_space_group_name_H-M   'P 1'
_cell_length_a   18.97455934
_cell_length_b   18.98216017
_cell_length_c   18.97505541
_cell_angle_alpha   89.99989806
_cell_angle_beta   90.00010482
_cell_angle_gamma   89.99935127
_symmetry_Int_Tables_number   1
_chemical_formula_structural   Cs27Sn13Pb14I81
_chemical_formula_sum   'Cs27 Sn13 Pb14 I81'
_cell_volume   6834.39986992
_cell_formula_units_Z   1
loop_
 _symmetry_equiv_pos_site_id
 _symmetry_equiv_pos_as_xyz
  1  'x, y, z'
loop_
 _atom_site_type_symbol
 _atom_site_label
 _atom_site_symmetry_multiplicity
 _atom_site_fract_x
 _atom_site_fract_y
 _atom_site_fract_z
 _atom_site_occupancy
  Cs  Cs0  1  -0.00098018  -0.00772782  0.00500015  1
  Cs  Cs1  1  0.00818651  0.00930469  0.32780849  1
  Cs  Cs2  1  0.00274058  -0.00026289  0.66583423  1
  Cs  Cs3  1  0.00317655  0.33392258  0.00307810  1
  Cs  Cs4  1  -0.00172968  0.32320562  0.32822183  1
  Cs  Cs5  1  -0.00213542  0.33387405  0.66646096  1
  Cs  Cs6  1  0.00582052  0.67434156  0.00399465  1
  Cs  Cs7  1  -0.00016866  0.66897184  0.32906858  1
  Cs  Cs8  1  -0.00034968  0.66592101  0.66923677  1
  Cs  Cs9  1  0.33668543  0.00236424  0.00052835  1
  Cs  Cs10  1  0.33079820  -0.00048544  0.33382518  1
  Cs  Cs11  1  0.33464398  0.00039278  0.66594528  1
  Cs  Cs12  1  0.33086467  0.33519699  -0.00107601  1
  Cs  Cs13  1  0.33361107  0.33420256  0.33122197  1
  Cs  Cs14  1  0.33415746  0.33459198  0.66880576  1
  Cs  Cs15  1  0.32795523  0.66263354  0.00018018  1
  Cs  Cs16  1  0.33551236  0.66720534  0.33457298  1
  Cs  Cs17  1  0.33214972  0.66554470  0.66573111  1
  Cs  Cs18  1  0.66571944  -0.00211065  -0.00181001  1
  Cs  Cs19  1  0.66627778  0.00029756  0.33398240  1
  Cs  Cs20  1  0.66528854  -0.00032041  0.66799417  1
  Cs  Cs21  1  0.66667665  0.33432935  -0.00207587  1
  Cs  Cs22  1  0.66832210  0.33476156  0.33291562  1
  Cs  Cs23  1  0.66758951  0.33357702  0.66715809  1
  Cs  Cs24  1  0.66850038  0.66779367  0.00202801  1
  Cs  Cs25  1  0.66442663  0.66466980  0.33581241  1
  Cs  Cs26  1  0.66709182  0.66532114  0.66467477  1
  Sn  Sn27  1  0.83483726  0.16697742  0.83314690  1
  Sn  Sn28  1  0.16495026  0.16640234  0.83293178  1
  Sn  Sn29  1  0.50007804  0.49966652  0.50098589  1
  Sn  Sn30  1  0.83373799  0.50069411  0.50045679  1
  Sn  Sn31  1  0.50019507  0.16690453  0.49917998  1
  Sn  Sn32  1  0.83294853  0.49970663  0.83319561  1
  Sn  Sn33  1  0.50036692  0.83391284  0.16678400  1
  Sn  Sn34  1  0.50058072  0.16631159  0.16767748  1
  Sn  Sn35  1  0.83304362  0.83328907  0.49985466  1
  Sn  Sn36  1  0.50078719  0.83343736  0.50023012  1
  Sn  Sn37  1  0.50096118  0.50113696  0.83258716  1
  Sn  Sn38  1  0.50013816  0.83164920  0.83325022  1
  Sn  Sn39  1  0.16583733  0.49979177  0.49984297  1
  Pb  Pb40  1  0.16975947  0.83333303  0.16699620  1
  Pb  Pb41  1  0.16623365  0.83128348  0.50008313  1
  Pb  Pb42  1  0.16957316  0.83587495  0.83295085  1
  Pb  Pb43  1  0.83055193  0.16664738  0.16331881  1
  Pb  Pb44  1  0.83154831  0.83271477  0.83143699  1
  Pb  Pb45  1  0.50048067  0.16714566  0.83323577  1
  Pb  Pb46  1  0.83329469  0.50010077  0.16647758  1
  Pb  Pb47  1  0.16934813  0.16906841  0.50185611  1
  Pb  Pb48  1  0.50015030  0.50020760  0.16639091  1
  Pb  Pb49  1  0.83091214  0.83345254  0.17042859  1
  Pb  Pb50  1  0.16647780  0.49984405  0.17012891  1
  Pb  Pb51  1  0.16598278  0.49869631  0.83179032  1
  Pb  Pb52  1  0.16951318  0.16668174  0.16372780  1
  Pb  Pb53  1  0.83144966  0.16647096  0.50160473  1
  I  I54  1  0.16656229  0.00021016  0.16756678  1
  I  I55  1  0.16795032  0.00033829  0.50088129  1
  I  I56  1  0.16357058  0.00378438  0.83191933  1
  I  I57  1  0.17091119  0.33301827  0.16641162  1
  I  I58  1  0.16786266  0.33689399  0.50228612  1
  I  I59  1  0.17065339  0.33092124  0.83127703  1
  I  I60  1  0.16929203  0.66661782  0.16468714  1
  I  I61  1  0.17314123  0.66321819  0.50250797  1
  I  I62  1  0.16630514  0.66658130  0.83261137  1
  I  I63  1  0.50012280  -0.00040002  0.16874511  1
  I  I64  1  0.50451285  -0.00085852  0.50102843  1
  I  I65  1  0.49973976  -0.00190828  0.83061356  1
  I  I66  1  0.49942454  0.33081110  0.16971106  1
  I  I67  1  0.49995490  0.33443491  0.50124097  1
  I  I68  1  0.50046766  0.33592743  0.82958694  1
  I  I69  1  0.50054754  0.66961956  0.16963693  1
  I  I70  1  0.50021147  0.66635236  0.50015715  1
  I  I71  1  0.50475446  0.66586580  0.82972748  1
  I  I72  1  0.83236964  0.00000131  0.16585303  1
  I  I73  1  0.82466631  -0.00242078  0.50307907  1
  I  I74  1  0.83316767  0.00208856  0.83131102  1
  I  I75  1  0.82982041  0.33325019  0.17151938  1
  I  I76  1  0.83066006  0.33644404  0.50301739  1
  I  I77  1  0.82883598  0.33454304  0.82669421  1
  I  I78  1  0.83020624  0.66688516  0.16293946  1
  I  I79  1  0.82665043  0.66540021  0.50585251  1
  I  I80  1  0.82870940  0.66342285  0.82939021  1
  I  I81  1  0.16684525  0.16949763  -0.00396161  1
  I  I82  1  0.16639821  0.16791774  0.33336913  1
  I  I83  1  0.16732184  0.16726745  0.66952332  1
  I  I84  1  0.16920177  0.49791596  -0.00032174  1
  I  I85  1  0.17095891  0.50048389  0.33853955  1
  I  I86  1  0.16971031  0.49900467  0.66380391  1
  I  I87  1  0.16790410  0.83246205  -0.00016034  1
  I  I88  1  0.16905869  0.83242076  0.33371199  1
  I  I89  1  0.17160362  0.83461746  0.66653779  1
  I  I90  1  0.49985923  0.16271319  0.00171421  1
  I  I91  1  0.49993799  0.16428760  0.33462184  1
  I  I92  1  0.49994387  0.16484989  0.66426323  1
  I  I93  1  0.50419625  0.50132853  -0.00357343  1
  I  I94  1  0.50060722  0.50175343  0.33693563  1
  I  I95  1  0.50029964  0.50157228  0.66568760  1
  I  I96  1  0.49950189  0.83599363  -0.00045884  1
  I  I97  1  0.50339975  0.83341994  0.33473992  1
  I  I98  1  0.50300550  0.83379212  0.66572357  1
  I  I99  1  0.83333049  0.17358893  -0.00484889  1
  I  I100  1  0.83316031  0.16748728  0.33348421  1
  I  I101  1  0.83184636  0.16898332  0.66955830  1
  I  I102  1  0.82529474  0.49443619  -0.00402453  1
  I  I103  1  0.82976067  0.50446171  0.33759042  1
  I  I104  1  0.83053063  0.49936808  0.66599771  1
  I  I105  1  0.83073049  0.83342708  -0.00001555  1
  I  I106  1  0.82556527  0.82534221  0.33851655  1
  I  I107  1  0.82503656  0.83176862  0.66349037  1
  I  I108  1  0.00003404  0.16714740  0.16864716  1
  I  I109  1  -0.00009017  0.16650243  0.50014682  1
  I  I110  1  -0.00107654  0.17433267  0.83020680  1
  I  I111  1  -0.00008668  0.49968774  0.16567269  1
  I  I112  1  -0.00143831  0.50579420  0.50626894  1
  I  I113  1  -0.00329915  0.49589159  0.82682532  1
  I  I114  1  -0.00024516  0.83262762  0.16705766  1
  I  I115  1  -0.00343678  0.82726848  0.50324771  1
  I  I116  1  -0.00021315  0.83148238  0.83105435  1
  I  I117  1  0.33761878  0.16247573  0.16850764  1
  I  I118  1  0.33796589  0.16561748  0.50007612  1
  I  I119  1  0.33233871  0.16653198  0.83314642  1
  I  I120  1  0.33388547  0.49970606  0.16573499  1
  I  I121  1  0.33559181  0.49981013  0.50395303  1
  I  I122  1  0.33637688  0.50118406  0.82915976  1
  I  I123  1  0.33861400  0.83739735  0.17008325  1
  I  I124  1  0.33735294  0.83268209  0.49968457  1
  I  I125  1  0.33857376  0.82961428  0.83002597  1
  I  I126  1  0.66244865  0.16316239  0.16905337  1
  I  I127  1  0.66280470  0.17014314  0.50002258  1
  I  I128  1  0.66844221  0.16838113  0.83290330  1
  I  I129  1  0.66631982  0.49929360  0.17019841  1
  I  I130  1  0.66555391  0.50099109  0.50395963  1
  I  I131  1  0.66579978  0.49668754  0.82531518  1
  I  I132  1  0.66229393  0.83720794  0.16426302  1
  I  I133  1  0.66442150  0.82856170  0.50022730  1
  I  I134  1  0.66279901  0.83569519  0.83419270  1
