# generated using pymatgen
data_Cs27Sn13Pb14I81
_symmetry_space_group_name_H-M   'P 1'
_cell_length_a   18.98324655
_cell_length_b   18.97541940
_cell_length_c   18.97016066
_cell_angle_alpha   89.99897759
_cell_angle_beta   90.00073029
_cell_angle_gamma   89.99899099
_symmetry_Int_Tables_number   1
_chemical_formula_structural   Cs27Sn13Pb14I81
_chemical_formula_sum   'Cs27 Sn13 Pb14 I81'
_cell_volume   6833.33764719
_cell_formula_units_Z   1
loop_
 _symmetry_equiv_pos_site_id
 _symmetry_equiv_pos_as_xyz
  1  'x, y, z'
loop_
 _atom_site_type_symbol
 _atom_site_label
 _atom_site_symmetry_multiplicity
 _atom_site_fract_x
 _atom_site_fract_y
 _atom_site_fract_z
 _atom_site_occupancy
  Cs  Cs0  1  0.00083960  -0.00005730  -0.00023797  1
  Cs  Cs1  1  -0.00168676  -0.00060280  0.33400890  1
  Cs  Cs2  1  -0.00186125  0.00374454  0.66572404  1
  Cs  Cs3  1  -0.00068766  0.33328440  -0.00249360  1
  Cs  Cs4  1  0.00089241  0.33327203  0.33161138  1
  Cs  Cs5  1  -0.00151152  0.33099889  0.67658974  1
  Cs  Cs6  1  0.00474038  0.66664144  0.00207434  1
  Cs  Cs7  1  0.00085611  0.66724785  0.33255003  1
  Cs  Cs8  1  -0.00146232  0.66433289  0.66602549  1
  Cs  Cs9  1  0.33841697  -0.00993362  -0.00134074  1
  Cs  Cs10  1  0.33534643  0.00520283  0.33399948  1
  Cs  Cs11  1  0.33042543  0.00070505  0.66661222  1
  Cs  Cs12  1  0.33513562  0.33565669  0.00203892  1
  Cs  Cs13  1  0.33335715  0.33176493  0.33314322  1
  Cs  Cs14  1  0.33282981  0.32877628  0.66551087  1
  Cs  Cs15  1  0.33354843  0.66999919  -0.00355362  1
  Cs  Cs16  1  0.32865826  0.66433823  0.33476843  1
  Cs  Cs17  1  0.33358188  0.66866352  0.66799200  1
  Cs  Cs18  1  0.66357552  -0.00134904  0.00084060  1
  Cs  Cs19  1  0.66809419  0.00089817  0.33104277  1
  Cs  Cs20  1  0.66932708  -0.00269808  0.66748975  1
  Cs  Cs21  1  0.66614724  0.33237074  -0.00055407  1
  Cs  Cs22  1  0.66483479  0.33408160  0.33372706  1
  Cs  Cs23  1  0.66738519  0.33680842  0.66823700  1
  Cs  Cs24  1  0.66348113  0.66913186  0.00135239  1
  Cs  Cs25  1  0.66922057  0.66538450  0.33636650  1
  Cs  Cs26  1  0.66746918  0.66684111  0.66352858  1
  Sn  Sn27  1  0.83378459  0.83302176  0.83302390  1
  Sn  Sn28  1  0.83343815  0.83397568  0.50073709  1
  Sn  Sn29  1  0.49997056  0.83350391  0.49947034  1
  Sn  Sn30  1  0.83321208  0.16680360  0.49953133  1
  Sn  Sn31  1  0.83346234  0.49924291  0.16680382  1
  Sn  Sn32  1  0.16618243  0.49994153  0.49995557  1
  Sn  Sn33  1  0.49999561  0.49917881  0.83358381  1
  Sn  Sn34  1  0.16625108  0.16708794  0.16633646  1
  Sn  Sn35  1  0.16646430  0.83291793  0.49965732  1
  Sn  Sn36  1  0.49991692  0.16719174  0.83324617  1
  Sn  Sn37  1  0.16660603  0.49912155  0.16729293  1
  Sn  Sn38  1  0.83406583  0.16760573  0.16739647  1
  Sn  Sn39  1  0.49987394  0.50000699  0.16629758  1
  Pb  Pb40  1  0.50167365  0.83291641  0.83112889  1
  Pb  Pb41  1  0.16680068  0.83361838  0.16885177  1
  Pb  Pb42  1  0.49776974  0.50141673  0.49999762  1
  Pb  Pb43  1  0.83340423  0.83362436  0.16700578  1
  Pb  Pb44  1  0.83165980  0.16509019  0.83412409  1
  Pb  Pb45  1  0.83117526  0.50239839  0.83638154  1
  Pb  Pb46  1  0.50269441  0.16469410  0.50209401  1
  Pb  Pb47  1  0.50014934  0.16847210  0.16516013  1
  Pb  Pb48  1  0.16936725  0.16658738  0.83707879  1
  Pb  Pb49  1  0.49988015  0.83031230  0.16961238  1
  Pb  Pb50  1  0.16440528  0.16707107  0.49839451  1
  Pb  Pb51  1  0.83570351  0.49964440  0.49840723  1
  Pb  Pb52  1  0.16902124  0.49984903  0.83356285  1
  Pb  Pb53  1  0.16375683  0.83335638  0.83026200  1
  I  I54  1  0.16025971  0.00310732  0.16797677  1
  I  I55  1  0.16762209  -0.00263437  0.49872738  1
  I  I56  1  0.17025336  -0.00002468  0.83408250  1
  I  I57  1  0.16640488  0.33474848  0.17321225  1
  I  I58  1  0.16695644  0.33597326  0.49588216  1
  I  I59  1  0.16394984  0.33328656  0.82737488  1
  I  I60  1  0.16537950  0.66328384  0.16913846  1
  I  I61  1  0.16494693  0.66683949  0.49377370  1
  I  I62  1  0.16916163  0.66662529  0.83787239  1
  I  I63  1  0.50019351  0.00014117  0.16451607  1
  I  I64  1  0.49541901  -0.00344694  0.50231636  1
  I  I65  1  0.50205379  0.00183633  0.83249342  1
  I  I66  1  0.50001520  0.33679938  0.16612674  1
  I  I67  1  0.50002011  0.33339381  0.49904575  1
  I  I68  1  0.50139212  0.33421573  0.83743985  1
  I  I69  1  0.50018248  0.66193993  0.15967013  1
  I  I70  1  0.50538004  0.66952074  0.50119289  1
  I  I71  1  0.50096207  0.66404225  0.83742222  1
  I  I72  1  0.83800735  0.00312490  0.16815151  1
  I  I73  1  0.83494331  -0.00094062  0.49801516  1
  I  I74  1  0.82967384  -0.00273346  0.83231916  1
  I  I75  1  0.83364490  0.33313579  0.17220306  1
  I  I76  1  0.83411305  0.33079409  0.49653253  1
  I  I77  1  0.83299875  0.33344398  0.83033832  1
  I  I78  1  0.83370663  0.66370929  0.16691752  1
  I  I79  1  0.83181065  0.66938498  0.50187080  1
  I  I80  1  0.83063160  0.66991199  0.82621019  1
  I  I81  1  0.15823513  0.17477320  0.00501665  1
  I  I82  1  0.16583771  0.16835453  0.33024655  1
  I  I83  1  0.16583825  0.16687161  0.66662889  1
  I  I84  1  0.16442813  0.49579489  0.00372338  1
  I  I85  1  0.16886313  0.50143613  0.33214730  1
  I  I86  1  0.16817305  0.50587192  0.66374748  1
  I  I87  1  0.16537732  0.83265080  0.00002867  1
  I  I88  1  0.16273401  0.83062328  0.33713816  1
  I  I89  1  0.16959863  0.82723931  0.66189088  1
  I  I90  1  0.50240639  0.16771464  -0.00260941  1
  I  I91  1  0.49912854  0.16638499  0.33329691  1
  I  I92  1  0.50187956  0.17379355  0.66979382  1
  I  I93  1  0.49910755  0.49659262  0.00095959  1
  I  I94  1  0.50130097  0.50232810  0.33041840  1
  I  I95  1  0.49892972  0.49852278  0.66904020  1
  I  I96  1  0.50252850  0.83480521  -0.00017848  1
  I  I97  1  0.50390430  0.83282527  0.33756763  1
  I  I98  1  0.49906274  0.83077785  0.66330676  1
  I  I99  1  0.83582558  0.16935486  0.00336441  1
  I  I100  1  0.83579422  0.16335132  0.33276852  1
  I  I101  1  0.83198252  0.16267638  0.66434210  1
  I  I102  1  0.83817464  0.49539002  0.00454290  1
  I  I103  1  0.82881176  0.50119813  0.33001258  1
  I  I104  1  0.83312519  0.49823142  0.66668768  1
  I  I105  1  0.83067979  0.83304656  -0.00210196  1
  I  I106  1  0.83357735  0.83421213  0.33665552  1
  I  I107  1  0.83289623  0.83856809  0.66452225  1
  I  I108  1  -0.00088850  0.17430148  0.17068610  1
  I  I109  1  -0.00345161  0.16034039  0.49822069  1
  I  I110  1  -0.00023543  0.16475442  0.83159836  1
  I  I111  1  0.00031079  0.49703212  0.17221051  1
  I  I112  1  0.00337760  0.50643661  0.49308021  1
  I  I113  1  -0.00016942  0.50171024  0.83370837  1
  I  I114  1  -0.00009317  0.82860795  0.16806504  1
  I  I115  1  -0.00057585  0.83307491  0.50299624  1
  I  I116  1  -0.00403676  0.83426876  0.82905282  1
  I  I117  1  0.33089380  0.17151765  0.16657664  1
  I  I118  1  0.33322670  0.16474736  0.49923020  1
  I  I119  1  0.33709209  0.17041315  0.83290917  1
  I  I120  1  0.33270887  0.49626306  0.16750321  1
  I  I121  1  0.32995106  0.50600166  0.49409623  1
  I  I122  1  0.33698478  0.49834528  0.83898816  1
  I  I123  1  0.33336375  0.83455250  0.16760264  1
  I  I124  1  0.33279196  0.82720353  0.49854234  1
  I  I125  1  0.33350464  0.83345323  0.83226519  1
  I  I126  1  0.66961235  0.17009557  0.16921236  1
  I  I127  1  0.67063639  0.16126041  0.49341646  1
  I  I128  1  0.66407145  0.16985452  0.83518393  1
  I  I129  1  0.66686774  0.49691328  0.16268836  1
  I  I130  1  0.66683925  0.50199028  0.49832928  1
  I  I131  1  0.66334504  0.49707958  0.83777623  1
  I  I132  1  0.66678174  0.83301869  0.16904476  1
  I  I133  1  0.66785602  0.83663325  0.50393359  1
  I  I134  1  0.66931189  0.83310643  0.82685521  1
