# generated using pymatgen
data_Cs27Sn14Pb13I81
_symmetry_space_group_name_H-M   'P 1'
_cell_length_a   18.97555951
_cell_length_b   18.98069040
_cell_length_c   18.97116278
_cell_angle_alpha   89.99936621
_cell_angle_beta   89.99852962
_cell_angle_gamma   89.99953017
_symmetry_Int_Tables_number   1
_chemical_formula_structural   Cs27Sn14Pb13I81
_chemical_formula_sum   'Cs27 Sn14 Pb13 I81'
_cell_volume   6832.82890335
_cell_formula_units_Z   1
loop_
 _symmetry_equiv_pos_site_id
 _symmetry_equiv_pos_as_xyz
  1  'x, y, z'
loop_
 _atom_site_type_symbol
 _atom_site_label
 _atom_site_symmetry_multiplicity
 _atom_site_fract_x
 _atom_site_fract_y
 _atom_site_fract_z
 _atom_site_occupancy
  Cs  Cs0  1  -0.00191642  0.01009140  -0.00039654  1
  Cs  Cs1  1  0.00098112  -0.00192838  0.33294437  1
  Cs  Cs2  1  0.00186531  -0.00439336  0.66774900  1
  Cs  Cs3  1  0.00037956  0.32577486  -0.00194617  1
  Cs  Cs4  1  0.00324488  0.33487376  0.33190043  1
  Cs  Cs5  1  -0.00068324  0.33196895  0.66952867  1
  Cs  Cs6  1  -0.00488235  0.66551144  0.00219393  1
  Cs  Cs7  1  0.00059731  0.66646368  0.33452862  1
  Cs  Cs8  1  -0.00036120  0.67064033  0.66356465  1
  Cs  Cs9  1  0.33303136  0.00001022  -0.00126156  1
  Cs  Cs10  1  0.33534849  0.00026672  0.33342638  1
  Cs  Cs11  1  0.33203608  -0.00441547  0.66597543  1
  Cs  Cs12  1  0.33149568  0.33455649  -0.00208421  1
  Cs  Cs13  1  0.33356150  0.33374546  0.33427214  1
  Cs  Cs14  1  0.33334224  0.33549204  0.66398570  1
  Cs  Cs15  1  0.33506787  0.66546550  -0.00295272  1
  Cs  Cs16  1  0.33306755  0.66528391  0.33191043  1
  Cs  Cs17  1  0.33244851  0.66762455  0.67406945  1
  Cs  Cs18  1  0.66716790  -0.00186698  0.00000286  1
  Cs  Cs19  1  0.66326759  0.00170134  0.33517263  1
  Cs  Cs20  1  0.66682511  0.00612786  0.66394618  1
  Cs  Cs21  1  0.66728824  0.33403232  -0.00013244  1
  Cs  Cs22  1  0.66457362  0.33364008  0.33675676  1
  Cs  Cs23  1  0.66780394  0.32900168  0.66198027  1
  Cs  Cs24  1  0.66680840  0.66704382  0.00044678  1
  Cs  Cs25  1  0.66658625  0.66574770  0.33068696  1
  Cs  Cs26  1  0.66880626  0.66591922  0.66966592  1
  Sn  Sn27  1  0.16661913  0.16731158  0.49972568  1
  Sn  Sn28  1  0.83328703  0.50065554  0.83415287  1
  Sn  Sn29  1  0.83339884  0.83274898  0.16602689  1
  Sn  Sn30  1  0.83305521  0.83266260  0.83431604  1
  Sn  Sn31  1  0.16672862  0.83262844  0.16633523  1
  Sn  Sn32  1  0.83338292  0.50037505  0.16591337  1
  Sn  Sn33  1  0.50001810  0.16699794  0.16549485  1
  Sn  Sn34  1  0.49985507  0.49993188  0.16696794  1
  Sn  Sn35  1  0.50017923  0.83154029  0.49945218  1
  Sn  Sn36  1  0.16764927  0.49946343  0.49945780  1
  Sn  Sn37  1  0.49907289  0.50163287  0.49946855  1
  Sn  Sn38  1  0.49973620  0.16689873  0.83414492  1
  Sn  Sn39  1  0.16680938  0.50085706  0.16691745  1
  Sn  Sn40  1  0.49982330  0.83311830  0.16709027  1
  Pb  Pb41  1  0.16954120  0.16672377  0.83042793  1
  Pb  Pb42  1  0.50206566  0.49836865  0.83312033  1
  Pb  Pb43  1  0.83050874  0.83318306  0.49912975  1
  Pb  Pb44  1  0.16922383  0.16694791  0.16802465  1
  Pb  Pb45  1  0.49852611  0.16694753  0.49962319  1
  Pb  Pb46  1  0.83138662  0.16652518  0.83346790  1
  Pb  Pb47  1  0.50199519  0.83496340  0.83358933  1
  Pb  Pb48  1  0.16905679  0.83223367  0.49784777  1
  Pb  Pb49  1  0.83074876  0.16683823  0.16719608  1
  Pb  Pb50  1  0.16386343  0.50025840  0.83361376  1
  Pb  Pb51  1  0.83716307  0.16665232  0.49962937  1
  Pb  Pb52  1  0.16357450  0.83305940  0.83715391  1
  Pb  Pb53  1  0.83353441  0.49997498  0.49938963  1
  I  I54  1  0.16654700  -0.00271004  0.16864431  1
  I  I55  1  0.16930769  0.00135007  0.49861920  1
  I  I56  1  0.16432337  -0.00015274  0.83224640  1
  I  I57  1  0.16639000  0.33671994  0.16904123  1
  I  I58  1  0.17354350  0.33533881  0.49364101  1
  I  I59  1  0.16328247  0.33354726  0.83805486  1
  I  I60  1  0.16973026  0.66567877  0.17264743  1
  I  I61  1  0.16789728  0.66339793  0.49665636  1
  I  I62  1  0.17121513  0.66665334  0.82744591  1
  I  I63  1  0.50035050  -0.00123581  0.16766470  1
  I  I64  1  0.49938095  -0.00205073  0.49627023  1
  I  I65  1  0.50280882  0.00268046  0.83706907  1
  I  I66  1  0.50040904  0.33475429  0.16740496  1
  I  I67  1  0.49878132  0.33625743  0.49657231  1
  I  I68  1  0.50301007  0.33072243  0.83774597  1
  I  I69  1  0.50066060  0.66646766  0.17175539  1
  I  I70  1  0.49564304  0.66566897  0.49126909  1
  I  I71  1  0.49974198  0.66662954  0.83402795  1
  I  I72  1  0.83398780  -0.00355536  0.16229992  1
  I  I73  1  0.83149539  -0.00037410  0.50050842  1
  I  I74  1  0.83181661  -0.00305830  0.83895020  1
  I  I75  1  0.83389416  0.33708371  0.16275194  1
  I  I76  1  0.82624761  0.33377119  0.50064308  1
  I  I77  1  0.83252597  0.33629219  0.83807516  1
  I  I78  1  0.82914224  0.66635353  0.16270501  1
  I  I79  1  0.83769696  0.66656264  0.50172343  1
  I  I80  1  0.83118039  0.66655435  0.83855298  1
  I  I81  1  0.16568103  0.16657952  0.00017890  1
  I  I82  1  0.17091693  0.16894119  0.33569943  1
  I  I83  1  0.16947047  0.17386796  0.66258428  1
  I  I84  1  0.17092013  0.50457942  0.00387794  1
  I  I85  1  0.16556101  0.49946914  0.33208748  1
  I  I86  1  0.17090239  0.49506140  0.66344755  1
  I  I87  1  0.17447689  0.82702296  0.00529491  1
  I  I88  1  0.16170100  0.83228015  0.32959319  1
  I  I89  1  0.16683625  0.83448786  0.66659947  1
  I  I90  1  0.50044125  0.16627628  0.00183396  1
  I  I91  1  0.49912274  0.16604283  0.33058787  1
  I  I92  1  0.49989408  0.16646852  0.66832046  1
  I  I93  1  0.49778997  0.50265132  0.00356950  1
  I  I94  1  0.50196052  0.49817451  0.33177859  1
  I  I95  1  0.49673312  0.50198820  0.66351335  1
  I  I96  1  0.49880640  0.83085978  0.00376956  1
  I  I97  1  0.50238897  0.83554596  0.33124008  1
  I  I98  1  0.50095944  0.83153790  0.66405755  1
  I  I99  1  0.83575673  0.16717150  0.00035009  1
  I  I100  1  0.82794390  0.16625508  0.33300698  1
  I  I101  1  0.82787377  0.16752549  0.66685913  1
  I  I102  1  0.83173154  0.50462035  0.00202514  1
  I  I103  1  0.83277804  0.50500290  0.32959933  1
  I  I104  1  0.83228847  0.50353208  0.66925638  1
  I  I105  1  0.83028867  0.82822277  0.00190734  1
  I  I106  1  0.83492542  0.82810933  0.32927517  1
  I  I107  1  0.83114384  0.82934333  0.66931149  1
  I  I108  1  0.00030671  0.16610757  0.16869197  1
  I  I109  1  0.00499276  0.17403250  0.49848690  1
  I  I110  1  -0.00003254  0.16648498  0.83135792  1
  I  I111  1  0.00019909  0.50728124  0.16823960  1
  I  I112  1  0.00308215  0.49516257  0.49625374  1
  I  I113  1  -0.00413605  0.50323890  0.83726812  1
  I  I114  1  -0.00034577  0.82570808  0.16340472  1
  I  I115  1  0.00017680  0.83454668  0.49980326  1
  I  I116  1  -0.00448408  0.82941932  0.83598208  1
  I  I117  1  0.33731637  0.16597206  0.16445184  1
  I  I118  1  0.33115636  0.16905859  0.49897729  1
  I  I119  1  0.33725092  0.16672288  0.83943779  1
  I  I120  1  0.33392417  0.50200805  0.17200597  1
  I  I121  1  0.33401657  0.49870880  0.49129884  1
  I  I122  1  0.33346694  0.49750467  0.83528522  1
  I  I123  1  0.33428582  0.83167432  0.17252613  1
  I  I124  1  0.33701730  0.83377268  0.49381327  1
  I  I125  1  0.33352573  0.83603948  0.83332458  1
  I  I126  1  0.66235285  0.16644687  0.16441504  1
  I  I127  1  0.66603147  0.16669117  0.50098643  1
  I  I128  1  0.66360974  0.16658380  0.83650330  1
  I  I129  1  0.66594345  0.50227320  0.16671183  1
  I  I130  1  0.66350146  0.50321199  0.49630556  1
  I  I131  1  0.66978512  0.50364668  0.83841534  1
  I  I132  1  0.66613200  0.83088009  0.16630947  1
  I  I133  1  0.66241166  0.82845364  0.49370476  1
  I  I134  1  0.66965484  0.82952570  0.83981584  1
