# generated using pymatgen
data_Cs27Sn13Pb14I81
_symmetry_space_group_name_H-M   'P 1'
_cell_length_a   18.97089116
_cell_length_b   18.97801918
_cell_length_c   18.98304873
_cell_angle_alpha   90.00070656
_cell_angle_beta   90.00046257
_cell_angle_gamma   90.00097579
_symmetry_Int_Tables_number   1
_chemical_formula_structural   Cs27Sn13Pb14I81
_chemical_formula_sum   'Cs27 Sn13 Pb14 I81'
_cell_volume   6834.46582307
_cell_formula_units_Z   1
loop_
 _symmetry_equiv_pos_site_id
 _symmetry_equiv_pos_as_xyz
  1  'x, y, z'
loop_
 _atom_site_type_symbol
 _atom_site_label
 _atom_site_symmetry_multiplicity
 _atom_site_fract_x
 _atom_site_fract_y
 _atom_site_fract_z
 _atom_site_occupancy
  Cs  Cs0  1  -0.00746621  0.00021293  0.00053337  1
  Cs  Cs1  1  -0.00634973  0.00256053  0.33212047  1
  Cs  Cs2  1  -0.00536075  -0.00776306  0.66726952  1
  Cs  Cs3  1  0.00110001  0.33350110  0.00247103  1
  Cs  Cs4  1  -0.00278228  0.33218569  0.33090334  1
  Cs  Cs5  1  0.00203679  0.33317764  0.66686377  1
  Cs  Cs6  1  0.00031801  0.66609215  -0.00085743  1
  Cs  Cs7  1  -0.00383109  0.66627739  0.33355914  1
  Cs  Cs8  1  0.00370143  0.67469771  0.66804485  1
  Cs  Cs9  1  0.33452781  0.00205915  0.00085800  1
  Cs  Cs10  1  0.33379313  0.00027489  0.33250326  1
  Cs  Cs11  1  0.33221854  0.00172136  0.66656419  1
  Cs  Cs12  1  0.33322285  0.33360109  -0.00050269  1
  Cs  Cs13  1  0.33168866  0.33190370  0.33333341  1
  Cs  Cs14  1  0.33347865  0.33298997  0.66722214  1
  Cs  Cs15  1  0.33285174  0.66525129  -0.00005703  1
  Cs  Cs16  1  0.33443045  0.66901122  0.33359948  1
  Cs  Cs17  1  0.33173810  0.66731487  0.66517810  1
  Cs  Cs18  1  0.66887985  -0.00364059  -0.00014477  1
  Cs  Cs19  1  0.67054007  -0.00942610  0.33306839  1
  Cs  Cs20  1  0.67426014  0.00281900  0.66834625  1
  Cs  Cs21  1  0.66371642  0.33428195  -0.00242191  1
  Cs  Cs22  1  0.67225515  0.33639971  0.33705803  1
  Cs  Cs23  1  0.66635186  0.33289942  0.66573073  1
  Cs  Cs24  1  0.66574105  0.66678298  0.00292951  1
  Cs  Cs25  1  0.67237709  0.67210706  0.33822991  1
  Cs  Cs26  1  0.66480717  0.66405523  0.65951362  1
  Sn  Sn27  1  0.49905550  0.16648985  0.83335884  1
  Sn  Sn28  1  0.83338955  0.49972350  0.83325093  1
  Sn  Sn29  1  0.16708924  0.16697278  0.83263442  1
  Sn  Sn30  1  0.16720063  0.49922215  0.49994082  1
  Sn  Sn31  1  0.49981043  0.16755440  0.16703156  1
  Sn  Sn32  1  0.16703079  0.83281657  0.16638117  1
  Sn  Sn33  1  0.49940379  0.16687078  0.49978028  1
  Sn  Sn34  1  0.16735783  0.16738415  0.50102959  1
  Sn  Sn35  1  0.49936717  0.49932248  0.16682286  1
  Sn  Sn36  1  0.49989552  0.50025755  0.83377229  1
  Sn  Sn37  1  0.16785968  0.50099598  0.16684974  1
  Sn  Sn38  1  0.49938305  0.83320864  0.83293522  1
  Sn  Sn39  1  0.16674990  0.49930343  0.83320716  1
  Pb  Pb40  1  0.83384610  0.16696058  0.50024024  1
  Pb  Pb41  1  0.49816964  0.49832792  0.49954919  1
  Pb  Pb42  1  0.16787791  0.16702388  0.16645571  1
  Pb  Pb43  1  0.83289351  0.49982328  0.16469101  1
  Pb  Pb44  1  0.83348872  0.83316445  0.50028609  1
  Pb  Pb45  1  0.16835138  0.83394472  0.83518857  1
  Pb  Pb46  1  0.49853994  0.83279489  0.16501469  1
  Pb  Pb47  1  0.82991056  0.82985180  0.83346159  1
  Pb  Pb48  1  0.83662113  0.83288546  0.16614825  1
  Pb  Pb49  1  0.49950324  0.83672177  0.50296100  1
  Pb  Pb50  1  0.16691891  0.83416752  0.49735889  1
  Pb  Pb51  1  0.83360234  0.16890242  0.83348217  1
  Pb  Pb52  1  0.83705310  0.49974277  0.50306780  1
  Pb  Pb53  1  0.82884120  0.16718694  0.16642490  1
  I  I54  1  0.17015902  -0.00138445  0.16604210  1
  I  I55  1  0.17158689  0.00396601  0.50392458  1
  I  I56  1  0.17297378  0.00336999  0.83061670  1
  I  I57  1  0.16882522  0.33648840  0.16559903  1
  I  I58  1  0.17103715  0.33339362  0.50020538  1
  I  I59  1  0.17082878  0.33445560  0.83454503  1
  I  I60  1  0.17258492  0.66394958  0.16523212  1
  I  I61  1  0.16637670  0.66352476  0.50392315  1
  I  I62  1  0.16769696  0.66322950  0.83128039  1
  I  I63  1  0.49692775  0.00275779  0.16487044  1
  I  I64  1  0.49204769  0.00517077  0.49844663  1
  I  I65  1  0.49380696  0.00182754  0.83396926  1
  I  I66  1  0.49318933  0.33404494  0.16016827  1
  I  I67  1  0.49709048  0.33013688  0.50472823  1
  I  I68  1  0.49934520  0.33354048  0.83447303  1
  I  I69  1  0.49663434  0.66315294  0.15958666  1
  I  I70  1  0.49884272  0.66652602  0.50074716  1
  I  I71  1  0.49942499  0.66469853  0.83929128  1
  I  I72  1  0.83474948  -0.00003452  0.16603755  1
  I  I73  1  0.83496488  0.00034819  0.50084561  1
  I  I74  1  0.83369108  -0.00010796  0.83308392  1
  I  I75  1  0.83920322  0.33367954  0.16630911  1
  I  I76  1  0.83110810  0.33348500  0.50023582  1
  I  I77  1  0.82947354  0.33665000  0.83390603  1
  I  I78  1  0.82869584  0.66625115  0.16551380  1
  I  I79  1  0.83350666  0.66603826  0.50061767  1
  I  I80  1  0.83681015  0.66208313  0.83432173  1
  I  I81  1  0.17162877  0.17027954  -0.00288559  1
  I  I82  1  0.17203765  0.16990449  0.33567491  1
  I  I83  1  0.17568243  0.17569248  0.66761192  1
  I  I84  1  0.16744711  0.49982594  -0.00092992  1
  I  I85  1  0.17247354  0.49969434  0.33272015  1
  I  I86  1  0.16711693  0.49516609  0.66799402  1
  I  I87  1  0.16951084  0.82827987  0.00271522  1
  I  I88  1  0.16923419  0.82866375  0.32965213  1
  I  I89  1  0.16730369  0.83072508  0.66689527  1
  I  I90  1  0.49536634  0.16816349  -0.00126325  1
  I  I91  1  0.49354867  0.17223503  0.33316469  1
  I  I92  1  0.49572844  0.16720436  0.66800810  1
  I  I93  1  0.49589550  0.49580384  -0.00132317  1
  I  I94  1  0.49383824  0.49467906  0.33026730  1
  I  I95  1  0.49963452  0.49961439  0.67004601  1
  I  I96  1  0.49806842  0.83687948  -0.00290941  1
  I  I97  1  0.49939560  0.83380325  0.33325915  1
  I  I98  1  0.49778714  0.82947479  0.67106787  1
  I  I99  1  0.83609245  0.16706080  -0.00028140  1
  I  I100  1  0.83596712  0.16753838  0.33337671  1
  I  I101  1  0.82857708  0.16797921  0.66695889  1
  I  I102  1  0.83689317  0.49925593  -0.00332151  1
  I  I103  1  0.83282627  0.50036384  0.33354606  1
  I  I104  1  0.82920235  0.49850452  0.67094943  1
  I  I105  1  0.83321065  0.83400385  -0.00039257  1
  I  I106  1  0.83216224  0.83298168  0.33302060  1
  I  I107  1  0.83492890  0.83363667  0.66736149  1
  I  I108  1  0.00019887  0.16587952  0.16666703  1
  I  I109  1  0.00422874  0.17078365  0.50443896  1
  I  I110  1  0.00381930  0.17145894  0.82926098  1
  I  I111  1  0.00368160  0.50370081  0.16551546  1
  I  I112  1  0.00546768  0.49313178  0.49771148  1
  I  I113  1  0.00211520  0.49481934  0.83384238  1
  I  I114  1  0.00479248  0.82715554  0.16518782  1
  I  I115  1  0.00070085  0.83475097  0.50084050  1
  I  I116  1  0.00005915  0.83360280  0.83440928  1
  I  I117  1  0.33623068  0.16809112  0.16519583  1
  I  I118  1  0.33306575  0.17069032  0.50206489  1
  I  I119  1  0.33419458  0.17133980  0.83277199  1
  I  I120  1  0.33293671  0.49961270  0.16071148  1
  I  I121  1  0.32985243  0.49783331  0.50447453  1
  I  I122  1  0.33331835  0.49882261  0.83469419  1
  I  I123  1  0.33077423  0.83056431  0.16552454  1
  I  I124  1  0.33320566  0.83130215  0.50003695  1
  I  I125  1  0.33624076  0.82964006  0.83482141  1
  I  I126  1  0.66040772  0.17307111  0.16411256  1
  I  I127  1  0.66316110  0.16705285  0.50223606  1
  I  I128  1  0.66268486  0.16744634  0.83298111  1
  I  I129  1  0.66273138  0.49457835  0.16021548  1
  I  I130  1  0.66653912  0.49856257  0.50046134  1
  I  I131  1  0.66454517  0.49944805  0.83879585  1
  I  I132  1  0.66643572  0.83414669  0.16555818  1
  I  I133  1  0.66610828  0.83383411  0.49925746  1
  I  I134  1  0.66190789  0.83705543  0.83546681  1
