# generated using pymatgen
data_Cs27Sn14Pb13I81
_symmetry_space_group_name_H-M   'P 1'
_cell_length_a   18.97901560
_cell_length_b   18.98029338
_cell_length_c   18.96826459
_cell_angle_alpha   89.99930192
_cell_angle_beta   89.99849615
_cell_angle_gamma   90.00032381
_symmetry_Int_Tables_number   1
_chemical_formula_structural   Cs27Sn14Pb13I81
_chemical_formula_sum   'Cs27 Sn14 Pb13 I81'
_cell_volume   6832.88643285
_cell_formula_units_Z   1
loop_
 _symmetry_equiv_pos_site_id
 _symmetry_equiv_pos_as_xyz
  1  'x, y, z'
loop_
 _atom_site_type_symbol
 _atom_site_label
 _atom_site_symmetry_multiplicity
 _atom_site_fract_x
 _atom_site_fract_y
 _atom_site_fract_z
 _atom_site_occupancy
  Cs  Cs0  1  -0.00390481  -0.00245632  -0.00094764  1
  Cs  Cs1  1  -0.00879153  0.00221044  0.34063672  1
  Cs  Cs2  1  0.00198959  0.00339467  0.66267924  1
  Cs  Cs3  1  0.00175237  0.33570849  0.00107544  1
  Cs  Cs4  1  -0.00105237  0.33164799  0.33339706  1
  Cs  Cs5  1  -0.00110355  0.33117611  0.66316776  1
  Cs  Cs6  1  0.00189121  0.66719438  -0.00026205  1
  Cs  Cs7  1  0.00110299  0.66799228  0.33318380  1
  Cs  Cs8  1  -0.00061830  0.66558294  0.66837956  1
  Cs  Cs9  1  0.33414837  -0.00084208  -0.00068081  1
  Cs  Cs10  1  0.33454628  0.00083987  0.33445026  1
  Cs  Cs11  1  0.33127752  0.00261983  0.66501832  1
  Cs  Cs12  1  0.33388990  0.33193195  0.00162885  1
  Cs  Cs13  1  0.33372498  0.33390911  0.32968171  1
  Cs  Cs14  1  0.33508934  0.32860456  0.66962310  1
  Cs  Cs15  1  0.33031695  0.66846673  0.00245073  1
  Cs  Cs16  1  0.33294684  0.66593693  0.33184157  1
  Cs  Cs17  1  0.33393399  0.66830297  0.66268733  1
  Cs  Cs18  1  0.66839281  -0.00122066  -0.00000089  1
  Cs  Cs19  1  0.67238895  0.00137011  0.33455164  1
  Cs  Cs20  1  0.66652708  -0.00211812  0.66903006  1
  Cs  Cs21  1  0.66546672  0.33396277  -0.00211720  1
  Cs  Cs22  1  0.66733745  0.33037984  0.33407380  1
  Cs  Cs23  1  0.66573703  0.34377240  0.66876863  1
  Cs  Cs24  1  0.66785188  0.66872554  -0.00072992  1
  Cs  Cs25  1  0.66626805  0.66839286  0.34009443  1
  Cs  Cs26  1  0.66589707  0.65823666  0.66074918  1
  Sn  Sn27  1  0.49939948  0.16616127  0.16733404  1
  Sn  Sn28  1  0.49947868  0.83350315  0.16611696  1
  Sn  Sn29  1  0.50044606  0.50039014  0.16636040  1
  Sn  Sn30  1  0.83312092  0.50026924  0.16654778  1
  Sn  Sn31  1  0.49965191  0.83303539  0.83386364  1
  Sn  Sn32  1  0.16671096  0.50001694  0.16647016  1
  Sn  Sn33  1  0.16693059  0.83280021  0.83406454  1
  Sn  Sn34  1  0.16703979  0.50042748  0.83323235  1
  Sn  Sn35  1  0.83337424  0.16657142  0.83367088  1
  Sn  Sn36  1  0.83342328  0.83381516  0.83347648  1
  Sn  Sn37  1  0.16688955  0.83437786  0.16646615  1
  Sn  Sn38  1  0.16708810  0.49987590  0.50005670  1
  Sn  Sn39  1  0.16669257  0.16564456  0.16647491  1
  Sn  Sn40  1  0.50005402  0.16658317  0.49953253  1
  Pb  Pb41  1  0.16674890  0.83158659  0.49952688  1
  Pb  Pb42  1  0.16509304  0.16615364  0.83558594  1
  Pb  Pb43  1  0.83595677  0.49993256  0.49685456  1
  Pb  Pb44  1  0.50179206  0.16460129  0.83410544  1
  Pb  Pb45  1  0.49756972  0.49782062  0.49736037  1
  Pb  Pb46  1  0.83332838  0.83126950  0.16534316  1
  Pb  Pb47  1  0.83018672  0.16701029  0.50330334  1
  Pb  Pb48  1  0.83300596  0.16852813  0.16500508  1
  Pb  Pb49  1  0.49976610  0.83535697  0.49935090  1
  Pb  Pb50  1  0.83556603  0.50046592  0.83509818  1
  Pb  Pb51  1  0.49717290  0.50272886  0.83561492  1
  Pb  Pb52  1  0.83339269  0.83317237  0.50381571  1
  Pb  Pb53  1  0.16848409  0.16895106  0.49695575  1
  I  I54  1  0.17520603  -0.00094316  0.15980237  1
  I  I55  1  0.16751237  0.00036285  0.50067422  1
  I  I56  1  0.16832036  -0.00343119  0.83878020  1
  I  I57  1  0.16925969  0.33447845  0.16619532  1
  I  I58  1  0.16722684  0.33689321  0.50005541  1
  I  I59  1  0.16397674  0.33586755  0.83578284  1
  I  I60  1  0.16896070  0.66618677  0.16574452  1
  I  I61  1  0.16765969  0.66354958  0.49448936  1
  I  I62  1  0.16450298  0.66732879  0.83895175  1
  I  I63  1  0.49219277  -0.00034808  0.16594307  1
  I  I64  1  0.49858991  0.00299358  0.49366489  1
  I  I65  1  0.49513621  -0.00349741  0.83906562  1
  I  I66  1  0.49639094  0.33338712  0.17107073  1
  I  I67  1  0.49877011  0.33019159  0.49431962  1
  I  I68  1  0.50129051  0.33350605  0.83379475  1
  I  I69  1  0.49620018  0.66689412  0.16095205  1
  I  I70  1  0.50000177  0.66640974  0.50002183  1
  I  I71  1  0.50505628  0.67078896  0.83854351  1
  I  I72  1  0.83398525  -0.00017172  0.16650530  1
  I  I73  1  0.83440007  0.00033071  0.49573866  1
  I  I74  1  0.83498725  -0.00132289  0.83628030  1
  I  I75  1  0.83539087  0.33638776  0.16298799  1
  I  I76  1  0.83376121  0.33342904  0.50328851  1
  I  I77  1  0.83442277  0.33157460  0.83579083  1
  I  I78  1  0.83547486  0.66346485  0.16290776  1
  I  I79  1  0.83185185  0.66628584  0.50154819  1
  I  I80  1  0.83295245  0.66955689  0.83631427  1
  I  I81  1  0.17326066  0.17224092  0.00378083  1
  I  I82  1  0.16768003  0.16705952  0.32848281  1
  I  I83  1  0.16727487  0.16766921  0.66668854  1
  I  I84  1  0.16614199  0.50114402  0.00166268  1
  I  I85  1  0.16718329  0.49987076  0.33091290  1
  I  I86  1  0.16554486  0.50607296  0.66758150  1
  I  I87  1  0.16731361  0.82816634  0.00050549  1
  I  I88  1  0.17315655  0.83089184  0.32931364  1
  I  I89  1  0.16683600  0.82836186  0.67030766  1
  I  I90  1  0.49697929  0.16899096  0.00362499  1
  I  I91  1  0.49533765  0.16595940  0.33057526  1
  I  I92  1  0.50152851  0.16440980  0.66491015  1
  I  I93  1  0.49753697  0.49365550  0.00414091  1
  I  I94  1  0.49680282  0.50544817  0.32864125  1
  I  I95  1  0.49899807  0.49912494  0.66678193  1
  I  I96  1  0.49872329  0.83523432  0.00113340  1
  I  I97  1  0.49359936  0.83009247  0.32921154  1
  I  I98  1  0.49910625  0.83629615  0.66986854  1
  I  I99  1  0.83145743  0.16252847  -0.00247915  1
  I  I100  1  0.83555768  0.16866294  0.33321292  1
  I  I101  1  0.83476460  0.16148589  0.67092382  1
  I  I102  1  0.83625083  0.49975135  0.00299417  1
  I  I103  1  0.83527578  0.49906147  0.32870265  1
  I  I104  1  0.83489917  0.50007440  0.66683967  1
  I  I105  1  0.83371517  0.83609809  -0.00284744  1
  I  I106  1  0.83351754  0.83186857  0.33311432  1
  I  I107  1  0.83437574  0.83687912  0.67236387  1
  I  I108  1  0.00272954  0.16855830  0.16327758  1
  I  I109  1  0.00001951  0.16748596  0.49917808  1
  I  I110  1  -0.00247087  0.16169991  0.83677083  1
  I  I111  1  0.00211869  0.49963501  0.16589790  1
  I  I112  1  0.00401207  0.49950804  0.49774830  1
  I  I113  1  0.00364418  0.50520446  0.83768918  1
  I  I114  1  0.00321989  0.83141470  0.16186473  1
  I  I115  1  0.00026005  0.83362969  0.49781499  1
  I  I116  1  0.00116174  0.83213919  0.83874007  1
  I  I117  1  0.33352143  0.17125706  0.16850936  1
  I  I118  1  0.33618341  0.16660583  0.49913599  1
  I  I119  1  0.33338846  0.16694721  0.83157201  1
  I  I120  1  0.33240300  0.49978132  0.16669083  1
  I  I121  1  0.32987522  0.50072499  0.49720547  1
  I  I122  1  0.32906059  0.50328344  0.83652822  1
  I  I123  1  0.33299032  0.82900781  0.15882239  1
  I  I124  1  0.33328219  0.83339527  0.50530446  1
  I  I125  1  0.33268722  0.82850247  0.83858823  1
  I  I126  1  0.66332697  0.16698852  0.16889149  1
  I  I127  1  0.66282427  0.16602403  0.48974715  1
  I  I128  1  0.66941772  0.16069654  0.83619373  1
  I  I129  1  0.66571785  0.49911789  0.16486374  1
  I  I130  1  0.66633313  0.49919824  0.49949937  1
  I  I131  1  0.66647370  0.50036317  0.83542615  1
  I  I132  1  0.66355387  0.83345883  0.16194518  1
  I  I133  1  0.66640681  0.83309670  0.49865619  1
  I  I134  1  0.66619014  0.84025047  0.83925725  1
