# generated using pymatgen
data_Cs27Sn13Pb14I81
_symmetry_space_group_name_H-M   'P 1'
_cell_length_a   18.98012998
_cell_length_b   18.98079459
_cell_length_c   18.96875410
_cell_angle_alpha   90.00015369
_cell_angle_beta   90.00081134
_cell_angle_gamma   89.99857527
_symmetry_Int_Tables_number   1
_chemical_formula_structural   Cs27Sn13Pb14I81
_chemical_formula_sum   'Cs27 Sn13 Pb14 I81'
_cell_volume   6833.64443289
_cell_formula_units_Z   1
loop_
 _symmetry_equiv_pos_site_id
 _symmetry_equiv_pos_as_xyz
  1  'x, y, z'
loop_
 _atom_site_type_symbol
 _atom_site_label
 _atom_site_symmetry_multiplicity
 _atom_site_fract_x
 _atom_site_fract_y
 _atom_site_fract_z
 _atom_site_occupancy
  Cs  Cs0  1  -0.00412797  -0.00044026  -0.00270775  1
  Cs  Cs1  1  0.00698904  0.00104526  0.33409258  1
  Cs  Cs2  1  0.00019660  0.00056988  0.66712849  1
  Cs  Cs3  1  0.00066025  0.33627615  -0.00112349  1
  Cs  Cs4  1  0.00001384  0.33303585  0.33215276  1
  Cs  Cs5  1  0.00171438  0.33277268  0.66676228  1
  Cs  Cs6  1  0.00200738  0.66543126  -0.00201232  1
  Cs  Cs7  1  -0.00343268  0.66606044  0.33431887  1
  Cs  Cs8  1  -0.00083272  0.66597100  0.66759590  1
  Cs  Cs9  1  0.33599998  0.00203770  0.00434778  1
  Cs  Cs10  1  0.32486835  -0.00715820  0.32785324  1
  Cs  Cs11  1  0.33225403  0.00063519  0.66580614  1
  Cs  Cs12  1  0.33387325  0.33302234  0.00749005  1
  Cs  Cs13  1  0.33161871  0.33073927  0.33217752  1
  Cs  Cs14  1  0.33540710  0.33632829  0.66570248  1
  Cs  Cs15  1  0.32988747  0.66486230  0.00330681  1
  Cs  Cs16  1  0.33547330  0.67542124  0.32737533  1
  Cs  Cs17  1  0.33522546  0.66260835  0.66759700  1
  Cs  Cs18  1  0.66907704  0.00182936  -0.00203393  1
  Cs  Cs19  1  0.66597138  -0.00271612  0.33402163  1
  Cs  Cs20  1  0.66623663  0.00069287  0.66864183  1
  Cs  Cs21  1  0.66533578  0.33072109  0.00104512  1
  Cs  Cs22  1  0.66792196  0.33745605  0.33481971  1
  Cs  Cs23  1  0.66493258  0.33290194  0.66637160  1
  Cs  Cs24  1  0.66712262  0.66733281  -0.00065039  1
  Cs  Cs25  1  0.66651084  0.66506350  0.33504747  1
  Cs  Cs26  1  0.66586293  0.66630623  0.66526674  1
  Sn  Sn27  1  0.83308787  0.16579359  0.16682524  1
  Sn  Sn28  1  0.49873604  0.49919690  0.50053084  1
  Sn  Sn29  1  0.83401927  0.16703052  0.83313568  1
  Sn  Sn30  1  0.83321948  0.83314643  0.83371499  1
  Sn  Sn31  1  0.49976042  0.83262010  0.83299939  1
  Sn  Sn32  1  0.83227343  0.49978722  0.83298071  1
  Sn  Sn33  1  0.50075038  0.50044250  0.83323148  1
  Sn  Sn34  1  0.50016154  0.16669827  0.49986670  1
  Sn  Sn35  1  0.16702334  0.83432314  0.83293907  1
  Sn  Sn36  1  0.83319309  0.83408572  0.16597902  1
  Sn  Sn37  1  0.16787952  0.50031584  0.50001470  1
  Sn  Sn38  1  0.16652451  0.16632013  0.83311835  1
  Sn  Sn39  1  0.83250807  0.16651725  0.49997478  1
  Pb  Pb40  1  0.49971762  0.16695211  0.83219681  1
  Pb  Pb41  1  0.16665145  0.83048354  0.50250398  1
  Pb  Pb42  1  0.16725599  0.49977718  0.83254903  1
  Pb  Pb43  1  0.16349699  0.83333891  0.16358713  1
  Pb  Pb44  1  0.16660774  0.50010086  0.17057125  1
  Pb  Pb45  1  0.83294505  0.49788668  0.50222583  1
  Pb  Pb46  1  0.16700856  0.16799008  0.50189180  1
  Pb  Pb47  1  0.83321860  0.50006849  0.16383159  1
  Pb  Pb48  1  0.50011064  0.49995576  0.16695672  1
  Pb  Pb49  1  0.16391205  0.16673178  0.16352275  1
  Pb  Pb50  1  0.49999802  0.83342951  0.50187069  1
  Pb  Pb51  1  0.50252057  0.16655247  0.17067680  1
  Pb  Pb52  1  0.50287014  0.83342338  0.16348680  1
  Pb  Pb53  1  0.83343111  0.83609227  0.50024838  1
  I  I54  1  0.16865893  0.00003657  0.17042515  1
  I  I55  1  0.16636994  0.00005178  0.50013508  1
  I  I56  1  0.16186063  -0.00009645  0.83182248  1
  I  I57  1  0.16341924  0.33314891  0.16200036  1
  I  I58  1  0.16726592  0.33572399  0.50570866  1
  I  I59  1  0.16098961  0.33100051  0.83078430  1
  I  I60  1  0.16377882  0.66692894  0.16340706  1
  I  I61  1  0.17187903  0.66260196  0.50409943  1
  I  I62  1  0.16291311  0.66910058  0.83139702  1
  I  I63  1  0.49984592  0.00003020  0.16567697  1
  I  I64  1  0.50692677  0.00298894  0.50367542  1
  I  I65  1  0.50312550  -0.00225403  0.83157866  1
  I  I66  1  0.50307606  0.33313974  0.16035434  1
  I  I67  1  0.50138765  0.33392590  0.50771532  1
  I  I68  1  0.50399998  0.33598807  0.82983696  1
  I  I69  1  0.50339164  0.66679774  0.17082952  1
  I  I70  1  0.49692709  0.66339782  0.50379953  1
  I  I71  1  0.50424439  0.66626854  0.82742478  1
  I  I72  1  0.83219167  0.00055911  0.15945442  1
  I  I73  1  0.82801692  0.00432429  0.50601929  1
  I  I74  1  0.83358112  0.00023648  0.83373970  1
  I  I75  1  0.83347167  0.33003275  0.16547130  1
  I  I76  1  0.83226729  0.32977970  0.50102388  1
  I  I77  1  0.83416506  0.33237012  0.83272583  1
  I  I78  1  0.83372720  0.66974765  0.16059066  1
  I  I79  1  0.83306385  0.66649804  0.50028029  1
  I  I80  1  0.83361590  0.66734345  0.83739759  1
  I  I81  1  0.16225099  0.16420656  -0.00488984  1
  I  I82  1  0.16525649  0.16934452  0.33342136  1
  I  I83  1  0.15910906  0.16323475  0.66997605  1
  I  I84  1  0.16594790  0.50005734  -0.00028313  1
  I  I85  1  0.17134590  0.49693380  0.33858820  1
  I  I86  1  0.16775819  0.49945678  0.66493524  1
  I  I87  1  0.16841349  0.83541497  -0.00491061  1
  I  I88  1  0.16543798  0.83199997  0.33308670  1
  I  I89  1  0.16184891  0.83747762  0.67114064  1
  I  I90  1  0.50018160  0.16707516  -0.00006584  1
  I  I91  1  0.50585244  0.17486581  0.33865727  1
  I  I92  1  0.50661363  0.16816434  0.66444108  1
  I  I93  1  0.50480336  0.50380777  -0.00376422  1
  I  I94  1  0.49700353  0.49443820  0.33726588  1
  I  I95  1  0.50073062  0.50009795  0.66744179  1
  I  I96  1  0.49824995  0.82797609  -0.00519338  1
  I  I97  1  0.50212938  0.83230407  0.33316981  1
  I  I98  1  0.50470794  0.83200956  0.67072896  1
  I  I99  1  0.83774589  0.16560861  -0.00161761  1
  I  I100  1  0.82761913  0.16296902  0.33362120  1
  I  I101  1  0.83340291  0.16679393  0.66802319  1
  I  I102  1  0.82899024  0.49609004  -0.00490008  1
  I  I103  1  0.83362852  0.50019901  0.33356184  1
  I  I104  1  0.83230777  0.50104307  0.67072565  1
  I  I105  1  0.83275359  0.83826031  -0.00247518  1
  I  I106  1  0.83307682  0.83728927  0.33040464  1
  I  I107  1  0.83330394  0.83396339  0.67072015  1
  I  I108  1  -0.00457503  0.16255798  0.17151906  1
  I  I109  1  -0.00290208  0.16819086  0.49994447  1
  I  I110  1  -0.00220716  0.16420904  0.83127536  1
  I  I111  1  -0.00046137  0.49973202  0.16598657  1
  I  I112  1  0.00159744  0.49862148  0.50330426  1
  I  I113  1  -0.00251648  0.50152828  0.83164300  1
  I  I114  1  -0.00432890  0.83782056  0.16025951  1
  I  I115  1  -0.00015740  0.83223829  0.50315213  1
  I  I116  1  -0.00125748  0.83380579  0.83679225  1
  I  I117  1  0.33322746  0.16790289  0.16539515  1
  I  I118  1  0.33600327  0.17062501  0.50600266  1
  I  I119  1  0.33104121  0.16359798  0.82898726  1
  I  I120  1  0.33341843  0.49936192  0.15943222  1
  I  I121  1  0.33497402  0.49300571  0.50995438  1
  I  I122  1  0.33621052  0.50328357  0.82959450  1
  I  I123  1  0.33320220  0.83263324  0.16614323  1
  I  I124  1  0.33340709  0.83830048  0.50295877  1
  I  I125  1  0.33345700  0.83297581  0.82933780  1
  I  I126  1  0.67101476  0.16343344  0.15870062  1
  I  I127  1  0.66756644  0.17212101  0.50340673  1
  I  I128  1  0.66984599  0.16453343  0.83437158  1
  I  I129  1  0.66698642  0.50012026  0.17053467  1
  I  I130  1  0.66388531  0.49750848  0.50317264  1
  I  I131  1  0.66693947  0.50281652  0.82801906  1
  I  I132  1  0.67080425  0.83760701  0.15996877  1
  I  I133  1  0.66683719  0.82967443  0.50271748  1
  I  I134  1  0.66770732  0.83317426  0.83641811  1
