# generated using pymatgen
data_Cs27Sn14Pb13I81
_symmetry_space_group_name_H-M   'P 1'
_cell_length_a   18.98071872
_cell_length_b   18.97244194
_cell_length_c   18.97335434
_cell_angle_alpha   89.99820817
_cell_angle_beta   89.99967194
_cell_angle_gamma   89.99887063
_symmetry_Int_Tables_number   1
_chemical_formula_structural   Cs27Sn14Pb13I81
_chemical_formula_sum   'Cs27 Sn14 Pb13 I81'
_cell_volume   6832.50570606
_cell_formula_units_Z   1
loop_
 _symmetry_equiv_pos_site_id
 _symmetry_equiv_pos_as_xyz
  1  'x, y, z'
loop_
 _atom_site_type_symbol
 _atom_site_label
 _atom_site_symmetry_multiplicity
 _atom_site_fract_x
 _atom_site_fract_y
 _atom_site_fract_z
 _atom_site_occupancy
  Cs  Cs0  1  0.00026864  0.00080631  -0.00272439  1
  Cs  Cs1  1  -0.00222316  0.00236068  0.33552217  1
  Cs  Cs2  1  -0.00106356  -0.00068497  0.66623071  1
  Cs  Cs3  1  0.00071165  0.33447368  0.00190724  1
  Cs  Cs4  1  -0.00066682  0.33121486  0.33047619  1
  Cs  Cs5  1  0.00181096  0.33326025  0.66768332  1
  Cs  Cs6  1  0.00480228  0.66575715  0.00287299  1
  Cs  Cs7  1  -0.00155303  0.66677713  0.33235337  1
  Cs  Cs8  1  0.00004237  0.66705822  0.66647072  1
  Cs  Cs9  1  0.34027900  -0.00799423  0.00285640  1
  Cs  Cs10  1  0.33664307  0.00374328  0.33155701  1
  Cs  Cs11  1  0.33278210  0.00261720  0.66616178  1
  Cs  Cs12  1  0.33195546  0.33448828  -0.00051467  1
  Cs  Cs13  1  0.33611067  0.32901507  0.33716154  1
  Cs  Cs14  1  0.33140536  0.33425807  0.66453329  1
  Cs  Cs15  1  0.33157216  0.67207799  0.00241882  1
  Cs  Cs16  1  0.33322204  0.66837861  0.33260503  1
  Cs  Cs17  1  0.33221161  0.66394557  0.66623525  1
  Cs  Cs18  1  0.66006995  0.00105389  -0.00601685  1
  Cs  Cs19  1  0.67017592  -0.00231929  0.33141594  1
  Cs  Cs20  1  0.66959074  -0.00073502  0.67625034  1
  Cs  Cs21  1  0.66530646  0.33337169  -0.00115455  1
  Cs  Cs22  1  0.66557683  0.33353326  0.33253235  1
  Cs  Cs23  1  0.66399745  0.33540778  0.66858999  1
  Cs  Cs24  1  0.66467749  0.66388044  -0.00054542  1
  Cs  Cs25  1  0.66943013  0.66703874  0.33676201  1
  Cs  Cs26  1  0.66733939  0.66480123  0.66364049  1
  Sn  Sn27  1  0.16669755  0.83275785  0.49986865  1
  Sn  Sn28  1  0.83402848  0.50004204  0.83277712  1
  Sn  Sn29  1  0.16648570  0.49943781  0.83291531  1
  Sn  Sn30  1  0.16554546  0.50065211  0.50016952  1
  Sn  Sn31  1  0.83381331  0.16540441  0.16682288  1
  Sn  Sn32  1  0.83348302  0.83435450  0.16655774  1
  Sn  Sn33  1  0.16663954  0.16700549  0.83482121  1
  Sn  Sn34  1  0.16621048  0.16650840  0.16533062  1
  Sn  Sn35  1  0.83350581  0.83359213  0.49953479  1
  Sn  Sn36  1  0.83317055  0.16693692  0.49977084  1
  Sn  Sn37  1  0.83442736  0.49937553  0.50069394  1
  Sn  Sn38  1  0.49982143  0.49993969  0.16637921  1
  Sn  Sn39  1  0.50014158  0.83373607  0.50022028  1
  Sn  Sn40  1  0.49931005  0.50010830  0.83434869  1
  Pb  Pb41  1  0.49990353  0.83049600  0.83070140  1
  Pb  Pb42  1  0.83509224  0.16900483  0.83374782  1
  Pb  Pb43  1  0.49978762  0.50121832  0.50018032  1
  Pb  Pb44  1  0.16876464  0.49828504  0.16738334  1
  Pb  Pb45  1  0.16663316  0.83322550  0.83123199  1
  Pb  Pb46  1  0.50065008  0.16842843  0.16668719  1
  Pb  Pb47  1  0.83209322  0.49977836  0.16693978  1
  Pb  Pb48  1  0.16440439  0.83621303  0.16943913  1
  Pb  Pb49  1  0.50389187  0.16339951  0.50009941  1
  Pb  Pb50  1  0.16494598  0.16688179  0.49999409  1
  Pb  Pb51  1  0.50281010  0.83110477  0.16873492  1
  Pb  Pb52  1  0.49661910  0.16906291  0.83319252  1
  Pb  Pb53  1  0.83352886  0.83065134  0.83366983  1
  I  I54  1  0.16523952  0.00411406  0.16210077  1
  I  I55  1  0.16512638  -0.00234140  0.49998782  1
  I  I56  1  0.16424665  0.00289868  0.83449339  1
  I  I57  1  0.15947013  0.33052765  0.16784303  1
  I  I58  1  0.16243423  0.33615069  0.50146178  1
  I  I59  1  0.16641176  0.33497107  0.83020006  1
  I  I60  1  0.16612390  0.66681314  0.16447979  1
  I  I61  1  0.16221867  0.66561400  0.50558709  1
  I  I62  1  0.16661036  0.66294772  0.83020999  1
  I  I63  1  0.49799363  -0.00023642  0.16879331  1
  I  I64  1  0.49607723  -0.00448946  0.49758782  1
  I  I65  1  0.49959565  -0.00013269  0.83223861  1
  I  I66  1  0.50296259  0.33643963  0.16428278  1
  I  I67  1  0.49972634  0.33342730  0.50002352  1
  I  I68  1  0.50376499  0.33758405  0.83499890  1
  I  I69  1  0.50107974  0.66337586  0.16226769  1
  I  I70  1  0.50522194  0.66894589  0.50024215  1
  I  I71  1  0.49772329  0.66215834  0.83695340  1
  I  I72  1  0.83790490  0.00043711  0.17779760  1
  I  I73  1  0.83410007  -0.00057413  0.49417026  1
  I  I74  1  0.83550145  0.00018350  0.82980296  1
  I  I75  1  0.83560147  0.33078458  0.17039564  1
  I  I76  1  0.83902105  0.33427803  0.49938865  1
  I  I77  1  0.83145339  0.33721613  0.82898736  1
  I  I78  1  0.83027121  0.66858877  0.17134972  1
  I  I79  1  0.83323833  0.66666782  0.49982850  1
  I  I80  1  0.83553136  0.66222086  0.82860190  1
  I  I81  1  0.15916088  0.17516461  -0.00011744  1
  I  I82  1  0.16383455  0.16698358  0.33138710  1
  I  I83  1  0.16553278  0.16895538  0.66859629  1
  I  I84  1  0.16365145  0.49672620  -0.00279245  1
  I  I85  1  0.16255076  0.50271211  0.33663602  1
  I  I86  1  0.16825578  0.49776955  0.66663069  1
  I  I87  1  0.16481715  0.83036554  0.00037141  1
  I  I88  1  0.16750887  0.82665658  0.33759658  1
  I  I89  1  0.16251531  0.83345569  0.66261923  1
  I  I90  1  0.50541159  0.16563577  -0.00008151  1
  I  I91  1  0.49363360  0.17216158  0.33347949  1
  I  I92  1  0.49943144  0.16928286  0.66651522  1
  I  I93  1  0.50214077  0.49903973  -0.00115633  1
  I  I94  1  0.50139207  0.50141159  0.33170860  1
  I  I95  1  0.50036164  0.50192255  0.66914199  1
  I  I96  1  0.50166103  0.83367434  0.00011092  1
  I  I97  1  0.49858962  0.82863595  0.33663519  1
  I  I98  1  0.50425183  0.83061099  0.66260482  1
  I  I99  1  0.83601970  0.16424944  0.00288295  1
  I  I100  1  0.83962917  0.16820926  0.33365323  1
  I  I101  1  0.83506614  0.16368363  0.66391180  1
  I  I102  1  0.83499352  0.49977330  -0.00249853  1
  I  I103  1  0.83574163  0.50087886  0.33655837  1
  I  I104  1  0.83160782  0.50033758  0.66536938  1
  I  I105  1  0.83320546  0.83671404  0.00302406  1
  I  I106  1  0.83335664  0.83127695  0.33529336  1
  I  I107  1  0.83325903  0.83565974  0.66295252  1
  I  I108  1  -0.00093432  0.16546638  0.16797253  1
  I  I109  1  -0.00313535  0.16331518  0.49887377  1
  I  I110  1  0.00283635  0.17405352  0.83363049  1
  I  I111  1  -0.00002189  0.50138387  0.16449385  1
  I  I112  1  -0.00064957  0.50455041  0.50728159  1
  I  I113  1  0.00051045  0.49640149  0.82737675  1
  I  I114  1  -0.00347616  0.83157317  0.17347748  1
  I  I115  1  -0.00101227  0.83174181  0.49693599  1
  I  I116  1  0.00000029  0.83020335  0.83050871  1
  I  I117  1  0.33053372  0.17004565  0.16356058  1
  I  I118  1  0.33318480  0.16714926  0.49953325  1
  I  I119  1  0.32853682  0.17269992  0.83679342  1
  I  I120  1  0.33629974  0.49833520  0.16365758  1
  I  I121  1  0.33052068  0.50417165  0.50272758  1
  I  I122  1  0.33229656  0.49532828  0.83131833  1
  I  I123  1  0.33331422  0.83397278  0.16872674  1
  I  I124  1  0.33250487  0.82573696  0.50221032  1
  I  I125  1  0.33319718  0.83164115  0.83110059  1
  I  I126  1  0.67031677  0.16459191  0.17297056  1
  I  I127  1  0.67211349  0.17038278  0.49305752  1
  I  I128  1  0.66680488  0.16826509  0.83288509  1
  I  I129  1  0.66444730  0.49894868  0.16328788  1
  I  I130  1  0.66963593  0.50121272  0.50236181  1
  I  I131  1  0.66713852  0.50159590  0.83229767  1
  I  I132  1  0.67063124  0.83869187  0.17449111  1
  I  I133  1  0.66842944  0.83125767  0.49545412  1
  I  I134  1  0.66686564  0.83157823  0.83041368  1
