# generated using pymatgen
data_Cs27Sn14Pb13I81
_symmetry_space_group_name_H-M   'P 1'
_cell_length_a   18.98438298
_cell_length_b   18.97045404
_cell_length_c   18.97504379
_cell_angle_alpha   90.00012922
_cell_angle_beta   89.99998882
_cell_angle_gamma   90.00012114
_symmetry_Int_Tables_number   1
_chemical_formula_structural   Cs27Sn14Pb13I81
_chemical_formula_sum   'Cs27 Sn14 Pb13 I81'
_cell_volume   6833.71714088
_cell_formula_units_Z   1
loop_
 _symmetry_equiv_pos_site_id
 _symmetry_equiv_pos_as_xyz
  1  'x, y, z'
loop_
 _atom_site_type_symbol
 _atom_site_label
 _atom_site_symmetry_multiplicity
 _atom_site_fract_x
 _atom_site_fract_y
 _atom_site_fract_z
 _atom_site_occupancy
  Cs  Cs0  1  0.00214826  -0.00126384  -0.00024847  1
  Cs  Cs1  1  -0.00154988  0.00092801  0.33957082  1
  Cs  Cs2  1  -0.00044559  -0.00178802  0.66027371  1
  Cs  Cs3  1  -0.00021783  0.33420813  -0.00186705  1
  Cs  Cs4  1  -0.00579208  0.33573438  0.33535756  1
  Cs  Cs5  1  0.00033603  0.33480304  0.66698159  1
  Cs  Cs6  1  0.00191635  0.66736107  0.00028614  1
  Cs  Cs7  1  0.00105127  0.66422828  0.33295863  1
  Cs  Cs8  1  -0.00079297  0.66298477  0.66705925  1
  Cs  Cs9  1  0.33216634  0.00189767  0.00189983  1
  Cs  Cs10  1  0.33228123  -0.00026490  0.33116470  1
  Cs  Cs11  1  0.33152416  0.00179298  0.66358254  1
  Cs  Cs12  1  0.33250503  0.33077400  -0.00163716  1
  Cs  Cs13  1  0.33522216  0.33386879  0.33276055  1
  Cs  Cs14  1  0.33262139  0.33236473  0.66810918  1
  Cs  Cs15  1  0.33125950  0.66651733  0.00126018  1
  Cs  Cs16  1  0.33584712  0.66544243  0.33367948  1
  Cs  Cs17  1  0.33958164  0.66610051  0.66393909  1
  Cs  Cs18  1  0.66613291  -0.00060575  0.00094633  1
  Cs  Cs19  1  0.66914274  0.00193752  0.33132313  1
  Cs  Cs20  1  0.66838471  -0.00739137  0.66675741  1
  Cs  Cs21  1  0.66817694  0.33298008  0.00002159  1
  Cs  Cs22  1  0.66957253  0.33364418  0.33181072  1
  Cs  Cs23  1  0.66692364  0.33474645  0.66818053  1
  Cs  Cs24  1  0.66381216  0.66970511  -0.00158960  1
  Cs  Cs25  1  0.66195912  0.66403561  0.33363850  1
  Cs  Cs26  1  0.66176483  0.67198750  0.66595492  1
  Sn  Sn27  1  0.50010923  0.16661296  0.49997519  1
  Sn  Sn28  1  0.83390791  0.83325127  0.16667187  1
  Sn  Sn29  1  0.16654819  0.16617692  0.16641739  1
  Sn  Sn30  1  0.16619354  0.50014598  0.83245375  1
  Sn  Sn31  1  0.83373981  0.50021378  0.50118896  1
  Sn  Sn32  1  0.16612295  0.16619066  0.83372598  1
  Sn  Sn33  1  0.50012545  0.16647443  0.83315046  1
  Sn  Sn34  1  0.83384146  0.16669502  0.83331867  1
  Sn  Sn35  1  0.49934399  0.16609687  0.16670613  1
  Sn  Sn36  1  0.16639068  0.83441761  0.16613358  1
  Sn  Sn37  1  0.83384003  0.49978876  0.83256721  1
  Sn  Sn38  1  0.16634108  0.49974629  0.50087258  1
  Sn  Sn39  1  0.49956010  0.83426347  0.16634447  1
  Sn  Sn40  1  0.16666760  0.83357978  0.83336888  1
  Pb  Pb41  1  0.83551104  0.83302935  0.83474603  1
  Pb  Pb42  1  0.83340470  0.83027646  0.49736178  1
  Pb  Pb43  1  0.83401141  0.16502125  0.16457218  1
  Pb  Pb44  1  0.49697604  0.83619755  0.83534163  1
  Pb  Pb45  1  0.83335958  0.50253063  0.16563025  1
  Pb  Pb46  1  0.16787168  0.16881823  0.49965753  1
  Pb  Pb47  1  0.49982419  0.83637968  0.49721006  1
  Pb  Pb48  1  0.49991803  0.49923107  0.16630467  1
  Pb  Pb49  1  0.16667444  0.83067656  0.49980146  1
  Pb  Pb50  1  0.50015262  0.49779507  0.50023556  1
  Pb  Pb51  1  0.16667074  0.49936788  0.16623576  1
  Pb  Pb52  1  0.49991594  0.49810652  0.83350309  1
  Pb  Pb53  1  0.83091352  0.16854829  0.50304506  1
  I  I54  1  0.16867055  0.00015354  0.15806474  1
  I  I55  1  0.16865733  0.00021543  0.50220997  1
  I  I56  1  0.16763285  0.00112427  0.83979459  1
  I  I57  1  0.17299192  0.32987315  0.16294234  1
  I  I58  1  0.16391910  0.33658215  0.50418891  1
  I  I59  1  0.16703183  0.33247806  0.83390187  1
  I  I60  1  0.16760702  0.66969943  0.16341167  1
  I  I61  1  0.16294869  0.66266168  0.50323040  1
  I  I62  1  0.16053915  0.66625173  0.83522161  1
  I  I63  1  0.49867824  0.00112954  0.16610959  1
  I  I64  1  0.49858304  0.00434295  0.50364424  1
  I  I65  1  0.50190299  0.00463339  0.83165276  1
  I  I66  1  0.49432825  0.32886620  0.16643411  1
  I  I67  1  0.49893521  0.32987768  0.49696948  1
  I  I68  1  0.49511956  0.32925593  0.83684731  1
  I  I69  1  0.49878451  0.67008379  0.16687307  1
  I  I70  1  0.50017064  0.66667420  0.49739528  1
  I  I71  1  0.50042998  0.66718437  0.83540417  1
  I  I72  1  0.83293744  -0.00290227  0.16351582  1
  I  I73  1  0.83172564  0.00011077  0.50071168  1
  I  I74  1  0.83278674  0.00277257  0.83677229  1
  I  I75  1  0.83280929  0.33331306  0.16839899  1
  I  I76  1  0.83765539  0.33645997  0.49971144  1
  I  I77  1  0.83751410  0.33316422  0.83129316  1
  I  I78  1  0.83444622  0.67055961  0.16503637  1
  I  I79  1  0.83740659  0.66234812  0.50717053  1
  I  I80  1  0.83935977  0.66368751  0.83180416  1
  I  I81  1  0.17128338  0.16820903  -0.00103862  1
  I  I82  1  0.17253685  0.16289260  0.33022086  1
  I  I83  1  0.16822192  0.16466296  0.67009104  1
  I  I84  1  0.16221852  0.49957449  -0.00343949  1
  I  I85  1  0.16277887  0.49984740  0.33582436  1
  I  I86  1  0.16234199  0.49867932  0.66841775  1
  I  I87  1  0.16680678  0.83182568  0.00044329  1
  I  I88  1  0.16755706  0.83714952  0.32954249  1
  I  I89  1  0.16521692  0.83761041  0.66995914  1
  I  I90  1  0.49837166  0.16332167  0.00009880  1
  I  I91  1  0.49418668  0.16316649  0.33183769  1
  I  I92  1  0.49836614  0.17057073  0.66787992  1
  I  I93  1  0.50051317  0.49757717  -0.00023710  1
  I  I94  1  0.49988975  0.49767530  0.33343310  1
  I  I95  1  0.49893257  0.49752216  0.66688789  1
  I  I96  1  0.50232275  0.83884002  0.00348356  1
  I  I97  1  0.49645107  0.83800003  0.32881545  1
  I  I98  1  0.49931440  0.83418103  0.66690613  1
  I  I99  1  0.82989559  0.17317705  -0.00352651  1
  I  I100  1  0.83250557  0.16775952  0.33333490  1
  I  I101  1  0.83553827  0.16772211  0.67126362  1
  I  I102  1  0.83855618  0.49608190  -0.00372928  1
  I  I103  1  0.83778649  0.50174099  0.33588195  1
  I  I104  1  0.83921939  0.49462921  0.66791767  1
  I  I105  1  0.83153212  0.83170021  0.00282019  1
  I  I106  1  0.83604579  0.83394892  0.32907483  1
  I  I107  1  0.83495919  0.83571458  0.66688259  1
  I  I108  1  0.00319373  0.16290778  0.16121112  1
  I  I109  1  -0.00019172  0.16609287  0.49871615  1
  I  I110  1  0.00131664  0.16848265  0.83945646  1
  I  I111  1  0.00014442  0.50013346  0.16788389  1
  I  I112  1  0.00032861  0.49899312  0.50403499  1
  I  I113  1  0.00095828  0.49474084  0.82996079  1
  I  I114  1  0.00160970  0.83599054  0.16171085  1
  I  I115  1  0.00015075  0.83729176  0.49613061  1
  I  I116  1  0.00354388  0.83730575  0.84080830  1
  I  I117  1  0.33318393  0.15951228  0.16182946  1
  I  I118  1  0.33581237  0.16974594  0.50369514  1
  I  I119  1  0.33250490  0.16721307  0.83465828  1
  I  I120  1  0.33298160  0.50427178  0.16769944  1
  I  I121  1  0.33054624  0.49925171  0.50419303  1
  I  I122  1  0.32968288  0.49921860  0.83003803  1
  I  I123  1  0.33262871  0.83808204  0.16268564  1
  I  I124  1  0.33321414  0.82932028  0.49872519  1
  I  I125  1  0.32892219  0.83118046  0.83906289  1
  I  I126  1  0.66395814  0.16271915  0.16571442  1
  I  I127  1  0.66309881  0.16963842  0.49683262  1
  I  I128  1  0.66659210  0.17311419  0.83436655  1
  I  I129  1  0.66684718  0.50004941  0.16777316  1
  I  I130  1  0.66966374  0.49840760  0.50380645  1
  I  I131  1  0.66995803  0.49481155  0.82998139  1
  I  I132  1  0.66590767  0.83735021  0.16751025  1
  I  I133  1  0.66656394  0.83056998  0.49921742  1
  I  I134  1  0.66649038  0.83286201  0.83582645  1
