# generated using pymatgen
data_Cs27Sn13Pb14I81
_symmetry_space_group_name_H-M   'P 1'
_cell_length_a   18.98983793
_cell_length_b   19.00292038
_cell_length_c   18.98440516
_cell_angle_alpha   90.00191667
_cell_angle_beta   89.99826649
_cell_angle_gamma   90.00078629
_symmetry_Int_Tables_number   1
_chemical_formula_structural   Cs27Sn13Pb14I81
_chemical_formula_sum   'Cs27 Sn13 Pb14 I81'
_cell_volume   6850.75758363
_cell_formula_units_Z   1
loop_
 _symmetry_equiv_pos_site_id
 _symmetry_equiv_pos_as_xyz
  1  'x, y, z'
loop_
 _atom_site_type_symbol
 _atom_site_label
 _atom_site_symmetry_multiplicity
 _atom_site_fract_x
 _atom_site_fract_y
 _atom_site_fract_z
 _atom_site_occupancy
  Cs  Cs0  1  0.00054431  -0.00042698  0.00136747  1
  Cs  Cs1  1  0.00228897  -0.00241440  0.33393229  1
  Cs  Cs2  1  -0.00426973  -0.00311504  0.66524262  1
  Cs  Cs3  1  0.00152462  0.33247911  -0.00075454  1
  Cs  Cs4  1  -0.00047226  0.33343986  0.33334244  1
  Cs  Cs5  1  -0.00001148  0.34457178  0.66518366  1
  Cs  Cs6  1  -0.00185796  0.66921010  0.00071679  1
  Cs  Cs7  1  0.00509993  0.66804084  0.33761739  1
  Cs  Cs8  1  0.00315098  0.65978687  0.66136301  1
  Cs  Cs9  1  0.32825614  0.00211884  -0.00392115  1
  Cs  Cs10  1  0.33221416  0.00075772  0.33343007  1
  Cs  Cs11  1  0.33736577  0.00319627  0.66944303  1
  Cs  Cs12  1  0.33029388  0.33366632  -0.00809047  1
  Cs  Cs13  1  0.33697443  0.33126508  0.33343440  1
  Cs  Cs14  1  0.32939525  0.33070265  0.67075590  1
  Cs  Cs15  1  0.33830527  0.66515937  -0.00086966  1
  Cs  Cs16  1  0.33339190  0.66670333  0.33428189  1
  Cs  Cs17  1  0.33091654  0.66536475  0.66737483  1
  Cs  Cs18  1  0.66943202  -0.00126268  -0.00001459  1
  Cs  Cs19  1  0.66661864  0.00146057  0.33370883  1
  Cs  Cs20  1  0.66606604  -0.00026599  0.66681072  1
  Cs  Cs21  1  0.66734269  0.33632802  0.00266310  1
  Cs  Cs22  1  0.66376438  0.33062723  0.33205187  1
  Cs  Cs23  1  0.67096489  0.33429234  0.66646344  1
  Cs  Cs24  1  0.66680497  0.66643582  0.00092657  1
  Cs  Cs25  1  0.66345665  0.66806772  0.33008814  1
  Cs  Cs26  1  0.66808130  0.66598248  0.66996691  1
  Sn  Sn27  1  0.83454041  0.50024047  0.16703559  1
  Sn  Sn28  1  0.50026047  0.49968942  0.50018647  1
  Sn  Sn29  1  0.50023076  0.16551980  0.16657131  1
  Sn  Sn30  1  0.16537983  0.83344362  0.83338575  1
  Sn  Sn31  1  0.83337550  0.16600668  0.83407045  1
  Sn  Sn32  1  0.49917090  0.16666759  0.49935520  1
  Sn  Sn33  1  0.83296232  0.83358098  0.16649945  1
  Sn  Sn34  1  0.16686903  0.16634317  0.49982863  1
  Sn  Sn35  1  0.50032351  0.83350564  0.49927660  1
  Sn  Sn36  1  0.83283521  0.16629414  0.16607199  1
  Sn  Sn37  1  0.83460586  0.83412685  0.83396144  1
  Sn  Sn38  1  0.50038846  0.83497985  0.16728783  1
  Sn  Sn39  1  0.16629710  0.49993071  0.16662805  1
  Pb  Pb40  1  0.50010540  0.49975636  0.82994719  1
  Pb  Pb41  1  0.50262709  0.16663216  0.83385363  1
  Pb  Pb42  1  0.50001383  0.49965083  0.16763974  1
  Pb  Pb43  1  0.16641817  0.50267408  0.83590965  1
  Pb  Pb44  1  0.83122963  0.83317961  0.49985080  1
  Pb  Pb45  1  0.16914410  0.49771946  0.49767589  1
  Pb  Pb46  1  0.16954516  0.83535965  0.50240023  1
  Pb  Pb47  1  0.83309240  0.16663444  0.49980593  1
  Pb  Pb48  1  0.83332361  0.50046117  0.83583601  1
  Pb  Pb49  1  0.16714121  0.83174131  0.16531546  1
  Pb  Pb50  1  0.16315629  0.16485457  0.83057965  1
  Pb  Pb51  1  0.83088560  0.50022941  0.49665372  1
  Pb  Pb52  1  0.50074426  0.83353082  0.83399872  1
  Pb  Pb53  1  0.16677249  0.16826347  0.16785275  1
  I  I54  1  0.16495407  0.00000109  0.16698012  1
  I  I55  1  0.17265261  0.00288320  0.49755626  1
  I  I56  1  0.16587016  -0.00276387  0.83557359  1
  I  I57  1  0.16265197  0.33597483  0.16877137  1
  I  I58  1  0.17268674  0.33013508  0.49987763  1
  I  I59  1  0.16662169  0.33323274  0.83248789  1
  I  I60  1  0.16285439  0.66400427  0.16617441  1
  I  I61  1  0.16825116  0.66666155  0.50102467  1
  I  I62  1  0.15991299  0.67036586  0.83217873  1
  I  I63  1  0.50862875  0.00004020  0.17568996  1
  I  I64  1  0.49647142  0.00042570  0.49555467  1
  I  I65  1  0.49799709  -0.00004303  0.82760321  1
  I  I66  1  0.50466739  0.33048338  0.17248042  1
  I  I67  1  0.49701013  0.33197714  0.49376564  1
  I  I68  1  0.50159950  0.33298795  0.83541942  1
  I  I69  1  0.50315639  0.66923499  0.17043855  1
  I  I70  1  0.50232404  0.66746041  0.49431116  1
  I  I71  1  0.50228033  0.66704665  0.83461456  1
  I  I72  1  0.82730930  -0.00009918  0.16218291  1
  I  I73  1  0.83141111  0.00004975  0.49654799  1
  I  I74  1  0.83618457  -0.00064456  0.84200718  1
  I  I75  1  0.83179797  0.33229579  0.16354530  1
  I  I76  1  0.83073149  0.33319794  0.50102634  1
  I  I77  1  0.83062128  0.33048501  0.83676231  1
  I  I78  1  0.83101353  0.66784493  0.16232163  1
  I  I79  1  0.83096262  0.66676675  0.50096632  1
  I  I80  1  0.83491212  0.67016192  0.83774825  1
  I  I81  1  0.17013542  0.16798729  -0.00016865  1
  I  I82  1  0.16741075  0.16666099  0.33574403  1
  I  I83  1  0.17565741  0.16587886  0.66308178  1
  I  I84  1  0.16422268  0.49743440  0.00369888  1
  I  I85  1  0.16086508  0.50222033  0.33020690  1
  I  I86  1  0.16847182  0.49983513  0.66647592  1
  I  I87  1  0.16714902  0.83360500  -0.00249204  1
  I  I88  1  0.16416954  0.83253542  0.33337919  1
  I  I89  1  0.16014303  0.83375030  0.67002855  1
  I  I90  1  0.50252506  0.16105709  0.00375894  1
  I  I91  1  0.50295435  0.16628022  0.33302906  1
  I  I92  1  0.49722015  0.16581829  0.66339083  1
  I  I93  1  0.49976016  0.50093270  0.00048347  1
  I  I94  1  0.50103016  0.49973120  0.33560749  1
  I  I95  1  0.49945953  0.50080264  0.66149102  1
  I  I96  1  0.50136185  0.83741079  0.00360041  1
  I  I97  1  0.50583882  0.83376245  0.33238338  1
  I  I98  1  0.49979109  0.83392479  0.66385231  1
  I  I99  1  0.82772728  0.16597823  0.00186813  1
  I  I100  1  0.83129100  0.16615812  0.32983813  1
  I  I101  1  0.83212779  0.15996748  0.66930069  1
  I  I102  1  0.83434021  0.49979210  0.00413894  1
  I  I103  1  0.83689745  0.49914723  0.32845691  1
  I  I104  1  0.83140084  0.49912045  0.66666408  1
  I  I105  1  0.83056427  0.83374784  0.00144538  1
  I  I106  1  0.83031232  0.83489546  0.32956046  1
  I  I107  1  0.83413803  0.83966432  0.66983613  1
  I  I108  1  -0.00329958  0.16440576  0.16490394  1
  I  I109  1  0.00219602  0.16641959  0.49927034  1
  I  I110  1  -0.00428245  0.16386663  0.84052471  1
  I  I111  1  -0.00148248  0.49942179  0.16603827  1
  I  I112  1  0.00024211  0.49767950  0.50145122  1
  I  I113  1  -0.00022594  0.49741952  0.82996172  1
  I  I114  1  -0.00314345  0.83601266  0.16346543  1
  I  I115  1  0.00017777  0.83582821  0.49725922  1
  I  I116  1  -0.00178966  0.83845108  0.84108251  1
  I  I117  1  0.33656306  0.16354118  0.17107425  1
  I  I118  1  0.33555430  0.16630424  0.49329564  1
  I  I119  1  0.33312877  0.16545686  0.83556524  1
  I  I120  1  0.33164528  0.50118854  0.16951410  1
  I  I121  1  0.33685992  0.50332173  0.49482711  1
  I  I122  1  0.33303905  0.50273032  0.83843368  1
  I  I123  1  0.33670438  0.83550610  0.16940819  1
  I  I124  1  0.33758146  0.83105765  0.49410073  1
  I  I125  1  0.33148066  0.83177227  0.83270493  1
  I  I126  1  0.66689240  0.16817022  0.16938715  1
  I  I127  1  0.66330513  0.16651506  0.49832654  1
  I  I128  1  0.67027267  0.15875554  0.83263433  1
  I  I129  1  0.66925526  0.49999593  0.16800995  1
  I  I130  1  0.66288256  0.49611460  0.49770346  1
  I  I131  1  0.66702104  0.50283314  0.83541254  1
  I  I132  1  0.66714663  0.83121321  0.16490922  1
  I  I133  1  0.66282005  0.83745797  0.50004604  1
  I  I134  1  0.66987422  0.83710689  0.83442566  1
