# generated using pymatgen
data_Cs27Sn14Pb13I81
_symmetry_space_group_name_H-M   'P 1'
_cell_length_a   18.95531459
_cell_length_b   18.96406601
_cell_length_c   18.96513523
_cell_angle_alpha   89.99964960
_cell_angle_beta   89.99732929
_cell_angle_gamma   90.00065375
_symmetry_Int_Tables_number   1
_chemical_formula_structural   Cs27Sn14Pb13I81
_chemical_formula_sum   'Cs27 Sn14 Pb13 I81'
_cell_volume   6817.39406292
_cell_formula_units_Z   1
loop_
 _symmetry_equiv_pos_site_id
 _symmetry_equiv_pos_as_xyz
  1  'x, y, z'
loop_
 _atom_site_type_symbol
 _atom_site_label
 _atom_site_symmetry_multiplicity
 _atom_site_fract_x
 _atom_site_fract_y
 _atom_site_fract_z
 _atom_site_occupancy
  Cs  Cs0  1  -0.00141024  -0.00223106  -0.00104099  1
  Cs  Cs1  1  0.00064304  0.00166264  0.33407304  1
  Cs  Cs2  1  0.00359080  0.00029654  0.66763816  1
  Cs  Cs3  1  0.00153480  0.33431249  0.00040804  1
  Cs  Cs4  1  -0.00221813  0.33246572  0.33412912  1
  Cs  Cs5  1  -0.00055389  0.33115106  0.66532876  1
  Cs  Cs6  1  -0.00019359  0.66709129  0.00062384  1
  Cs  Cs7  1  0.00060219  0.66598782  0.33040089  1
  Cs  Cs8  1  -0.00232765  0.66693376  0.66880955  1
  Cs  Cs9  1  0.33813510  0.00394783  0.00023718  1
  Cs  Cs10  1  0.33486658  -0.00301569  0.33612454  1
  Cs  Cs11  1  0.33090397  0.00266591  0.66293244  1
  Cs  Cs12  1  0.33285435  0.33253641  -0.00236772  1
  Cs  Cs13  1  0.33429105  0.33799546  0.33362104  1
  Cs  Cs14  1  0.33436300  0.33128774  0.66786557  1
  Cs  Cs15  1  0.33119860  0.66477839  0.00064278  1
  Cs  Cs16  1  0.33306756  0.66571526  0.33430983  1
  Cs  Cs17  1  0.33559949  0.66730157  0.66501078  1
  Cs  Cs18  1  0.66333724  0.00177593  0.00410497  1
  Cs  Cs19  1  0.66418143  0.00311877  0.32822550  1
  Cs  Cs20  1  0.66651655  -0.00536235  0.66888921  1
  Cs  Cs21  1  0.66483452  0.33153070  0.00019463  1
  Cs  Cs22  1  0.66715200  0.33145097  0.33555108  1
  Cs  Cs23  1  0.66598890  0.33629745  0.66335971  1
  Cs  Cs24  1  0.66846874  0.66690107  -0.00213203  1
  Cs  Cs25  1  0.66683590  0.66610966  0.33380008  1
  Cs  Cs26  1  0.66795030  0.66568512  0.66882446  1
  Sn  Sn27  1  0.83350131  0.83350417  0.49954672  1
  Sn  Sn28  1  0.49929948  0.49946060  0.49931206  1
  Sn  Sn29  1  0.83413153  0.83357453  0.83369191  1
  Sn  Sn30  1  0.16609348  0.83461195  0.16577863  1
  Sn  Sn31  1  0.16578954  0.50075681  0.83209431  1
  Sn  Sn32  1  0.83233673  0.50036603  0.16595284  1
  Sn  Sn33  1  0.16695555  0.50020456  0.50135365  1
  Sn  Sn34  1  0.83425402  0.49956637  0.83427308  1
  Sn  Sn35  1  0.50134325  0.50035701  0.16709037  1
  Sn  Sn36  1  0.16637449  0.83258573  0.83420727  1
  Sn  Sn37  1  0.16642125  0.16532982  0.16670313  1
  Sn  Sn38  1  0.83408478  0.83267809  0.16679029  1
  Sn  Sn39  1  0.50010384  0.16705269  0.50016353  1
  Sn  Sn40  1  0.83325505  0.16673937  0.83333109  1
  Pb  Pb41  1  0.16618152  0.50061445  0.16624311  1
  Pb  Pb42  1  0.83477197  0.16674667  0.16498182  1
  Pb  Pb43  1  0.16502653  0.16650511  0.83487892  1
  Pb  Pb44  1  0.50274067  0.16667595  0.83089712  1
  Pb  Pb45  1  0.16471802  0.83129336  0.50004138  1
  Pb  Pb46  1  0.49984898  0.50013652  0.83321001  1
  Pb  Pb47  1  0.49917305  0.83337378  0.83352532  1
  Pb  Pb48  1  0.49741646  0.16942467  0.16844344  1
  Pb  Pb49  1  0.83140975  0.16364803  0.50233482  1
  Pb  Pb50  1  0.50248952  0.83269967  0.49991216  1
  Pb  Pb51  1  0.83331863  0.50132291  0.49990820  1
  Pb  Pb52  1  0.49970377  0.83091584  0.16646964  1
  Pb  Pb53  1  0.16828005  0.16922352  0.49773182  1
  I  I54  1  0.16041813  -0.00198630  0.16187555  1
  I  I55  1  0.16808939  -0.00016033  0.50210283  1
  I  I56  1  0.16119714  -0.00312083  0.83542654  1
  I  I57  1  0.16697311  0.33226470  0.16685220  1
  I  I58  1  0.16682859  0.33748398  0.50340199  1
  I  I59  1  0.16236388  0.33631159  0.83232796  1
  I  I60  1  0.16504393  0.66913501  0.16573791  1
  I  I61  1  0.17242901  0.66320679  0.49877256  1
  I  I62  1  0.15897210  0.66650081  0.83558755  1
  I  I63  1  0.50218298  0.00013463  0.16858571  1
  I  I64  1  0.50236932  0.00227823  0.50104295  1
  I  I65  1  0.50067289  0.00006253  0.83084555  1
  I  I66  1  0.50416287  0.33745765  0.16854167  1
  I  I67  1  0.49728583  0.33521523  0.49611364  1
  I  I68  1  0.50004795  0.33368702  0.83559938  1
  I  I69  1  0.49950655  0.66282977  0.17336397  1
  I  I70  1  0.49686633  0.66321581  0.49627726  1
  I  I71  1  0.50439809  0.66639719  0.83048570  1
  I  I72  1  0.83579757  -0.00321795  0.16571702  1
  I  I73  1  0.83234722  -0.00430280  0.49935748  1
  I  I74  1  0.83688031  -0.00169567  0.83218939  1
  I  I75  1  0.83237485  0.33637833  0.16249473  1
  I  I76  1  0.83469341  0.33339801  0.50035143  1
  I  I77  1  0.83707487  0.33502996  0.83784205  1
  I  I78  1  0.83523451  0.66689477  0.16283068  1
  I  I79  1  0.83201044  0.66916859  0.50378709  1
  I  I80  1  0.83674036  0.66670921  0.83392814  1
  I  I81  1  0.16598241  0.16869289  0.00276087  1
  I  I82  1  0.16523727  0.16234171  0.32989662  1
  I  I83  1  0.16706781  0.16490915  0.66664789  1
  I  I84  1  0.16552526  0.50090977  -0.00248838  1
  I  I85  1  0.16780858  0.50004515  0.33486353  1
  I  I86  1  0.16615058  0.50486208  0.66784896  1
  I  I87  1  0.15809686  0.82981058  -0.00022687  1
  I  I88  1  0.16196452  0.83451134  0.33054343  1
  I  I89  1  0.16154299  0.83048935  0.66959731  1
  I  I90  1  0.49970472  0.16773141  0.00023201  1
  I  I91  1  0.50130430  0.16951046  0.33620995  1
  I  I92  1  0.49942656  0.17463635  0.66312659  1
  I  I93  1  0.50095673  0.50138985  0.00258635  1
  I  I94  1  0.49928623  0.49713188  0.33370384  1
  I  I95  1  0.49942232  0.49657211  0.66381035  1
  I  I96  1  0.50421025  0.83161104  0.00019007  1
  I  I97  1  0.50055399  0.83387281  0.33318669  1
  I  I98  1  0.50211438  0.83087820  0.66654825  1
  I  I99  1  0.83445905  0.16371420  -0.00303721  1
  I  I100  1  0.83357224  0.16684140  0.33330419  1
  I  I101  1  0.83390765  0.16854130  0.67039484  1
  I  I102  1  0.83372040  0.50456858  -0.00040956  1
  I  I103  1  0.83353340  0.50506923  0.33073997  1
  I  I104  1  0.83385618  0.50195549  0.66952712  1
  I  I105  1  0.83776074  0.83123787  -0.00016113  1
  I  I106  1  0.83681189  0.82700956  0.33166927  1
  I  I107  1  0.83549032  0.83242793  0.66833094  1
  I  I108  1  0.00263755  0.16858352  0.16669432  1
  I  I109  1  -0.00005364  0.16807610  0.49975200  1
  I  I110  1  -0.00312556  0.16681860  0.83319391  1
  I  I111  1  -0.00267110  0.50148287  0.16595661  1
  I  I112  1  0.00215893  0.50266835  0.50031085  1
  I  I113  1  -0.00074075  0.50162153  0.83374319  1
  I  I114  1  -0.00094778  0.83002872  0.16550156  1
  I  I115  1  -0.00334634  0.83063095  0.50064215  1
  I  I116  1  -0.00108332  0.83157438  0.83411950  1
  I  I117  1  0.32963002  0.16231756  0.16544954  1
  I  I118  1  0.33630608  0.16818577  0.49998243  1
  I  I119  1  0.33310766  0.16716943  0.83407843  1
  I  I120  1  0.33490394  0.49967303  0.16826998  1
  I  I121  1  0.33357422  0.49770036  0.49848859  1
  I  I122  1  0.32999026  0.50453393  0.83361136  1
  I  I123  1  0.32974513  0.83489637  0.16229473  1
  I  I124  1  0.33312308  0.83406922  0.50027282  1
  I  I125  1  0.32902193  0.82723459  0.83788259  1
  I  I126  1  0.66662594  0.16485447  0.16626723  1
  I  I127  1  0.66376609  0.17519397  0.49975191  1
  I  I128  1  0.67113021  0.16643907  0.83480811  1
  I  I129  1  0.66815504  0.50500588  0.16674951  1
  I  I130  1  0.66440513  0.49806568  0.49888845  1
  I  I131  1  0.67019624  0.50192518  0.83373450  1
  I  I132  1  0.67027420  0.83094984  0.16551647  1
  I  I133  1  0.67075758  0.83048148  0.50148031  1
  I  I134  1  0.67079415  0.83151286  0.83329305  1
