# generated using pymatgen
data_Cs27Sn13Pb14I81
_symmetry_space_group_name_H-M   'P 1'
_cell_length_a   18.98594722
_cell_length_b   18.97228153
_cell_length_c   18.97235027
_cell_angle_alpha   90.00134118
_cell_angle_beta   89.99906975
_cell_angle_gamma   90.00046659
_symmetry_Int_Tables_number   1
_chemical_formula_structural   Cs27Sn13Pb14I81
_chemical_formula_sum   'Cs27 Sn13 Pb14 I81'
_cell_volume   6833.96835610
_cell_formula_units_Z   1
loop_
 _symmetry_equiv_pos_site_id
 _symmetry_equiv_pos_as_xyz
  1  'x, y, z'
loop_
 _atom_site_type_symbol
 _atom_site_label
 _atom_site_symmetry_multiplicity
 _atom_site_fract_x
 _atom_site_fract_y
 _atom_site_fract_z
 _atom_site_occupancy
  Cs  Cs0  1  -0.00437120  -0.00293279  -0.00309315  1
  Cs  Cs1  1  0.00327869  0.00219906  0.33336806  1
  Cs  Cs2  1  0.00196206  -0.00505284  0.67011824  1
  Cs  Cs3  1  0.00124935  0.33491859  -0.00235827  1
  Cs  Cs4  1  0.00153646  0.33495782  0.33258508  1
  Cs  Cs5  1  0.00115003  0.33299993  0.66803682  1
  Cs  Cs6  1  0.00200728  0.66780562  0.00083924  1
  Cs  Cs7  1  -0.00672968  0.66273843  0.33178971  1
  Cs  Cs8  1  -0.00008195  0.66932795  0.66654993  1
  Cs  Cs9  1  0.33476533  -0.00070788  0.00128059  1
  Cs  Cs10  1  0.33126264  0.00258158  0.33490870  1
  Cs  Cs11  1  0.33240770  -0.00051819  0.66443649  1
  Cs  Cs12  1  0.33501464  0.33476492  0.00281261  1
  Cs  Cs13  1  0.33058408  0.32978272  0.32985361  1
  Cs  Cs14  1  0.33318386  0.33434626  0.66727067  1
  Cs  Cs15  1  0.33486956  0.66585186  -0.00080216  1
  Cs  Cs16  1  0.33283663  0.66880702  0.33498083  1
  Cs  Cs17  1  0.33340899  0.66558239  0.66729617  1
  Cs  Cs18  1  0.66821658  0.00079016  0.00062345  1
  Cs  Cs19  1  0.66537084  -0.00008909  0.33195041  1
  Cs  Cs20  1  0.66738085  0.00184239  0.66755877  1
  Cs  Cs21  1  0.66253384  0.33442272  -0.00083287  1
  Cs  Cs22  1  0.66806625  0.33278065  0.33390512  1
  Cs  Cs23  1  0.66557684  0.33187361  0.66701391  1
  Cs  Cs24  1  0.66205415  0.66442550  0.00112390  1
  Cs  Cs25  1  0.67263831  0.66738386  0.33691326  1
  Cs  Cs26  1  0.66638831  0.66575335  0.66099251  1
  Sn  Sn27  1  0.16589808  0.49934642  0.83257462  1
  Sn  Sn28  1  0.50052622  0.16763217  0.50060955  1
  Sn  Sn29  1  0.49997955  0.83360660  0.16614802  1
  Sn  Sn30  1  0.16744862  0.49990231  0.50057260  1
  Sn  Sn31  1  0.49892610  0.16586056  0.83277350  1
  Sn  Sn32  1  0.83311745  0.16658555  0.49958892  1
  Sn  Sn33  1  0.83398984  0.50005330  0.83327759  1
  Sn  Sn34  1  0.16671359  0.83339997  0.16679539  1
  Sn  Sn35  1  0.50009702  0.83428513  0.83360964  1
  Sn  Sn36  1  0.83312878  0.83421073  0.16651863  1
  Sn  Sn37  1  0.16764128  0.16701202  0.83340868  1
  Sn  Sn38  1  0.49900302  0.49879543  0.49978494  1
  Sn  Sn39  1  0.83330944  0.16643723  0.16731845  1
  Pb  Pb40  1  0.50000005  0.50261496  0.17043363  1
  Pb  Pb41  1  0.83348601  0.83652099  0.49783922  1
  Pb  Pb42  1  0.83321210  0.49945932  0.16420034  1
  Pb  Pb43  1  0.49997879  0.83400034  0.50003337  1
  Pb  Pb44  1  0.16670396  0.16838198  0.50202324  1
  Pb  Pb45  1  0.16878037  0.83303405  0.83486287  1
  Pb  Pb46  1  0.16410499  0.16467296  0.16361174  1
  Pb  Pb47  1  0.16685981  0.50190547  0.16646247  1
  Pb  Pb48  1  0.83306240  0.16785622  0.83335575  1
  Pb  Pb49  1  0.83355730  0.49766586  0.50203529  1
  Pb  Pb50  1  0.49945414  0.49981117  0.83173701  1
  Pb  Pb51  1  0.16645319  0.83025593  0.49751862  1
  Pb  Pb52  1  0.83045291  0.83066761  0.83532915  1
  Pb  Pb53  1  0.50154962  0.16499657  0.16678090  1
  I  I54  1  0.16938142  -0.00324932  0.16528303  1
  I  I55  1  0.16724546  0.00026411  0.50072875  1
  I  I56  1  0.16846355  0.00245294  0.83503992  1
  I  I57  1  0.16450150  0.33311557  0.16760277  1
  I  I58  1  0.16806391  0.33639139  0.50194954  1
  I  I59  1  0.16795556  0.33369092  0.83009504  1
  I  I60  1  0.16453827  0.67012614  0.16486214  1
  I  I61  1  0.17335368  0.66222657  0.50714694  1
  I  I62  1  0.16437675  0.66375392  0.83120050  1
  I  I63  1  0.49892125  -0.00325502  0.16669759  1
  I  I64  1  0.50451821  0.00337833  0.50119140  1
  I  I65  1  0.49551231  0.00120386  0.83168393  1
  I  I66  1  0.50253141  0.33305523  0.16345234  1
  I  I67  1  0.50099888  0.33227871  0.50706676  1
  I  I68  1  0.50008703  0.33058927  0.83059861  1
  I  I69  1  0.50206236  0.67102109  0.15995503  1
  I  I70  1  0.49602744  0.66414130  0.50046638  1
  I  I71  1  0.50031536  0.66872523  0.83692573  1
  I  I72  1  0.83264496  -0.00036671  0.16956753  1
  I  I73  1  0.82602851  0.00457502  0.50042155  1
  I  I74  1  0.83552964  -0.00001414  0.83211616  1
  I  I75  1  0.83280364  0.33019230  0.16972093  1
  I  I76  1  0.83084641  0.32995710  0.49379558  1
  I  I77  1  0.83302606  0.33565816  0.83505970  1
  I  I78  1  0.83333376  0.66967078  0.16457984  1
  I  I79  1  0.83223553  0.66633011  0.49903170  1
  I  I80  1  0.83883887  0.66308073  0.83414519  1
  I  I81  1  0.17201727  0.17357847  -0.00420298  1
  I  I82  1  0.16844017  0.16712596  0.33325472  1
  I  I83  1  0.16595368  0.16784141  0.67005073  1
  I  I84  1  0.16249382  0.49765312  -0.00338499  1
  I  I85  1  0.17080498  0.50186246  0.33629089  1
  I  I86  1  0.16703497  0.49634314  0.66758331  1
  I  I87  1  0.16486892  0.83188139  0.00288385  1
  I  I88  1  0.17015278  0.83334446  0.32923592  1
  I  I89  1  0.16864854  0.83479516  0.66696690  1
  I  I90  1  0.49856059  0.16451811  -0.00283952  1
  I  I91  1  0.50277138  0.16894812  0.33615216  1
  I  I92  1  0.50283834  0.16474832  0.66691106  1
  I  I93  1  0.50006346  0.49846247  -0.00015637  1
  I  I94  1  0.49478399  0.49451005  0.33833481  1
  I  I95  1  0.49941356  0.50082666  0.66396144  1
  I  I96  1  0.50023632  0.83841920  -0.00009720  1
  I  I97  1  0.50076335  0.83229083  0.33033334  1
  I  I98  1  0.49892530  0.83407896  0.66935545  1
  I  I99  1  0.83371645  0.16285670  0.00224046  1
  I  I100  1  0.82708471  0.16319123  0.33356764  1
  I  I101  1  0.83075497  0.17099545  0.66454109  1
  I  I102  1  0.83913154  0.49798552  -0.00358953  1
  I  I103  1  0.83343638  0.50218423  0.33351521  1
  I  I104  1  0.83408732  0.49735769  0.66967450  1
  I  I105  1  0.83499421  0.84044404  0.00348962  1
  I  I106  1  0.82949806  0.83202231  0.32918626  1
  I  I107  1  0.83178392  0.83366321  0.66698207  1
  I  I108  1  -0.00368055  0.16134302  0.17148799  1
  I  I109  1  -0.00237533  0.16839494  0.49655395  1
  I  I110  1  0.00206132  0.17007719  0.83401835  1
  I  I111  1  -0.00000647  0.50319131  0.17042779  1
  I  I112  1  0.00251242  0.49930299  0.50212769  1
  I  I113  1  0.00152084  0.49401775  0.82889027  1
  I  I114  1  -0.00061730  0.83683603  0.16714565  1
  I  I115  1  -0.00005203  0.83322796  0.49900030  1
  I  I116  1  -0.00000430  0.83548113  0.83554097  1
  I  I117  1  0.33325510  0.16434822  0.16886569  1
  I  I118  1  0.33621875  0.16825803  0.50267717  1
  I  I119  1  0.33434738  0.16823591  0.82813672  1
  I  I120  1  0.33343198  0.50226818  0.16217636  1
  I  I121  1  0.33356154  0.49590128  0.50626653  1
  I  I122  1  0.33074639  0.49961638  0.83075170  1
  I  I123  1  0.33407823  0.83123758  0.16211628  1
  I  I124  1  0.33343340  0.83680906  0.49624927  1
  I  I125  1  0.33661016  0.83268111  0.83966443  1
  I  I126  1  0.66942756  0.16062649  0.16558272  1
  I  I127  1  0.66542477  0.17208029  0.50206303  1
  I  I128  1  0.66390424  0.16482571  0.83250139  1
  I  I129  1  0.66663248  0.50294848  0.16464115  1
  I  I130  1  0.66435044  0.49885570  0.50207462  1
  I  I131  1  0.66799711  0.49978332  0.83301566  1
  I  I132  1  0.66659086  0.83753006  0.16241125  1
  I  I133  1  0.66651699  0.82741908  0.49810212  1
  I  I134  1  0.66271827  0.83817408  0.83855979  1
