# generated using pymatgen
data_Cs27Sn14Pb13I81
_symmetry_space_group_name_H-M   'P 1'
_cell_length_a   18.98755060
_cell_length_b   18.96970082
_cell_length_c   18.96871863
_cell_angle_alpha   89.99709936
_cell_angle_beta   90.00027096
_cell_angle_gamma   90.00066959
_symmetry_Int_Tables_number   1
_chemical_formula_structural   Cs27Sn14Pb13I81
_chemical_formula_sum   'Cs27 Sn14 Pb13 I81'
_cell_volume   6832.30774216
_cell_formula_units_Z   1
loop_
 _symmetry_equiv_pos_site_id
 _symmetry_equiv_pos_as_xyz
  1  'x, y, z'
loop_
 _atom_site_type_symbol
 _atom_site_label
 _atom_site_symmetry_multiplicity
 _atom_site_fract_x
 _atom_site_fract_y
 _atom_site_fract_z
 _atom_site_occupancy
  Cs  Cs0  1  0.00386859  0.00390197  -0.00213934  1
  Cs  Cs1  1  0.00234060  -0.00474950  0.33397666  1
  Cs  Cs2  1  -0.00007544  0.00237259  0.66962850  1
  Cs  Cs3  1  -0.00037741  0.33236400  0.00044366  1
  Cs  Cs4  1  -0.00146212  0.33422814  0.33262502  1
  Cs  Cs5  1  -0.00070879  0.33057901  0.66676350  1
  Cs  Cs6  1  -0.00131258  0.66247711  -0.00199823  1
  Cs  Cs7  1  -0.00072966  0.67240704  0.34337882  1
  Cs  Cs8  1  0.00078556  0.66733776  0.66249557  1
  Cs  Cs9  1  0.33167460  -0.00008422  0.00153672  1
  Cs  Cs10  1  0.33176177  -0.00083654  0.33152842  1
  Cs  Cs11  1  0.33732108  0.00000379  0.66722955  1
  Cs  Cs12  1  0.33183092  0.33540072  0.00126808  1
  Cs  Cs13  1  0.33500221  0.33211721  0.33500402  1
  Cs  Cs14  1  0.33936644  0.33502072  0.66098173  1
  Cs  Cs15  1  0.33429699  0.66500717  -0.00203043  1
  Cs  Cs16  1  0.32687621  0.67069124  0.33261583  1
  Cs  Cs17  1  0.33242062  0.66576657  0.66868941  1
  Cs  Cs18  1  0.66641465  -0.00106142  -0.00061673  1
  Cs  Cs19  1  0.66633712  0.00082529  0.33268048  1
  Cs  Cs20  1  0.66341763  0.00138024  0.66831806  1
  Cs  Cs21  1  0.66806466  0.33526082  0.00195351  1
  Cs  Cs22  1  0.66660105  0.33185449  0.33312252  1
  Cs  Cs23  1  0.66230000  0.33299060  0.66260469  1
  Cs  Cs24  1  0.66638973  0.66585925  0.00020159  1
  Cs  Cs25  1  0.67425636  0.67105506  0.32986062  1
  Cs  Cs26  1  0.66667496  0.66550560  0.66787176  1
  Sn  Sn27  1  0.83345549  0.83262594  0.83369009  1
  Sn  Sn28  1  0.49999037  0.16646369  0.83470028  1
  Sn  Sn29  1  0.83379976  0.49948461  0.16613800  1
  Sn  Sn30  1  0.16567950  0.16681413  0.49994592  1
  Sn  Sn31  1  0.83437353  0.16665017  0.49897417  1
  Sn  Sn32  1  0.16573038  0.50040347  0.83369497  1
  Sn  Sn33  1  0.50015770  0.49955609  0.16679323  1
  Sn  Sn34  1  0.50029126  0.83274224  0.50045645  1
  Sn  Sn35  1  0.16656169  0.83277201  0.83355214  1
  Sn  Sn36  1  0.50000811  0.83401165  0.83266011  1
  Sn  Sn37  1  0.83404740  0.50055888  0.83361792  1
  Sn  Sn38  1  0.83289195  0.16695599  0.16731565  1
  Sn  Sn39  1  0.50069307  0.16741241  0.16542251  1
  Sn  Sn40  1  0.16605934  0.50008960  0.16644526  1
  Pb  Pb41  1  0.83366942  0.83362704  0.16417945  1
  Pb  Pb42  1  0.50036059  0.16522902  0.49906649  1
  Pb  Pb43  1  0.83140836  0.16742008  0.83385621  1
  Pb  Pb44  1  0.16625908  0.83026061  0.16396986  1
  Pb  Pb45  1  0.83317430  0.49800791  0.50017523  1
  Pb  Pb46  1  0.83137335  0.83616460  0.50300536  1
  Pb  Pb47  1  0.16859723  0.83566682  0.50292115  1
  Pb  Pb48  1  0.50017826  0.50015857  0.83469719  1
  Pb  Pb49  1  0.16649637  0.16868227  0.16838139  1
  Pb  Pb50  1  0.16950281  0.16779424  0.83163768  1
  Pb  Pb51  1  0.50021003  0.50355521  0.49594780  1
  Pb  Pb52  1  0.50002173  0.83347160  0.16615122  1
  Pb  Pb53  1  0.16663794  0.49818624  0.50049514  1
  I  I54  1  0.16789277  0.00018467  0.16660284  1
  I  I55  1  0.16324644  0.00329878  0.50035331  1
  I  I56  1  0.16467485  -0.00228948  0.83021337  1
  I  I57  1  0.16681434  0.33677476  0.15910177  1
  I  I58  1  0.16498324  0.33029960  0.50265570  1
  I  I59  1  0.16208872  0.33665624  0.83703936  1
  I  I60  1  0.16875772  0.66178756  0.16577550  1
  I  I61  1  0.16853559  0.66692320  0.49741708  1
  I  I62  1  0.16930660  0.66644849  0.83750176  1
  I  I63  1  0.50535141  0.00310585  0.16578653  1
  I  I64  1  0.50011576  -0.00240310  0.50204109  1
  I  I65  1  0.50069314  -0.00061482  0.83453648  1
  I  I66  1  0.50092565  0.33269358  0.16043614  1
  I  I67  1  0.49963684  0.33319142  0.50371558  1
  I  I68  1  0.50032225  0.33111791  0.83515383  1
  I  I69  1  0.50096500  0.66357998  0.16587053  1
  I  I70  1  0.49899968  0.67089866  0.50919178  1
  I  I71  1  0.49985175  0.66930485  0.83132424  1
  I  I72  1  0.82623379  0.00343182  0.16922001  1
  I  I73  1  0.83625156  0.00394305  0.49449188  1
  I  I74  1  0.83438470  -0.00213657  0.83256035  1
  I  I75  1  0.83202504  0.33387649  0.16399565  1
  I  I76  1  0.83473128  0.32985113  0.50156405  1
  I  I77  1  0.83741550  0.33623032  0.83505986  1
  I  I78  1  0.83050639  0.66318680  0.16327029  1
  I  I79  1  0.83198501  0.66702710  0.49690558  1
  I  I80  1  0.83086509  0.66608684  0.83939003  1
  I  I81  1  0.16519529  0.16428411  -0.00015518  1
  I  I82  1  0.16855312  0.16886157  0.33611144  1
  I  I83  1  0.16164604  0.16741115  0.66404158  1
  I  I84  1  0.16645191  0.50294979  -0.00035820  1
  I  I85  1  0.16739516  0.49644933  0.33020974  1
  I  I86  1  0.16221019  0.50348703  0.67036714  1
  I  I87  1  0.17089049  0.83485494  -0.00445900  1
  I  I88  1  0.16953451  0.83255918  0.33365830  1
  I  I89  1  0.16518561  0.82643547  0.67096399  1
  I  I90  1  0.50522237  0.16402840  0.00057612  1
  I  I91  1  0.50100645  0.16945532  0.33025345  1
  I  I92  1  0.50013796  0.16394956  0.66864318  1
  I  I93  1  0.50030998  0.50019899  0.00287722  1
  I  I94  1  0.50016396  0.49189098  0.32789293  1
  I  I95  1  0.49948699  0.49623925  0.66674033  1
  I  I96  1  0.50003801  0.83473552  -0.00343124  1
  I  I97  1  0.49986665  0.83421268  0.33539160  1
  I  I98  1  0.50012696  0.84070681  0.66909594  1
  I  I99  1  0.82995880  0.16807741  0.00264200  1
  I  I100  1  0.83004425  0.17320832  0.33188895  1
  I  I101  1  0.83485534  0.16563624  0.66501925  1
  I  I102  1  0.83362478  0.49785115  0.00033087  1
  I  I103  1  0.83261655  0.49697285  0.32977663  1
  I  I104  1  0.83836071  0.50301495  0.67020472  1
  I  I105  1  0.82881231  0.83417733  -0.00415762  1
  I  I106  1  0.83062631  0.83056830  0.33352813  1
  I  I107  1  0.83487584  0.82855403  0.67112324  1
  I  I108  1  -0.00291121  0.17103074  0.16805831  1
  I  I109  1  -0.00094601  0.16763240  0.49596300  1
  I  I110  1  -0.00000966  0.16333686  0.83441307  1
  I  I111  1  -0.00090670  0.49439959  0.16007290  1
  I  I112  1  -0.00009405  0.50132550  0.49599135  1
  I  I113  1  -0.00021202  0.50747658  0.84179844  1
  I  I114  1  -0.00005472  0.83594838  0.16575101  1
  I  I115  1  -0.00008192  0.83304035  0.50058262  1
  I  I116  1  -0.00004924  0.82884477  0.83525072  1
  I  I117  1  0.33613823  0.17017798  0.16467719  1
  I  I118  1  0.33201171  0.16553958  0.50137613  1
  I  I119  1  0.33725282  0.16237365  0.83700020  1
  I  I120  1  0.33333209  0.49641826  0.16177207  1
  I  I121  1  0.33348322  0.49551472  0.50098244  1
  I  I122  1  0.33113727  0.50264877  0.83800079  1
  I  I123  1  0.33335285  0.83376516  0.16537274  1
  I  I124  1  0.33629111  0.83663579  0.50516931  1
  I  I125  1  0.33375498  0.83304504  0.82946680  1
  I  I126  1  0.66661398  0.17435439  0.16843865  1
  I  I127  1  0.66874638  0.16536738  0.49911515  1
  I  I128  1  0.66363710  0.16242837  0.83210663  1
  I  I129  1  0.66733323  0.49553165  0.16185271  1
  I  I130  1  0.66659394  0.49640654  0.50295483  1
  I  I131  1  0.66915798  0.50266077  0.83786917  1
  I  I132  1  0.66668447  0.82876266  0.16424323  1
  I  I133  1  0.66376530  0.83601483  0.50595325  1
  I  I134  1  0.66625749  0.83365370  0.82993229  1
