# generated using pymatgen
data_Cs27Sn14Pb13I81
_symmetry_space_group_name_H-M   'P 1'
_cell_length_a   18.98431999
_cell_length_b   18.96435454
_cell_length_c   18.98081139
_cell_angle_alpha   90.00062224
_cell_angle_beta   89.99873469
_cell_angle_gamma   89.99995157
_symmetry_Int_Tables_number   1
_chemical_formula_structural   Cs27Sn14Pb13I81
_chemical_formula_sum   'Cs27 Sn14 Pb13 I81'
_cell_volume   6833.57373657
_cell_formula_units_Z   1
loop_
 _symmetry_equiv_pos_site_id
 _symmetry_equiv_pos_as_xyz
  1  'x, y, z'
loop_
 _atom_site_type_symbol
 _atom_site_label
 _atom_site_symmetry_multiplicity
 _atom_site_fract_x
 _atom_site_fract_y
 _atom_site_fract_z
 _atom_site_occupancy
  Cs  Cs0  1  -0.00571316  0.00360323  0.00305513  1
  Cs  Cs1  1  -0.00282753  0.00229744  0.33341528  1
  Cs  Cs2  1  0.00171068  -0.00043940  0.66341602  1
  Cs  Cs3  1  -0.00255834  0.33100411  -0.00917873  1
  Cs  Cs4  1  0.00575683  0.33148703  0.33174860  1
  Cs  Cs5  1  0.00049293  0.33232802  0.67682582  1
  Cs  Cs6  1  0.00182980  0.66545890  0.00069543  1
  Cs  Cs7  1  -0.00004531  0.66795037  0.33175566  1
  Cs  Cs8  1  -0.00174001  0.66550611  0.66836505  1
  Cs  Cs9  1  0.33673140  -0.00084222  -0.00038397  1
  Cs  Cs10  1  0.33232443  0.00059407  0.33562849  1
  Cs  Cs11  1  0.33411205  -0.00184673  0.66493471  1
  Cs  Cs12  1  0.33428929  0.32857509  -0.00060952  1
  Cs  Cs13  1  0.33202219  0.33440749  0.33327132  1
  Cs  Cs14  1  0.33023432  0.33093328  0.66665516  1
  Cs  Cs15  1  0.33319943  0.66749886  0.00133391  1
  Cs  Cs16  1  0.33368752  0.66579741  0.33183608  1
  Cs  Cs17  1  0.33442519  0.66882910  0.66749400  1
  Cs  Cs18  1  0.66730000  0.00609224  0.00040671  1
  Cs  Cs19  1  0.67049170  0.00060823  0.33413778  1
  Cs  Cs20  1  0.66582416  -0.00039632  0.66544086  1
  Cs  Cs21  1  0.66671730  0.32545137  -0.00066859  1
  Cs  Cs22  1  0.66542802  0.33626728  0.33570155  1
  Cs  Cs23  1  0.67038526  0.33503900  0.66459115  1
  Cs  Cs24  1  0.66317399  0.66821976  0.00181357  1
  Cs  Cs25  1  0.66824437  0.66470745  0.33395797  1
  Cs  Cs26  1  0.66634512  0.66506702  0.66453848  1
  Sn  Sn27  1  0.83296157  0.83285716  0.83341907  1
  Sn  Sn28  1  0.16645002  0.83303735  0.83373984  1
  Sn  Sn29  1  0.50083650  0.16597762  0.49974409  1
  Sn  Sn30  1  0.83278739  0.16696936  0.49986741  1
  Sn  Sn31  1  0.16660043  0.50061191  0.16694093  1
  Sn  Sn32  1  0.16735148  0.83305351  0.16680100  1
  Sn  Sn33  1  0.83344178  0.50003705  0.16659773  1
  Sn  Sn34  1  0.50027828  0.83257704  0.83354203  1
  Sn  Sn35  1  0.16735707  0.83205036  0.49956977  1
  Sn  Sn36  1  0.49961836  0.83279992  0.16700309  1
  Sn  Sn37  1  0.49968383  0.83387595  0.49949990  1
  Sn  Sn38  1  0.49980356  0.50067897  0.83429871  1
  Sn  Sn39  1  0.16659828  0.50117159  0.49986500  1
  Sn  Sn40  1  0.50000655  0.50070690  0.16547428  1
  Pb  Pb41  1  0.16900500  0.50198517  0.83395730  1
  Pb  Pb42  1  0.49824946  0.50047879  0.49992744  1
  Pb  Pb43  1  0.83304549  0.16385873  0.83081099  1
  Pb  Pb44  1  0.16702708  0.16287754  0.83354881  1
  Pb  Pb45  1  0.83315891  0.83187318  0.16470656  1
  Pb  Pb46  1  0.83036164  0.50224932  0.83575523  1
  Pb  Pb47  1  0.83326794  0.17000736  0.16894788  1
  Pb  Pb48  1  0.83350197  0.83410197  0.50163649  1
  Pb  Pb49  1  0.83685480  0.49782991  0.49825358  1
  Pb  Pb50  1  0.49984696  0.16649434  0.16932575  1
  Pb  Pb51  1  0.49991426  0.16654591  0.83062071  1
  Pb  Pb52  1  0.16687390  0.16645919  0.16644317  1
  Pb  Pb53  1  0.16686218  0.16655602  0.49995901  1
  I  I54  1  0.17193870  -0.00451210  0.16772364  1
  I  I55  1  0.16789376  -0.00367540  0.50037333  1
  I  I56  1  0.17098819  -0.00607904  0.83116822  1
  I  I57  1  0.16865301  0.33734173  0.17409418  1
  I  I58  1  0.16815681  0.33623473  0.49328395  1
  I  I59  1  0.16784617  0.33378568  0.83185925  1
  I  I60  1  0.16793242  0.66722165  0.16798859  1
  I  I61  1  0.17261962  0.66834725  0.49881189  1
  I  I62  1  0.16578250  0.67061228  0.83240062  1
  I  I63  1  0.49491732  -0.00390006  0.16342173  1
  I  I64  1  0.49743554  -0.00246652  0.50078357  1
  I  I65  1  0.49897092  -0.00412366  0.83591782  1
  I  I66  1  0.49891630  0.33702808  0.16339183  1
  I  I67  1  0.50178345  0.33154663  0.49973934  1
  I  I68  1  0.49963110  0.33639616  0.83792669  1
  I  I69  1  0.49891404  0.66728224  0.16793704  1
  I  I70  1  0.49732124  0.66996812  0.50079399  1
  I  I71  1  0.49951908  0.66871165  0.83175171  1
  I  I72  1  0.83383350  -0.00009304  0.16534816  1
  I  I73  1  0.83350567  0.00214293  0.50100309  1
  I  I74  1  0.83106693  -0.00424989  0.83527281  1
  I  I75  1  0.83273638  0.33810912  0.16708939  1
  I  I76  1  0.82518876  0.33019606  0.49841652  1
  I  I77  1  0.83244346  0.33355612  0.83358390  1
  I  I78  1  0.83313620  0.66391491  0.16782806  1
  I  I79  1  0.83094556  0.66643697  0.50067944  1
  I  I80  1  0.83569234  0.67017721  0.83081568  1
  I  I81  1  0.16556574  0.16814302  0.00001987  1
  I  I82  1  0.16636032  0.16278428  0.33350786  1
  I  I83  1  0.16655593  0.16844712  0.66635712  1
  I  I84  1  0.16539908  0.50507014  0.00332466  1
  I  I85  1  0.16884021  0.50712016  0.33240633  1
  I  I86  1  0.16925534  0.50368096  0.66448756  1
  I  I87  1  0.17008442  0.82890180  0.00059113  1
  I  I88  1  0.17397997  0.82950602  0.33330643  1
  I  I89  1  0.16989648  0.83059756  0.66611137  1
  I  I90  1  0.50021893  0.16446888  0.00003001  1
  I  I91  1  0.50285214  0.16218837  0.33710394  1
  I  I92  1  0.50248867  0.16185652  0.66283308  1
  I  I93  1  0.49801622  0.50926669  0.00121596  1
  I  I94  1  0.50110738  0.50264078  0.33036238  1
  I  I95  1  0.49806692  0.50399996  0.66864579  1
  I  I96  1  0.49662379  0.82788692  0.00014218  1
  I  I97  1  0.49322253  0.83327505  0.33317169  1
  I  I98  1  0.49706057  0.83369984  0.66675975  1
  I  I99  1  0.83430343  0.16655624  -0.00012803  1
  I  I100  1  0.82928219  0.16288825  0.33656448  1
  I  I101  1  0.82884400  0.16721928  0.66324597  1
  I  I102  1  0.83988358  0.50174442  0.00355157  1
  I  I103  1  0.82706053  0.50171879  0.33031477  1
  I  I104  1  0.83312011  0.49893465  0.66687944  1
  I  I105  1  0.83345586  0.83157528  -0.00319540  1
  I  I106  1  0.83320175  0.83433183  0.33321108  1
  I  I107  1  0.83302376  0.83446258  0.66964114  1
  I  I108  1  -0.00002666  0.16417921  0.17126775  1
  I  I109  1  -0.00205623  0.16564289  0.49926958  1
  I  I110  1  -0.00013814  0.16661459  0.82983980  1
  I  I111  1  0.00150916  0.50499121  0.17344831  1
  I  I112  1  0.00465562  0.50591371  0.49457327  1
  I  I113  1  0.00017979  0.50108842  0.83333409  1
  I  I114  1  0.00314266  0.82934080  0.16714051  1
  I  I115  1  0.00334693  0.83197313  0.50003464  1
  I  I116  1  0.00104983  0.83423543  0.83214751  1
  I  I117  1  0.33355004  0.17076036  0.16980234  1
  I  I118  1  0.33589274  0.16395898  0.50024563  1
  I  I119  1  0.33371828  0.16598056  0.83014203  1
  I  I120  1  0.33344776  0.50507130  0.16775098  1
  I  I121  1  0.33055037  0.49986866  0.49463494  1
  I  I122  1  0.33671036  0.50654005  0.83712522  1
  I  I123  1  0.33366725  0.82637259  0.16374661  1
  I  I124  1  0.33371909  0.83574847  0.50364576  1
  I  I125  1  0.33390802  0.82979563  0.83250066  1
  I  I126  1  0.66644913  0.16575316  0.16623688  1
  I  I127  1  0.66532881  0.15997097  0.49980214  1
  I  I128  1  0.66641462  0.16390163  0.83417675  1
  I  I129  1  0.66504716  0.50466071  0.16312760  1
  I  I130  1  0.66653054  0.50146219  0.49905190  1
  I  I131  1  0.66254387  0.50710249  0.83651844  1
  I  I132  1  0.66326108  0.82886650  0.16722750  1
  I  I133  1  0.66349710  0.83576119  0.50043673  1
  I  I134  1  0.66497568  0.82964965  0.83247215  1
