# generated using pymatgen
data_Cs27Sn13Pb14I81
_symmetry_space_group_name_H-M   'P 1'
_cell_length_a   18.98529166
_cell_length_b   18.98465613
_cell_length_c   19.00824015
_cell_angle_alpha   90.00062445
_cell_angle_beta   90.00066266
_cell_angle_gamma   90.00175068
_symmetry_Int_Tables_number   1
_chemical_formula_structural   Cs27Sn13Pb14I81
_chemical_formula_sum   'Cs27 Sn13 Pb14 I81'
_cell_volume   6851.12542638
_cell_formula_units_Z   1
loop_
 _symmetry_equiv_pos_site_id
 _symmetry_equiv_pos_as_xyz
  1  'x, y, z'
loop_
 _atom_site_type_symbol
 _atom_site_label
 _atom_site_symmetry_multiplicity
 _atom_site_fract_x
 _atom_site_fract_y
 _atom_site_fract_z
 _atom_site_occupancy
  Cs  Cs0  1  -0.00184099  0.00521136  0.00034381  1
  Cs  Cs1  1  -0.00708572  0.00272411  0.34111314  1
  Cs  Cs2  1  0.00213850  0.00638552  0.65998154  1
  Cs  Cs3  1  0.00244218  0.32911519  -0.00040027  1
  Cs  Cs4  1  0.00286892  0.33078521  0.33080933  1
  Cs  Cs5  1  -0.00097067  0.33332570  0.66864358  1
  Cs  Cs6  1  -0.00001508  0.66633883  -0.00211887  1
  Cs  Cs7  1  -0.00213319  0.66860807  0.33580946  1
  Cs  Cs8  1  0.00114584  0.66568684  0.66727915  1
  Cs  Cs9  1  0.33502358  -0.00259284  -0.00005760  1
  Cs  Cs10  1  0.33461903  -0.00117898  0.33547943  1
  Cs  Cs11  1  0.33383163  -0.00019378  0.66419694  1
  Cs  Cs12  1  0.33071547  0.33340458  0.00663922  1
  Cs  Cs13  1  0.33429016  0.33532997  0.32711707  1
  Cs  Cs14  1  0.33361542  0.33327112  0.66584769  1
  Cs  Cs15  1  0.33223833  0.66849307  -0.00064091  1
  Cs  Cs16  1  0.33278896  0.66641636  0.33105558  1
  Cs  Cs17  1  0.33176526  0.66741227  0.66910497  1
  Cs  Cs18  1  0.66582640  -0.00002906  0.00281399  1
  Cs  Cs19  1  0.66817199  -0.00105311  0.33167762  1
  Cs  Cs20  1  0.66367467  0.00284304  0.66586157  1
  Cs  Cs21  1  0.66698505  0.33356656  -0.00054494  1
  Cs  Cs22  1  0.66341995  0.33516297  0.33543580  1
  Cs  Cs23  1  0.66680132  0.33501316  0.66551093  1
  Cs  Cs24  1  0.66860508  0.66682747  -0.00440127  1
  Cs  Cs25  1  0.66912971  0.66684902  0.33319267  1
  Cs  Cs26  1  0.66641117  0.66372612  0.67175818  1
  Sn  Sn27  1  0.16518370  0.83327426  0.83402037  1
  Sn  Sn28  1  0.49981689  0.16594949  0.49965871  1
  Sn  Sn29  1  0.16596397  0.50065436  0.83274313  1
  Sn  Sn30  1  0.83482439  0.83357758  0.83307576  1
  Sn  Sn31  1  0.50011743  0.83322060  0.49924899  1
  Sn  Sn32  1  0.49950242  0.83362488  0.16746259  1
  Sn  Sn33  1  0.50000489  0.16573833  0.16678954  1
  Sn  Sn34  1  0.83354542  0.50009512  0.16633213  1
  Sn  Sn35  1  0.83449085  0.50024502  0.50012068  1
  Sn  Sn36  1  0.49962843  0.16685331  0.83358607  1
  Sn  Sn37  1  0.16608566  0.50024817  0.50056214  1
  Sn  Sn38  1  0.16618611  0.83368476  0.16641589  1
  Sn  Sn39  1  0.83457994  0.50067547  0.83359064  1
  Pb  Pb40  1  0.16430627  0.50229503  0.16633984  1
  Pb  Pb41  1  0.83085634  0.83123586  0.50297598  1
  Pb  Pb42  1  0.49946289  0.50057801  0.50008589  1
  Pb  Pb43  1  0.50204316  0.50108939  0.16646534  1
  Pb  Pb44  1  0.83102441  0.16910610  0.16675910  1
  Pb  Pb45  1  0.16897197  0.16643390  0.83336598  1
  Pb  Pb46  1  0.49980377  0.83490077  0.83352634  1
  Pb  Pb47  1  0.16918811  0.16977061  0.49988513  1
  Pb  Pb48  1  0.49922174  0.49758165  0.83352107  1
  Pb  Pb49  1  0.83138941  0.16665356  0.83324972  1
  Pb  Pb50  1  0.83102257  0.16945982  0.49998564  1
  Pb  Pb51  1  0.16832357  0.83154813  0.50018262  1
  Pb  Pb52  1  0.83358428  0.83193493  0.16475860  1
  Pb  Pb53  1  0.16855159  0.16291121  0.16685486  1
  I  I54  1  0.16915205  -0.00506374  0.15826643  1
  I  I55  1  0.16723941  -0.00018109  0.50108415  1
  I  I56  1  0.16413394  -0.00360173  0.83847599  1
  I  I57  1  0.16821302  0.33352964  0.16641161  1
  I  I58  1  0.16405312  0.33796225  0.50726297  1
  I  I59  1  0.16303209  0.33665729  0.82879910  1
  I  I60  1  0.17566068  0.66972441  0.16473738  1
  I  I61  1  0.16596200  0.66358954  0.50194042  1
  I  I62  1  0.16429227  0.66648067  0.83312004  1
  I  I63  1  0.49639727  -0.00054805  0.16689863  1
  I  I64  1  0.49922714  -0.00004476  0.50007783  1
  I  I65  1  0.50047590  0.00271558  0.83291865  1
  I  I66  1  0.50265456  0.33066526  0.16805535  1
  I  I67  1  0.50100814  0.33077746  0.49938189  1
  I  I68  1  0.50137836  0.32967762  0.83220581  1
  I  I69  1  0.49699261  0.67035382  0.17207766  1
  I  I70  1  0.50030460  0.66940754  0.49452617  1
  I  I71  1  0.50102875  0.66672831  0.83287751  1
  I  I72  1  0.83395416  -0.00025117  0.16368320  1
  I  I73  1  0.83383642  -0.00024163  0.50138612  1
  I  I74  1  0.83568348  -0.00317021  0.83537365  1
  I  I75  1  0.83187468  0.33756992  0.16349459  1
  I  I76  1  0.83385379  0.33792182  0.50406176  1
  I  I77  1  0.83575289  0.33708522  0.83276092  1
  I  I78  1  0.82953740  0.66375684  0.16819946  1
  I  I79  1  0.83342751  0.66307028  0.49808169  1
  I  I80  1  0.83446401  0.66549400  0.83352972  1
  I  I81  1  0.17077564  0.17272575  0.00002515  1
  I  I82  1  0.17002253  0.16918734  0.33331007  1
  I  I83  1  0.17186143  0.16239926  0.66672943  1
  I  I84  1  0.16348058  0.50178216  -0.00296257  1
  I  I85  1  0.16373695  0.50068514  0.33553632  1
  I  I86  1  0.15999629  0.50556209  0.66774850  1
  I  I87  1  0.17117661  0.82634677  -0.00091589  1
  I  I88  1  0.17237149  0.83048510  0.33099482  1
  I  I89  1  0.16573130  0.82981508  0.66968628  1
  I  I90  1  0.50075108  0.16262077  0.00070615  1
  I  I91  1  0.50041432  0.16265612  0.33320494  1
  I  I92  1  0.50050441  0.16274229  0.66612387  1
  I  I93  1  0.50121577  0.49900761  -0.00004138  1
  I  I94  1  0.50046063  0.49539193  0.33336916  1
  I  I95  1  0.50459548  0.49954927  0.66673610  1
  I  I96  1  0.49944294  0.83767589  0.00233298  1
  I  I97  1  0.49496398  0.84060361  0.33256024  1
  I  I98  1  0.50050842  0.83761439  0.66483850  1
  I  I99  1  0.82850871  0.16995712  -0.00011488  1
  I  I100  1  0.83054813  0.16813788  0.33340251  1
  I  I101  1  0.82784527  0.16846383  0.66670345  1
  I  I102  1  0.83461050  0.50420314  -0.00144082  1
  I  I103  1  0.83479994  0.49927975  0.33385844  1
  I  I104  1  0.83605840  0.50370502  0.66739805  1
  I  I105  1  0.83046579  0.82573588  -0.00304509  1
  I  I106  1  0.83402796  0.83028388  0.33351313  1
  I  I107  1  0.83655792  0.82645135  0.67064970  1
  I  I108  1  0.00000503  0.16685799  0.16564412  1
  I  I109  1  0.00004362  0.16472915  0.50042425  1
  I  I110  1  0.00014904  0.16700419  0.83354021  1
  I  I111  1  -0.00339312  0.50313709  0.16662800  1
  I  I112  1  -0.00041171  0.50207482  0.50161246  1
  I  I113  1  -0.00042596  0.50455398  0.83202793  1
  I  I114  1  0.00267752  0.82780247  0.16296973  1
  I  I115  1  -0.00008395  0.83363848  0.49638511  1
  I  I116  1  0.00074100  0.82661263  0.84013737  1
  I  I117  1  0.33744973  0.16862616  0.16645701  1
  I  I118  1  0.33768450  0.16478168  0.50080847  1
  I  I119  1  0.33708672  0.16649539  0.83302254  1
  I  I120  1  0.33307963  0.49731772  0.16702247  1
  I  I121  1  0.33056655  0.49968346  0.50633232  1
  I  I122  1  0.32973206  0.50414551  0.82756721  1
  I  I123  1  0.33424657  0.83570619  0.16364181  1
  I  I124  1  0.33647610  0.83465765  0.50125402  1
  I  I125  1  0.33080016  0.82908680  0.83431518  1
  I  I126  1  0.66234409  0.15954798  0.16633809  1
  I  I127  1  0.66249482  0.16536132  0.50032833  1
  I  I128  1  0.66320479  0.16653313  0.83316968  1
  I  I129  1  0.66998741  0.50082048  0.16658636  1
  I  I130  1  0.66928902  0.49909217  0.50150001  1
  I  I131  1  0.66981728  0.50358572  0.83211265  1
  I  I132  1  0.66369520  0.83646349  0.16885746  1
  I  I133  1  0.66287000  0.83546525  0.49480781  1
  I  I134  1  0.66870805  0.82829650  0.83284298  1
