# generated using pymatgen
data_Cs27Sn14Pb13I81
_symmetry_space_group_name_H-M   'P 1'
_cell_length_a   18.97999756
_cell_length_b   18.97587800
_cell_length_c   18.97336461
_cell_angle_alpha   89.99947721
_cell_angle_beta   89.99933231
_cell_angle_gamma   89.99857052
_symmetry_Int_Tables_number   1
_chemical_formula_structural   Cs27Sn14Pb13I81
_chemical_formula_sum   'Cs27 Sn14 Pb13 I81'
_cell_volume   6833.48718122
_cell_formula_units_Z   1
loop_
 _symmetry_equiv_pos_site_id
 _symmetry_equiv_pos_as_xyz
  1  'x, y, z'
loop_
 _atom_site_type_symbol
 _atom_site_label
 _atom_site_symmetry_multiplicity
 _atom_site_fract_x
 _atom_site_fract_y
 _atom_site_fract_z
 _atom_site_occupancy
  Cs  Cs0  1  -0.00211230  -0.00180996  0.00335454  1
  Cs  Cs1  1  0.00007536  -0.00065144  0.33246912  1
  Cs  Cs2  1  -0.00067843  0.00191241  0.66559263  1
  Cs  Cs3  1  0.00082262  0.33404947  -0.00845634  1
  Cs  Cs4  1  -0.00232022  0.33156919  0.33434351  1
  Cs  Cs5  1  0.00107229  0.33380770  0.67567097  1
  Cs  Cs6  1  0.00243200  0.66807159  -0.00329370  1
  Cs  Cs7  1  0.00119645  0.66954607  0.33474512  1
  Cs  Cs8  1  -0.00078392  0.66465179  0.66528479  1
  Cs  Cs9  1  0.33414985  -0.00118596  0.00336317  1
  Cs  Cs10  1  0.33311709  0.00023474  0.33375876  1
  Cs  Cs11  1  0.34173774  0.00720446  0.66473934  1
  Cs  Cs12  1  0.33289585  0.33596683  -0.00106939  1
  Cs  Cs13  1  0.33347232  0.33341757  0.33380883  1
  Cs  Cs14  1  0.33291859  0.32904323  0.66780093  1
  Cs  Cs15  1  0.33133125  0.66525624  0.00115342  1
  Cs  Cs16  1  0.33259984  0.66684556  0.33382793  1
  Cs  Cs17  1  0.33490235  0.66619298  0.66534058  1
  Cs  Cs18  1  0.66795415  -0.00004155  -0.00361353  1
  Cs  Cs19  1  0.66915562  0.00013442  0.33353695  1
  Cs  Cs20  1  0.65927802  -0.00032446  0.67393379  1
  Cs  Cs21  1  0.66733424  0.33494154  0.00224528  1
  Cs  Cs22  1  0.67018676  0.33666312  0.33122343  1
  Cs  Cs23  1  0.66759867  0.33380234  0.66932584  1
  Cs  Cs24  1  0.66691184  0.66478014  -0.00059593  1
  Cs  Cs25  1  0.66798076  0.66311568  0.33370360  1
  Cs  Cs26  1  0.66506314  0.66829882  0.66815643  1
  Sn  Sn27  1  0.16711012  0.83394114  0.83221149  1
  Sn  Sn28  1  0.16638562  0.16690082  0.16703191  1
  Sn  Sn29  1  0.83324441  0.83384102  0.16761641  1
  Sn  Sn30  1  0.83351203  0.16578717  0.16745193  1
  Sn  Sn31  1  0.16661362  0.83331845  0.16707540  1
  Sn  Sn32  1  0.50017416  0.16581640  0.16724130  1
  Sn  Sn33  1  0.16644620  0.83320989  0.50031727  1
  Sn  Sn34  1  0.83378122  0.83452988  0.49934260  1
  Sn  Sn35  1  0.50030979  0.83383473  0.16707470  1
  Sn  Sn36  1  0.16730987  0.50023938  0.49916587  1
  Sn  Sn37  1  0.83344543  0.16556549  0.49945645  1
  Sn  Sn38  1  0.16626589  0.49998560  0.16769231  1
  Sn  Sn39  1  0.49960041  0.50025972  0.83219767  1
  Sn  Sn40  1  0.49908981  0.50010319  0.50075233  1
  Pb  Pb41  1  0.50020516  0.83193422  0.49785093  1
  Pb  Pb42  1  0.83044117  0.50045470  0.83329617  1
  Pb  Pb43  1  0.49741867  0.83167410  0.83616351  1
  Pb  Pb44  1  0.83418193  0.50017037  0.49992839  1
  Pb  Pb45  1  0.49802328  0.50005964  0.16725857  1
  Pb  Pb46  1  0.83549058  0.83338342  0.83297506  1
  Pb  Pb47  1  0.16487757  0.16661587  0.49824011  1
  Pb  Pb48  1  0.83330379  0.16622817  0.83362098  1
  Pb  Pb49  1  0.83691244  0.50029299  0.16662561  1
  Pb  Pb50  1  0.49988023  0.16906095  0.83643021  1
  Pb  Pb51  1  0.16814509  0.50200542  0.83252676  1
  Pb  Pb52  1  0.16688304  0.16332491  0.83613173  1
  Pb  Pb53  1  0.50287000  0.16923326  0.49738064  1
  I  I54  1  0.16686033  -0.00105427  0.16597494  1
  I  I55  1  0.16385771  -0.00335244  0.49796349  1
  I  I56  1  0.16610279  -0.00460120  0.83392252  1
  I  I57  1  0.16835971  0.33335865  0.17188905  1
  I  I58  1  0.16932439  0.33605356  0.49391643  1
  I  I59  1  0.16710943  0.33335123  0.83453051  1
  I  I60  1  0.16796733  0.66805945  0.16675451  1
  I  I61  1  0.16498048  0.66765616  0.49439697  1
  I  I62  1  0.16738056  0.66962274  0.84054095  1
  I  I63  1  0.49458047  -0.00050872  0.16687328  1
  I  I64  1  0.49691047  0.00007897  0.50045958  1
  I  I65  1  0.49956922  -0.00009528  0.83277569  1
  I  I66  1  0.50019069  0.33085798  0.16646798  1
  I  I67  1  0.49388404  0.33705913  0.50089664  1
  I  I68  1  0.49776505  0.33686357  0.83127208  1
  I  I69  1  0.49921863  0.66924883  0.16658895  1
  I  I70  1  0.50007794  0.66391378  0.49964096  1
  I  I71  1  0.49900841  0.66390842  0.83221399  1
  I  I72  1  0.83781343  -0.00070344  0.17020731  1
  I  I73  1  0.84073722  -0.00127387  0.49339944  1
  I  I74  1  0.83310986  -0.00026263  0.83417870  1
  I  I75  1  0.83144006  0.33000884  0.17117416  1
  I  I76  1  0.83173414  0.33057729  0.49329115  1
  I  I77  1  0.83488765  0.33320487  0.83383314  1
  I  I78  1  0.83209423  0.67036655  0.17115658  1
  I  I79  1  0.83493681  0.66992118  0.49447331  1
  I  I80  1  0.83371721  0.66715499  0.83474314  1
  I  I81  1  0.16405026  0.16846965  0.00531897  1
  I  I82  1  0.16874571  0.16280960  0.32944295  1
  I  I83  1  0.16399551  0.16767737  0.66649786  1
  I  I84  1  0.16835379  0.50092817  0.00277496  1
  I  I85  1  0.17309903  0.50540898  0.33323011  1
  I  I86  1  0.16766024  0.50563993  0.66325926  1
  I  I87  1  0.16689357  0.83281618  0.00257056  1
  I  I88  1  0.16573436  0.83187601  0.33221636  1
  I  I89  1  0.16020273  0.82530149  0.66504237  1
  I  I90  1  0.50196146  0.16490151  0.00493576  1
  I  I91  1  0.49657914  0.16505022  0.32923998  1
  I  I92  1  0.50183846  0.16602892  0.66637536  1
  I  I93  1  0.49788176  0.50002886  -0.00118050  1
  I  I94  1  0.49741369  0.50022310  0.33553480  1
  I  I95  1  0.49393008  0.50165695  0.66551673  1
  I  I96  1  0.49997011  0.83423375  0.00462443  1
  I  I97  1  0.49466301  0.83399253  0.32955662  1
  I  I98  1  0.50024551  0.83267174  0.66655138  1
  I  I99  1  0.83345446  0.16211283  0.00423038  1
  I  I100  1  0.83386023  0.16258900  0.33169972  1
  I  I101  1  0.83432029  0.16327676  0.66331005  1
  I  I102  1  0.83288730  0.49963246  0.00045907  1
  I  I103  1  0.82684579  0.49931394  0.33323773  1
  I  I104  1  0.83867735  0.49932198  0.66621226  1
  I  I105  1  0.83426110  0.83746857  0.00371903  1
  I  I106  1  0.83875389  0.83685516  0.33229505  1
  I  I107  1  0.83862119  0.83582751  0.66285753  1
  I  I108  1  -0.00000801  0.16316342  0.17076390  1
  I  I109  1  -0.00293047  0.16668238  0.49233266  1
  I  I110  1  0.00022372  0.16935364  0.83575478  1
  I  I111  1  0.00500397  0.50141476  0.17338617  1
  I  I112  1  0.00340225  0.50249634  0.49362102  1
  I  I113  1  0.00051194  0.49996938  0.83391351  1
  I  I114  1  0.00092279  0.83538722  0.16683112  1
  I  I115  1  0.00105182  0.83060190  0.49463506  1
  I  I116  1  0.00345870  0.83131213  0.84010476  1
  I  I117  1  0.33274235  0.16355207  0.16523058  1
  I  I118  1  0.33339284  0.16493018  0.49823991  1
  I  I119  1  0.33332393  0.16651957  0.83461696  1
  I  I120  1  0.32999695  0.50129621  0.16720808  1
  I  I121  1  0.33196842  0.50648849  0.49846526  1
  I  I122  1  0.33571238  0.50182675  0.83407003  1
  I  I123  1  0.33188066  0.83525110  0.16617419  1
  I  I124  1  0.33019764  0.82956344  0.49744943  1
  I  I125  1  0.32959454  0.83136749  0.83516745  1
  I  I126  1  0.66720824  0.16072270  0.17002284  1
  I  I127  1  0.67056791  0.16176206  0.49266666  1
  I  I128  1  0.66651770  0.16767306  0.83575369  1
  I  I129  1  0.66666264  0.50017988  0.16579637  1
  I  I130  1  0.66430605  0.49998248  0.50377909  1
  I  I131  1  0.66234120  0.50079386  0.82854575  1
  I  I132  1  0.66732361  0.83922079  0.17114156  1
  I  I133  1  0.66955758  0.83431350  0.49374992  1
  I  I134  1  0.66633698  0.83138424  0.83410863  1
