# generated using pymatgen
data_Cs27Sn14Pb13I81
_symmetry_space_group_name_H-M   'P 1'
_cell_length_a   18.96158459
_cell_length_b   18.96236212
_cell_length_c   18.95900439
_cell_angle_alpha   89.99708879
_cell_angle_beta   89.99847910
_cell_angle_gamma   90.00045682
_symmetry_Int_Tables_number   1
_chemical_formula_structural   Cs27Sn14Pb13I81
_chemical_formula_sum   'Cs27 Sn14 Pb13 I81'
_cell_volume   6816.83198890
_cell_formula_units_Z   1
loop_
 _symmetry_equiv_pos_site_id
 _symmetry_equiv_pos_as_xyz
  1  'x, y, z'
loop_
 _atom_site_type_symbol
 _atom_site_label
 _atom_site_symmetry_multiplicity
 _atom_site_fract_x
 _atom_site_fract_y
 _atom_site_fract_z
 _atom_site_occupancy
  Cs  Cs0  1  -0.00002617  -0.00068354  -0.00031221  1
  Cs  Cs1  1  -0.00214534  0.00090553  0.33328654  1
  Cs  Cs2  1  0.00047447  -0.00035070  0.66690214  1
  Cs  Cs3  1  0.00051070  0.33341318  0.00154784  1
  Cs  Cs4  1  0.00007299  0.33251405  0.32983283  1
  Cs  Cs5  1  -0.00171053  0.33210909  0.66822445  1
  Cs  Cs6  1  -0.00075508  0.66756707  -0.00147312  1
  Cs  Cs7  1  0.00063595  0.66694632  0.33553885  1
  Cs  Cs8  1  -0.00016927  0.66968452  0.66838035  1
  Cs  Cs9  1  0.33389415  -0.00332726  -0.00261888  1
  Cs  Cs10  1  0.33678404  -0.00015223  0.33357250  1
  Cs  Cs11  1  0.33169837  0.00286437  0.66992286  1
  Cs  Cs12  1  0.33171275  0.33289906  0.00137944  1
  Cs  Cs13  1  0.33209516  0.33547260  0.33258586  1
  Cs  Cs14  1  0.33604462  0.33119844  0.66565612  1
  Cs  Cs15  1  0.33209604  0.67247647  0.00109592  1
  Cs  Cs16  1  0.33429051  0.66368720  0.34015708  1
  Cs  Cs17  1  0.33749110  0.66361509  0.65764203  1
  Cs  Cs18  1  0.66510458  -0.00142554  0.00092476  1
  Cs  Cs19  1  0.66738204  -0.00036545  0.33298183  1
  Cs  Cs20  1  0.66733547  0.00124004  0.66601457  1
  Cs  Cs21  1  0.66708532  0.33568729  -0.00011955  1
  Cs  Cs22  1  0.66792465  0.33202868  0.33232923  1
  Cs  Cs23  1  0.66682835  0.33418175  0.66807345  1
  Cs  Cs24  1  0.66693462  0.66509748  0.00109125  1
  Cs  Cs25  1  0.66656174  0.66822221  0.33181765  1
  Cs  Cs26  1  0.66184914  0.66150727  0.66465007  1
  Sn  Sn27  1  0.83402974  0.16591098  0.83283953  1
  Sn  Sn28  1  0.50031336  0.49922155  0.16631280  1
  Sn  Sn29  1  0.16572796  0.83340529  0.16674820  1
  Sn  Sn30  1  0.16695989  0.50022921  0.83324073  1
  Sn  Sn31  1  0.83390515  0.49929334  0.49925650  1
  Sn  Sn32  1  0.16555730  0.16700398  0.83284686  1
  Sn  Sn33  1  0.83439723  0.83243913  0.16585554  1
  Sn  Sn34  1  0.83306266  0.50079171  0.16746216  1
  Sn  Sn35  1  0.83360687  0.16752113  0.50069499  1
  Sn  Sn36  1  0.16591365  0.83284869  0.83378265  1
  Sn  Sn37  1  0.83346620  0.83403021  0.83399412  1
  Sn  Sn38  1  0.50029437  0.16681205  0.49893717  1
  Sn  Sn39  1  0.50005419  0.16745059  0.16703854  1
  Sn  Sn40  1  0.16619963  0.16671750  0.50027363  1
  Pb  Pb41  1  0.16642823  0.50242868  0.16514495  1
  Pb  Pb42  1  0.50031517  0.16674428  0.83346470  1
  Pb  Pb43  1  0.16406875  0.49735717  0.50234895  1
  Pb  Pb44  1  0.50011818  0.83296124  0.16674303  1
  Pb  Pb45  1  0.16897026  0.16443826  0.16625740  1
  Pb  Pb46  1  0.49676100  0.50003878  0.83607868  1
  Pb  Pb47  1  0.83185460  0.16643603  0.16618312  1
  Pb  Pb48  1  0.16661073  0.83566137  0.50044517  1
  Pb  Pb49  1  0.50010655  0.83610277  0.50018435  1
  Pb  Pb50  1  0.83465067  0.50017288  0.83351688  1
  Pb  Pb51  1  0.50245970  0.49742884  0.49764992  1
  Pb  Pb52  1  0.50031165  0.83307849  0.83305417  1
  Pb  Pb53  1  0.83323611  0.83334549  0.50046087  1
  I  I54  1  0.16160335  -0.00327431  0.16173948  1
  I  I55  1  0.16384574  0.00420481  0.50486786  1
  I  I56  1  0.16305410  0.00038876  0.83304699  1
  I  I57  1  0.16541978  0.33322758  0.16499190  1
  I  I58  1  0.16863067  0.32905898  0.50456203  1
  I  I59  1  0.16271538  0.33181739  0.82958039  1
  I  I60  1  0.16666034  0.67032954  0.15991529  1
  I  I61  1  0.16576420  0.66638035  0.50092433  1
  I  I62  1  0.16136755  0.66797509  0.84021106  1
  I  I63  1  0.50023941  0.00257539  0.17091955  1
  I  I64  1  0.50324619  0.00504706  0.49315339  1
  I  I65  1  0.49647294  0.00029866  0.83540544  1
  I  I66  1  0.50526453  0.33319637  0.16985690  1
  I  I67  1  0.49793075  0.32928134  0.49834313  1
  I  I68  1  0.50028908  0.33312360  0.83295519  1
  I  I69  1  0.50212882  0.66390166  0.16457006  1
  I  I70  1  0.50090395  0.66590166  0.49904351  1
  I  I71  1  0.50138986  0.66650370  0.83598766  1
  I  I72  1  0.83534354  -0.00241300  0.16579403  1
  I  I73  1  0.83327857  0.00350851  0.50061918  1
  I  I74  1  0.84022599  0.00056384  0.83344496  1
  I  I75  1  0.83049074  0.33550526  0.16726905  1
  I  I76  1  0.83309771  0.33180166  0.50020612  1
  I  I77  1  0.83743321  0.33066593  0.83232880  1
  I  I78  1  0.83097197  0.66663998  0.16617092  1
  I  I79  1  0.83347104  0.66394294  0.49879650  1
  I  I80  1  0.83864880  0.66926347  0.83496658  1
  I  I81  1  0.16308757  0.16760233  -0.00324882  1
  I  I82  1  0.16418859  0.16491341  0.33583025  1
  I  I83  1  0.16792397  0.16455925  0.66753643  1
  I  I84  1  0.16426372  0.49432109  -0.00293507  1
  I  I85  1  0.16815816  0.50017289  0.33340693  1
  I  I86  1  0.16391743  0.50480226  0.67039813  1
  I  I87  1  0.16308912  0.83593065  -0.00104696  1
  I  I88  1  0.16262792  0.83519179  0.33058096  1
  I  I89  1  0.16097839  0.83320975  0.67045245  1
  I  I90  1  0.50027895  0.16943695  0.00273807  1
  I  I91  1  0.50046242  0.16962344  0.33378314  1
  I  I92  1  0.49980070  0.16581442  0.66379789  1
  I  I93  1  0.50825817  0.49292337  0.00407624  1
  I  I94  1  0.50035353  0.49825177  0.32968981  1
  I  I95  1  0.50106290  0.49937755  0.66630204  1
  I  I96  1  0.49932267  0.83718642  0.00020108  1
  I  I97  1  0.49975417  0.83313512  0.33295420  1
  I  I98  1  0.49998430  0.83465781  0.66674186  1
  I  I99  1  0.83702016  0.16615981  -0.00274035  1
  I  I100  1  0.83502232  0.16727671  0.33577925  1
  I  I101  1  0.83218405  0.16673543  0.66650010  1
  I  I102  1  0.83079410  0.50050892  0.00268548  1
  I  I103  1  0.83019211  0.49918066  0.33254221  1
  I  I104  1  0.83588344  0.49791341  0.66456268  1
  I  I105  1  0.83731614  0.83394311  0.00007779  1
  I  I106  1  0.83641950  0.83306655  0.33033782  1
  I  I107  1  0.83925288  0.83544574  0.67000432  1
  I  I108  1  0.00001191  0.16881630  0.16911352  1
  I  I109  1  -0.00074836  0.16948372  0.50523224  1
  I  I110  1  0.00013599  0.16546177  0.82629177  1
  I  I111  1  -0.00302670  0.50152081  0.16885124  1
  I  I112  1  -0.00381414  0.49402680  0.49310291  1
  I  I113  1  0.00256371  0.49897984  0.83550936  1
  I  I114  1  -0.00111944  0.82920288  0.16208352  1
  I  I115  1  -0.00016366  0.83591608  0.49839723  1
  I  I116  1  0.00013019  0.83524354  0.83815037  1
  I  I117  1  0.33674913  0.17078079  0.17035922  1
  I  I118  1  0.33301380  0.16446003  0.50093653  1
  I  I119  1  0.33001310  0.16543281  0.83080844  1
  I  I120  1  0.33553748  0.49650539  0.16358243  1
  I  I121  1  0.33327709  0.49927047  0.49959796  1
  I  I122  1  0.32862549  0.49854032  0.83482107  1
  I  I123  1  0.33055757  0.83565572  0.16083265  1
  I  I124  1  0.33300520  0.83445799  0.49913602  1
  I  I125  1  0.32931599  0.83637191  0.83919585  1
  I  I126  1  0.66401898  0.16581732  0.17022528  1
  I  I127  1  0.66767456  0.16986694  0.50026105  1
  I  I128  1  0.67008303  0.16232187  0.83053266  1
  I  I129  1  0.66798113  0.50152761  0.16965093  1
  I  I130  1  0.67046641  0.49490595  0.50068069  1
  I  I131  1  0.66690625  0.49951801  0.83173173  1
  I  I132  1  0.66996774  0.83271367  0.16262099  1
  I  I133  1  0.66719429  0.83610111  0.49956286  1
  I  I134  1  0.67077748  0.83946095  0.83815378  1
