# generated using pymatgen
data_Cs27Sn14Pb13I81
_symmetry_space_group_name_H-M   'P 1'
_cell_length_a   18.98628373
_cell_length_b   18.97302297
_cell_length_c   18.96793608
_cell_angle_alpha   90.00154037
_cell_angle_beta   89.99877884
_cell_angle_gamma   89.99833650
_symmetry_Int_Tables_number   1
_chemical_formula_structural   Cs27Sn14Pb13I81
_chemical_formula_sum   'Cs27 Sn14 Pb13 I81'
_cell_volume   6832.76644934
_cell_formula_units_Z   1
loop_
 _symmetry_equiv_pos_site_id
 _symmetry_equiv_pos_as_xyz
  1  'x, y, z'
loop_
 _atom_site_type_symbol
 _atom_site_label
 _atom_site_symmetry_multiplicity
 _atom_site_fract_x
 _atom_site_fract_y
 _atom_site_fract_z
 _atom_site_occupancy
  Cs  Cs0  1  0.00149523  -0.00424398  0.00327619  1
  Cs  Cs1  1  -0.00000921  0.00152556  0.32986730  1
  Cs  Cs2  1  -0.00116739  -0.00141648  0.66694846  1
  Cs  Cs3  1  -0.00005370  0.33569597  -0.00029259  1
  Cs  Cs4  1  0.00273066  0.33327179  0.33451729  1
  Cs  Cs5  1  -0.00078889  0.33172337  0.66544862  1
  Cs  Cs6  1  0.00326819  0.66625425  0.00001750  1
  Cs  Cs7  1  -0.00260016  0.66494795  0.33478289  1
  Cs  Cs8  1  -0.00195841  0.67121819  0.66637627  1
  Cs  Cs9  1  0.33218169  -0.00281755  0.00124753  1
  Cs  Cs10  1  0.33577617  0.00090667  0.32526175  1
  Cs  Cs11  1  0.33502124  0.00079082  0.66942099  1
  Cs  Cs12  1  0.33408884  0.33404219  0.00035236  1
  Cs  Cs13  1  0.32688484  0.33355882  0.33413619  1
  Cs  Cs14  1  0.33333856  0.33249964  0.66439564  1
  Cs  Cs15  1  0.32737759  0.66643928  0.00001776  1
  Cs  Cs16  1  0.34028400  0.66559409  0.33772412  1
  Cs  Cs17  1  0.33643496  0.66773516  0.66270781  1
  Cs  Cs18  1  0.66643362  0.00230310  0.00272628  1
  Cs  Cs19  1  0.66540829  -0.00240559  0.32885705  1
  Cs  Cs20  1  0.66718848  0.00136207  0.66639578  1
  Cs  Cs21  1  0.66549901  0.33448554  -0.00209640  1
  Cs  Cs22  1  0.66935490  0.33196138  0.33126808  1
  Cs  Cs23  1  0.66721950  0.33052458  0.66992866  1
  Cs  Cs24  1  0.66768913  0.66265707  -0.00157084  1
  Cs  Cs25  1  0.66552521  0.66967651  0.33457097  1
  Cs  Cs26  1  0.66579804  0.66667805  0.66671828  1
  Sn  Sn27  1  0.16681201  0.50011323  0.16642375  1
  Sn  Sn28  1  0.83415759  0.83396449  0.50066086  1
  Sn  Sn29  1  0.83317737  0.49982448  0.49953943  1
  Sn  Sn30  1  0.83366309  0.16557707  0.83293207  1
  Sn  Sn31  1  0.50011816  0.16584616  0.83274197  1
  Sn  Sn32  1  0.50068957  0.16665504  0.50026512  1
  Sn  Sn33  1  0.50117872  0.83379911  0.83332012  1
  Sn  Sn34  1  0.16650440  0.49933881  0.83289589  1
  Sn  Sn35  1  0.49998528  0.49981580  0.16670276  1
  Sn  Sn36  1  0.83248283  0.16623264  0.50052133  1
  Sn  Sn37  1  0.83318515  0.49992678  0.16752083  1
  Sn  Sn38  1  0.83225275  0.83435672  0.83288807  1
  Sn  Sn39  1  0.16634118  0.16736632  0.83321876  1
  Sn  Sn40  1  0.16626406  0.83393407  0.49978356  1
  Pb  Pb41  1  0.16662837  0.83051672  0.17023127  1
  Pb  Pb42  1  0.50010774  0.16868796  0.16642661  1
  Pb  Pb43  1  0.83342256  0.16886614  0.16650123  1
  Pb  Pb44  1  0.49754615  0.49988881  0.83456055  1
  Pb  Pb45  1  0.16644791  0.16429950  0.50191284  1
  Pb  Pb46  1  0.16650814  0.16870583  0.16366669  1
  Pb  Pb47  1  0.16644391  0.83350011  0.83197561  1
  Pb  Pb48  1  0.83503877  0.50011071  0.83291994  1
  Pb  Pb49  1  0.50075861  0.83590476  0.50172807  1
  Pb  Pb50  1  0.83332120  0.83093463  0.16643089  1
  Pb  Pb51  1  0.50014617  0.83079658  0.16318917  1
  Pb  Pb52  1  0.16462702  0.50174005  0.50038383  1
  Pb  Pb53  1  0.50281339  0.49711708  0.49809972  1
  I  I54  1  0.16699382  -0.00021214  0.16562751  1
  I  I55  1  0.16015416  -0.00315106  0.50477818  1
  I  I56  1  0.16689344  0.00271613  0.82937383  1
  I  I57  1  0.16612731  0.33725090  0.16694721  1
  I  I58  1  0.16600433  0.33317660  0.49827484  1
  I  I59  1  0.16609092  0.33280532  0.83690336  1
  I  I60  1  0.16521669  0.66235054  0.15719090  1
  I  I61  1  0.16045109  0.66945155  0.50261456  1
  I  I62  1  0.16575650  0.66449347  0.83723156  1
  I  I63  1  0.49993054  0.00009096  0.16849605  1
  I  I64  1  0.50520899  0.00368823  0.50268552  1
  I  I65  1  0.49837875  0.00121963  0.82911275  1
  I  I66  1  0.50066630  0.33670962  0.16373711  1
  I  I67  1  0.50434190  0.32942933  0.50774736  1
  I  I68  1  0.50322622  0.33017074  0.83168417  1
  I  I69  1  0.50025591  0.66267864  0.16626960  1
  I  I70  1  0.50008816  0.66674231  0.50054981  1
  I  I71  1  0.50387476  0.66911082  0.83520766  1
  I  I72  1  0.83304514  -0.00002200  0.16860490  1
  I  I73  1  0.83388992  0.00020444  0.50696496  1
  I  I74  1  0.83467350  0.00064220  0.82512159  1
  I  I75  1  0.83391693  0.33725149  0.16981692  1
  I  I76  1  0.82936713  0.33263154  0.50037615  1
  I  I77  1  0.83101368  0.33058603  0.83090102  1
  I  I78  1  0.83385640  0.66256775  0.16983078  1
  I  I79  1  0.83882330  0.66714833  0.50007947  1
  I  I80  1  0.83064665  0.66918213  0.83043734  1
  I  I81  1  0.16674174  0.16703879  -0.00499322  1
  I  I82  1  0.16702103  0.16737377  0.33362582  1
  I  I83  1  0.16666369  0.17404958  0.67022496  1
  I  I84  1  0.16389193  0.49642104  -0.00004733  1
  I  I85  1  0.16758188  0.50264560  0.33086962  1
  I  I86  1  0.16461081  0.49688380  0.66926778  1
  I  I87  1  0.16672679  0.83417057  -0.00014223  1
  I  I88  1  0.15865248  0.83279739  0.33795279  1
  I  I89  1  0.16353275  0.82996693  0.66447380  1
  I  I90  1  0.50092212  0.16468928  -0.00380701  1
  I  I91  1  0.50606639  0.16811842  0.33628311  1
  I  I92  1  0.50133731  0.16447881  0.66807859  1
  I  I93  1  0.50563013  0.49830064  0.00259447  1
  I  I94  1  0.49431842  0.49864161  0.33008627  1
  I  I95  1  0.49945878  0.50165768  0.66663805  1
  I  I96  1  0.50493128  0.84084264  -0.00488953  1
  I  I97  1  0.49959464  0.83394871  0.33345887  1
  I  I98  1  0.50093063  0.83327527  0.66985458  1
  I  I99  1  0.83233927  0.16412973  -0.00385598  1
  I  I100  1  0.82824137  0.16444957  0.33692138  1
  I  I101  1  0.83264972  0.16920421  0.66690810  1
  I  I102  1  0.83271862  0.49981891  0.00205574  1
  I  I103  1  0.83562649  0.49976525  0.33385303  1
  I  I104  1  0.83597038  0.49999516  0.66405195  1
  I  I105  1  0.82987838  0.83687675  -0.00359982  1
  I  I106  1  0.83762753  0.83532452  0.33682084  1
  I  I107  1  0.83397342  0.83098730  0.66650082  1
  I  I108  1  -0.00008365  0.17041791  0.16734717  1
  I  I109  1  -0.00338770  0.16897441  0.50420127  1
  I  I110  1  -0.00103598  0.16786403  0.82901951  1
  I  I111  1  -0.00004346  0.49977845  0.16616620  1
  I  I112  1  -0.00355204  0.49532036  0.49529108  1
  I  I113  1  0.00272107  0.49665786  0.83849241  1
  I  I114  1  -0.00007753  0.83018972  0.16107251  1
  I  I115  1  -0.00242345  0.83369821  0.50692615  1
  I  I116  1  -0.00283867  0.83551776  0.83055484  1
  I  I117  1  0.33334691  0.17052143  0.16846542  1
  I  I118  1  0.33564866  0.16586211  0.50511009  1
  I  I119  1  0.33399271  0.16729660  0.82945853  1
  I  I120  1  0.33268892  0.49949662  0.15950804  1
  I  I121  1  0.33341947  0.50111844  0.49886538  1
  I  I122  1  0.32972034  0.49713430  0.83908358  1
  I  I123  1  0.33337180  0.83057442  0.16686123  1
  I  I124  1  0.33177718  0.83233429  0.50295068  1
  I  I125  1  0.33529664  0.83586209  0.83170422  1
  I  I126  1  0.66680450  0.17188814  0.16226679  1
  I  I127  1  0.66811397  0.16690273  0.50835437  1
  I  I128  1  0.66710639  0.16291532  0.82920761  1
  I  I129  1  0.66735157  0.49948388  0.17075708  1
  I  I130  1  0.67097202  0.50538974  0.49574197  1
  I  I131  1  0.66680246  0.49845072  0.83543001  1
  I  I132  1  0.66674480  0.82920951  0.17085354  1
  I  I133  1  0.67013660  0.83045739  0.50222554  1
  I  I134  1  0.66785356  0.83913011  0.82788939  1
