# generated using pymatgen
data_Cs27Sn13Pb14I81
_symmetry_space_group_name_H-M   'P 1'
_cell_length_a   18.98639883
_cell_length_b   19.00159126
_cell_length_c   18.98634431
_cell_angle_alpha   90.00017074
_cell_angle_beta   90.00137859
_cell_angle_gamma   89.99888292
_symmetry_Int_Tables_number   1
_chemical_formula_structural   Cs27Sn13Pb14I81
_chemical_formula_sum   'Cs27 Sn13 Pb14 I81'
_cell_volume   6849.73741946
_cell_formula_units_Z   1
loop_
 _symmetry_equiv_pos_site_id
 _symmetry_equiv_pos_as_xyz
  1  'x, y, z'
loop_
 _atom_site_type_symbol
 _atom_site_label
 _atom_site_symmetry_multiplicity
 _atom_site_fract_x
 _atom_site_fract_y
 _atom_site_fract_z
 _atom_site_occupancy
  Cs  Cs0  1  0.00257879  -0.00166937  0.00014404  1
  Cs  Cs1  1  -0.00946092  -0.00938361  0.33804715  1
  Cs  Cs2  1  -0.00132412  0.00501712  0.66304197  1
  Cs  Cs3  1  0.00146865  0.33545192  -0.00182313  1
  Cs  Cs4  1  0.00118353  0.32836416  0.33794203  1
  Cs  Cs5  1  0.00300534  0.33109824  0.66593453  1
  Cs  Cs6  1  -0.00146729  0.66570838  0.00066962  1
  Cs  Cs7  1  0.00412058  0.67954992  0.33490841  1
  Cs  Cs8  1  -0.00120527  0.66439965  0.66624544  1
  Cs  Cs9  1  0.33225037  -0.00068699  -0.00174719  1
  Cs  Cs10  1  0.33361907  -0.00467097  0.33026882  1
  Cs  Cs11  1  0.33650117  0.00463208  0.66964751  1
  Cs  Cs12  1  0.33151189  0.33256260  0.00251963  1
  Cs  Cs13  1  0.33494529  0.33565737  0.33052653  1
  Cs  Cs14  1  0.33211933  0.33348599  0.66651212  1
  Cs  Cs15  1  0.33260101  0.66780013  -0.00097666  1
  Cs  Cs16  1  0.33111835  0.66733906  0.33358442  1
  Cs  Cs17  1  0.33614342  0.66531962  0.66670897  1
  Cs  Cs18  1  0.66568530  0.00159430  -0.00180236  1
  Cs  Cs19  1  0.67353354  0.00313613  0.33282086  1
  Cs  Cs20  1  0.66475322  -0.00055977  0.66759649  1
  Cs  Cs21  1  0.66944608  0.33519105  0.00645711  1
  Cs  Cs22  1  0.66601461  0.33141321  0.32633324  1
  Cs  Cs23  1  0.66632205  0.33557920  0.66722977  1
  Cs  Cs24  1  0.66998853  0.66231592  -0.00139263  1
  Cs  Cs25  1  0.66662360  0.66541398  0.33284073  1
  Cs  Cs26  1  0.66433029  0.66456685  0.66813026  1
  Sn  Sn27  1  0.83450723  0.83422199  0.83301344  1
  Sn  Sn28  1  0.83237948  0.16624280  0.83348213  1
  Sn  Sn29  1  0.16551207  0.83251756  0.83279538  1
  Sn  Sn30  1  0.50097724  0.16841856  0.83315052  1
  Sn  Sn31  1  0.16763822  0.50089350  0.83399481  1
  Sn  Sn32  1  0.83259001  0.50002710  0.49959028  1
  Sn  Sn33  1  0.50005820  0.83341414  0.49875364  1
  Sn  Sn34  1  0.16620142  0.16668806  0.16732027  1
  Sn  Sn35  1  0.50109847  0.49952680  0.50044556  1
  Sn  Sn36  1  0.49980258  0.16712963  0.50022873  1
  Sn  Sn37  1  0.50046082  0.83318145  0.16739168  1
  Sn  Sn38  1  0.49918891  0.49861262  0.83319388  1
  Sn  Sn39  1  0.16638116  0.49930570  0.16628232  1
  Pb  Pb40  1  0.83048544  0.83132729  0.50279253  1
  Pb  Pb41  1  0.83348336  0.49957213  0.83215776  1
  Pb  Pb42  1  0.83712472  0.50008763  0.17036909  1
  Pb  Pb43  1  0.16693079  0.16703602  0.83433962  1
  Pb  Pb44  1  0.83652299  0.16675737  0.16406464  1
  Pb  Pb45  1  0.83036379  0.83322162  0.16388394  1
  Pb  Pb46  1  0.50012604  0.83306264  0.83300919  1
  Pb  Pb47  1  0.16804625  0.83323639  0.16466581  1
  Pb  Pb48  1  0.83062203  0.16883875  0.50226192  1
  Pb  Pb49  1  0.16923990  0.16637522  0.49666679  1
  Pb  Pb50  1  0.49840121  0.50182872  0.16661612  1
  Pb  Pb51  1  0.16921748  0.83361593  0.50349448  1
  Pb  Pb52  1  0.49862434  0.16477175  0.16645336  1
  Pb  Pb53  1  0.16700894  0.50000827  0.50002594  1
  I  I54  1  0.17142242  0.00184878  0.16257327  1
  I  I55  1  0.16926899  -0.00003801  0.50045830  1
  I  I56  1  0.16785368  -0.00188098  0.83592598  1
  I  I57  1  0.16953072  0.33436816  0.15898578  1
  I  I58  1  0.16803144  0.33340261  0.50509887  1
  I  I59  1  0.16804186  0.33607617  0.83523200  1
  I  I60  1  0.16916748  0.66416569  0.16387868  1
  I  I61  1  0.16914986  0.66662873  0.49554416  1
  I  I62  1  0.16843311  0.66548836  0.83911417  1
  I  I63  1  0.49542851  -0.00285114  0.16848651  1
  I  I64  1  0.49682184  0.00023582  0.50260671  1
  I  I65  1  0.49993386  0.00203810  0.83061561  1
  I  I66  1  0.49930410  0.33343074  0.16850749  1
  I  I67  1  0.50290643  0.33390777  0.50665461  1
  I  I68  1  0.49886663  0.33377210  0.82512125  1
  I  I69  1  0.49627648  0.66941766  0.16894041  1
  I  I70  1  0.50319505  0.66585047  0.50207512  1
  I  I71  1  0.49880858  0.66422458  0.83033598  1
  I  I72  1  0.83605610  -0.00004964  0.16895130  1
  I  I73  1  0.83262870  -0.00002657  0.49946348  1
  I  I74  1  0.83187400  0.00016747  0.83335215  1
  I  I75  1  0.82930504  0.33351104  0.16349721  1
  I  I76  1  0.82822329  0.33641540  0.50383012  1
  I  I77  1  0.83217585  0.33107674  0.83096958  1
  I  I78  1  0.83454255  0.66660613  0.16290496  1
  I  I79  1  0.82710935  0.66382194  0.50371941  1
  I  I80  1  0.83315171  0.66841759  0.83156312  1
  I  I81  1  0.17015678  0.16809157  0.00183023  1
  I  I82  1  0.17070130  0.17606527  0.32903987  1
  I  I83  1  0.16545557  0.16690591  0.66677777  1
  I  I84  1  0.17315508  0.50005095  -0.00168820  1
  I  I85  1  0.16834787  0.49495443  0.33068348  1
  I  I86  1  0.16881953  0.50427640  0.66977409  1
  I  I87  1  0.16777467  0.83203597  -0.00330061  1
  I  I88  1  0.16723763  0.83197264  0.33333445  1
  I  I89  1  0.16567427  0.82614111  0.67149611  1
  I  I90  1  0.50192730  0.16866187  -0.00334729  1
  I  I91  1  0.49651520  0.16977026  0.33622543  1
  I  I92  1  0.50215662  0.16439466  0.66750386  1
  I  I93  1  0.49750103  0.49799936  -0.00319412  1
  I  I94  1  0.50208236  0.49797454  0.33644010  1
  I  I95  1  0.49762921  0.50222562  0.66716283  1
  I  I96  1  0.49847394  0.83390584  0.00123902  1
  I  I97  1  0.49738862  0.83241115  0.33444058  1
  I  I98  1  0.49984179  0.83257162  0.66447612  1
  I  I99  1  0.82449639  0.16427031  -0.00423829  1
  I  I100  1  0.83286641  0.16799447  0.33361546  1
  I  I101  1  0.83335753  0.16270983  0.67026642  1
  I  I102  1  0.83053506  0.50060599  -0.00005353  1
  I  I103  1  0.82356108  0.49883490  0.33785382  1
  I  I104  1  0.83183626  0.50089339  0.66453511  1
  I  I105  1  0.83407043  0.83523952  -0.00424700  1
  I  I106  1  0.83525890  0.83222328  0.33370774  1
  I  I107  1  0.83494469  0.83670858  0.67051025  1
  I  I108  1  0.00426000  0.17221553  0.16245132  1
  I  I109  1  -0.00040022  0.17006314  0.50196717  1
  I  I110  1  -0.00202552  0.16572464  0.83626885  1
  I  I111  1  0.00483412  0.49672960  0.15761263  1
  I  I112  1  -0.00229589  0.49948266  0.50216625  1
  I  I113  1  0.00268391  0.50108889  0.83516097  1
  I  I114  1  0.00000992  0.83304950  0.16699316  1
  I  I115  1  -0.00038265  0.83078681  0.49825423  1
  I  I116  1  0.00043305  0.83254144  0.83554132  1
  I  I117  1  0.33108475  0.17031116  0.16320374  1
  I  I118  1  0.33788895  0.16991964  0.50925420  1
  I  I119  1  0.33626498  0.16644703  0.83045337  1
  I  I120  1  0.33064172  0.49727995  0.16591002  1
  I  I121  1  0.33689820  0.50025236  0.50203789  1
  I  I122  1  0.33408562  0.50083600  0.83076893  1
  I  I123  1  0.33590792  0.83323472  0.16781790  1
  I  I124  1  0.33767396  0.82886725  0.49872338  1
  I  I125  1  0.33168425  0.83210558  0.83379842  1
  I  I126  1  0.66664233  0.16478609  0.16781958  1
  I  I127  1  0.66235456  0.16367386  0.50168527  1
  I  I128  1  0.66526480  0.16479699  0.82911609  1
  I  I129  1  0.66669344  0.50196368  0.16317752  1
  I  I130  1  0.66408621  0.50139259  0.50845916  1
  I  I131  1  0.66378429  0.50099149  0.82995086  1
  I  I132  1  0.66248981  0.83366684  0.16888471  1
  I  I133  1  0.66238819  0.83516605  0.49970062  1
  I  I134  1  0.66837662  0.83416554  0.83276106  1
