# generated using pymatgen
data_Cs27Sn14Pb13I81
_symmetry_space_group_name_H-M   'P 1'
_cell_length_a   18.96499373
_cell_length_b   18.96233589
_cell_length_c   18.95708067
_cell_angle_alpha   90.00189611
_cell_angle_beta   89.99957934
_cell_angle_gamma   90.00095431
_symmetry_Int_Tables_number   1
_chemical_formula_structural   Cs27Sn14Pb13I81
_chemical_formula_sum   'Cs27 Sn14 Pb13 I81'
_cell_volume   6817.35636818
_cell_formula_units_Z   1
loop_
 _symmetry_equiv_pos_site_id
 _symmetry_equiv_pos_as_xyz
  1  'x, y, z'
loop_
 _atom_site_type_symbol
 _atom_site_label
 _atom_site_symmetry_multiplicity
 _atom_site_fract_x
 _atom_site_fract_y
 _atom_site_fract_z
 _atom_site_occupancy
  Cs  Cs0  1  -0.00038573  0.00199152  0.00009684  1
  Cs  Cs1  1  0.00035819  -0.00158754  0.33226128  1
  Cs  Cs2  1  -0.00108394  -0.00313757  0.66807849  1
  Cs  Cs3  1  -0.00483353  0.33276100  0.00046480  1
  Cs  Cs4  1  0.00044135  0.33319367  0.33349650  1
  Cs  Cs5  1  0.00203980  0.33509283  0.66639126  1
  Cs  Cs6  1  0.00084407  0.66477896  -0.00239323  1
  Cs  Cs7  1  0.00190109  0.66806424  0.33542511  1
  Cs  Cs8  1  -0.00068571  0.66833253  0.66621690  1
  Cs  Cs9  1  0.33279810  -0.00118869  0.00014941  1
  Cs  Cs10  1  0.33292083  0.00140397  0.33180854  1
  Cs  Cs11  1  0.33403853  0.00195927  0.66744957  1
  Cs  Cs12  1  0.33305341  0.33281568  -0.00265499  1
  Cs  Cs13  1  0.33090711  0.33000142  0.33612179  1
  Cs  Cs14  1  0.33301610  0.33146246  0.66681182  1
  Cs  Cs15  1  0.33551623  0.66735000  0.00101312  1
  Cs  Cs16  1  0.33269581  0.66829107  0.33124086  1
  Cs  Cs17  1  0.33296244  0.66614453  0.66751927  1
  Cs  Cs18  1  0.66742554  0.00306302  -0.00212687  1
  Cs  Cs19  1  0.66729105  -0.00019670  0.33351236  1
  Cs  Cs20  1  0.66600083  -0.00367128  0.66873593  1
  Cs  Cs21  1  0.67312536  0.33720389  0.00288062  1
  Cs  Cs22  1  0.66893013  0.33376173  0.33289935  1
  Cs  Cs23  1  0.66527816  0.33359665  0.66518287  1
  Cs  Cs24  1  0.66484635  0.65669789  0.00342644  1
  Cs  Cs25  1  0.66564743  0.66628153  0.33353329  1
  Cs  Cs26  1  0.66738629  0.67061599  0.66541213  1
  Sn  Sn27  1  0.16779153  0.83276944  0.50068342  1
  Sn  Sn28  1  0.49943816  0.50083742  0.49999798  1
  Sn  Sn29  1  0.49950805  0.16680080  0.16570914  1
  Sn  Sn30  1  0.16702862  0.50086067  0.49927640  1
  Sn  Sn31  1  0.16772010  0.83419795  0.83248372  1
  Sn  Sn32  1  0.16741697  0.16759410  0.16573908  1
  Sn  Sn33  1  0.49933127  0.16621004  0.83456310  1
  Sn  Sn34  1  0.16700883  0.49907083  0.16720391  1
  Sn  Sn35  1  0.49908759  0.83386279  0.83291050  1
  Sn  Sn36  1  0.83357748  0.49906625  0.49990668  1
  Sn  Sn37  1  0.83349417  0.16692834  0.50041327  1
  Sn  Sn38  1  0.49871216  0.83268426  0.50031825  1
  Sn  Sn39  1  0.16734199  0.16590201  0.83427720  1
  Sn  Sn40  1  0.83311028  0.83320678  0.16612277  1
  Pb  Pb41  1  0.49754167  0.49706428  0.16925686  1
  Pb  Pb42  1  0.83364955  0.16548220  0.16845381  1
  Pb  Pb43  1  0.16672943  0.49997600  0.83325277  1
  Pb  Pb44  1  0.16499761  0.16622578  0.50035071  1
  Pb  Pb45  1  0.83328330  0.83293130  0.49887070  1
  Pb  Pb46  1  0.16559256  0.83349059  0.16621189  1
  Pb  Pb47  1  0.83325882  0.16668566  0.83086620  1
  Pb  Pb48  1  0.50192852  0.83517007  0.16624019  1
  Pb  Pb49  1  0.83325377  0.50014558  0.83046062  1
  Pb  Pb50  1  0.50173652  0.16619748  0.50034151  1
  Pb  Pb51  1  0.83281117  0.83320310  0.83635821  1
  Pb  Pb52  1  0.83599293  0.50229295  0.16904871  1
  Pb  Pb53  1  0.49997041  0.49986100  0.83120078  1
  I  I54  1  0.16825117  0.00269498  0.16689862  1
  I  I55  1  0.16921003  -0.00279893  0.50013651  1
  I  I56  1  0.17011830  -0.00010619  0.83271744  1
  I  I57  1  0.16972798  0.33256380  0.16879878  1
  I  I58  1  0.16799357  0.33574890  0.49904700  1
  I  I59  1  0.17091458  0.33021384  0.83280421  1
  I  I60  1  0.16322016  0.66464307  0.16945282  1
  I  I61  1  0.16456911  0.66658375  0.49941437  1
  I  I62  1  0.17003743  0.66987899  0.83218531  1
  I  I63  1  0.49380549  0.00313813  0.16915484  1
  I  I64  1  0.49729220  -0.00281948  0.50065249  1
  I  I65  1  0.49599898  -0.00017455  0.83004791  1
  I  I66  1  0.49961992  0.32909216  0.16266156  1
  I  I67  1  0.49826551  0.33560479  0.49947067  1
  I  I68  1  0.49495916  0.32992462  0.83401140  1
  I  I69  1  0.50039977  0.66646107  0.16492725  1
  I  I70  1  0.50175303  0.66743237  0.50489388  1
  I  I71  1  0.49564028  0.67009037  0.83038882  1
  I  I72  1  0.83619272  -0.00196284  0.17188798  1
  I  I73  1  0.83343956  0.00155514  0.49772506  1
  I  I74  1  0.83405569  -0.00004355  0.82916009  1
  I  I75  1  0.83214679  0.33359214  0.16733488  1
  I  I76  1  0.83334238  0.33431802  0.49892825  1
  I  I77  1  0.83382750  0.33305938  0.83501910  1
  I  I78  1  0.83427401  0.66955766  0.16919412  1
  I  I79  1  0.83395117  0.66403400  0.49783264  1
  I  I80  1  0.83471990  0.66707099  0.83181613  1
  I  I81  1  0.16992031  0.16581435  -0.00005420  1
  I  I82  1  0.16911903  0.16726042  0.33109908  1
  I  I83  1  0.17007109  0.16594177  0.66924601  1
  I  I84  1  0.16622546  0.49969314  0.00269430  1
  I  I85  1  0.16634745  0.49982414  0.33486423  1
  I  I86  1  0.16599643  0.50054851  0.66316430  1
  I  I87  1  0.16924131  0.83413544  -0.00288502  1
  I  I88  1  0.16844710  0.83237016  0.33597741  1
  I  I89  1  0.16865858  0.83349460  0.66609610  1
  I  I90  1  0.49575139  0.15971385  -0.00072406  1
  I  I91  1  0.49686014  0.16675651  0.33139904  1
  I  I92  1  0.49634903  0.16596841  0.66926833  1
  I  I93  1  0.49847390  0.50314974  0.00032945  1
  I  I94  1  0.50215846  0.50490739  0.33757970  1
  I  I95  1  0.49713301  0.49852802  0.66248791  1
  I  I96  1  0.49575325  0.83685650  -0.00315206  1
  I  I97  1  0.49747816  0.83128426  0.33624731  1
  I  I98  1  0.49741635  0.83563101  0.66615263  1
  I  I99  1  0.83341656  0.16438050  0.00002841  1
  I  I100  1  0.83314886  0.16933455  0.33630552  1
  I  I101  1  0.83357415  0.16990711  0.66289842  1
  I  I102  1  0.83466869  0.50146655  0.00065431  1
  I  I103  1  0.83160388  0.49670443  0.33727480  1
  I  I104  1  0.83713847  0.49743802  0.66157874  1
  I  I105  1  0.83574429  0.83642494  0.00352642  1
  I  I106  1  0.83462794  0.83426074  0.33152002  1
  I  I107  1  0.83374265  0.83295933  0.66667152  1
  I  I108  1  0.00323450  0.16885446  0.16410070  1
  I  I109  1  -0.00246663  0.16985192  0.49890838  1
  I  I110  1  0.00347910  0.16258526  0.83626329  1
  I  I111  1  0.00387710  0.49416431  0.17253968  1
  I  I112  1  0.00110177  0.50014062  0.49613072  1
  I  I113  1  0.00052539  0.50041021  0.83110169  1
  I  I114  1  -0.00174215  0.83520347  0.16966684  1
  I  I115  1  0.00279780  0.83098448  0.50229862  1
  I  I116  1  0.00336961  0.83707482  0.82910829  1
  I  I117  1  0.33242118  0.16870232  0.16506154  1
  I  I118  1  0.33328476  0.16907259  0.49924116  1
  I  I119  1  0.33298590  0.16241746  0.83602117  1
  I  I120  1  0.32960092  0.50052500  0.17316364  1
  I  I121  1  0.33256051  0.50460394  0.49650815  1
  I  I122  1  0.33320307  0.49947832  0.83018594  1
  I  I123  1  0.33333671  0.83218882  0.16796509  1
  I  I124  1  0.33302426  0.82649044  0.50259781  1
  I  I125  1  0.33300122  0.83784373  0.82873506  1
  I  I126  1  0.66419534  0.16315077  0.16455798  1
  I  I127  1  0.66924849  0.17013671  0.49887952  1
  I  I128  1  0.66316798  0.16163918  0.83511507  1
  I  I129  1  0.66657406  0.49964202  0.16802159  1
  I  I130  1  0.66634719  0.49985038  0.50188333  1
  I  I131  1  0.66627992  0.50017641  0.83190227  1
  I  I132  1  0.66916948  0.83643587  0.16991073  1
  I  I133  1  0.66391826  0.83147929  0.50259425  1
  I  I134  1  0.66296320  0.83899039  0.82725495  1
