# generated using pymatgen
data_Cs27Sn14Pb13I81
_symmetry_space_group_name_H-M   'P 1'
_cell_length_a   18.97918027
_cell_length_b   18.97958349
_cell_length_c   18.96940481
_cell_angle_alpha   89.99975730
_cell_angle_beta   90.00177048
_cell_angle_gamma   89.99962244
_symmetry_Int_Tables_number   1
_chemical_formula_structural   Cs27Sn14Pb13I81
_chemical_formula_sum   'Cs27 Sn14 Pb13 I81'
_cell_volume   6833.10088587
_cell_formula_units_Z   1
loop_
 _symmetry_equiv_pos_site_id
 _symmetry_equiv_pos_as_xyz
  1  'x, y, z'
loop_
 _atom_site_type_symbol
 _atom_site_label
 _atom_site_symmetry_multiplicity
 _atom_site_fract_x
 _atom_site_fract_y
 _atom_site_fract_z
 _atom_site_occupancy
  Cs  Cs0  1  0.00006419  0.00155565  -0.00142490  1
  Cs  Cs1  1  0.00039563  -0.00038230  0.33482413  1
  Cs  Cs2  1  0.00369201  -0.00433693  0.66468568  1
  Cs  Cs3  1  -0.00190432  0.33365381  -0.00486733  1
  Cs  Cs4  1  0.00198591  0.33415003  0.33335742  1
  Cs  Cs5  1  0.00014810  0.33551397  0.67041440  1
  Cs  Cs6  1  -0.00045778  0.66542647  -0.00160265  1
  Cs  Cs7  1  -0.00166723  0.66665839  0.33363671  1
  Cs  Cs8  1  0.00026804  0.66764859  0.66916909  1
  Cs  Cs9  1  0.33259575  -0.00136777  -0.00057506  1
  Cs  Cs10  1  0.33008736  -0.00129439  0.33144354  1
  Cs  Cs11  1  0.33468123  0.00063976  0.66878985  1
  Cs  Cs12  1  0.33398893  0.32950897  0.00013841  1
  Cs  Cs13  1  0.32975645  0.33526852  0.33609404  1
  Cs  Cs14  1  0.33341194  0.33312808  0.66398174  1
  Cs  Cs15  1  0.33410406  0.67061753  0.00316464  1
  Cs  Cs16  1  0.33233971  0.66449804  0.32933716  1
  Cs  Cs17  1  0.33726840  0.66578494  0.66756875  1
  Cs  Cs18  1  0.66715310  0.00618835  0.00114068  1
  Cs  Cs19  1  0.66897530  0.00152419  0.33295515  1
  Cs  Cs20  1  0.66435081  -0.00426090  0.66568665  1
  Cs  Cs21  1  0.66862197  0.32311682  0.00128414  1
  Cs  Cs22  1  0.66731441  0.33426310  0.33301929  1
  Cs  Cs23  1  0.66657692  0.33485534  0.66565315  1
  Cs  Cs24  1  0.66694907  0.66714174  -0.00109209  1
  Cs  Cs25  1  0.66775146  0.66530718  0.33251948  1
  Cs  Cs26  1  0.66597989  0.66831842  0.66715026  1
  Sn  Sn27  1  0.50035628  0.50030637  0.83323180  1
  Sn  Sn28  1  0.83253046  0.83321714  0.83444060  1
  Sn  Sn29  1  0.49996924  0.16672484  0.49979076  1
  Sn  Sn30  1  0.49981025  0.83293891  0.49984491  1
  Sn  Sn31  1  0.83365730  0.16763955  0.50014423  1
  Sn  Sn32  1  0.16557942  0.49907419  0.16715316  1
  Sn  Sn33  1  0.50114186  0.83230146  0.83280388  1
  Sn  Sn34  1  0.83391997  0.50044138  0.16706762  1
  Sn  Sn35  1  0.50008225  0.50023355  0.50049230  1
  Sn  Sn36  1  0.16638326  0.49964733  0.49963892  1
  Sn  Sn37  1  0.83319729  0.83267430  0.16568011  1
  Sn  Sn38  1  0.16643758  0.16756197  0.49950066  1
  Sn  Sn39  1  0.16639698  0.16779077  0.16750730  1
  Sn  Sn40  1  0.83350232  0.49933298  0.49956058  1
  Pb  Pb41  1  0.16978617  0.83269117  0.50000387  1
  Pb  Pb42  1  0.50020145  0.49983292  0.16643986  1
  Pb  Pb43  1  0.16950117  0.50005894  0.83362875  1
  Pb  Pb44  1  0.50259054  0.83338303  0.16638825  1
  Pb  Pb45  1  0.16656264  0.16695581  0.83278161  1
  Pb  Pb46  1  0.49698285  0.16681687  0.16977559  1
  Pb  Pb47  1  0.83155823  0.83280181  0.49998597  1
  Pb  Pb48  1  0.83554211  0.16733760  0.16883990  1
  Pb  Pb49  1  0.83100673  0.50131859  0.83347957  1
  Pb  Pb50  1  0.83336934  0.16358744  0.82976472  1
  Pb  Pb51  1  0.50007758  0.16664018  0.83103358  1
  Pb  Pb52  1  0.16381808  0.83289982  0.16684207  1
  Pb  Pb53  1  0.16726745  0.83306028  0.83332071  1
  I  I54  1  0.16664868  0.00287574  0.17226967  1
  I  I55  1  0.16567563  0.00321206  0.49601073  1
  I  I56  1  0.16850926  0.00003751  0.83294333  1
  I  I57  1  0.16165990  0.33449430  0.17291212  1
  I  I58  1  0.17150524  0.33394057  0.49584432  1
  I  I59  1  0.16864523  0.33368354  0.83308274  1
  I  I60  1  0.16594081  0.66313709  0.17202669  1
  I  I61  1  0.16566913  0.66279055  0.49563742  1
  I  I62  1  0.16535475  0.66635139  0.83235649  1
  I  I63  1  0.50004591  0.00005359  0.16767347  1
  I  I64  1  0.50083707  0.00009774  0.50378277  1
  I  I65  1  0.50360409  -0.00327095  0.82805736  1
  I  I66  1  0.50620104  0.33347799  0.16363314  1
  I  I67  1  0.49962833  0.33410920  0.50370838  1
  I  I68  1  0.49855751  0.33625150  0.82852102  1
  I  I69  1  0.49503410  0.66650473  0.17213939  1
  I  I70  1  0.50077700  0.66571776  0.50447144  1
  I  I71  1  0.50332785  0.66704107  0.82297526  1
  I  I72  1  0.83327949  -0.00207647  0.16471719  1
  I  I73  1  0.83304132  0.00223810  0.50009817  1
  I  I74  1  0.82597023  -0.00433382  0.83896972  1
  I  I75  1  0.83424896  0.33651666  0.17001038  1
  I  I76  1  0.82865120  0.33462222  0.49438263  1
  I  I77  1  0.83166091  0.33336965  0.83583660  1
  I  I78  1  0.83842562  0.66534232  0.17006665  1
  I  I79  1  0.83334608  0.66353280  0.49893955  1
  I  I80  1  0.83051398  0.66938102  0.83160443  1
  I  I81  1  0.16570477  0.17093779  0.00332437  1
  I  I82  1  0.16778771  0.17088443  0.33503490  1
  I  I83  1  0.16778600  0.17076319  0.66225056  1
  I  I84  1  0.16234390  0.49601055  0.00355493  1
  I  I85  1  0.16855269  0.49639114  0.33462967  1
  I  I86  1  0.16428893  0.49543676  0.66304195  1
  I  I87  1  0.17195133  0.83393666  0.00029579  1
  I  I88  1  0.16730743  0.83412370  0.33350501  1
  I  I89  1  0.16061158  0.83436829  0.66634189  1
  I  I90  1  0.49829638  0.16607695  0.00004922  1
  I  I91  1  0.50323116  0.16760280  0.33841214  1
  I  I92  1  0.49696349  0.16668503  0.66222170  1
  I  I93  1  0.49893504  0.50824603  -0.00287006  1
  I  I94  1  0.49995058  0.50019466  0.33699337  1
  I  I95  1  0.49994457  0.50078468  0.66416151  1
  I  I96  1  0.50091974  0.82653041  -0.00336984  1
  I  I97  1  0.50081358  0.83244656  0.33655416  1
  I  I98  1  0.50619806  0.83265540  0.66604371  1
  I  I99  1  0.83512443  0.16864581  0.00013121  1
  I  I100  1  0.82996659  0.16464809  0.33711305  1
  I  I101  1  0.83519439  0.17271345  0.66145714  1
  I  I102  1  0.83735020  0.50346815  0.00289163  1
  I  I103  1  0.83164804  0.50279843  0.33446942  1
  I  I104  1  0.83553525  0.49749177  0.66324982  1
  I  I105  1  0.82826300  0.82689923  0.00020852  1
  I  I106  1  0.83234858  0.83201071  0.33145495  1
  I  I107  1  0.82996148  0.83423946  0.66861023  1
  I  I108  1  0.00314817  0.16663359  0.17479357  1
  I  I109  1  0.00040313  0.17226155  0.49596996  1
  I  I110  1  -0.00018524  0.16424402  0.83008935  1
  I  I111  1  -0.00023215  0.50120764  0.17542524  1
  I  I112  1  -0.00018936  0.49339835  0.49499387  1
  I  I113  1  -0.00021882  0.50228260  0.83022293  1
  I  I114  1  -0.00405819  0.83166274  0.16208740  1
  I  I115  1  -0.00016921  0.83453765  0.50080413  1
  I  I116  1  -0.00324081  0.83392416  0.83683041  1
  I  I117  1  0.32905651  0.17328375  0.17202019  1
  I  I118  1  0.33327482  0.16953115  0.49689328  1
  I  I119  1  0.33350061  0.16378394  0.83206268  1
  I  I120  1  0.33037790  0.49586565  0.17073078  1
  I  I121  1  0.33344625  0.49768754  0.50016136  1
  I  I122  1  0.33737579  0.50670236  0.82743156  1
  I  I123  1  0.33323684  0.83338659  0.16610347  1
  I  I124  1  0.33800745  0.83356827  0.50679573  1
  I  I125  1  0.33732738  0.83022012  0.82768662  1
  I  I126  1  0.66705293  0.16656668  0.16776370  1
  I  I127  1  0.66650458  0.16924853  0.50153542  1
  I  I128  1  0.66668814  0.16884272  0.83307126  1
  I  I129  1  0.66978994  0.50565706  0.17161115  1
  I  I130  1  0.66666602  0.49775272  0.49974157  1
  I  I131  1  0.66325268  0.50316630  0.82694865  1
  I  I132  1  0.67044424  0.82619557  0.16729615  1
  I  I133  1  0.66353933  0.83336267  0.50128746  1
  I  I134  1  0.66580278  0.82854330  0.83161646  1
