# generated using pymatgen
data_Cs27Sn14Pb13I81
_symmetry_space_group_name_H-M   'P 1'
_cell_length_a   18.96153416
_cell_length_b   18.95944460
_cell_length_c   18.96237872
_cell_angle_alpha   89.99960889
_cell_angle_beta   89.99961660
_cell_angle_gamma   90.00107798
_symmetry_Int_Tables_number   1
_chemical_formula_structural   Cs27Sn14Pb13I81
_chemical_formula_sum   'Cs27 Sn14 Pb13 I81'
_cell_volume   6816.97811538
_cell_formula_units_Z   1
loop_
 _symmetry_equiv_pos_site_id
 _symmetry_equiv_pos_as_xyz
  1  'x, y, z'
loop_
 _atom_site_type_symbol
 _atom_site_label
 _atom_site_symmetry_multiplicity
 _atom_site_fract_x
 _atom_site_fract_y
 _atom_site_fract_z
 _atom_site_occupancy
  Cs  Cs0  1  -0.00050019  0.00109484  0.00042739  1
  Cs  Cs1  1  0.00184467  0.00015191  0.33430785  1
  Cs  Cs2  1  0.00109807  -0.00059990  0.66618634  1
  Cs  Cs3  1  -0.00100491  0.33355403  0.00005507  1
  Cs  Cs4  1  -0.00098903  0.33572277  0.32872955  1
  Cs  Cs5  1  -0.00046333  0.33507844  0.66852056  1
  Cs  Cs6  1  -0.00086857  0.66492555  0.00142365  1
  Cs  Cs7  1  0.00059231  0.66483292  0.33527435  1
  Cs  Cs8  1  -0.00020352  0.66605884  0.66557019  1
  Cs  Cs9  1  0.33236662  0.00202481  0.00069420  1
  Cs  Cs10  1  0.33119670  0.00073177  0.33282340  1
  Cs  Cs11  1  0.33204287  -0.00043475  0.66668549  1
  Cs  Cs12  1  0.33293456  0.32986125  -0.00214715  1
  Cs  Cs13  1  0.33577492  0.33753515  0.33354887  1
  Cs  Cs14  1  0.33455628  0.33360907  0.66827544  1
  Cs  Cs15  1  0.33612637  0.66732244  0.00000676  1
  Cs  Cs16  1  0.33492637  0.66113144  0.33319671  1
  Cs  Cs17  1  0.33280093  0.66669274  0.66697064  1
  Cs  Cs18  1  0.67091870  -0.00688945  0.00104643  1
  Cs  Cs19  1  0.66886298  0.00233789  0.33546175  1
  Cs  Cs20  1  0.66968784  -0.00014033  0.66518166  1
  Cs  Cs21  1  0.66740561  0.33328435  0.00012863  1
  Cs  Cs22  1  0.66498579  0.33157893  0.33385596  1
  Cs  Cs23  1  0.66596256  0.33223593  0.66513315  1
  Cs  Cs24  1  0.66496904  0.67361231  0.00622020  1
  Cs  Cs25  1  0.66544375  0.66638964  0.32718155  1
  Cs  Cs26  1  0.66946719  0.66798173  0.66806310  1
  Sn  Sn27  1  0.49923410  0.16624151  0.16569987  1
  Sn  Sn28  1  0.83282911  0.50011412  0.83278522  1
  Sn  Sn29  1  0.83332653  0.50062665  0.50057935  1
  Sn  Sn30  1  0.16713450  0.16663634  0.83319847  1
  Sn  Sn31  1  0.16747145  0.16607064  0.16670794  1
  Sn  Sn32  1  0.16673289  0.83338524  0.83365057  1
  Sn  Sn33  1  0.16678822  0.49996836  0.83312878  1
  Sn  Sn34  1  0.16688737  0.83364393  0.16689670  1
  Sn  Sn35  1  0.50044367  0.49971257  0.83317276  1
  Sn  Sn36  1  0.16671948  0.16674066  0.50000514  1
  Sn  Sn37  1  0.49965261  0.83335917  0.50010157  1
  Sn  Sn38  1  0.49958410  0.16679845  0.83419895  1
  Sn  Sn39  1  0.83344042  0.83237834  0.50020241  1
  Sn  Sn40  1  0.16695993  0.83364713  0.49969310  1
  Pb  Pb41  1  0.50256138  0.50229010  0.50229143  1
  Pb  Pb42  1  0.16534132  0.49992593  0.50190130  1
  Pb  Pb43  1  0.83620441  0.83344556  0.16968367  1
  Pb  Pb44  1  0.83619187  0.16698963  0.50011087  1
  Pb  Pb45  1  0.49769570  0.16504724  0.50045665  1
  Pb  Pb46  1  0.83599965  0.83114652  0.83166402  1
  Pb  Pb47  1  0.16688694  0.49963139  0.16378472  1
  Pb  Pb48  1  0.49985466  0.49730851  0.16374742  1
  Pb  Pb49  1  0.49751772  0.83592404  0.16921953  1
  Pb  Pb50  1  0.49820320  0.83402198  0.83190693  1
  Pb  Pb51  1  0.83305006  0.16860415  0.83335145  1
  Pb  Pb52  1  0.83336737  0.16647245  0.16646919  1
  Pb  Pb53  1  0.83313139  0.50005473  0.16660396  1
  I  I54  1  0.16960144  0.00046552  0.16359949  1
  I  I55  1  0.16471436  -0.00107499  0.50403689  1
  I  I56  1  0.17122664  0.00045853  0.83235536  1
  I  I57  1  0.16944362  0.32961801  0.16739304  1
  I  I58  1  0.16518164  0.33057671  0.50052610  1
  I  I59  1  0.16663095  0.33267771  0.83282100  1
  I  I60  1  0.16485005  0.66973736  0.16773394  1
  I  I61  1  0.16723934  0.66997468  0.50058983  1
  I  I62  1  0.16629248  0.66682748  0.83176515  1
  I  I63  1  0.49669523  0.00381256  0.15922484  1
  I  I64  1  0.50317419  -0.00303377  0.50258648  1
  I  I65  1  0.49336326  0.00319051  0.83510201  1
  I  I66  1  0.49203259  0.32922412  0.16733634  1
  I  I67  1  0.50012425  0.33325603  0.49846537  1
  I  I68  1  0.49470557  0.33297195  0.83548041  1
  I  I69  1  0.49945344  0.66704290  0.16630236  1
  I  I70  1  0.49300692  0.67032044  0.50219047  1
  I  I71  1  0.49787634  0.66430793  0.82935911  1
  I  I72  1  0.83230760  -0.00017343  0.16808643  1
  I  I73  1  0.83307838  -0.00308993  0.49916403  1
  I  I74  1  0.83358470  -0.00029782  0.83165436  1
  I  I75  1  0.83699668  0.33327468  0.16924112  1
  I  I76  1  0.83556835  0.33632081  0.50482586  1
  I  I77  1  0.83893875  0.33699622  0.82655709  1
  I  I78  1  0.83521555  0.66688601  0.16449760  1
  I  I79  1  0.83695375  0.66740851  0.50533520  1
  I  I80  1  0.83393813  0.66284012  0.83032391  1
  I  I81  1  0.17007331  0.16445734  -0.00077987  1
  I  I82  1  0.16917714  0.15821777  0.33314204  1
  I  I83  1  0.16942996  0.16382762  0.66754668  1
  I  I84  1  0.16395702  0.50023113  -0.00490000  1
  I  I85  1  0.16336540  0.49972512  0.33341484  1
  I  I86  1  0.16793430  0.49971883  0.67049077  1
  I  I87  1  0.16723092  0.83573488  -0.00069465  1
  I  I88  1  0.16552234  0.84115615  0.33437597  1
  I  I89  1  0.16634886  0.83591583  0.66626866  1
  I  I90  1  0.48996137  0.17177177  -0.00113575  1
  I  I91  1  0.49543010  0.16359141  0.33109727  1
  I  I92  1  0.49504451  0.16977735  0.66975396  1
  I  I93  1  0.50050291  0.50023408  -0.00475217  1
  I  I94  1  0.50187361  0.49931612  0.33350271  1
  I  I95  1  0.49658848  0.49352814  0.67050559  1
  I  I96  1  0.49842471  0.83078094  0.00005601  1
  I  I97  1  0.49812515  0.83488805  0.33713877  1
  I  I98  1  0.49651224  0.83489261  0.66387541  1
  I  I99  1  0.83858795  0.16960306  -0.00027195  1
  I  I100  1  0.83340162  0.16905204  0.33355103  1
  I  I101  1  0.83383520  0.16504651  0.66663462  1
  I  I102  1  0.83566682  0.49745081  -0.00372263  1
  I  I103  1  0.83583370  0.50430466  0.33666087  1
  I  I104  1  0.83488962  0.50392965  0.66741667  1
  I  I105  1  0.83443396  0.83191283  0.00001232  1
  I  I106  1  0.83568344  0.82716623  0.33797986  1
  I  I107  1  0.83653380  0.83203075  0.66328401  1
  I  I108  1  0.00415706  0.16329122  0.16605443  1
  I  I109  1  0.00470986  0.16095312  0.50109453  1
  I  I110  1  0.00378869  0.16674836  0.83353918  1
  I  I111  1  0.00030679  0.49780690  0.16388762  1
  I  I112  1  -0.00258725  0.50516166  0.50694780  1
  I  I113  1  0.00083372  0.50030819  0.82931765  1
  I  I114  1  0.00468972  0.83982145  0.16690276  1
  I  I115  1  0.00147951  0.83325984  0.50043434  1
  I  I116  1  0.00475058  0.83503363  0.83099828  1
  I  I117  1  0.33159670  0.16252383  0.16477167  1
  I  I118  1  0.32930074  0.16077817  0.50131178  1
  I  I119  1  0.33174024  0.17107241  0.83336609  1
  I  I120  1  0.33317230  0.50302943  0.16740797  1
  I  I121  1  0.33339980  0.50127227  0.50173447  1
  I  I122  1  0.33267629  0.49866783  0.83366606  1
  I  I123  1  0.32915566  0.83552752  0.16787976  1
  I  I124  1  0.33146419  0.83864395  0.50120925  1
  I  I125  1  0.32938377  0.82963159  0.82996527  1
  I  I126  1  0.66314334  0.16856633  0.16201022  1
  I  I127  1  0.66647368  0.16481042  0.49988187  1
  I  I128  1  0.66309088  0.17146228  0.83698749  1
  I  I129  1  0.66643073  0.49797553  0.16505402  1
  I  I130  1  0.67053386  0.50415590  0.50639027  1
  I  I131  1  0.66637379  0.49351528  0.82791555  1
  I  I132  1  0.66641728  0.83452229  0.16772087  1
  I  I133  1  0.66707057  0.82933437  0.50205349  1
  I  I134  1  0.66674016  0.83347614  0.83045873  1
