# generated using pymatgen
data_Cs27Sn13Pb14I81
_symmetry_space_group_name_H-M   'P 1'
_cell_length_a   18.97568927
_cell_length_b   18.97515205
_cell_length_c   18.98058693
_cell_angle_alpha   89.99974773
_cell_angle_beta   90.00012672
_cell_angle_gamma   89.99906487
_symmetry_Int_Tables_number   1
_chemical_formula_structural   Cs27Sn13Pb14I81
_chemical_formula_sum   'Cs27 Sn13 Pb14 I81'
_cell_volume   6834.27519465
_cell_formula_units_Z   1
loop_
 _symmetry_equiv_pos_site_id
 _symmetry_equiv_pos_as_xyz
  1  'x, y, z'
loop_
 _atom_site_type_symbol
 _atom_site_label
 _atom_site_symmetry_multiplicity
 _atom_site_fract_x
 _atom_site_fract_y
 _atom_site_fract_z
 _atom_site_occupancy
  Cs  Cs0  1  -0.00121340  -0.00157762  0.00249145  1
  Cs  Cs1  1  0.00089544  -0.00273144  0.33404811  1
  Cs  Cs2  1  0.00278833  0.00044623  0.66304268  1
  Cs  Cs3  1  0.00069013  0.33612014  -0.00164510  1
  Cs  Cs4  1  -0.00026340  0.33359661  0.33114949  1
  Cs  Cs5  1  -0.00062612  0.32932483  0.67070899  1
  Cs  Cs6  1  0.00261374  0.66373397  -0.00011136  1
  Cs  Cs7  1  -0.00011059  0.66820338  0.33768139  1
  Cs  Cs8  1  -0.00311889  0.67100016  0.66215276  1
  Cs  Cs9  1  0.33499348  -0.00342404  0.00192261  1
  Cs  Cs10  1  0.33247050  -0.00009829  0.33426408  1
  Cs  Cs11  1  0.33218567  0.00178292  0.66406506  1
  Cs  Cs12  1  0.33122489  0.33601328  -0.00149555  1
  Cs  Cs13  1  0.33425623  0.33514876  0.33268265  1
  Cs  Cs14  1  0.33429910  0.33059085  0.66859021  1
  Cs  Cs15  1  0.33169344  0.66643907  0.00037019  1
  Cs  Cs16  1  0.33220468  0.66406236  0.33451979  1
  Cs  Cs17  1  0.33560814  0.66752699  0.66564594  1
  Cs  Cs18  1  0.66606999  -0.00488064  0.00512636  1
  Cs  Cs19  1  0.66552121  0.00296784  0.32364273  1
  Cs  Cs20  1  0.66467206  0.00253386  0.66946192  1
  Cs  Cs21  1  0.66762441  0.33234039  -0.00063841  1
  Cs  Cs22  1  0.66652064  0.33332679  0.33437373  1
  Cs  Cs23  1  0.66611210  0.33393613  0.66620164  1
  Cs  Cs24  1  0.66589363  0.67111413  -0.00223107  1
  Cs  Cs25  1  0.66966172  0.66376747  0.33716539  1
  Cs  Cs26  1  0.66875818  0.66610814  0.66667327  1
  Sn  Sn27  1  0.83230739  0.16698860  0.83288266  1
  Sn  Sn28  1  0.83233716  0.49945851  0.83417380  1
  Sn  Sn29  1  0.83247727  0.16662760  0.50039842  1
  Sn  Sn30  1  0.50060448  0.83449067  0.49993779  1
  Sn  Sn31  1  0.16664167  0.83356162  0.83362116  1
  Sn  Sn32  1  0.83217883  0.49993637  0.16585080  1
  Sn  Sn33  1  0.16682048  0.83414969  0.16597066  1
  Sn  Sn34  1  0.50073712  0.49944167  0.83428976  1
  Sn  Sn35  1  0.16682294  0.16607988  0.16635470  1
  Sn  Sn36  1  0.50093537  0.16568719  0.50036906  1
  Sn  Sn37  1  0.50109609  0.49987817  0.16562548  1
  Sn  Sn38  1  0.50081778  0.16711598  0.83321407  1
  Sn  Sn39  1  0.16653134  0.49931696  0.50081762  1
  Pb  Pb40  1  0.83565273  0.83002783  0.16664040  1
  Pb  Pb41  1  0.83004330  0.83700335  0.50007877  1
  Pb  Pb42  1  0.83531363  0.49776871  0.50080110  1
  Pb  Pb43  1  0.49820977  0.83029037  0.16904570  1
  Pb  Pb44  1  0.16689827  0.16831147  0.49816740  1
  Pb  Pb45  1  0.49846543  0.83351311  0.83191522  1
  Pb  Pb46  1  0.49828602  0.16862680  0.16612675  1
  Pb  Pb47  1  0.49903835  0.49919879  0.50072177  1
  Pb  Pb48  1  0.16834337  0.83173056  0.49982981  1
  Pb  Pb49  1  0.83544447  0.83377995  0.83326101  1
  Pb  Pb50  1  0.16645030  0.50037149  0.16793711  1
  Pb  Pb51  1  0.16675299  0.16463541  0.83537483  1
  Pb  Pb52  1  0.16643888  0.50181413  0.83099767  1
  Pb  Pb53  1  0.83516702  0.16846896  0.16602119  1
  I  I54  1  0.16721850  -0.00030879  0.16402773  1
  I  I55  1  0.16556480  0.00019081  0.50021479  1
  I  I56  1  0.16730140  -0.00293237  0.83414735  1
  I  I57  1  0.16675999  0.33192747  0.16966899  1
  I  I58  1  0.16938376  0.33569532  0.49703534  1
  I  I59  1  0.16698560  0.33322332  0.83423947  1
  I  I60  1  0.16721226  0.66880031  0.16473490  1
  I  I61  1  0.16895355  0.66407106  0.49746481  1
  I  I62  1  0.16793502  0.66933831  0.83947605  1
  I  I63  1  0.49914342  0.00003155  0.16523922  1
  I  I64  1  0.50075864  0.00175602  0.50631789  1
  I  I65  1  0.50232198  0.00325916  0.83016816  1
  I  I66  1  0.49948053  0.33655713  0.16839139  1
  I  I67  1  0.50179408  0.33037404  0.50089308  1
  I  I68  1  0.50199088  0.33332405  0.83056831  1
  I  I69  1  0.50017593  0.66236081  0.16247770  1
  I  I70  1  0.49430103  0.66787374  0.49916173  1
  I  I71  1  0.50205572  0.66359766  0.83484732  1
  I  I72  1  0.83413354  0.00016865  0.16683981  1
  I  I73  1  0.83579248  0.00493379  0.50689135  1
  I  I74  1  0.83037309  0.00378036  0.82859653  1
  I  I75  1  0.83345836  0.33641043  0.16593471  1
  I  I76  1  0.82709295  0.33013730  0.50086841  1
  I  I77  1  0.83079914  0.33346682  0.83303025  1
  I  I78  1  0.83165690  0.66181132  0.16125448  1
  I  I79  1  0.83422801  0.66651955  0.49954180  1
  I  I80  1  0.83035170  0.66327887  0.83749100  1
  I  I81  1  0.16668504  0.16705321  0.00297558  1
  I  I82  1  0.16661405  0.16253663  0.33044863  1
  I  I83  1  0.16654688  0.16602768  0.66688033  1
  I  I84  1  0.16694953  0.49955299  -0.00025469  1
  I  I85  1  0.16806025  0.50126844  0.33538373  1
  I  I86  1  0.16834427  0.50133204  0.66391196  1
  I  I87  1  0.16798332  0.83573281  0.00060682  1
  I  I88  1  0.16824957  0.83484490  0.33084064  1
  I  I89  1  0.16794381  0.83060735  0.66860374  1
  I  I90  1  0.50268978  0.16970589  -0.00322231  1
  I  I91  1  0.50217414  0.16501383  0.33592480  1
  I  I92  1  0.50217693  0.16926735  0.66701918  1
  I  I93  1  0.50141495  0.49453714  -0.00104642  1
  I  I94  1  0.50075885  0.50026764  0.33144259  1
  I  I95  1  0.50220234  0.49932839  0.66970656  1
  I  I96  1  0.49896788  0.83500822  0.00014279  1
  I  I97  1  0.49652724  0.83845727  0.33668215  1
  I  I98  1  0.49525754  0.83224097  0.66411807  1
  I  I99  1  0.83079959  0.16956078  -0.00329640  1
  I  I100  1  0.83048675  0.16877094  0.33558091  1
  I  I101  1  0.83066663  0.17342249  0.66755180  1
  I  I102  1  0.83161601  0.49358187  -0.00095902  1
  I  I103  1  0.83137633  0.49863592  0.33123174  1
  I  I104  1  0.83002576  0.49818941  0.66995839  1
  I  I105  1  0.83161345  0.83806965  -0.00004587  1
  I  I106  1  0.83688887  0.83201117  0.33345091  1
  I  I107  1  0.83822311  0.82678906  0.66661990  1
  I  I108  1  0.00293858  0.16607893  0.16756569  1
  I  I109  1  -0.00240839  0.17078075  0.50382165  1
  I  I110  1  -0.00294736  0.17101229  0.82997006  1
  I  I111  1  -0.00231159  0.49901977  0.16345291  1
  I  I112  1  0.00267768  0.49982355  0.49783369  1
  I  I113  1  -0.00301966  0.49591973  0.83702860  1
  I  I114  1  0.00389497  0.83544375  0.16421301  1
  I  I115  1  -0.00003497  0.83252438  0.49963867  1
  I  I116  1  0.00340118  0.83215048  0.83666939  1
  I  I117  1  0.33055451  0.16645590  0.16761173  1
  I  I118  1  0.33638823  0.16512337  0.50355844  1
  I  I119  1  0.33643938  0.17075639  0.82938416  1
  I  I120  1  0.33549572  0.49958529  0.16446671  1
  I  I121  1  0.33144094  0.49905296  0.49797859  1
  I  I122  1  0.33626940  0.49668172  0.83598991  1
  I  I123  1  0.33023897  0.83431236  0.16347300  1
  I  I124  1  0.33597030  0.83867223  0.50047708  1
  I  I125  1  0.33065214  0.83238982  0.83644979  1
  I  I126  1  0.66661875  0.16701132  0.16805381  1
  I  I127  1  0.66584651  0.16464368  0.50382109  1
  I  I128  1  0.66626899  0.17163335  0.82818801  1
  I  I129  1  0.66644135  0.49811294  0.16459680  1
  I  I130  1  0.66680267  0.50218247  0.49841822  1
  I  I131  1  0.66633340  0.49635566  0.83644684  1
  I  I132  1  0.66643088  0.83457596  0.16779568  1
  I  I133  1  0.66235602  0.83017840  0.50195879  1
  I  I134  1  0.66655752  0.83241575  0.83107491  1
