# generated using pymatgen
data_Cs27Sn13Pb14I81
_symmetry_space_group_name_H-M   'P 1'
_cell_length_a   18.97694168
_cell_length_b   18.97749658
_cell_length_c   18.97649183
_cell_angle_alpha   89.99720736
_cell_angle_beta   89.99979286
_cell_angle_gamma   90.00197143
_symmetry_Int_Tables_number   1
_chemical_formula_structural   Cs27Sn13Pb14I81
_chemical_formula_sum   'Cs27 Sn13 Pb14 I81'
_cell_volume   6834.09594754
_cell_formula_units_Z   1
loop_
 _symmetry_equiv_pos_site_id
 _symmetry_equiv_pos_as_xyz
  1  'x, y, z'
loop_
 _atom_site_type_symbol
 _atom_site_label
 _atom_site_symmetry_multiplicity
 _atom_site_fract_x
 _atom_site_fract_y
 _atom_site_fract_z
 _atom_site_occupancy
  Cs  Cs0  1  0.00007883  0.00066010  -0.00028400  1
  Cs  Cs1  1  0.00379537  0.00237901  0.32824588  1
  Cs  Cs2  1  -0.00011465  -0.00207413  0.66909667  1
  Cs  Cs3  1  0.00171398  0.33061609  0.00196031  1
  Cs  Cs4  1  -0.00327071  0.33250587  0.33200459  1
  Cs  Cs5  1  0.00226121  0.33430895  0.66526034  1
  Cs  Cs6  1  -0.00161372  0.66834777  -0.00525504  1
  Cs  Cs7  1  0.00100820  0.66533878  0.33548046  1
  Cs  Cs8  1  -0.00058909  0.66766654  0.66831431  1
  Cs  Cs9  1  0.33272521  0.00158838  0.00376846  1
  Cs  Cs10  1  0.33337197  -0.00681752  0.33132300  1
  Cs  Cs11  1  0.33534602  0.00135100  0.66397434  1
  Cs  Cs12  1  0.33640612  0.33599396  -0.00084443  1
  Cs  Cs13  1  0.33072041  0.33427769  0.33425343  1
  Cs  Cs14  1  0.33364678  0.33430468  0.66684471  1
  Cs  Cs15  1  0.33743902  0.66156551  0.00191144  1
  Cs  Cs16  1  0.33482953  0.67088385  0.33377829  1
  Cs  Cs17  1  0.33107741  0.66336355  0.66435659  1
  Cs  Cs18  1  0.66788926  -0.00149546  -0.00302791  1
  Cs  Cs19  1  0.66317198  0.00319306  0.33684160  1
  Cs  Cs20  1  0.66489254  0.00160427  0.66702022  1
  Cs  Cs21  1  0.66077018  0.33516917  0.00341083  1
  Cs  Cs22  1  0.67403484  0.33359971  0.33358572  1
  Cs  Cs23  1  0.66344869  0.32862003  0.66276328  1
  Cs  Cs24  1  0.66597847  0.66708740  0.00240064  1
  Cs  Cs25  1  0.66468474  0.66317788  0.32908205  1
  Cs  Cs26  1  0.67201024  0.66924368  0.66766089  1
  Sn  Sn27  1  0.83377275  0.16722071  0.83327661  1
  Sn  Sn28  1  0.83297908  0.49906093  0.83330937  1
  Sn  Sn29  1  0.83355799  0.83354219  0.16705683  1
  Sn  Sn30  1  0.49939687  0.83310052  0.83308103  1
  Sn  Sn31  1  0.16629127  0.50022816  0.16743993  1
  Sn  Sn32  1  0.50001051  0.16655349  0.16691071  1
  Sn  Sn33  1  0.49993004  0.50005114  0.50017522  1
  Sn  Sn34  1  0.83352400  0.83363653  0.49950458  1
  Sn  Sn35  1  0.16619698  0.16593586  0.83247356  1
  Sn  Sn36  1  0.16715561  0.49939544  0.49904526  1
  Sn  Sn37  1  0.16753238  0.83402438  0.83332445  1
  Sn  Sn38  1  0.16654953  0.16688133  0.50048849  1
  Sn  Sn39  1  0.83336021  0.83366922  0.83330572  1
  Pb  Pb40  1  0.50279671  0.50217421  0.83124654  1
  Pb  Pb41  1  0.49944953  0.16488283  0.83436754  1
  Pb  Pb42  1  0.83147349  0.16463780  0.16420672  1
  Pb  Pb43  1  0.83387666  0.50145339  0.50176649  1
  Pb  Pb44  1  0.49815200  0.49831356  0.16917441  1
  Pb  Pb45  1  0.49742046  0.16840046  0.49778303  1
  Pb  Pb46  1  0.83543694  0.50185886  0.16426314  1
  Pb  Pb47  1  0.16528868  0.49957948  0.83290660  1
  Pb  Pb48  1  0.16501895  0.83333101  0.50181777  1
  Pb  Pb49  1  0.16806210  0.16826102  0.16628772  1
  Pb  Pb50  1  0.16489520  0.83096516  0.16379456  1
  Pb  Pb51  1  0.83582807  0.16425884  0.50211061  1
  Pb  Pb52  1  0.50219540  0.83492834  0.16467476  1
  Pb  Pb53  1  0.50232044  0.83131553  0.50203708  1
  I  I54  1  0.16696268  -0.00011737  0.16858267  1
  I  I55  1  0.16392227  0.00241466  0.50370944  1
  I  I56  1  0.16080737  0.00014095  0.82875217  1
  I  I57  1  0.16684041  0.33606967  0.16535033  1
  I  I58  1  0.16983748  0.33371978  0.50363541  1
  I  I59  1  0.16099406  0.33059863  0.83266987  1
  I  I60  1  0.16648173  0.66337844  0.17163791  1
  I  I61  1  0.16838811  0.66401116  0.49862483  1
  I  I62  1  0.16333642  0.66910105  0.83315829  1
  I  I63  1  0.49833434  0.00249360  0.16606009  1
  I  I64  1  0.49982679  -0.00005362  0.49973720  1
  I  I65  1  0.50578564  -0.00308865  0.83346206  1
  I  I66  1  0.49973037  0.33078702  0.16300057  1
  I  I67  1  0.49902556  0.33633155  0.50191227  1
  I  I68  1  0.50084877  0.33334795  0.83428448  1
  I  I69  1  0.50032616  0.66664507  0.16600397  1
  I  I70  1  0.49235185  0.66363311  0.50045129  1
  I  I71  1  0.50029533  0.67027877  0.83368953  1
  I  I72  1  0.83455947  -0.00342510  0.16255231  1
  I  I73  1  0.83412741  -0.00368392  0.50412170  1
  I  I74  1  0.83451466  -0.00134831  0.83355967  1
  I  I75  1  0.83268548  0.33326707  0.16428180  1
  I  I76  1  0.83152067  0.33315466  0.50297596  1
  I  I77  1  0.84034116  0.33256522  0.83263361  1
  I  I78  1  0.83318067  0.66996291  0.16212715  1
  I  I79  1  0.83581155  0.66951272  0.50558934  1
  I  I80  1  0.83445890  0.66857399  0.83278216  1
  I  I81  1  0.16313866  0.16376919  -0.00326948  1
  I  I82  1  0.16832356  0.16964966  0.33583594  1
  I  I83  1  0.16312606  0.16885330  0.66770530  1
  I  I84  1  0.16358464  0.50077715  0.00136935  1
  I  I85  1  0.16902504  0.49487163  0.33480975  1
  I  I86  1  0.16847487  0.49938768  0.66423085  1
  I  I87  1  0.16252013  0.83783556  -0.00449532  1
  I  I88  1  0.16355566  0.83569787  0.33327961  1
  I  I89  1  0.16218717  0.83188385  0.67025120  1
  I  I90  1  0.49856229  0.16621960  0.00197426  1
  I  I91  1  0.49900171  0.16596586  0.33038893  1
  I  I92  1  0.50171331  0.16646761  0.66654340  1
  I  I93  1  0.49892507  0.50018387  -0.00001673  1
  I  I94  1  0.49897130  0.50088783  0.33682802  1
  I  I95  1  0.49205826  0.49958511  0.66385388  1
  I  I96  1  0.50301925  0.83302518  -0.00359454  1
  I  I97  1  0.50229104  0.83365196  0.33339115  1
  I  I98  1  0.50371162  0.83447568  0.67023544  1
  I  I99  1  0.84014425  0.16324583  -0.00427392  1
  I  I100  1  0.83364371  0.16435234  0.33336901  1
  I  I101  1  0.83372716  0.16350134  0.67059132  1
  I  I102  1  0.83587727  0.50376273  -0.00387020  1
  I  I103  1  0.83182963  0.50344099  0.33340072  1
  I  I104  1  0.83636996  0.50495626  0.66986182  1
  I  I105  1  0.83364385  0.83316763  -0.00224990  1
  I  I106  1  0.83426092  0.83150794  0.33343955  1
  I  I107  1  0.83378607  0.83221770  0.66886992  1
  I  I108  1  0.00002861  0.16664735  0.16738149  1
  I  I109  1  0.00367146  0.17365369  0.50116757  1
  I  I110  1  0.00014954  0.16139730  0.83080874  1
  I  I111  1  0.00312066  0.49864159  0.17315380  1
  I  I112  1  0.00302924  0.49779821  0.49832916  1
  I  I113  1  -0.00257307  0.50623312  0.83130510  1
  I  I114  1  -0.00313974  0.83385673  0.16257650  1
  I  I115  1  -0.00292154  0.83060110  0.50510464  1
  I  I116  1  -0.00127739  0.83341214  0.83312558  1
  I  I117  1  0.33550959  0.16698749  0.16336082  1
  I  I118  1  0.32945212  0.16822478  0.50782479  1
  I  I119  1  0.32999396  0.16194130  0.83124014  1
  I  I120  1  0.33017163  0.50002711  0.16525404  1
  I  I121  1  0.33170231  0.49714290  0.49828935  1
  I  I122  1  0.33333963  0.50137173  0.83518156  1
  I  I123  1  0.33329468  0.83342951  0.16415667  1
  I  I124  1  0.33317924  0.83444585  0.50293068  1
  I  I125  1  0.33241088  0.83830940  0.83256521  1
  I  I126  1  0.66398365  0.16654915  0.16437920  1
  I  I127  1  0.66679021  0.16760467  0.50070100  1
  I  I128  1  0.66934196  0.16419963  0.83544031  1
  I  I129  1  0.66676978  0.50012487  0.16712218  1
  I  I130  1  0.66488010  0.50310549  0.50328568  1
  I  I131  1  0.67082525  0.50148716  0.83191586  1
  I  I132  1  0.67024542  0.83256714  0.16214362  1
  I  I133  1  0.67037210  0.83147057  0.50438052  1
  I  I134  1  0.66869721  0.83303746  0.83331493  1
