# generated using pymatgen
data_Cs27Sn14Pb13I81
_symmetry_space_group_name_H-M   'P 1'
_cell_length_a   18.98369893
_cell_length_b   18.97272115
_cell_length_c   18.97184464
_cell_angle_alpha   89.99943571
_cell_angle_beta   89.99954530
_cell_angle_gamma   89.99985716
_symmetry_Int_Tables_number   1
_chemical_formula_structural   Cs27Sn14Pb13I81
_chemical_formula_sum   'Cs27 Sn14 Pb13 I81'
_cell_volume   6833.13530841
_cell_formula_units_Z   1
loop_
 _symmetry_equiv_pos_site_id
 _symmetry_equiv_pos_as_xyz
  1  'x, y, z'
loop_
 _atom_site_type_symbol
 _atom_site_label
 _atom_site_symmetry_multiplicity
 _atom_site_fract_x
 _atom_site_fract_y
 _atom_site_fract_z
 _atom_site_occupancy
  Cs  Cs0  1  -0.00054686  -0.00181856  0.00240879  1
  Cs  Cs1  1  -0.00177021  -0.00054494  0.33241579  1
  Cs  Cs2  1  0.00231646  0.00121197  0.66663179  1
  Cs  Cs3  1  -0.00196762  0.33489485  -0.00268803  1
  Cs  Cs4  1  0.00129339  0.32957253  0.33169819  1
  Cs  Cs5  1  0.00674498  0.34109134  0.67451434  1
  Cs  Cs6  1  0.00067648  0.66792208  0.00069092  1
  Cs  Cs7  1  -0.00411820  0.66997652  0.33313176  1
  Cs  Cs8  1  -0.00381123  0.66105996  0.66713210  1
  Cs  Cs9  1  0.33524063  -0.00212274  -0.00052420  1
  Cs  Cs10  1  0.33299196  0.00052264  0.33369373  1
  Cs  Cs11  1  0.33535776  -0.00061709  0.66628784  1
  Cs  Cs12  1  0.33361657  0.33461717  0.00180501  1
  Cs  Cs13  1  0.33583815  0.33393428  0.33378636  1
  Cs  Cs14  1  0.32111868  0.33506678  0.66591898  1
  Cs  Cs15  1  0.33456580  0.66829226  0.00071205  1
  Cs  Cs16  1  0.33516461  0.66586815  0.33233451  1
  Cs  Cs17  1  0.33382370  0.66851710  0.66645594  1
  Cs  Cs18  1  0.66448698  0.00037404  -0.00214762  1
  Cs  Cs19  1  0.66811496  0.00157068  0.33383908  1
  Cs  Cs20  1  0.66202866  0.00108536  0.66763879  1
  Cs  Cs21  1  0.66866906  0.33258251  -0.00061685  1
  Cs  Cs22  1  0.66357185  0.33105045  0.33214279  1
  Cs  Cs23  1  0.67148798  0.33490703  0.66917828  1
  Cs  Cs24  1  0.66366182  0.66722767  -0.00002046  1
  Cs  Cs25  1  0.66814685  0.66518768  0.33683792  1
  Cs  Cs26  1  0.66935060  0.66355101  0.66466659  1
  Sn  Sn27  1  0.83315745  0.16744742  0.16717231  1
  Sn  Sn28  1  0.16566335  0.50032436  0.16689184  1
  Sn  Sn29  1  0.16553186  0.83348048  0.83323322  1
  Sn  Sn30  1  0.83393475  0.83390055  0.83326358  1
  Sn  Sn31  1  0.50066197  0.16628456  0.49954302  1
  Sn  Sn32  1  0.16709578  0.83336348  0.49958630  1
  Sn  Sn33  1  0.49946398  0.83398730  0.49868292  1
  Sn  Sn34  1  0.16748857  0.83333248  0.16706787  1
  Sn  Sn35  1  0.50002250  0.16555860  0.16717455  1
  Sn  Sn36  1  0.49972011  0.49954523  0.83312372  1
  Sn  Sn37  1  0.83382931  0.49934283  0.16697506  1
  Sn  Sn38  1  0.49955514  0.83401814  0.16782623  1
  Sn  Sn39  1  0.83319372  0.16684762  0.49996901  1
  Sn  Sn40  1  0.16684656  0.16658919  0.16660023  1
  Pb  Pb41  1  0.16657395  0.50308555  0.49695751  1
  Pb  Pb42  1  0.50011899  0.49991124  0.16581561  1
  Pb  Pb43  1  0.49994247  0.49920560  0.50256298  1
  Pb  Pb44  1  0.83342429  0.49634862  0.49728892  1
  Pb  Pb45  1  0.16847632  0.50274404  0.83595665  1
  Pb  Pb46  1  0.16672907  0.16489427  0.49810310  1
  Pb  Pb47  1  0.83343023  0.16480398  0.83312780  1
  Pb  Pb48  1  0.49969919  0.83219622  0.83289999  1
  Pb  Pb49  1  0.83272342  0.83379106  0.16562401  1
  Pb  Pb50  1  0.83302509  0.83547170  0.50238495  1
  Pb  Pb51  1  0.16678704  0.16414438  0.83622318  1
  Pb  Pb52  1  0.83173061  0.50227527  0.83593687  1
  Pb  Pb53  1  0.49982931  0.16937305  0.83264446  1
  I  I54  1  0.16684923  -0.00080281  0.16629799  1
  I  I55  1  0.16791608  -0.00348470  0.49734571  1
  I  I56  1  0.16501873  -0.00431322  0.83642414  1
  I  I57  1  0.16702445  0.33266398  0.16691130  1
  I  I58  1  0.16786115  0.33312645  0.49875714  1
  I  I59  1  0.16802248  0.33369954  0.83379995  1
  I  I60  1  0.16727599  0.66816193  0.16567659  1
  I  I61  1  0.17368652  0.67161021  0.49812342  1
  I  I62  1  0.16407791  0.67079573  0.83660903  1
  I  I63  1  0.49721127  -0.00015235  0.16850746  1
  I  I64  1  0.49979765  -0.00047165  0.49621434  1
  I  I65  1  0.49998882  -0.00004495  0.83447039  1
  I  I66  1  0.49747487  0.33023963  0.16925381  1
  I  I67  1  0.50499359  0.32949092  0.49374562  1
  I  I68  1  0.50201248  0.33654386  0.83736487  1
  I  I69  1  0.49661438  0.66954061  0.16789897  1
  I  I70  1  0.49534217  0.66998811  0.49619460  1
  I  I71  1  0.49966843  0.66499507  0.83670621  1
  I  I72  1  0.83564608  0.00293870  0.16890540  1
  I  I73  1  0.83226785  0.00299572  0.49087357  1
  I  I74  1  0.83605020  -0.00307718  0.83770464  1
  I  I75  1  0.83582897  0.33211216  0.16949114  1
  I  I76  1  0.82466935  0.32830236  0.49769448  1
  I  I77  1  0.83100042  0.33346916  0.83235145  1
  I  I78  1  0.83648011  0.66496068  0.16257910  1
  I  I79  1  0.83278578  0.66682396  0.49999332  1
  I  I80  1  0.83711946  0.67004192  0.83506266  1
  I  I81  1  0.16677768  0.16440442  0.00524533  1
  I  I82  1  0.16625630  0.16392541  0.32930601  1
  I  I83  1  0.16725649  0.16470409  0.66639862  1
  I  I84  1  0.16394567  0.50179843  0.00415266  1
  I  I85  1  0.16533931  0.50164385  0.32851552  1
  I  I86  1  0.16816281  0.50029423  0.66684253  1
  I  I87  1  0.16713497  0.83337836  0.00172589  1
  I  I88  1  0.17180897  0.83345105  0.33191304  1
  I  I89  1  0.16832259  0.83476164  0.66634684  1
  I  I90  1  0.50047459  0.16239959  0.00361092  1
  I  I91  1  0.50080568  0.16278369  0.33185358  1
  I  I92  1  0.50632027  0.16065727  0.66289720  1
  I  I93  1  0.49961343  0.50274127  -0.00149346  1
  I  I94  1  0.49991632  0.50113898  0.33331905  1
  I  I95  1  0.50115162  0.50357040  0.66995427  1
  I  I96  1  0.49721643  0.83584832  0.00277349  1
  I  I97  1  0.49216334  0.83606212  0.33250763  1
  I  I98  1  0.49686354  0.83668496  0.66374951  1
  I  I99  1  0.83288423  0.16919598  0.00370905  1
  I  I100  1  0.83227200  0.16890512  0.33151259  1
  I  I101  1  0.82540327  0.16133539  0.66350342  1
  I  I102  1  0.83683521  0.49328680  0.00378612  1
  I  I103  1  0.83562994  0.50232958  0.32903919  1
  I  I104  1  0.83132719  0.49986375  0.66685837  1
  I  I105  1  0.83685975  0.83443070  -0.00201352  1
  I  I106  1  0.83554693  0.83097346  0.33335949  1
  I  I107  1  0.83665289  0.83505801  0.66989733  1
  I  I108  1  -0.00002656  0.16597009  0.17033309  1
  I  I109  1  -0.00223620  0.16321728  0.49328594  1
  I  I110  1  0.00009866  0.16763529  0.83288453  1
  I  I111  1  0.00059727  0.49792517  0.16583478  1
  I  I112  1  0.00000429  0.50102952  0.50283652  1
  I  I113  1  0.00020272  0.49980909  0.83295763  1
  I  I114  1  0.00287404  0.83521828  0.16799561  1
  I  I115  1  0.00270800  0.83503519  0.49595473  1
  I  I116  1  0.00129637  0.83384816  0.83613731  1
  I  I117  1  0.33367886  0.16576702  0.16964756  1
  I  I118  1  0.33627108  0.16401981  0.49549728  1
  I  I119  1  0.33338094  0.16462209  0.83396763  1
  I  I120  1  0.33087807  0.49919682  0.16416932  1
  I  I121  1  0.33327462  0.49559595  0.49810055  1
  I  I122  1  0.33570352  0.50247276  0.83676780  1
  I  I123  1  0.33259705  0.83540678  0.16417140  1
  I  I124  1  0.33382873  0.83911801  0.50108194  1
  I  I125  1  0.33078934  0.83131074  0.83525023  1
  I  I126  1  0.66633382  0.16687562  0.17012902  1
  I  I127  1  0.66567499  0.15978852  0.49031765  1
  I  I128  1  0.66658094  0.16316998  0.83903149  1
  I  I129  1  0.66881839  0.49712146  0.16381582  1
  I  I130  1  0.66664802  0.50673196  0.49825401  1
  I  I131  1  0.66434788  0.50403563  0.83685792  1
  I  I132  1  0.66362537  0.83542548  0.16807229  1
  I  I133  1  0.66355044  0.83505228  0.49639114  1
  I  I134  1  0.66816465  0.83157229  0.83546858  1
