# generated using pymatgen
data_Cs27Sn14Pb13I81
_symmetry_space_group_name_H-M   'P 1'
_cell_length_a   18.97743204
_cell_length_b   18.97260022
_cell_length_c   18.97696018
_cell_angle_alpha   89.99961557
_cell_angle_beta   90.00044132
_cell_angle_gamma   90.00033253
_symmetry_Int_Tables_number   1
_chemical_formula_structural   Cs27Sn14Pb13I81
_chemical_formula_sum   'Cs27 Sn14 Pb13 I81'
_cell_volume   6832.67787619
_cell_formula_units_Z   1
loop_
 _symmetry_equiv_pos_site_id
 _symmetry_equiv_pos_as_xyz
  1  'x, y, z'
loop_
 _atom_site_type_symbol
 _atom_site_label
 _atom_site_symmetry_multiplicity
 _atom_site_fract_x
 _atom_site_fract_y
 _atom_site_fract_z
 _atom_site_occupancy
  Cs  Cs0  1  -0.00204688  0.00072518  -0.00399344  1
  Cs  Cs1  1  0.00434733  0.00020358  0.33462523  1
  Cs  Cs2  1  0.00136998  0.00085511  0.67145236  1
  Cs  Cs3  1  0.00071957  0.33113043  -0.00127698  1
  Cs  Cs4  1  -0.00199132  0.33542152  0.33217642  1
  Cs  Cs5  1  -0.00172638  0.33181895  0.67227922  1
  Cs  Cs6  1  0.00128370  0.66891575  0.00189382  1
  Cs  Cs7  1  -0.00141082  0.66523326  0.33481554  1
  Cs  Cs8  1  -0.00278813  0.66773384  0.66032739  1
  Cs  Cs9  1  0.33515700  -0.00365833  0.00166821  1
  Cs  Cs10  1  0.33263415  0.00134580  0.34033738  1
  Cs  Cs11  1  0.33464056  -0.00199087  0.65550817  1
  Cs  Cs12  1  0.33242668  0.33480390  -0.00073831  1
  Cs  Cs13  1  0.33357550  0.33224971  0.33183821  1
  Cs  Cs14  1  0.33134310  0.33452558  0.66963463  1
  Cs  Cs15  1  0.33419930  0.66659171  -0.00081278  1
  Cs  Cs16  1  0.33251649  0.66598520  0.33136426  1
  Cs  Cs17  1  0.33247911  0.66656934  0.67063155  1
  Cs  Cs18  1  0.66717224  -0.00018527  -0.00055105  1
  Cs  Cs19  1  0.66416064  0.00207528  0.33298083  1
  Cs  Cs20  1  0.66527958  0.00038839  0.66875792  1
  Cs  Cs21  1  0.66560337  0.33346249  0.00134713  1
  Cs  Cs22  1  0.66753174  0.33381662  0.33312081  1
  Cs  Cs23  1  0.66773364  0.33386691  0.66550455  1
  Cs  Cs24  1  0.66443416  0.66790017  0.00126690  1
  Cs  Cs25  1  0.66976447  0.66484725  0.33325385  1
  Cs  Cs26  1  0.67045421  0.66537559  0.66239826  1
  Sn  Sn27  1  0.83322737  0.50053587  0.83487654  1
  Sn  Sn28  1  0.83332912  0.49929728  0.16522645  1
  Sn  Sn29  1  0.49915726  0.83433411  0.83400756  1
  Sn  Sn30  1  0.16756986  0.83270141  0.16585692  1
  Sn  Sn31  1  0.83276625  0.16721363  0.16761545  1
  Sn  Sn32  1  0.83342915  0.16646505  0.49900299  1
  Sn  Sn33  1  0.16687232  0.50058583  0.16711562  1
  Sn  Sn34  1  0.49954712  0.16586590  0.83414466  1
  Sn  Sn35  1  0.49918469  0.83343163  0.16629054  1
  Sn  Sn36  1  0.16786033  0.49966747  0.49925348  1
  Sn  Sn37  1  0.16758773  0.83319754  0.83418305  1
  Sn  Sn38  1  0.50045104  0.16661812  0.16584387  1
  Sn  Sn39  1  0.49872802  0.50002939  0.49911447  1
  Sn  Sn40  1  0.49984371  0.49996949  0.16738928  1
  Pb  Pb41  1  0.16434887  0.50203139  0.83382234  1
  Pb  Pb42  1  0.16695572  0.16637486  0.16646384  1
  Pb  Pb43  1  0.83335486  0.83382545  0.16694817  1
  Pb  Pb44  1  0.50124842  0.16915798  0.49974709  1
  Pb  Pb45  1  0.50022301  0.83054717  0.49958454  1
  Pb  Pb46  1  0.17024981  0.16341957  0.83362595  1
  Pb  Pb47  1  0.16389054  0.16996793  0.49992504  1
  Pb  Pb48  1  0.83108680  0.16839009  0.83425204  1
  Pb  Pb49  1  0.83276987  0.83093020  0.83360588  1
  Pb  Pb50  1  0.50143029  0.50048258  0.83366277  1
  Pb  Pb51  1  0.83356453  0.49867625  0.49927616  1
  Pb  Pb52  1  0.83323088  0.83727640  0.49968141  1
  Pb  Pb53  1  0.16674605  0.83097845  0.49950983  1
  I  I54  1  0.16885722  -0.00330430  0.16193378  1
  I  I55  1  0.16439797  -0.00003383  0.49989624  1
  I  I56  1  0.16432575  -0.00454560  0.84146462  1
  I  I57  1  0.16852475  0.33663046  0.17146677  1
  I  I58  1  0.17105541  0.33795346  0.49252646  1
  I  I59  1  0.16653076  0.33356656  0.83243758  1
  I  I60  1  0.16947896  0.66570529  0.16651553  1
  I  I61  1  0.16892744  0.66294390  0.49801848  1
  I  I62  1  0.17444907  0.66965967  0.83555529  1
  I  I63  1  0.50147068  0.00004416  0.16122163  1
  I  I64  1  0.50247766  0.00015650  0.49830053  1
  I  I65  1  0.49873727  -0.00046808  0.84197429  1
  I  I66  1  0.50127872  0.33386965  0.16672324  1
  I  I67  1  0.49785234  0.33702339  0.49580881  1
  I  I68  1  0.50420847  0.33147318  0.83621970  1
  I  I69  1  0.49991793  0.66614000  0.16607650  1
  I  I70  1  0.49806017  0.66245607  0.49634885  1
  I  I71  1  0.49739618  0.66941585  0.83688063  1
  I  I72  1  0.82945353  0.00328028  0.17093570  1
  I  I73  1  0.83115185  0.00511324  0.49283372  1
  I  I74  1  0.83531524  0.00001817  0.83236396  1
  I  I75  1  0.82979822  0.33435684  0.16695803  1
  I  I76  1  0.83234564  0.33121487  0.49771370  1
  I  I77  1  0.83168699  0.33634666  0.83461363  1
  I  I78  1  0.83069661  0.66343751  0.16303561  1
  I  I79  1  0.83342999  0.66613672  0.50107799  1
  I  I80  1  0.83049354  0.66295735  0.83921350  1
  I  I81  1  0.16067152  0.17300017  0.00016989  1
  I  I82  1  0.17091056  0.16125923  0.33301618  1
  I  I83  1  0.16538251  0.16763663  0.66683343  1
  I  I84  1  0.16956032  0.50183174  0.00352374  1
  I  I85  1  0.16487478  0.50581475  0.33126661  1
  I  I86  1  0.16955029  0.50097483  0.66440606  1
  I  I87  1  0.17100594  0.82626769  0.00134646  1
  I  I88  1  0.17089986  0.83162719  0.32972358  1
  I  I89  1  0.17096978  0.83224504  0.66947787  1
  I  I90  1  0.50636670  0.16830505  0.00186812  1
  I  I91  1  0.50230849  0.16479014  0.32982823  1
  I  I92  1  0.50231812  0.16342043  0.66909786  1
  I  I93  1  0.49829703  0.49980321  0.00339923  1
  I  I94  1  0.50214371  0.49992242  0.33096522  1
  I  I95  1  0.49866569  0.49938575  0.66462988  1
  I  I96  1  0.49632375  0.83148849  0.00133141  1
  I  I97  1  0.49576668  0.83627650  0.32940944  1
  I  I98  1  0.49618118  0.83713347  0.66982616  1
  I  I99  1  0.83082512  0.16953404  0.00330111  1
  I  I100  1  0.82694311  0.17415478  0.33117479  1
  I  I101  1  0.83185387  0.17043070  0.66510639  1
  I  I102  1  0.83234678  0.49440666  0.00261578  1
  I  I103  1  0.83292420  0.49804927  0.32992064  1
  I  I104  1  0.83219508  0.49876536  0.66814128  1
  I  I105  1  0.83405884  0.83665551  0.00031213  1
  I  I106  1  0.83329596  0.82659366  0.33282053  1
  I  I107  1  0.83342218  0.83029339  0.66696613  1
  I  I108  1  -0.00294683  0.17082750  0.17129844  1
  I  I109  1  -0.00396916  0.16935946  0.49247215  1
  I  I110  1  -0.00010186  0.16629693  0.83233300  1
  I  I111  1  0.00007832  0.50037673  0.16727033  1
  I  I112  1  0.00226826  0.49971034  0.49659742  1
  I  I113  1  -0.00332197  0.50024499  0.83669679  1
  I  I114  1  0.00316156  0.82923941  0.16312989  1
  I  I115  1  0.00026759  0.82897205  0.49989879  1
  I  I116  1  0.00280219  0.83031213  0.83783791  1
  I  I117  1  0.33692030  0.17015997  0.16204056  1
  I  I118  1  0.33343139  0.16587569  0.50012031  1
  I  I119  1  0.33816319  0.16977626  0.84092839  1
  I  I120  1  0.33394095  0.50030303  0.17155134  1
  I  I121  1  0.33366861  0.49971726  0.49177466  1
  I  I122  1  0.33334729  0.49793024  0.83378264  1
  I  I123  1  0.33422506  0.82892118  0.16188810  1
  I  I124  1  0.33353143  0.83659041  0.50040882  1
  I  I125  1  0.33435740  0.83508455  0.83901131  1
  I  I126  1  0.66578721  0.17029784  0.16683328  1
  I  I127  1  0.66898561  0.17185427  0.49775083  1
  I  I128  1  0.66333610  0.16065670  0.83523435  1
  I  I129  1  0.66597347  0.49980218  0.16695333  1
  I  I130  1  0.66451288  0.49907142  0.49724914  1
  I  I131  1  0.66914648  0.50087568  0.83691804  1
  I  I132  1  0.66318049  0.83061130  0.16212373  1
  I  I133  1  0.66633387  0.82735764  0.50074527  1
  I  I134  1  0.66302314  0.83618266  0.83872228  1
