# generated using pymatgen
data_Cs27Sn14Pb13I81
_symmetry_space_group_name_H-M   'P 1'
_cell_length_a   18.98171926
_cell_length_b   18.97471096
_cell_length_c   18.97367271
_cell_angle_alpha   90.00392865
_cell_angle_beta   89.99941303
_cell_angle_gamma   90.00003251
_symmetry_Int_Tables_number   1
_chemical_formula_structural   Cs27Sn14Pb13I81
_chemical_formula_sum   'Cs27 Sn14 Pb13 I81'
_cell_volume   6833.79770763
_cell_formula_units_Z   1
loop_
 _symmetry_equiv_pos_site_id
 _symmetry_equiv_pos_as_xyz
  1  'x, y, z'
loop_
 _atom_site_type_symbol
 _atom_site_label
 _atom_site_symmetry_multiplicity
 _atom_site_fract_x
 _atom_site_fract_y
 _atom_site_fract_z
 _atom_site_occupancy
  Cs  Cs0  1  -0.00171541  0.00076575  -0.00014002  1
  Cs  Cs1  1  -0.00090129  0.00011200  0.33174775  1
  Cs  Cs2  1  0.00027914  -0.00176032  0.66781759  1
  Cs  Cs3  1  0.00005525  0.33437334  -0.00131933  1
  Cs  Cs4  1  0.00012559  0.33532620  0.33415473  1
  Cs  Cs5  1  -0.00161574  0.33531275  0.66998097  1
  Cs  Cs6  1  0.00028809  0.66401430  0.00236909  1
  Cs  Cs7  1  -0.00094259  0.66558386  0.33165407  1
  Cs  Cs8  1  0.00460989  0.66570844  0.66529937  1
  Cs  Cs9  1  0.33217776  0.00176032  0.00031074  1
  Cs  Cs10  1  0.33402232  0.00517183  0.33496107  1
  Cs  Cs11  1  0.32953204  -0.00220575  0.66496170  1
  Cs  Cs12  1  0.33253121  0.33382661  0.00096621  1
  Cs  Cs13  1  0.34189860  0.32392152  0.34056740  1
  Cs  Cs14  1  0.33520511  0.33354539  0.66246399  1
  Cs  Cs15  1  0.33419761  0.66443687  -0.00097473  1
  Cs  Cs16  1  0.33286600  0.66768144  0.33299176  1
  Cs  Cs17  1  0.33139095  0.66821415  0.66723762  1
  Cs  Cs18  1  0.66980864  -0.00068768  -0.00127554  1
  Cs  Cs19  1  0.66744088  -0.00283881  0.33405459  1
  Cs  Cs20  1  0.66834596  0.00029688  0.66705177  1
  Cs  Cs21  1  0.66696357  0.33374429  -0.00059824  1
  Cs  Cs22  1  0.66243883  0.33470453  0.33613490  1
  Cs  Cs23  1  0.66706192  0.33384088  0.66622068  1
  Cs  Cs24  1  0.66426551  0.66673689  -0.00015310  1
  Cs  Cs25  1  0.66761693  0.67001360  0.33243217  1
  Cs  Cs26  1  0.66264918  0.66657274  0.66689370  1
  Sn  Sn27  1  0.16576892  0.49899892  0.83431428  1
  Sn  Sn28  1  0.83284534  0.83385631  0.49946175  1
  Sn  Sn29  1  0.83374255  0.49989698  0.16589189  1
  Sn  Sn30  1  0.50086518  0.83339216  0.49935583  1
  Sn  Sn31  1  0.49991650  0.83356589  0.16701896  1
  Sn  Sn32  1  0.16655601  0.83298680  0.16639621  1
  Sn  Sn33  1  0.50001111  0.16647959  0.83365162  1
  Sn  Sn34  1  0.16644941  0.16750955  0.83353159  1
  Sn  Sn35  1  0.83389812  0.49962631  0.83417312  1
  Sn  Sn36  1  0.83332176  0.16719160  0.16703180  1
  Sn  Sn37  1  0.16642330  0.49985847  0.16670494  1
  Sn  Sn38  1  0.83343328  0.83315682  0.16706961  1
  Sn  Sn39  1  0.83366077  0.16602668  0.49997162  1
  Sn  Sn40  1  0.83358942  0.16740559  0.83328833  1
  Pb  Pb41  1  0.16648568  0.83269738  0.83599315  1
  Pb  Pb42  1  0.16363823  0.16674537  0.50291652  1
  Pb  Pb43  1  0.49979503  0.49764754  0.83349499  1
  Pb  Pb44  1  0.83344510  0.83238500  0.83315471  1
  Pb  Pb45  1  0.50008214  0.50317221  0.49990310  1
  Pb  Pb46  1  0.16607798  0.83335478  0.49685964  1
  Pb  Pb47  1  0.50267952  0.16418132  0.50240407  1
  Pb  Pb48  1  0.83329472  0.50053454  0.49992125  1
  Pb  Pb49  1  0.49994437  0.83550313  0.83326650  1
  Pb  Pb50  1  0.16477194  0.16753191  0.16523051  1
  Pb  Pb51  1  0.49978043  0.50189551  0.16678725  1
  Pb  Pb52  1  0.16667419  0.49980874  0.49924911  1
  Pb  Pb53  1  0.50277784  0.16424847  0.16488232  1
  I  I54  1  0.16507670  -0.00235669  0.16521046  1
  I  I55  1  0.16784468  -0.00004231  0.50125959  1
  I  I56  1  0.16504485  0.00294516  0.83415982  1
  I  I57  1  0.15931303  0.33652554  0.16246484  1
  I  I58  1  0.16527615  0.33313196  0.49467790  1
  I  I59  1  0.16452430  0.33350638  0.83993468  1
  I  I60  1  0.16126396  0.66662431  0.16095448  1
  I  I61  1  0.16506958  0.66684697  0.50648067  1
  I  I62  1  0.16058108  0.66313016  0.83467969  1
  I  I63  1  0.49946294  -0.00399121  0.16966135  1
  I  I64  1  0.50281016  -0.00347626  0.49514214  1
  I  I65  1  0.50259007  0.00350746  0.83440585  1
  I  I66  1  0.50005444  0.33296711  0.16487804  1
  I  I67  1  0.50041819  0.33264480  0.50103212  1
  I  I68  1  0.50239626  0.32962015  0.83391652  1
  I  I69  1  0.50560795  0.67041637  0.16934030  1
  I  I70  1  0.50869546  0.67152543  0.49698965  1
  I  I71  1  0.50037735  0.66670735  0.83227739  1
  I  I72  1  0.83307933  -0.00034098  0.16616714  1
  I  I73  1  0.82975729  -0.00023135  0.49748028  1
  I  I74  1  0.83367218  0.00306300  0.83587842  1
  I  I75  1  0.83901824  0.33352449  0.16491280  1
  I  I76  1  0.83460011  0.33044896  0.49879821  1
  I  I77  1  0.83362453  0.33224216  0.83604940  1
  I  I78  1  0.83372169  0.66713814  0.16684590  1
  I  I79  1  0.82922528  0.66995411  0.49611584  1
  I  I80  1  0.83868901  0.66320757  0.83668067  1
  I  I81  1  0.16333481  0.16629560  -0.00315015  1
  I  I82  1  0.16547824  0.16626108  0.33320328  1
  I  I83  1  0.16477765  0.17202828  0.67147819  1
  I  I84  1  0.16141420  0.50085558  0.00005840  1
  I  I85  1  0.15910287  0.50757957  0.32911126  1
  I  I86  1  0.16107528  0.49578915  0.67030397  1
  I  I87  1  0.16475047  0.83287233  0.00409980  1
  I  I88  1  0.16492329  0.82685778  0.32873580  1
  I  I89  1  0.16766888  0.83312908  0.66661323  1
  I  I90  1  0.50331368  0.16383831  -0.00301415  1
  I  I91  1  0.50037164  0.16817826  0.33346716  1
  I  I92  1  0.50252053  0.16452750  0.67022664  1
  I  I93  1  0.50140394  0.50403100  0.00006989  1
  I  I94  1  0.50053480  0.49618674  0.33303307  1
  I  I95  1  0.50096614  0.50279287  0.66702637  1
  I  I96  1  0.50232545  0.83424235  0.00330748  1
  I  I97  1  0.50249449  0.83316981  0.33233539  1
  I  I98  1  0.50707946  0.83501739  0.66363834  1
  I  I99  1  0.83336596  0.16558855  -0.00031836  1
  I  I100  1  0.83373117  0.16486896  0.33260063  1
  I  I101  1  0.83299840  0.16596081  0.66774940  1
  I  I102  1  0.83685615  0.49735645  0.00051620  1
  I  I103  1  0.83791512  0.49845667  0.32976794  1
  I  I104  1  0.83746646  0.49610386  0.66991382  1
  I  I105  1  0.83269253  0.83638280  0.00343507  1
  I  I106  1  0.83282557  0.83649978  0.33181190  1
  I  I107  1  0.82728809  0.83731185  0.66371280  1
  I  I108  1  -0.00391529  0.16068402  0.16446376  1
  I  I109  1  -0.00472527  0.15917913  0.50101440  1
  I  I110  1  -0.00136432  0.17052795  0.83335863  1
  I  I111  1  -0.00133615  0.50586554  0.16200714  1
  I  I112  1  -0.00037709  0.50306012  0.50079052  1
  I  I113  1  -0.00075404  0.49119328  0.83783770  1
  I  I114  1  -0.00143058  0.83279590  0.16964556  1
  I  I115  1  -0.00348992  0.83705360  0.49682099  1
  I  I116  1  -0.00021709  0.83933407  0.83176255  1
  I  I117  1  0.33340781  0.16547088  0.16339910  1
  I  I118  1  0.33359625  0.16516719  0.50162882  1
  I  I119  1  0.33257435  0.16902946  0.83528323  1
  I  I120  1  0.32975048  0.50702433  0.15988746  1
  I  I121  1  0.33324840  0.50214323  0.50137587  1
  I  I122  1  0.32976655  0.49690054  0.83849445  1
  I  I123  1  0.33315106  0.82789643  0.16872093  1
  I  I124  1  0.33606024  0.83250367  0.49678399  1
  I  I125  1  0.33320144  0.83447206  0.83334682  1
  I  I126  1  0.67146468  0.16713828  0.16365910  1
  I  I127  1  0.67078491  0.16477400  0.50191679  1
  I  I128  1  0.66882122  0.16910837  0.83344237  1
  I  I129  1  0.67035881  0.50054946  0.16210747  1
  I  I130  1  0.66725258  0.49741162  0.50121861  1
  I  I131  1  0.67002975  0.49644897  0.83741392  1
  I  I132  1  0.66815332  0.83397329  0.17061086  1
  I  I133  1  0.66804742  0.83745305  0.49106212  1
  I  I134  1  0.66694561  0.83359082  0.83808370  1
