# generated using pymatgen
data_Cs27Sn14Pb13I81
_symmetry_space_group_name_H-M   'P 1'
_cell_length_a   18.96389611
_cell_length_b   18.98411181
_cell_length_c   18.97925778
_cell_angle_alpha   90.00037554
_cell_angle_beta   90.00054377
_cell_angle_gamma   89.99869618
_symmetry_Int_Tables_number   1
_chemical_formula_structural   Cs27Sn14Pb13I81
_chemical_formula_sum   'Cs27 Sn14 Pb13 I81'
_cell_volume   6832.77428986
_cell_formula_units_Z   1
loop_
 _symmetry_equiv_pos_site_id
 _symmetry_equiv_pos_as_xyz
  1  'x, y, z'
loop_
 _atom_site_type_symbol
 _atom_site_label
 _atom_site_symmetry_multiplicity
 _atom_site_fract_x
 _atom_site_fract_y
 _atom_site_fract_z
 _atom_site_occupancy
  Cs  Cs0  1  0.00173116  0.00251306  -0.00044884  1
  Cs  Cs1  1  -0.00079050  0.00082556  0.33477796  1
  Cs  Cs2  1  0.00074544  0.00137967  0.66565447  1
  Cs  Cs3  1  -0.00105480  0.33118813  -0.00186418  1
  Cs  Cs4  1  -0.00187879  0.33311345  0.33480356  1
  Cs  Cs5  1  0.00033130  0.33005052  0.66667759  1
  Cs  Cs6  1  0.00071764  0.66629513  0.00038511  1
  Cs  Cs7  1  0.00130954  0.66434736  0.33143153  1
  Cs  Cs8  1  -0.00198580  0.66925350  0.66909637  1
  Cs  Cs9  1  0.33222772  0.00130071  -0.00066289  1
  Cs  Cs10  1  0.33431470  0.00147909  0.33369887  1
  Cs  Cs11  1  0.33278543  -0.00058987  0.66743066  1
  Cs  Cs12  1  0.33395043  0.33021028  -0.00136216  1
  Cs  Cs13  1  0.33593977  0.33679713  0.33710985  1
  Cs  Cs14  1  0.33743950  0.33693519  0.66436412  1
  Cs  Cs15  1  0.33053419  0.66837403  0.00381268  1
  Cs  Cs16  1  0.33090386  0.66128320  0.33178564  1
  Cs  Cs17  1  0.33813982  0.66400471  0.66390146  1
  Cs  Cs18  1  0.66298172  -0.00039669  0.00265462  1
  Cs  Cs19  1  0.66631857  -0.00140703  0.33310992  1
  Cs  Cs20  1  0.65970664  -0.01090903  0.66459582  1
  Cs  Cs21  1  0.66623464  0.33582214  0.00123720  1
  Cs  Cs22  1  0.66997597  0.33261999  0.33072386  1
  Cs  Cs23  1  0.66132439  0.33690797  0.66794314  1
  Cs  Cs24  1  0.66722503  0.66524234  -0.00217077  1
  Cs  Cs25  1  0.66755395  0.66836529  0.33215193  1
  Cs  Cs26  1  0.66053575  0.67430227  0.67333289  1
  Sn  Sn27  1  0.16603694  0.16703197  0.16720291  1
  Sn  Sn28  1  0.83330084  0.16726607  0.50071293  1
  Sn  Sn29  1  0.83291750  0.49992545  0.16724116  1
  Sn  Sn30  1  0.16598960  0.16688197  0.83282341  1
  Sn  Sn31  1  0.16623299  0.83331145  0.83220065  1
  Sn  Sn32  1  0.83300398  0.83350752  0.16643831  1
  Sn  Sn33  1  0.16614559  0.16611417  0.50010619  1
  Sn  Sn34  1  0.50062817  0.83241950  0.16678710  1
  Sn  Sn35  1  0.83426579  0.16653052  0.16650534  1
  Sn  Sn36  1  0.50077844  0.50074265  0.16663706  1
  Sn  Sn37  1  0.83344507  0.49983868  0.50030809  1
  Sn  Sn38  1  0.83296779  0.16638499  0.83273892  1
  Sn  Sn39  1  0.16625656  0.49975146  0.83321703  1
  Sn  Sn40  1  0.16614566  0.83371922  0.50050420  1
  Pb  Pb41  1  0.16643021  0.83543434  0.16702450  1
  Pb  Pb42  1  0.50043082  0.16656116  0.83314267  1
  Pb  Pb43  1  0.49692398  0.83337254  0.83613911  1
  Pb  Pb44  1  0.50048066  0.16693136  0.16680056  1
  Pb  Pb45  1  0.16610983  0.49696167  0.16510878  1
  Pb  Pb46  1  0.83516704  0.83336708  0.49814538  1
  Pb  Pb47  1  0.49667092  0.83326508  0.49702731  1
  Pb  Pb48  1  0.83477492  0.49816595  0.83303734  1
  Pb  Pb49  1  0.49728872  0.50000358  0.83613530  1
  Pb  Pb50  1  0.83536530  0.83615736  0.83592924  1
  Pb  Pb51  1  0.50079983  0.16664012  0.50002335  1
  Pb  Pb52  1  0.16438513  0.49969902  0.50225009  1
  Pb  Pb53  1  0.50391780  0.50009446  0.49753855  1
  I  I54  1  0.16313629  0.00334660  0.16261465  1
  I  I55  1  0.16125203  0.00166758  0.50326765  1
  I  I56  1  0.16315311  0.00124196  0.83379128  1
  I  I57  1  0.16302483  0.32897741  0.16657814  1
  I  I58  1  0.16439831  0.33004751  0.49974040  1
  I  I59  1  0.16259264  0.33163009  0.83537062  1
  I  I60  1  0.16478698  0.66656701  0.16534526  1
  I  I61  1  0.16521519  0.66894243  0.50364187  1
  I  I62  1  0.16688071  0.66717002  0.83080147  1
  I  I63  1  0.50268863  -0.00233655  0.16624831  1
  I  I64  1  0.50412896  -0.00018931  0.49650184  1
  I  I65  1  0.49826367  -0.00015712  0.83719915  1
  I  I66  1  0.50305714  0.33595522  0.16623794  1
  I  I67  1  0.49382560  0.33351056  0.49743334  1
  I  I68  1  0.49666476  0.33335533  0.83689331  1
  I  I69  1  0.50733752  0.66656107  0.16634394  1
  I  I70  1  0.49835112  0.66664175  0.50026823  1
  I  I71  1  0.49859145  0.66672611  0.83281800  1
  I  I72  1  0.83389274  0.00115235  0.16655677  1
  I  I73  1  0.83690607  0.00322028  0.49815909  1
  I  I74  1  0.84085183  0.00433233  0.83339062  1
  I  I75  1  0.83333217  0.33268152  0.16721788  1
  I  I76  1  0.84019534  0.33184358  0.49330035  1
  I  I77  1  0.84142669  0.32993050  0.83908857  1
  I  I78  1  0.82957304  0.66616769  0.17138595  1
  I  I79  1  0.83676266  0.66434230  0.49247220  1
  I  I80  1  0.83721279  0.66686762  0.83455636  1
  I  I81  1  0.16148068  0.16628644  -0.00029825  1
  I  I82  1  0.16078608  0.16088471  0.33366737  1
  I  I83  1  0.15996019  0.16506356  0.66680061  1
  I  I84  1  0.16524365  0.50030733  -0.00266866  1
  I  I85  1  0.16921630  0.50077921  0.33327120  1
  I  I86  1  0.16357876  0.49516098  0.66992358  1
  I  I87  1  0.16703949  0.83535289  -0.00201261  1
  I  I88  1  0.16652343  0.83912253  0.33543513  1
  I  I89  1  0.16484208  0.83944371  0.66699533  1
  I  I90  1  0.49777784  0.16623189  0.00026529  1
  I  I91  1  0.49682280  0.16632941  0.33311096  1
  I  I92  1  0.49941528  0.16720813  0.66660971  1
  I  I93  1  0.50775475  0.50285463  0.00408832  1
  I  I94  1  0.49814325  0.50329796  0.32936744  1
  I  I95  1  0.50004744  0.49905247  0.66664172  1
  I  I96  1  0.50219884  0.83042736  0.00399828  1
  I  I97  1  0.50243744  0.83079168  0.32917593  1
  I  I98  1  0.50161604  0.83366804  0.66663538  1
  I  I99  1  0.84029303  0.16648066  0.00098659  1
  I  I100  1  0.83945691  0.16759296  0.33262156  1
  I  I101  1  0.84317453  0.17348241  0.66608083  1
  I  I102  1  0.83102666  0.49868049  0.00317695  1
  I  I103  1  0.83111381  0.49461841  0.33180785  1
  I  I104  1  0.83883830  0.49348759  0.66405667  1
  I  I105  1  0.83262661  0.83251123  0.00423524  1
  I  I106  1  0.83286946  0.83796249  0.32983125  1
  I  I107  1  0.83326460  0.83245203  0.66678460  1
  I  I108  1  -0.00098823  0.16612913  0.16594232  1
  I  I109  1  0.00023750  0.16649434  0.49896813  1
  I  I110  1  0.00117275  0.16667451  0.83513104  1
  I  I111  1  -0.00327900  0.50243736  0.16920204  1
  I  I112  1  -0.00321219  0.49770784  0.49088324  1
  I  I113  1  0.00296119  0.50071744  0.83724973  1
  I  I114  1  -0.00256444  0.83141680  0.16656078  1
  I  I115  1  0.00320675  0.83634687  0.50079777  1
  I  I116  1  0.00370560  0.83257215  0.83321555  1
  I  I117  1  0.33030407  0.16546144  0.16498143  1
  I  I118  1  0.32949543  0.16238283  0.49948193  1
  I  I119  1  0.32902291  0.16592645  0.83543943  1
  I  I120  1  0.33517868  0.50424906  0.16340362  1
  I  I121  1  0.33318009  0.49962259  0.49938618  1
  I  I122  1  0.32892936  0.49607005  0.83429065  1
  I  I123  1  0.33519168  0.82985873  0.16601039  1
  I  I124  1  0.32857026  0.84064486  0.50263600  1
  I  I125  1  0.32853964  0.83783182  0.83257153  1
  I  I126  1  0.67057249  0.16661421  0.16676750  1
  I  I127  1  0.67116769  0.17150699  0.49694468  1
  I  I128  1  0.67062660  0.16883470  0.83665591  1
  I  I129  1  0.66843985  0.49767305  0.16998756  1
  I  I130  1  0.67189932  0.49113717  0.49797823  1
  I  I131  1  0.66687290  0.49718974  0.83204142  1
  I  I132  1  0.66795589  0.83605420  0.16733473  1
  I  I133  1  0.66682430  0.83442365  0.50023672  1
  I  I134  1  0.66686106  0.83490756  0.83219414  1
