# generated using pymatgen
data_Cs27Sn13Pb14I81
_symmetry_space_group_name_H-M   'P 1'
_cell_length_a   18.97538131
_cell_length_b   18.97580363
_cell_length_c   18.98473728
_cell_angle_alpha   89.99911564
_cell_angle_beta   90.00102463
_cell_angle_gamma   89.99924433
_symmetry_Int_Tables_number   1
_chemical_formula_structural   Cs27Sn13Pb14I81
_chemical_formula_sum   'Cs27 Sn13 Pb14 I81'
_cell_volume   6835.89338379
_cell_formula_units_Z   1
loop_
 _symmetry_equiv_pos_site_id
 _symmetry_equiv_pos_as_xyz
  1  'x, y, z'
loop_
 _atom_site_type_symbol
 _atom_site_label
 _atom_site_symmetry_multiplicity
 _atom_site_fract_x
 _atom_site_fract_y
 _atom_site_fract_z
 _atom_site_occupancy
  Cs  Cs0  1  -0.00456555  0.00394994  -0.00292555  1
  Cs  Cs1  1  0.00135128  0.00055629  0.33354141  1
  Cs  Cs2  1  -0.00081341  0.00240141  0.66955428  1
  Cs  Cs3  1  -0.00388498  0.33104509  0.00328688  1
  Cs  Cs4  1  -0.00197784  0.33452021  0.32638744  1
  Cs  Cs5  1  0.00196653  0.33276721  0.66923889  1
  Cs  Cs6  1  0.00213648  0.66503780  -0.00057366  1
  Cs  Cs7  1  -0.00069250  0.66481147  0.33372888  1
  Cs  Cs8  1  0.00026132  0.66620111  0.66679407  1
  Cs  Cs9  1  0.33441772  -0.00101608  0.00142634  1
  Cs  Cs10  1  0.33387281  0.00011529  0.33335427  1
  Cs  Cs11  1  0.33177846  0.00118173  0.66493995  1
  Cs  Cs12  1  0.33470226  0.33412943  0.00086279  1
  Cs  Cs13  1  0.33219695  0.33092348  0.33170671  1
  Cs  Cs14  1  0.33291344  0.33361006  0.66704094  1
  Cs  Cs15  1  0.33226624  0.66635408  -0.00067170  1
  Cs  Cs16  1  0.33178480  0.66831595  0.33279567  1
  Cs  Cs17  1  0.33434101  0.66497378  0.66800696  1
  Cs  Cs18  1  0.66866269  0.00018623  -0.00090645  1
  Cs  Cs19  1  0.66528310  0.00043457  0.33397928  1
  Cs  Cs20  1  0.66973132  -0.00472982  0.66636452  1
  Cs  Cs21  1  0.66639774  0.33188104  0.00047348  1
  Cs  Cs22  1  0.66879393  0.33381981  0.33518278  1
  Cs  Cs23  1  0.66461819  0.33596178  0.66362646  1
  Cs  Cs24  1  0.66450396  0.66824718  -0.00283124  1
  Cs  Cs25  1  0.66994341  0.66522489  0.33971231  1
  Cs  Cs26  1  0.66497922  0.66935519  0.66185839  1
  Sn  Sn27  1  0.16609396  0.83343057  0.16637251  1
  Sn  Sn28  1  0.50087830  0.16648154  0.50022146  1
  Sn  Sn29  1  0.16680259  0.83290451  0.83339396  1
  Sn  Sn30  1  0.16675925  0.83249661  0.50019205  1
  Sn  Sn31  1  0.16579551  0.50048085  0.83292173  1
  Sn  Sn32  1  0.16676804  0.50041662  0.50033193  1
  Sn  Sn33  1  0.83302893  0.16675104  0.50008483  1
  Sn  Sn34  1  0.83339646  0.50031555  0.83315543  1
  Sn  Sn35  1  0.49987516  0.16635983  0.83306334  1
  Sn  Sn36  1  0.83334529  0.83304221  0.16665492  1
  Sn  Sn37  1  0.49998243  0.16678206  0.16662751  1
  Sn  Sn38  1  0.50054563  0.83279647  0.16686867  1
  Sn  Sn39  1  0.50017864  0.50039610  0.16701097  1
  Pb  Pb40  1  0.49794306  0.83518578  0.49802990  1
  Pb  Pb41  1  0.83080492  0.16467458  0.16840559  1
  Pb  Pb42  1  0.16650039  0.16713329  0.49993399  1
  Pb  Pb43  1  0.16836476  0.16719636  0.83355130  1
  Pb  Pb44  1  0.49762866  0.49798422  0.49779192  1
  Pb  Pb45  1  0.83069929  0.16884798  0.83121598  1
  Pb  Pb46  1  0.49796351  0.83521562  0.83508027  1
  Pb  Pb47  1  0.83560313  0.83132271  0.83508763  1
  Pb  Pb48  1  0.83604903  0.83505638  0.49820025  1
  Pb  Pb49  1  0.49960564  0.49859268  0.83473985  1
  Pb  Pb50  1  0.16845393  0.16401300  0.16641921  1
  Pb  Pb51  1  0.16811549  0.50180752  0.16629766  1
  Pb  Pb52  1  0.83594914  0.49811191  0.50195700  1
  Pb  Pb53  1  0.83073239  0.50234577  0.16468952  1
  I  I54  1  0.16951641  -0.00485167  0.16781164  1
  I  I55  1  0.16793263  -0.00284919  0.49900916  1
  I  I56  1  0.16962828  -0.00310623  0.83334468  1
  I  I57  1  0.16966774  0.33357895  0.16770372  1
  I  I58  1  0.16855005  0.33614560  0.50637774  1
  I  I59  1  0.16564727  0.33679768  0.82706749  1
  I  I60  1  0.17080508  0.67026344  0.16675413  1
  I  I61  1  0.16687177  0.66737074  0.49971794  1
  I  I62  1  0.16444775  0.66684731  0.83359554  1
  I  I63  1  0.49812547  -0.00016512  0.16713991  1
  I  I64  1  0.50014326  0.00342960  0.49736351  1
  I  I65  1  0.49793468  0.00337187  0.83560685  1
  I  I66  1  0.49877883  0.33251918  0.16621795  1
  I  I67  1  0.50055851  0.32977651  0.49696876  1
  I  I68  1  0.49745556  0.33039215  0.83673528  1
  I  I69  1  0.49767004  0.66773482  0.16471745  1
  I  I70  1  0.50046890  0.66667529  0.49800204  1
  I  I71  1  0.50053991  0.66670098  0.83700045  1
  I  I72  1  0.83332286  -0.00336620  0.16622657  1
  I  I73  1  0.83001857  0.00287275  0.49944850  1
  I  I74  1  0.83428384  -0.00003792  0.83386214  1
  I  I75  1  0.83197854  0.33343657  0.16681916  1
  I  I76  1  0.82950463  0.33031753  0.49937835  1
  I  I77  1  0.84151796  0.33643280  0.83444423  1
  I  I78  1  0.83206638  0.67029134  0.16710831  1
  I  I79  1  0.83271288  0.66666007  0.49932524  1
  I  I80  1  0.83427110  0.66355314  0.83440557  1
  I  I81  1  0.16948501  0.16682060  -0.00004672  1
  I  I82  1  0.16956433  0.16664097  0.33340300  1
  I  I83  1  0.17061774  0.16171170  0.66659575  1
  I  I84  1  0.16594225  0.50447322  -0.00279237  1
  I  I85  1  0.16989395  0.50354341  0.33552870  1
  I  I86  1  0.16457694  0.50776297  0.66718920  1
  I  I87  1  0.16893819  0.82921440  0.00027039  1
  I  I88  1  0.16817242  0.83055039  0.33293743  1
  I  I89  1  0.16723015  0.82982259  0.66675879  1
  I  I90  1  0.49700267  0.16626570  0.00108634  1
  I  I91  1  0.50267780  0.16541611  0.33279859  1
  I  I92  1  0.50208299  0.16828078  0.66613839  1
  I  I93  1  0.49719873  0.49798181  0.00295868  1
  I  I94  1  0.49780491  0.49908785  0.32971129  1
  I  I95  1  0.50030836  0.49628158  0.66655171  1
  I  I96  1  0.49698498  0.83606060  0.00384950  1
  I  I97  1  0.49646634  0.83607660  0.32939445  1
  I  I98  1  0.49790627  0.83588477  0.66656460  1
  I  I99  1  0.83236674  0.16631132  -0.00003991  1
  I  I100  1  0.82850326  0.16673667  0.33610259  1
  I  I101  1  0.82770374  0.16561844  0.66360581  1
  I  I102  1  0.84121498  0.49929672  -0.00285605  1
  I  I103  1  0.83398651  0.49934902  0.33333811  1
  I  I104  1  0.83446590  0.49928632  0.66975692  1
  I  I105  1  0.83398041  0.83425644  0.00328092  1
  I  I106  1  0.83415309  0.83386566  0.33005212  1
  I  I107  1  0.83496225  0.83446899  0.66663786  1
  I  I108  1  -0.00047809  0.16539022  0.16914967  1
  I  I109  1  -0.00227612  0.16516211  0.50070250  1
  I  I110  1  -0.00022906  0.16449315  0.83062400  1
  I  I111  1  -0.00002597  0.50170003  0.16852325  1
  I  I112  1  0.00392490  0.50209382  0.50010137  1
  I  I113  1  0.00169195  0.50417328  0.82978826  1
  I  I114  1  0.00109993  0.83229182  0.16739995  1
  I  I115  1  0.00423138  0.83263149  0.49684831  1
  I  I116  1  0.00410886  0.83311242  0.83582668  1
  I  I117  1  0.33743780  0.16471994  0.17013430  1
  I  I118  1  0.33618087  0.16593378  0.49837005  1
  I  I119  1  0.33659045  0.16798989  0.83190442  1
  I  I120  1  0.33624081  0.50071331  0.16473835  1
  I  I121  1  0.32981905  0.50238677  0.50628507  1
  I  I122  1  0.33024963  0.50282559  0.83125774  1
  I  I123  1  0.33333905  0.83453832  0.16673590  1
  I  I124  1  0.32970066  0.83274137  0.49740595  1
  I  I125  1  0.32957784  0.82748059  0.83574928  1
  I  I126  1  0.66238516  0.16390268  0.16436733  1
  I  I127  1  0.66524340  0.16698519  0.49828076  1
  I  I128  1  0.66281277  0.16851973  0.83793884  1
  I  I129  1  0.66272778  0.50058932  0.16435097  1
  I  I130  1  0.66661499  0.50009945  0.50083828  1
  I  I131  1  0.66861625  0.49601441  0.83759909  1
  I  I132  1  0.66558593  0.83532723  0.16596887  1
  I  I133  1  0.66670551  0.83321086  0.49777660  1
  I  I134  1  0.66668229  0.83271479  0.83615233  1
