# generated using pymatgen
data_Cs27Sn13Pb14I81
_symmetry_space_group_name_H-M   'P 1'
_cell_length_a   18.98125101
_cell_length_b   18.97367960
_cell_length_c   18.97608364
_cell_angle_alpha   90.00079226
_cell_angle_beta   90.00208799
_cell_angle_gamma   89.99828436
_symmetry_Int_Tables_number   1
_chemical_formula_structural   Cs27Sn13Pb14I81
_chemical_formula_sum   'Cs27 Sn13 Pb14 I81'
_cell_volume   6834.12598230
_cell_formula_units_Z   1
loop_
 _symmetry_equiv_pos_site_id
 _symmetry_equiv_pos_as_xyz
  1  'x, y, z'
loop_
 _atom_site_type_symbol
 _atom_site_label
 _atom_site_symmetry_multiplicity
 _atom_site_fract_x
 _atom_site_fract_y
 _atom_site_fract_z
 _atom_site_occupancy
  Cs  Cs0  1  -0.00072246  0.00032928  -0.00447302  1
  Cs  Cs1  1  -0.00322753  -0.00657438  0.33559593  1
  Cs  Cs2  1  -0.00031325  -0.00266477  0.66746607  1
  Cs  Cs3  1  0.00141780  0.33435943  0.00196345  1
  Cs  Cs4  1  -0.00201761  0.33420447  0.33154509  1
  Cs  Cs5  1  0.00098196  0.33294684  0.66714478  1
  Cs  Cs6  1  -0.00161862  0.66532293  0.00898551  1
  Cs  Cs7  1  0.00180822  0.67126814  0.32820942  1
  Cs  Cs8  1  -0.00272636  0.67004712  0.66479621  1
  Cs  Cs9  1  0.33425910  0.00082031  -0.00074501  1
  Cs  Cs10  1  0.33483636  -0.00219343  0.32932311  1
  Cs  Cs11  1  0.33278840  0.00070434  0.66761273  1
  Cs  Cs12  1  0.33025264  0.33490302  -0.00408196  1
  Cs  Cs13  1  0.33498732  0.33212029  0.33656391  1
  Cs  Cs14  1  0.33325987  0.33401714  0.66753043  1
  Cs  Cs15  1  0.33257291  0.66415453  0.00120143  1
  Cs  Cs16  1  0.33377365  0.66966949  0.33382485  1
  Cs  Cs17  1  0.33559672  0.66506963  0.66650935  1
  Cs  Cs18  1  0.66611312  -0.00290333  0.00319193  1
  Cs  Cs19  1  0.66916356  0.00862364  0.32623432  1
  Cs  Cs20  1  0.66860993  -0.00040978  0.66641939  1
  Cs  Cs21  1  0.66856744  0.33393537  -0.00013462  1
  Cs  Cs22  1  0.66763364  0.32902378  0.33280687  1
  Cs  Cs23  1  0.66655848  0.33416548  0.66566238  1
  Cs  Cs24  1  0.66811798  0.66929022  0.00203469  1
  Cs  Cs25  1  0.66377708  0.66474220  0.33067382  1
  Cs  Cs26  1  0.66542597  0.66560368  0.66718563  1
  Sn  Sn27  1  0.49889454  0.83401474  0.83219609  1
  Sn  Sn28  1  0.16676722  0.16692938  0.49972389  1
  Sn  Sn29  1  0.83335102  0.16777064  0.83282904  1
  Sn  Sn30  1  0.16631048  0.49974897  0.50040093  1
  Sn  Sn31  1  0.16756583  0.83328557  0.83309302  1
  Sn  Sn32  1  0.16672316  0.16621209  0.83295389  1
  Sn  Sn33  1  0.16663594  0.16656778  0.16705116  1
  Sn  Sn34  1  0.50044087  0.83347360  0.50056389  1
  Sn  Sn35  1  0.83359332  0.49952470  0.83256896  1
  Sn  Sn36  1  0.49956450  0.49953287  0.16757510  1
  Sn  Sn37  1  0.50018015  0.16601953  0.83288099  1
  Sn  Sn38  1  0.50010921  0.50050696  0.49917894  1
  Sn  Sn39  1  0.83353626  0.50011931  0.50069852  1
  Pb  Pb40  1  0.16423966  0.50055277  0.83154655  1
  Pb  Pb41  1  0.83612789  0.16682574  0.16396638  1
  Pb  Pb42  1  0.83307936  0.83314714  0.83328844  1
  Pb  Pb43  1  0.49983512  0.83155390  0.16647391  1
  Pb  Pb44  1  0.83124889  0.49974347  0.16724642  1
  Pb  Pb45  1  0.16865732  0.83340701  0.50191077  1
  Pb  Pb46  1  0.82981765  0.83086507  0.49997680  1
  Pb  Pb47  1  0.16881868  0.49795946  0.16979745  1
  Pb  Pb48  1  0.49795906  0.16902430  0.16369641  1
  Pb  Pb49  1  0.49835368  0.16653416  0.50175795  1
  Pb  Pb50  1  0.83323155  0.83356452  0.16695301  1
  Pb  Pb51  1  0.16695465  0.83603448  0.16355028  1
  Pb  Pb52  1  0.83597089  0.16853751  0.50198504  1
  Pb  Pb53  1  0.50172773  0.50030286  0.83287789  1
  I  I54  1  0.16866151  0.00417594  0.17093506  1
  I  I55  1  0.16905114  0.00296611  0.50031244  1
  I  I56  1  0.16546565  0.00192365  0.83147080  1
  I  I57  1  0.16777273  0.33023206  0.15916003  1
  I  I58  1  0.16954679  0.33339999  0.50342749  1
  I  I59  1  0.16942400  0.33020792  0.83416251  1
  I  I60  1  0.16680487  0.66655937  0.16565442  1
  I  I61  1  0.16596808  0.66381258  0.50323185  1
  I  I62  1  0.17178557  0.66919259  0.82988157  1
  I  I63  1  0.49926608  0.00033511  0.16880079  1
  I  I64  1  0.49608281  -0.00242123  0.50481962  1
  I  I65  1  0.49995076  0.00019613  0.82802382  1
  I  I66  1  0.49994169  0.33659065  0.17280042  1
  I  I67  1  0.50078295  0.33634298  0.49867329  1
  I  I68  1  0.49685082  0.33088405  0.83332643  1
  I  I69  1  0.49980278  0.66344284  0.16607350  1
  I  I70  1  0.49785478  0.66532182  0.50309256  1
  I  I71  1  0.49664146  0.66917273  0.83225059  1
  I  I72  1  0.83171783  0.00062747  0.16463170  1
  I  I73  1  0.83431318  0.00014031  0.50181929  1
  I  I74  1  0.83476275  0.00312596  0.83426006  1
  I  I75  1  0.83281523  0.33334085  0.16662676  1
  I  I76  1  0.82785035  0.33693569  0.50276859  1
  I  I77  1  0.83286364  0.33271146  0.82956800  1
  I  I78  1  0.83376573  0.66599257  0.16230974  1
  I  I79  1  0.83831386  0.66202983  0.50846443  1
  I  I80  1  0.83193633  0.66372973  0.82873359  1
  I  I81  1  0.16686393  0.16229024  -0.00189865  1
  I  I82  1  0.16866210  0.17423586  0.33426046  1
  I  I83  1  0.16705362  0.16751803  0.66781274  1
  I  I84  1  0.16731531  0.49930706  -0.00009516  1
  I  I85  1  0.16241339  0.49490697  0.33805724  1
  I  I86  1  0.17260884  0.49409653  0.66352265  1
  I  I87  1  0.17263780  0.83778577  -0.00483359  1
  I  I88  1  0.16793640  0.83406959  0.33352168  1
  I  I89  1  0.16870268  0.83948605  0.66989170  1
  I  I90  1  0.49797631  0.16301243  -0.00462188  1
  I  I91  1  0.49748614  0.16474921  0.33338649  1
  I  I92  1  0.49680336  0.16866709  0.67017805  1
  I  I93  1  0.50179066  0.49886898  0.00136208  1
  I  I94  1  0.50092493  0.50540347  0.33561168  1
  I  I95  1  0.49865310  0.50075375  0.66389952  1
  I  I96  1  0.49700557  0.83607682  -0.00363357  1
  I  I97  1  0.49902854  0.82853835  0.33640066  1
  I  I98  1  0.49602755  0.82994410  0.66758996  1
  I  I99  1  0.83497573  0.17323984  -0.00483368  1
  I  I100  1  0.83384283  0.16821119  0.33349268  1
  I  I101  1  0.83532094  0.16891396  0.67049398  1
  I  I102  1  0.83148435  0.49646855  -0.00288236  1
  I  I103  1  0.83478681  0.50060208  0.33700861  1
  I  I104  1  0.83046588  0.49572944  0.66634661  1
  I  I105  1  0.83154648  0.83027878  -0.00082090  1
  I  I106  1  0.83351399  0.83113578  0.33393726  1
  I  I107  1  0.83493580  0.83437892  0.66682494  1
  I  I108  1  0.00413047  0.16925193  0.16410224  1
  I  I109  1  0.00434235  0.17209006  0.50295044  1
  I  I110  1  0.00117613  0.16668517  0.83342933  1
  I  I111  1  0.00022666  0.49925860  0.16621542  1
  I  I112  1  0.00025275  0.49329759  0.50694411  1
  I  I113  1  -0.00342853  0.49550021  0.82791786  1
  I  I114  1  0.00056584  0.83161681  0.16475048  1
  I  I115  1  0.00013036  0.83258928  0.50192024  1
  I  I116  1  0.00272516  0.83802870  0.83269644  1
  I  I117  1  0.33015699  0.16796017  0.16384268  1
  I  I118  1  0.33014260  0.17296783  0.50419065  1
  I  I119  1  0.33255899  0.16259293  0.83333978  1
  I  I120  1  0.33653648  0.49953078  0.16983059  1
  I  I121  1  0.33370299  0.49943969  0.49648728  1
  I  I122  1  0.33330161  0.49736055  0.83252566  1
  I  I123  1  0.33336796  0.83258456  0.16758247  1
  I  I124  1  0.33642490  0.82671469  0.50334319  1
  I  I125  1  0.33389064  0.84148589  0.82979645  1
  I  I126  1  0.66651639  0.16733358  0.16533574  1
  I  I127  1  0.66666182  0.16768387  0.50280040  1
  I  I128  1  0.66637569  0.16751377  0.83213931  1
  I  I129  1  0.66338450  0.49999650  0.17099210  1
  I  I130  1  0.66607101  0.50526777  0.50132715  1
  I  I131  1  0.66937764  0.49561986  0.82849239  1
  I  I132  1  0.66599281  0.83242213  0.16305767  1
  I  I133  1  0.66174692  0.82737648  0.50906459  1
  I  I134  1  0.66334157  0.83585845  0.82987836  1
