# generated using pymatgen
data_Cs27Sn13Pb14I81
_symmetry_space_group_name_H-M   'P 1'
_cell_length_a   18.98027699
_cell_length_b   18.97169487
_cell_length_c   18.98021015
_cell_angle_alpha   89.99997689
_cell_angle_beta   90.00265951
_cell_angle_gamma   90.00186713
_symmetry_Int_Tables_number   1
_chemical_formula_structural   Cs27Sn13Pb14I81
_chemical_formula_sum   'Cs27 Sn13 Pb14 I81'
_cell_volume   6834.54634889
_cell_formula_units_Z   1
loop_
 _symmetry_equiv_pos_site_id
 _symmetry_equiv_pos_as_xyz
  1  'x, y, z'
loop_
 _atom_site_type_symbol
 _atom_site_label
 _atom_site_symmetry_multiplicity
 _atom_site_fract_x
 _atom_site_fract_y
 _atom_site_fract_z
 _atom_site_occupancy
  Cs  Cs0  1  0.00073266  0.00428792  -0.00279427  1
  Cs  Cs1  1  -0.00399273  0.00072340  0.33398665  1
  Cs  Cs2  1  0.00062174  0.00464302  0.66898077  1
  Cs  Cs3  1  -0.00064214  0.32799785  0.00209083  1
  Cs  Cs4  1  0.01086459  0.32896802  0.33853727  1
  Cs  Cs5  1  0.00098549  0.32735507  0.66017315  1
  Cs  Cs6  1  -0.00164457  0.66767339  0.00090375  1
  Cs  Cs7  1  -0.00016843  0.66648011  0.33488579  1
  Cs  Cs8  1  -0.00218212  0.66769271  0.66434792  1
  Cs  Cs9  1  0.33203844  -0.00106643  0.00101506  1
  Cs  Cs10  1  0.33740398  0.00226003  0.33217206  1
  Cs  Cs11  1  0.33097061  -0.00127611  0.66757546  1
  Cs  Cs12  1  0.33114567  0.33691890  0.00149662  1
  Cs  Cs13  1  0.32544349  0.32752569  0.33462235  1
  Cs  Cs14  1  0.33606713  0.33290945  0.66454646  1
  Cs  Cs15  1  0.33432502  0.66737994  -0.00073010  1
  Cs  Cs16  1  0.33209636  0.66763481  0.33258085  1
  Cs  Cs17  1  0.33467971  0.66796030  0.66854866  1
  Cs  Cs18  1  0.66699136  -0.00006533  0.00326738  1
  Cs  Cs19  1  0.66530870  0.00661935  0.33224913  1
  Cs  Cs20  1  0.66779061  -0.00014602  0.66489212  1
  Cs  Cs21  1  0.66880098  0.33720997  -0.00239379  1
  Cs  Cs22  1  0.66695246  0.32636304  0.33416172  1
  Cs  Cs23  1  0.66511713  0.33395687  0.66805726  1
  Cs  Cs24  1  0.66669857  0.66611042  0.00019648  1
  Cs  Cs25  1  0.66845156  0.66805203  0.33214514  1
  Cs  Cs26  1  0.66624316  0.66664239  0.66757273  1
  Sn  Sn27  1  0.49938546  0.83212039  0.50051155  1
  Sn  Sn28  1  0.16555814  0.83265837  0.16742356  1
  Sn  Sn29  1  0.83398453  0.50082418  0.83380626  1
  Sn  Sn30  1  0.50006312  0.16635132  0.83387303  1
  Sn  Sn31  1  0.50027617  0.50096196  0.49930346  1
  Sn  Sn32  1  0.83414188  0.83235680  0.16569819  1
  Sn  Sn33  1  0.16739698  0.83266170  0.49909067  1
  Sn  Sn34  1  0.83299924  0.50039722  0.16651411  1
  Sn  Sn35  1  0.50002954  0.50027586  0.83346440  1
  Sn  Sn36  1  0.83254308  0.83243146  0.83421746  1
  Sn  Sn37  1  0.16575728  0.50022952  0.83320037  1
  Sn  Sn38  1  0.50090741  0.83343838  0.83277095  1
  Sn  Sn39  1  0.50056362  0.50032402  0.16730960  1
  Pb  Pb40  1  0.83274305  0.83332580  0.49997936  1
  Pb  Pb41  1  0.83311045  0.16690700  0.50013409  1
  Pb  Pb42  1  0.16944573  0.17014746  0.83340240  1
  Pb  Pb43  1  0.16916180  0.50227013  0.50248967  1
  Pb  Pb44  1  0.83331814  0.16744818  0.16642386  1
  Pb  Pb45  1  0.16599477  0.50176027  0.16495680  1
  Pb  Pb46  1  0.50058536  0.83179827  0.16677894  1
  Pb  Pb47  1  0.83111797  0.49989340  0.49957468  1
  Pb  Pb48  1  0.16718906  0.16280178  0.50026638  1
  Pb  Pb49  1  0.83110712  0.16688699  0.83336711  1
  Pb  Pb50  1  0.16675071  0.16294107  0.16633521  1
  Pb  Pb51  1  0.50005788  0.17062948  0.16382553  1
  Pb  Pb52  1  0.16617841  0.83181357  0.83332495  1
  Pb  Pb53  1  0.50001941  0.16635723  0.50226018  1
  I  I54  1  0.16222685  -0.00552817  0.16856448  1
  I  I55  1  0.17424797  -0.00527621  0.49791903  1
  I  I56  1  0.16717946  -0.00019592  0.83299872  1
  I  I57  1  0.16718288  0.33366552  0.16493152  1
  I  I58  1  0.16744824  0.33353466  0.50106563  1
  I  I59  1  0.16683804  0.33840243  0.83470301  1
  I  I60  1  0.16609310  0.66978715  0.16923479  1
  I  I61  1  0.16918339  0.67010841  0.49685423  1
  I  I62  1  0.17301452  0.66409808  0.83370208  1
  I  I63  1  0.49978393  -0.00010896  0.16651089  1
  I  I64  1  0.49652424  -0.00378916  0.50459306  1
  I  I65  1  0.50423370  -0.00183680  0.82811177  1
  I  I66  1  0.50625108  0.33906116  0.16615015  1
  I  I67  1  0.50211202  0.33666587  0.50237048  1
  I  I68  1  0.50005839  0.33562236  0.83312748  1
  I  I69  1  0.50048450  0.66368867  0.16132531  1
  I  I70  1  0.49664477  0.66697774  0.50639988  1
  I  I71  1  0.50043064  0.66604342  0.83226747  1
  I  I72  1  0.83738167  -0.00361934  0.16236251  1
  I  I73  1  0.83111346  -0.00079332  0.50051563  1
  I  I74  1  0.82933510  -0.00364300  0.83659534  1
  I  I75  1  0.82620683  0.33758089  0.15953136  1
  I  I76  1  0.83014955  0.33399987  0.50165543  1
  I  I77  1  0.83112097  0.33730004  0.83792805  1
  I  I78  1  0.83253773  0.66678110  0.16144426  1
  I  I79  1  0.83480025  0.66677663  0.50077739  1
  I  I80  1  0.82769677  0.66645156  0.83699490  1
  I  I81  1  0.16772725  0.16395605  -0.00035943  1
  I  I82  1  0.16771905  0.17166410  0.33338330  1
  I  I83  1  0.16656881  0.16447811  0.66695621  1
  I  I84  1  0.17351857  0.50395373  -0.00292500  1
  I  I85  1  0.16730908  0.49965883  0.33343230  1
  I  I86  1  0.16741091  0.50350961  0.67046682  1
  I  I87  1  0.16683297  0.83088076  0.00199446  1
  I  I88  1  0.16756573  0.83104822  0.33321716  1
  I  I89  1  0.16939785  0.83091013  0.66473343  1
  I  I90  1  0.50045757  0.16432104  -0.00416761  1
  I  I91  1  0.50040269  0.16577637  0.33325247  1
  I  I92  1  0.50058372  0.17181191  0.67019477  1
  I  I93  1  0.50042439  0.50042257  -0.00151297  1
  I  I94  1  0.50522822  0.50780261  0.33328873  1
  I  I95  1  0.49956038  0.50056934  0.66828339  1
  I  I96  1  0.49969876  0.83177621  -0.00306789  1
  I  I97  1  0.49865338  0.82762379  0.33574657  1
  I  I98  1  0.49935336  0.82873889  0.66800781  1
  I  I99  1  0.83216585  0.16575760  -0.00018091  1
  I  I100  1  0.83090406  0.16485016  0.33292645  1
  I  I101  1  0.83264242  0.16574443  0.66736038  1
  I  I102  1  0.82686432  0.50490753  -0.00108527  1
  I  I103  1  0.82727609  0.50662003  0.32959989  1
  I  I104  1  0.83143292  0.50511876  0.67031931  1
  I  I105  1  0.83262137  0.82886253  -0.00071533  1
  I  I106  1  0.83463140  0.82833134  0.33014875  1
  I  I107  1  0.83159972  0.82848091  0.67003293  1
  I  I108  1  -0.00000822  0.17126725  0.16588189  1
  I  I109  1  0.00049229  0.16618679  0.50117411  1
  I  I110  1  -0.00004425  0.16567583  0.83282697  1
  I  I111  1  -0.00331497  0.50371869  0.15958007  1
  I  I112  1  0.00024889  0.50104264  0.50121089  1
  I  I113  1  -0.00139751  0.50765785  0.83907065  1
  I  I114  1  -0.00106307  0.82681253  0.16641677  1
  I  I115  1  0.00240368  0.83345116  0.49949453  1
  I  I116  1  -0.00286412  0.82752699  0.83384924  1
  I  I117  1  0.33359681  0.16661233  0.16545578  1
  I  I118  1  0.33372642  0.16928703  0.50125340  1
  I  I119  1  0.33760856  0.16504749  0.83264445  1
  I  I120  1  0.33591477  0.50241389  0.16338179  1
  I  I121  1  0.33755638  0.50245402  0.50113416  1
  I  I122  1  0.33552433  0.50073416  0.83367096  1
  I  I123  1  0.33187709  0.83103173  0.16656604  1
  I  I124  1  0.33475738  0.82886081  0.50113533  1
  I  I125  1  0.33629147  0.83134120  0.83294530  1
  I  I126  1  0.66652957  0.16064490  0.16750975  1
  I  I127  1  0.66591338  0.16369928  0.49997905  1
  I  I128  1  0.66320867  0.17127579  0.83263886  1
  I  I129  1  0.66651828  0.50689358  0.16061332  1
  I  I130  1  0.66248584  0.50732834  0.50574016  1
  I  I131  1  0.66551684  0.50047629  0.83386038  1
  I  I132  1  0.66932766  0.83044641  0.16467879  1
  I  I133  1  0.66321230  0.82906812  0.50276199  1
  I  I134  1  0.66566487  0.82889205  0.83316959  1
