# generated using pymatgen
data_Cs27Sn14Pb13I81
_symmetry_space_group_name_H-M   'P 1'
_cell_length_a   18.97224601
_cell_length_b   18.97778422
_cell_length_c   18.97804083
_cell_angle_alpha   89.99677154
_cell_angle_beta   90.00344957
_cell_angle_gamma   89.99895154
_symmetry_Int_Tables_number   1
_chemical_formula_structural   Cs27Sn14Pb13I81
_chemical_formula_sum   'Cs27 Sn14 Pb13 I81'
_cell_volume   6833.06617930
_cell_formula_units_Z   1
loop_
 _symmetry_equiv_pos_site_id
 _symmetry_equiv_pos_as_xyz
  1  'x, y, z'
loop_
 _atom_site_type_symbol
 _atom_site_label
 _atom_site_symmetry_multiplicity
 _atom_site_fract_x
 _atom_site_fract_y
 _atom_site_fract_z
 _atom_site_occupancy
  Cs  Cs0  1  -0.00088288  0.00123118  0.00119379  1
  Cs  Cs1  1  -0.00390553  0.00316093  0.33121446  1
  Cs  Cs2  1  0.00246111  -0.00601090  0.66739748  1
  Cs  Cs3  1  0.00697939  0.33188440  0.00077333  1
  Cs  Cs4  1  -0.00179998  0.33168605  0.33373479  1
  Cs  Cs5  1  -0.00345034  0.33671262  0.66569691  1
  Cs  Cs6  1  -0.00200218  0.66777615  -0.00596566  1
  Cs  Cs7  1  0.00449775  0.66490509  0.33397112  1
  Cs  Cs8  1  -0.00322742  0.67000483  0.67500004  1
  Cs  Cs9  1  0.33318709  0.00559393  -0.00099471  1
  Cs  Cs10  1  0.33332436  -0.00412348  0.33688965  1
  Cs  Cs11  1  0.33185324  -0.00174222  0.66403244  1
  Cs  Cs12  1  0.33410894  0.33324913  -0.00003664  1
  Cs  Cs13  1  0.33314860  0.33526550  0.33309706  1
  Cs  Cs14  1  0.33579403  0.33274094  0.66573857  1
  Cs  Cs15  1  0.33396003  0.66327381  0.00385693  1
  Cs  Cs16  1  0.33201051  0.66724755  0.33346697  1
  Cs  Cs17  1  0.33123713  0.66957163  0.66311236  1
  Cs  Cs18  1  0.66799715  -0.00270321  -0.00070281  1
  Cs  Cs19  1  0.67074605  -0.00379021  0.33124047  1
  Cs  Cs20  1  0.66481157  0.00342449  0.66741721  1
  Cs  Cs21  1  0.66194446  0.33294546  -0.00143141  1
  Cs  Cs22  1  0.66799112  0.33389055  0.33564743  1
  Cs  Cs23  1  0.66641103  0.33171083  0.66540894  1
  Cs  Cs24  1  0.66838769  0.66986457  0.00120689  1
  Cs  Cs25  1  0.66634498  0.66823575  0.33142970  1
  Cs  Cs26  1  0.66985324  0.66614626  0.66767628  1
  Sn  Sn27  1  0.49980491  0.50049704  0.83297931  1
  Sn  Sn28  1  0.50021822  0.49924869  0.16707550  1
  Sn  Sn29  1  0.50066616  0.16652052  0.83324347  1
  Sn  Sn30  1  0.16717825  0.49912707  0.49966244  1
  Sn  Sn31  1  0.16691867  0.83288967  0.16645613  1
  Sn  Sn32  1  0.16651707  0.50085837  0.16740017  1
  Sn  Sn33  1  0.83341305  0.49960084  0.16651082  1
  Sn  Sn34  1  0.49947260  0.83323208  0.83331290  1
  Sn  Sn35  1  0.49945364  0.49953205  0.49984756  1
  Sn  Sn36  1  0.83314769  0.83306296  0.49980118  1
  Sn  Sn37  1  0.83311323  0.16717742  0.83335899  1
  Sn  Sn38  1  0.16726963  0.16770689  0.50003212  1
  Sn  Sn39  1  0.50008216  0.16704309  0.16738396  1
  Sn  Sn40  1  0.49939616  0.16718631  0.49935433  1
  Pb  Pb41  1  0.83591432  0.83095588  0.16805916  1
  Pb  Pb42  1  0.83315571  0.16517725  0.50167840  1
  Pb  Pb43  1  0.83104536  0.83561056  0.83177599  1
  Pb  Pb44  1  0.83339644  0.50159136  0.49845671  1
  Pb  Pb45  1  0.16903864  0.49993930  0.83290132  1
  Pb  Pb46  1  0.16903949  0.16731345  0.16897244  1
  Pb  Pb47  1  0.50149733  0.83305592  0.50172345  1
  Pb  Pb48  1  0.49843904  0.83326229  0.16473723  1
  Pb  Pb49  1  0.16928240  0.83334979  0.83638966  1
  Pb  Pb50  1  0.83063180  0.16898959  0.16442501  1
  Pb  Pb51  1  0.83074872  0.49773448  0.83599881  1
  Pb  Pb52  1  0.16718568  0.16690105  0.83034596  1
  Pb  Pb53  1  0.16462669  0.83283559  0.49842515  1
  I  I54  1  0.16962343  -0.00159406  0.16814443  1
  I  I55  1  0.17119495  0.00244908  0.49952938  1
  I  I56  1  0.16986664  0.00017993  0.83309055  1
  I  I57  1  0.16592897  0.33673877  0.16816213  1
  I  I58  1  0.17107412  0.33432423  0.49426795  1
  I  I59  1  0.16822144  0.33339702  0.83923341  1
  I  I60  1  0.17032729  0.66412382  0.17314947  1
  I  I61  1  0.17205027  0.66329937  0.49638580  1
  I  I62  1  0.16845065  0.66655363  0.82825545  1
  I  I63  1  0.49741438  0.00286454  0.16613919  1
  I  I64  1  0.49684585  0.00312804  0.50097616  1
  I  I65  1  0.50388602  0.00150592  0.83348188  1
  I  I66  1  0.49777629  0.33455674  0.16229692  1
  I  I67  1  0.49723040  0.33359118  0.50341947  1
  I  I68  1  0.50338624  0.33318382  0.83366398  1
  I  I69  1  0.50105072  0.66305856  0.16654773  1
  I  I70  1  0.49667882  0.66317781  0.49930937  1
  I  I71  1  0.49842721  0.66548469  0.83399729  1
  I  I72  1  0.83372096  0.00017153  0.16676281  1
  I  I73  1  0.83281128  -0.00234276  0.50052149  1
  I  I74  1  0.82522472  0.00323568  0.83305813  1
  I  I75  1  0.83779185  0.33684438  0.16878163  1
  I  I76  1  0.83345372  0.33340959  0.50030757  1
  I  I77  1  0.82547272  0.33029610  0.83097834  1
  I  I78  1  0.82597231  0.66308420  0.16718710  1
  I  I79  1  0.83214121  0.66902720  0.49931111  1
  I  I80  1  0.83156167  0.66649202  0.83301344  1
  I  I81  1  0.16772630  0.16633787  0.00020298  1
  I  I82  1  0.17202467  0.16775127  0.33674577  1
  I  I83  1  0.17301225  0.17181887  0.66243479  1
  I  I84  1  0.16784370  0.50390419  0.00330783  1
  I  I85  1  0.17246678  0.50057732  0.33300274  1
  I  I86  1  0.17190717  0.49539820  0.66307450  1
  I  I87  1  0.16667860  0.82570581  0.00416408  1
  I  I88  1  0.16884429  0.83036397  0.33076242  1
  I  I89  1  0.16551386  0.83340537  0.66652217  1
  I  I90  1  0.50386388  0.16956908  -0.00024764  1
  I  I91  1  0.49523676  0.17420190  0.33391357  1
  I  I92  1  0.50050198  0.16956943  0.66655615  1
  I  I93  1  0.49972358  0.49699373  0.00065915  1
  I  I94  1  0.49942164  0.49343968  0.33306468  1
  I  I95  1  0.49578418  0.49693328  0.66610652  1
  I  I96  1  0.49966938  0.83365626  -0.00318751  1
  I  I97  1  0.50050967  0.83409231  0.33330416  1
  I  I98  1  0.50112760  0.83378285  0.66965315  1
  I  I99  1  0.82602768  0.16623593  -0.00325820  1
  I  I100  1  0.83223204  0.16526398  0.33326831  1
  I  I101  1  0.82526993  0.16698491  0.66923473  1
  I  I102  1  0.83382285  0.50071610  0.00390402  1
  I  I103  1  0.82785735  0.50009703  0.33057897  1
  I  I104  1  0.83341088  0.50102584  0.66687254  1
  I  I105  1  0.83362582  0.83327446  -0.00004477  1
  I  I106  1  0.83060624  0.83559845  0.33564754  1
  I  I107  1  0.83463196  0.83145168  0.66413909  1
  I  I108  1  0.00013281  0.16712978  0.16603365  1
  I  I109  1  0.00269076  0.17015600  0.50096610  1
  I  I110  1  -0.00242985  0.16598662  0.83200443  1
  I  I111  1  0.00126843  0.50454013  0.17278909  1
  I  I112  1  0.00310806  0.49606895  0.49343541  1
  I  I113  1  -0.00020104  0.49866098  0.83321562  1
  I  I114  1  0.00371650  0.82838036  0.16836924  1
  I  I115  1  -0.00261626  0.83413248  0.49917099  1
  I  I116  1  -0.00016997  0.83523524  0.83246701  1
  I  I117  1  0.33725598  0.17203706  0.16044275  1
  I  I118  1  0.33511473  0.16968264  0.50218803  1
  I  I119  1  0.33745401  0.16749108  0.83576962  1
  I  I120  1  0.33423620  0.50039024  0.16665647  1
  I  I121  1  0.33450202  0.49698630  0.49590378  1
  I  I122  1  0.33787353  0.49558108  0.83835700  1
  I  I123  1  0.33086198  0.82640711  0.16797391  1
  I  I124  1  0.33330738  0.83397054  0.50087154  1
  I  I125  1  0.33742488  0.83667334  0.83078990  1
  I  I126  1  0.66217619  0.17186989  0.17147660  1
  I  I127  1  0.66302956  0.17067597  0.49973669  1
  I  I128  1  0.66356038  0.16717416  0.83102738  1
  I  I129  1  0.66467889  0.49523458  0.16674235  1
  I  I130  1  0.66313596  0.49636699  0.49953411  1
  I  I131  1  0.66198573  0.50112030  0.83225427  1
  I  I132  1  0.66660874  0.83261055  0.16641797  1
  I  I133  1  0.66890990  0.83341601  0.50021514  1
  I  I134  1  0.66302510  0.83107973  0.83445729  1
