# generated using pymatgen
data_Cs27Sn13Pb14I81
_symmetry_space_group_name_H-M   'P 1'
_cell_length_a   18.97525648
_cell_length_b   18.97524893
_cell_length_c   18.98096532
_cell_angle_alpha   89.99951643
_cell_angle_beta   90.00111952
_cell_angle_gamma   89.99978818
_symmetry_Int_Tables_number   1
_chemical_formula_structural   Cs27Sn13Pb14I81
_chemical_formula_sum   'Cs27 Sn13 Pb14 I81'
_cell_volume   6834.29045638
_cell_formula_units_Z   1
loop_
 _symmetry_equiv_pos_site_id
 _symmetry_equiv_pos_as_xyz
  1  'x, y, z'
loop_
 _atom_site_type_symbol
 _atom_site_label
 _atom_site_symmetry_multiplicity
 _atom_site_fract_x
 _atom_site_fract_y
 _atom_site_fract_z
 _atom_site_occupancy
  Cs  Cs0  1  -0.00381757  0.00023570  0.00344200  1
  Cs  Cs1  1  0.00013412  0.00144616  0.33198371  1
  Cs  Cs2  1  0.00494325  0.00834375  0.66518034  1
  Cs  Cs3  1  0.00099936  0.33291558  0.00094484  1
  Cs  Cs4  1  0.00157798  0.33087102  0.33252982  1
  Cs  Cs5  1  0.00753103  0.32674829  0.66663204  1
  Cs  Cs6  1  -0.00099758  0.66725916  -0.00137567  1
  Cs  Cs7  1  0.00047024  0.66857933  0.33438481  1
  Cs  Cs8  1  -0.00056616  0.66560305  0.66717738  1
  Cs  Cs9  1  0.33513393  -0.00731266  -0.00648466  1
  Cs  Cs10  1  0.33291316  -0.00048762  0.33321369  1
  Cs  Cs11  1  0.32905871  -0.00058715  0.67481343  1
  Cs  Cs12  1  0.33340698  0.33382475  0.00410252  1
  Cs  Cs13  1  0.33546642  0.33342121  0.33069012  1
  Cs  Cs14  1  0.32834277  0.33277244  0.66828352  1
  Cs  Cs15  1  0.33266427  0.67238060  -0.00136981  1
  Cs  Cs16  1  0.33367659  0.66764893  0.33409243  1
  Cs  Cs17  1  0.32622889  0.66692451  0.66663079  1
  Cs  Cs18  1  0.66776021  -0.00205610  -0.00264053  1
  Cs  Cs19  1  0.66825558  -0.00066928  0.33331343  1
  Cs  Cs20  1  0.66594808  -0.00019188  0.66773754  1
  Cs  Cs21  1  0.66638164  0.33459019  -0.00074508  1
  Cs  Cs22  1  0.66413205  0.33497074  0.33390964  1
  Cs  Cs23  1  0.66652665  0.33442669  0.66595854  1
  Cs  Cs24  1  0.66757050  0.66593653  -0.00144504  1
  Cs  Cs25  1  0.66631260  0.66495130  0.33566413  1
  Cs  Cs26  1  0.66915888  0.66573702  0.66476802  1
  Sn  Sn27  1  0.83259739  0.83275405  0.50119083  1
  Sn  Sn28  1  0.16696980  0.49988453  0.16695774  1
  Sn  Sn29  1  0.83267595  0.50003275  0.83263380  1
  Sn  Sn30  1  0.50038066  0.50001919  0.83308462  1
  Sn  Sn31  1  0.83337857  0.49998392  0.16702204  1
  Sn  Sn32  1  0.83310488  0.50015489  0.50037181  1
  Sn  Sn33  1  0.16814731  0.16717295  0.16659812  1
  Sn  Sn34  1  0.50037317  0.50003009  0.50055715  1
  Sn  Sn35  1  0.50047881  0.83320113  0.50004601  1
  Sn  Sn36  1  0.49928596  0.16696957  0.16713597  1
  Sn  Sn37  1  0.50014713  0.16670842  0.49962262  1
  Sn  Sn38  1  0.83315489  0.83260580  0.83187657  1
  Sn  Sn39  1  0.49993088  0.49978273  0.16634066  1
  Pb  Pb40  1  0.17019601  0.16673553  0.49748160  1
  Pb  Pb41  1  0.50199907  0.83037570  0.83030254  1
  Pb  Pb42  1  0.16654111  0.50002510  0.49758563  1
  Pb  Pb43  1  0.83309843  0.16720520  0.83315044  1
  Pb  Pb44  1  0.16678239  0.83362555  0.16675890  1
  Pb  Pb45  1  0.16268273  0.83303909  0.83319629  1
  Pb  Pb46  1  0.83228380  0.16920002  0.16676943  1
  Pb  Pb47  1  0.83306509  0.83078746  0.16725505  1
  Pb  Pb48  1  0.50016879  0.83330262  0.16867487  1
  Pb  Pb49  1  0.83110672  0.16691773  0.49998870  1
  Pb  Pb50  1  0.50015009  0.16907137  0.83365168  1
  Pb  Pb51  1  0.16637792  0.50002119  0.83605823  1
  Pb  Pb52  1  0.16603020  0.83328536  0.49995798  1
  Pb  Pb53  1  0.16692902  0.16684243  0.83711379  1
  I  I54  1  0.17189098  0.00365646  0.16776181  1
  I  I55  1  0.16518385  0.00012789  0.49600457  1
  I  I56  1  0.16633050  -0.00009054  0.83534415  1
  I  I57  1  0.16748886  0.33462078  0.16715460  1
  I  I58  1  0.16446207  0.33348162  0.50173451  1
  I  I59  1  0.16369824  0.33373254  0.83074834  1
  I  I60  1  0.16728311  0.66308561  0.16682532  1
  I  I61  1  0.17167347  0.66639840  0.49598095  1
  I  I62  1  0.16978534  0.66624353  0.83694534  1
  I  I63  1  0.49449106  0.00334410  0.17185898  1
  I  I64  1  0.50468835  -0.00002001  0.49290667  1
  I  I65  1  0.50136676  -0.00042317  0.83425559  1
  I  I66  1  0.49996241  0.33515536  0.17112310  1
  I  I67  1  0.50435189  0.33484327  0.49797376  1
  I  I68  1  0.50701289  0.33765061  0.83027816  1
  I  I69  1  0.50005753  0.66271441  0.16734715  1
  I  I70  1  0.50463100  0.66522441  0.49846984  1
  I  I71  1  0.50220587  0.66219366  0.83707765  1
  I  I72  1  0.83490741  0.00001117  0.16600041  1
  I  I73  1  0.82877129  -0.00327220  0.50452530  1
  I  I74  1  0.83358433  -0.00335351  0.82875931  1
  I  I75  1  0.83280265  0.33807531  0.16675931  1
  I  I76  1  0.82874366  0.33714337  0.49943536  1
  I  I77  1  0.82900565  0.33780065  0.83398606  1
  I  I78  1  0.83222202  0.66191656  0.16667790  1
  I  I79  1  0.82556168  0.66525129  0.49945555  1
  I  I80  1  0.82908521  0.66478977  0.83355405  1
  I  I81  1  0.17292333  0.17364974  0.00507835  1
  I  I82  1  0.16738113  0.17238805  0.32962143  1
  I  I83  1  0.16660147  0.16581733  0.66665561  1
  I  I84  1  0.16648159  0.49533655  0.00428892  1
  I  I85  1  0.16676890  0.49625475  0.32936838  1
  I  I86  1  0.16728684  0.50084384  0.66668681  1
  I  I87  1  0.16605172  0.83295206  0.00000472  1
  I  I88  1  0.16375623  0.83237964  0.33331602  1
  I  I89  1  0.17039942  0.83269933  0.66658360  1
  I  I90  1  0.49626227  0.17303792  0.00360241  1
  I  I91  1  0.49734694  0.17233879  0.33305453  1
  I  I92  1  0.50326151  0.16801528  0.66349883  1
  I  I93  1  0.50320901  0.49462861  0.00099749  1
  I  I94  1  0.50248393  0.49939890  0.33346137  1
  I  I95  1  0.50806404  0.49979618  0.66557530  1
  I  I96  1  0.50086270  0.83371476  -0.00049562  1
  I  I97  1  0.50637569  0.82847073  0.33696388  1
  I  I98  1  0.50245267  0.83458288  0.66226059  1
  I  I99  1  0.83217146  0.16609416  0.00016934  1
  I  I100  1  0.83549906  0.16582002  0.33327982  1
  I  I101  1  0.83123509  0.17151999  0.66646320  1
  I  I102  1  0.83036047  0.50303150  0.00005177  1
  I  I103  1  0.83012622  0.50327068  0.33367013  1
  I  I104  1  0.82385934  0.50537480  0.66620471  1
  I  I105  1  0.83438355  0.82877245  -0.00262518  1
  I  I106  1  0.82958844  0.82890083  0.33692517  1
  I  I107  1  0.82761980  0.82253077  0.66577773  1
  I  I108  1  0.00243850  0.17139814  0.16539307  1
  I  I109  1  0.00014987  0.16621240  0.49897206  1
  I  I110  1  0.00000017  0.16845494  0.83440409  1
  I  I111  1  -0.00064354  0.49680590  0.16646223  1
  I  I112  1  -0.00363124  0.50605381  0.49959380  1
  I  I113  1  -0.00374229  0.50454039  0.83397414  1
  I  I114  1  -0.00025924  0.83310748  0.16831078  1
  I  I115  1  -0.00418023  0.82610671  0.50281576  1
  I  I116  1  -0.00535337  0.82389782  0.82802308  1
  I  I117  1  0.33458683  0.17810092  0.17251813  1
  I  I118  1  0.33844028  0.16916574  0.49766028  1
  I  I119  1  0.33376775  0.16858786  0.82983282  1
  I  I120  1  0.33472598  0.49541246  0.16752383  1
  I  I121  1  0.33726594  0.50066929  0.50010188  1
  I  I122  1  0.33657874  0.49838784  0.83213205  1
  I  I123  1  0.33365229  0.82771973  0.16914477  1
  I  I124  1  0.33687814  0.83090960  0.49693727  1
  I  I125  1  0.33356240  0.83257810  0.83290029  1
  I  I126  1  0.66285090  0.17148636  0.17071515  1
  I  I127  1  0.66284715  0.16823166  0.49248215  1
  I  I128  1  0.66642139  0.16566797  0.83737886  1
  I  I129  1  0.66605264  0.49681211  0.16704293  1
  I  I130  1  0.66596541  0.50042100  0.49573988  1
  I  I131  1  0.66697172  0.50254323  0.83777939  1
  I  I132  1  0.66666571  0.83492708  0.16502813  1
  I  I133  1  0.66671906  0.83128578  0.50221897  1
  I  I134  1  0.66995881  0.83057715  0.83275617  1
