# generated using pymatgen
data_Cs27Sn13Pb14I81
_symmetry_space_group_name_H-M   'P 1'
_cell_length_a   18.97300468
_cell_length_b   18.97814642
_cell_length_c   18.97746198
_cell_angle_alpha   90.00016916
_cell_angle_beta   90.00235248
_cell_angle_gamma   90.00049470
_symmetry_Int_Tables_number   1
_chemical_formula_structural   Cs27Sn13Pb14I81
_chemical_formula_sum   'Cs27 Sn13 Pb14 I81'
_cell_volume   6833.26143077
_cell_formula_units_Z   1
loop_
 _symmetry_equiv_pos_site_id
 _symmetry_equiv_pos_as_xyz
  1  'x, y, z'
loop_
 _atom_site_type_symbol
 _atom_site_label
 _atom_site_symmetry_multiplicity
 _atom_site_fract_x
 _atom_site_fract_y
 _atom_site_fract_z
 _atom_site_occupancy
  Cs  Cs0  1  -0.00453391  0.00128513  0.00236320  1
  Cs  Cs1  1  -0.00072450  0.00426047  0.33165242  1
  Cs  Cs2  1  0.00161130  -0.00141345  0.66650610  1
  Cs  Cs3  1  -0.00071124  0.33349853  -0.00011825  1
  Cs  Cs4  1  0.00148174  0.32934788  0.33345212  1
  Cs  Cs5  1  0.00040853  0.33449759  0.66716619  1
  Cs  Cs6  1  -0.00802465  0.66535310  -0.00829408  1
  Cs  Cs7  1  0.00111207  0.66656714  0.33644308  1
  Cs  Cs8  1  0.00168906  0.66658416  0.66989678  1
  Cs  Cs9  1  0.33570010  0.00168301  0.00327013  1
  Cs  Cs10  1  0.33104504  -0.00385904  0.32786740  1
  Cs  Cs11  1  0.33331383  -0.00074377  0.66755081  1
  Cs  Cs12  1  0.33198003  0.33124688  -0.00029442  1
  Cs  Cs13  1  0.33190530  0.33754354  0.33312316  1
  Cs  Cs14  1  0.33500796  0.33215903  0.66779549  1
  Cs  Cs15  1  0.33383871  0.66607980  -0.00010807  1
  Cs  Cs16  1  0.33408894  0.66663642  0.33351664  1
  Cs  Cs17  1  0.33036559  0.66850416  0.66742579  1
  Cs  Cs18  1  0.66365274  -0.00304234  -0.00093597  1
  Cs  Cs19  1  0.67041159  -0.00029948  0.33478323  1
  Cs  Cs20  1  0.66515932  0.00463634  0.66596339  1
  Cs  Cs21  1  0.66692713  0.33897249  0.00014982  1
  Cs  Cs22  1  0.66830877  0.33750308  0.33684626  1
  Cs  Cs23  1  0.66302058  0.32691331  0.66319021  1
  Cs  Cs24  1  0.67204115  0.66555746  0.00066154  1
  Cs  Cs25  1  0.66562724  0.66464324  0.33252924  1
  Cs  Cs26  1  0.66731792  0.66698751  0.66571213  1
  Sn  Sn27  1  0.83410346  0.50060366  0.50017045  1
  Sn  Sn28  1  0.16599108  0.49934134  0.49955083  1
  Sn  Sn29  1  0.50050132  0.16675007  0.16745320  1
  Sn  Sn30  1  0.49971052  0.83218131  0.83338439  1
  Sn  Sn31  1  0.16646117  0.50159055  0.16672293  1
  Sn  Sn32  1  0.16579528  0.16645422  0.83275094  1
  Sn  Sn33  1  0.83279146  0.83273123  0.49996276  1
  Sn  Sn34  1  0.49973185  0.50097672  0.83309173  1
  Sn  Sn35  1  0.49954662  0.83384496  0.16673288  1
  Sn  Sn36  1  0.16719320  0.16718504  0.50078457  1
  Sn  Sn37  1  0.83412001  0.16653820  0.83341948  1
  Sn  Sn38  1  0.16650512  0.83172405  0.16613348  1
  Sn  Sn39  1  0.50066433  0.83338131  0.49984818  1
  Pb  Pb40  1  0.49938201  0.50208929  0.50178910  1
  Pb  Pb41  1  0.16845677  0.83573075  0.83643342  1
  Pb  Pb42  1  0.49830863  0.50072485  0.16496878  1
  Pb  Pb43  1  0.16805943  0.49835260  0.83317353  1
  Pb  Pb44  1  0.83318206  0.83317124  0.16891696  1
  Pb  Pb45  1  0.83550008  0.16661714  0.50143827  1
  Pb  Pb46  1  0.49725391  0.16410871  0.49718567  1
  Pb  Pb47  1  0.16784575  0.16675536  0.16665953  1
  Pb  Pb48  1  0.82997830  0.16676379  0.16424332  1
  Pb  Pb49  1  0.83083169  0.49787266  0.83033032  1
  Pb  Pb50  1  0.16662112  0.83315762  0.49855149  1
  Pb  Pb51  1  0.49980055  0.16637559  0.83494451  1
  Pb  Pb52  1  0.83082959  0.83525766  0.83072099  1
  Pb  Pb53  1  0.83664267  0.50002674  0.16919304  1
  I  I54  1  0.17095167  -0.00225602  0.16732446  1
  I  I55  1  0.16747230  0.00202787  0.50200117  1
  I  I56  1  0.16617003  0.00360539  0.82743719  1
  I  I57  1  0.16934796  0.33547918  0.16840597  1
  I  I58  1  0.16145695  0.33422985  0.49730128  1
  I  I59  1  0.16738963  0.33033449  0.83408649  1
  I  I60  1  0.17466401  0.66680826  0.17433993  1
  I  I61  1  0.16641578  0.66418641  0.49680307  1
  I  I62  1  0.16771138  0.66683936  0.83113227  1
  I  I63  1  0.49297210  -0.00189930  0.16412571  1
  I  I64  1  0.50437744  -0.00400700  0.50524074  1
  I  I65  1  0.49984713  -0.00274767  0.83250899  1
  I  I66  1  0.49698294  0.33157028  0.16238847  1
  I  I67  1  0.50242651  0.33332222  0.50086745  1
  I  I68  1  0.49948151  0.33491915  0.83511780  1
  I  I69  1  0.49665790  0.67006076  0.16859002  1
  I  I70  1  0.49890613  0.67028104  0.49536336  1
  I  I71  1  0.49864796  0.66786287  0.83484292  1
  I  I72  1  0.83831797  -0.00007544  0.16998341  1
  I  I73  1  0.82974175  -0.00248231  0.50118929  1
  I  I74  1  0.83546841  0.00293771  0.83094869  1
  I  I75  1  0.83233307  0.33338848  0.16880600  1
  I  I76  1  0.83588382  0.33584352  0.50161556  1
  I  I77  1  0.83451502  0.33027258  0.83137520  1
  I  I78  1  0.82889200  0.66662443  0.16446703  1
  I  I79  1  0.83505368  0.66664421  0.49972606  1
  I  I80  1  0.83325818  0.66667260  0.83382245  1
  I  I81  1  0.16599916  0.16654285  -0.00214807  1
  I  I82  1  0.16868146  0.16750963  0.33554082  1
  I  I83  1  0.16454854  0.17176271  0.66627741  1
  I  I84  1  0.17157367  0.50125601  0.00236404  1
  I  I85  1  0.16503137  0.49737806  0.33419252  1
  I  I86  1  0.16460072  0.49754475  0.66365433  1
  I  I87  1  0.17373401  0.82986835  0.00431436  1
  I  I88  1  0.17319792  0.83447648  0.33074794  1
  I  I89  1  0.16851817  0.83236359  0.66676326  1
  I  I90  1  0.49670578  0.16059984  0.00245868  1
  I  I91  1  0.49706595  0.16151911  0.32972221  1
  I  I92  1  0.50073527  0.16565954  0.66649449  1
  I  I93  1  0.49756797  0.50323809  -0.00287794  1
  I  I94  1  0.50108492  0.49994808  0.33354084  1
  I  I95  1  0.49815727  0.50387161  0.66952719  1
  I  I96  1  0.49392269  0.83530531  0.00048648  1
  I  I97  1  0.49905246  0.83824382  0.33294300  1
  I  I98  1  0.50408347  0.82920698  0.66658166  1
  I  I99  1  0.84091874  0.16634650  -0.00363993  1
  I  I100  1  0.83437573  0.16610286  0.33369823  1
  I  I101  1  0.83293434  0.16646842  0.66925742  1
  I  I102  1  0.83343687  0.49862965  -0.00047968  1
  I  I103  1  0.83202915  0.50265976  0.33742157  1
  I  I104  1  0.84070828  0.50479599  0.66277267  1
  I  I105  1  0.83284509  0.83505482  -0.00028197  1
  I  I106  1  0.82773430  0.83100323  0.33702441  1
  I  I107  1  0.82928487  0.83018327  0.66282174  1
  I  I108  1  0.00016331  0.16564208  0.16782614  1
  I  I109  1  0.00351610  0.16541187  0.50004347  1
  I  I110  1  0.00105776  0.16755616  0.82950546  1
  I  I111  1  0.00490775  0.50438143  0.16710155  1
  I  I112  1  0.00089223  0.50217144  0.49641390  1
  I  I113  1  -0.00005008  0.49950374  0.83510519  1
  I  I114  1  0.00302260  0.83106404  0.17010792  1
  I  I115  1  -0.00204354  0.83294590  0.49772024  1
  I  I116  1  -0.00004860  0.83328606  0.83323945  1
  I  I117  1  0.33561929  0.16359387  0.16389740  1
  I  I118  1  0.32948716  0.17182603  0.50662902  1
  I  I119  1  0.33114730  0.16691765  0.83118259  1
  I  I120  1  0.33035640  0.50078443  0.17342978  1
  I  I121  1  0.33026497  0.49742046  0.49722001  1
  I  I122  1  0.33597417  0.50121953  0.83150615  1
  I  I123  1  0.33442513  0.83432023  0.16949925  1
  I  I124  1  0.33592752  0.83382753  0.50085429  1
  I  I125  1  0.33688785  0.83264063  0.82785670  1
  I  I126  1  0.66210049  0.15872103  0.16444525  1
  I  I127  1  0.66650471  0.16875202  0.50145495  1
  I  I128  1  0.66824315  0.16622560  0.83431201  1
  I  I129  1  0.66660118  0.49914468  0.16677002  1
  I  I130  1  0.66869682  0.50218339  0.50268012  1
  I  I131  1  0.66310273  0.50188372  0.83367163  1
  I  I132  1  0.66307886  0.83834009  0.16485378  1
  I  I133  1  0.66596065  0.82836191  0.49838154  1
  I  I134  1  0.66250440  0.83248336  0.83863444  1
