# generated using pymatgen
data_Cs27Sn13Pb14I81
_symmetry_space_group_name_H-M   'P 1'
_cell_length_a   19.06303924
_cell_length_b   19.06570389
_cell_length_c   19.06298106
_cell_angle_alpha   89.99985412
_cell_angle_beta   89.99604293
_cell_angle_gamma   90.00014017
_symmetry_Int_Tables_number   1
_chemical_formula_structural   Cs27Sn13Pb14I81
_chemical_formula_sum   'Cs27 Sn13 Pb14 I81'
_cell_volume   6928.44543574
_cell_formula_units_Z   1
loop_
 _symmetry_equiv_pos_site_id
 _symmetry_equiv_pos_as_xyz
  1  'x, y, z'
loop_
 _atom_site_type_symbol
 _atom_site_label
 _atom_site_symmetry_multiplicity
 _atom_site_fract_x
 _atom_site_fract_y
 _atom_site_fract_z
 _atom_site_occupancy
  Cs  Cs0  1  -0.00269430  0.00316897  -0.00099358  1
  Cs  Cs1  1  -0.00173315  -0.01448801  0.33963890  1
  Cs  Cs2  1  -0.01184947  0.01739444  0.65925461  1
  Cs  Cs3  1  0.00024113  0.33323367  0.00216227  1
  Cs  Cs4  1  -0.00092302  0.33352245  0.32627313  1
  Cs  Cs5  1  0.00277984  0.32432811  0.66643208  1
  Cs  Cs6  1  0.00393222  0.66383058  0.00040173  1
  Cs  Cs7  1  0.00521445  0.67630513  0.33384211  1
  Cs  Cs8  1  0.00504680  0.66399856  0.66443099  1
  Cs  Cs9  1  0.33451948  -0.00601102  0.00233887  1
  Cs  Cs10  1  0.33317253  -0.00673025  0.32958901  1
  Cs  Cs11  1  0.33624890  0.00860610  0.66732961  1
  Cs  Cs12  1  0.33160625  0.33196378  0.00230207  1
  Cs  Cs13  1  0.33503616  0.33167666  0.33049990  1
  Cs  Cs14  1  0.33444109  0.33114086  0.66589383  1
  Cs  Cs15  1  0.33030394  0.67011900  -0.00308002  1
  Cs  Cs16  1  0.32827651  0.67256432  0.33515321  1
  Cs  Cs17  1  0.33461310  0.66559881  0.66818867  1
  Cs  Cs18  1  0.66597951  -0.01897628  -0.00237170  1
  Cs  Cs19  1  0.66923222  -0.00196213  0.33510683  1
  Cs  Cs20  1  0.67263732  -0.00242333  0.66660599  1
  Cs  Cs21  1  0.66738314  0.33551679  0.00563169  1
  Cs  Cs22  1  0.66546352  0.33512276  0.32968170  1
  Cs  Cs23  1  0.66366440  0.33583221  0.66597471  1
  Cs  Cs24  1  0.66569715  0.67385018  -0.00305041  1
  Cs  Cs25  1  0.66737625  0.66289658  0.33465285  1
  Cs  Cs26  1  0.66396953  0.66400031  0.66800295  1
  Sn  Sn27  1  0.83361328  0.49956789  0.83321633  1
  Sn  Sn28  1  0.16533776  0.16755246  0.16694086  1
  Sn  Sn29  1  0.50071911  0.16816016  0.83389409  1
  Sn  Sn30  1  0.16623147  0.49884466  0.16601201  1
  Sn  Sn31  1  0.50015685  0.16730750  0.50040907  1
  Sn  Sn32  1  0.83438820  0.49968145  0.16660688  1
  Sn  Sn33  1  0.50022357  0.49960203  0.50047922  1
  Sn  Sn34  1  0.83325385  0.49933242  0.50006726  1
  Sn  Sn35  1  0.49983192  0.49845717  0.83324091  1
  Sn  Sn36  1  0.49982955  0.83315305  0.50078376  1
  Sn  Sn37  1  0.16669001  0.49999795  0.83381499  1
  Sn  Sn38  1  0.83385603  0.16734226  0.16645358  1
  Sn  Sn39  1  0.16577954  0.83385388  0.83165371  1
  Pb  Pb40  1  0.50010888  0.83302123  0.16957467  1
  Pb  Pb41  1  0.16671304  0.49953037  0.49997825  1
  Pb  Pb42  1  0.16880571  0.16698047  0.49656437  1
  Pb  Pb43  1  0.83696667  0.83033946  0.83273671  1
  Pb  Pb44  1  0.83341997  0.83250626  0.16643804  1
  Pb  Pb45  1  0.83103841  0.82999124  0.50074093  1
  Pb  Pb46  1  0.49968420  0.50003411  0.16622058  1
  Pb  Pb47  1  0.16864960  0.83369849  0.50431590  1
  Pb  Pb48  1  0.82999732  0.16967570  0.83617415  1
  Pb  Pb49  1  0.16867147  0.16712404  0.83530402  1
  Pb  Pb50  1  0.49797717  0.83307933  0.83088433  1
  Pb  Pb51  1  0.50072851  0.16680165  0.16596481  1
  Pb  Pb52  1  0.83075094  0.17010577  0.49718206  1
  Pb  Pb53  1  0.16645006  0.83322375  0.16412580  1
  I  I54  1  0.16450256  0.00282931  0.16570190  1
  I  I55  1  0.17059993  0.00002925  0.49842911  1
  I  I56  1  0.17611277  -0.00206158  0.83751160  1
  I  I57  1  0.16280856  0.33491974  0.15868473  1
  I  I58  1  0.17131506  0.33371637  0.50783225  1
  I  I59  1  0.16469308  0.33700922  0.83563899  1
  I  I60  1  0.16156860  0.66345223  0.16614303  1
  I  I61  1  0.16925469  0.66616617  0.49116815  1
  I  I62  1  0.17040866  0.66354308  0.84189862  1
  I  I63  1  0.49832711  0.00047799  0.16436214  1
  I  I64  1  0.49499187  0.00051207  0.50450957  1
  I  I65  1  0.49548857  0.00257508  0.83052864  1
  I  I66  1  0.49875407  0.33372892  0.17385120  1
  I  I67  1  0.50485529  0.33419533  0.50540169  1
  I  I68  1  0.49690481  0.33528642  0.82164634  1
  I  I69  1  0.50056687  0.66617843  0.16574368  1
  I  I70  1  0.50591392  0.66497275  0.50486656  1
  I  I71  1  0.50347377  0.66306339  0.82950285  1
  I  I72  1  0.83757907  0.00297529  0.16743287  1
  I  I73  1  0.83266674  0.00025611  0.49640540  1
  I  I74  1  0.83228598  0.00019291  0.83693983  1
  I  I75  1  0.83854669  0.33545126  0.16698906  1
  I  I76  1  0.82429719  0.33729655  0.50378699  1
  I  I77  1  0.84141845  0.33776916  0.82927700  1
  I  I78  1  0.83815023  0.66242779  0.16749167  1
  I  I79  1  0.82518341  0.66195009  0.49540373  1
  I  I80  1  0.82197251  0.66159260  0.83846686  1
  I  I81  1  0.16580238  0.16964189  0.00281907  1
  I  I82  1  0.16604813  0.17871321  0.32890711  1
  I  I83  1  0.16594560  0.16579576  0.66659147  1
  I  I84  1  0.16375866  0.50060007  -0.00031253  1
  I  I85  1  0.16422857  0.49416344  0.33042737  1
  I  I86  1  0.16479057  0.50745647  0.66958264  1
  I  I87  1  0.17197120  0.82879888  -0.00283426  1
  I  I88  1  0.16901432  0.83323715  0.33362669  1
  I  I89  1  0.16850540  0.81707370  0.67110940  1
  I  I90  1  0.49804804  0.17729065  -0.00298100  1
  I  I91  1  0.49966815  0.16795730  0.33591870  1
  I  I92  1  0.49714079  0.16833136  0.66660635  1
  I  I93  1  0.50244916  0.49228903  -0.00331085  1
  I  I94  1  0.50477373  0.49918065  0.33622821  1
  I  I95  1  0.50399552  0.50065418  0.66668749  1
  I  I96  1  0.49980670  0.83521163  -0.00060998  1
  I  I97  1  0.49895215  0.83310868  0.33783087  1
  I  I98  1  0.49778638  0.83109552  0.66382243  1
  I  I99  1  0.83651358  0.17651750  0.00333446  1
  I  I100  1  0.83439264  0.17663125  0.32990605  1
  I  I101  1  0.83624957  0.16503582  0.66672436  1
  I  I102  1  0.83369383  0.49415448  0.00013784  1
  I  I103  1  0.82971946  0.49414371  0.33297154  1
  I  I104  1  0.82991507  0.50452321  0.66701904  1
  I  I105  1  0.82847331  0.83201462  -0.00037225  1
  I  I106  1  0.83220791  0.83111649  0.33351103  1
  I  I107  1  0.83379636  0.83340200  0.66681168  1
  I  I108  1  -0.00007301  0.17586489  0.16374527  1
  I  I109  1  -0.00043458  0.16743289  0.50454474  1
  I  I110  1  -0.00034364  0.16426518  0.83118485  1
  I  I111  1  -0.00007759  0.49461830  0.16187916  1
  I  I112  1  -0.00280866  0.50032997  0.50368229  1
  I  I113  1  -0.00004046  0.50931821  0.83506158  1
  I  I114  1  0.00020157  0.83335542  0.16959814  1
  I  I115  1  -0.00004633  0.83099458  0.49621267  1
  I  I116  1  0.00423903  0.82327969  0.83804627  1
  I  I117  1  0.33125862  0.17302271  0.16716408  1
  I  I118  1  0.33748686  0.17254062  0.50333660  1
  I  I119  1  0.33629590  0.17463427  0.83009088  1
  I  I120  1  0.33036928  0.49463815  0.16306921  1
  I  I121  1  0.33656952  0.50059504  0.50406403  1
  I  I122  1  0.33361411  0.50104726  0.83294595  1
  I  I123  1  0.33286376  0.83463617  0.16770330  1
  I  I124  1  0.33655953  0.82652831  0.49752036  1
  I  I125  1  0.33109064  0.82270628  0.83429919  1
  I  I126  1  0.66953316  0.17646808  0.16886112  1
  I  I127  1  0.66300065  0.16307184  0.50222503  1
  I  I128  1  0.66272550  0.17409979  0.82890573  1
  I  I129  1  0.66940954  0.49371858  0.16561131  1
  I  I130  1  0.66554191  0.50055953  0.50303300  1
  I  I131  1  0.66633443  0.49271690  0.83217880  1
  I  I132  1  0.66687437  0.83493056  0.16295733  1
  I  I133  1  0.66321323  0.83826726  0.50223456  1
  I  I134  1  0.66684634  0.83467096  0.83440782  1
