# generated using pymatgen
data_Cs27Sn14Pb13I81
_symmetry_space_group_name_H-M   'P 1'
_cell_length_a   18.97117396
_cell_length_b   18.97511008
_cell_length_c   18.98107022
_cell_angle_alpha   90.00066177
_cell_angle_beta   90.00000394
_cell_angle_gamma   89.99864673
_symmetry_Int_Tables_number   1
_chemical_formula_structural   Cs27Sn14Pb13I81
_chemical_formula_sum   'Cs27 Sn14 Pb13 I81'
_cell_volume   6832.80782552
_cell_formula_units_Z   1
loop_
 _symmetry_equiv_pos_site_id
 _symmetry_equiv_pos_as_xyz
  1  'x, y, z'
loop_
 _atom_site_type_symbol
 _atom_site_label
 _atom_site_symmetry_multiplicity
 _atom_site_fract_x
 _atom_site_fract_y
 _atom_site_fract_z
 _atom_site_occupancy
  Cs  Cs0  1  0.00134854  -0.00175470  -0.00086133  1
  Cs  Cs1  1  -0.00033979  -0.00089833  0.33493896  1
  Cs  Cs2  1  -0.00039315  0.00081508  0.66749059  1
  Cs  Cs3  1  -0.00051235  0.33437833  -0.00169361  1
  Cs  Cs4  1  0.00000286  0.33595434  0.33361527  1
  Cs  Cs5  1  0.00103203  0.33165675  0.66788583  1
  Cs  Cs6  1  -0.00080502  0.66571757  0.00065045  1
  Cs  Cs7  1  -0.00130544  0.66362726  0.33506849  1
  Cs  Cs8  1  0.00028147  0.66722493  0.66517410  1
  Cs  Cs9  1  0.32771909  -0.00818324  0.00843198  1
  Cs  Cs10  1  0.33506572  -0.00093606  0.32522487  1
  Cs  Cs11  1  0.33141273  -0.00015811  0.66873070  1
  Cs  Cs12  1  0.33280509  0.33310665  0.00358898  1
  Cs  Cs13  1  0.33240124  0.33276568  0.33163388  1
  Cs  Cs14  1  0.33402954  0.33384172  0.66584760  1
  Cs  Cs15  1  0.33625295  0.67162882  -0.00092620  1
  Cs  Cs16  1  0.33319246  0.66779931  0.33231329  1
  Cs  Cs17  1  0.34080903  0.66623990  0.66853641  1
  Cs  Cs18  1  0.66837152  0.00079027  0.00152553  1
  Cs  Cs19  1  0.66489294  -0.00031968  0.33258142  1
  Cs  Cs20  1  0.66877250  0.00315665  0.66544009  1
  Cs  Cs21  1  0.66842076  0.33349059  -0.00102267  1
  Cs  Cs22  1  0.66748540  0.33402553  0.33178743  1
  Cs  Cs23  1  0.66348136  0.33103536  0.66807520  1
  Cs  Cs24  1  0.66693850  0.66652736  -0.00227184  1
  Cs  Cs25  1  0.66787407  0.66611332  0.34214493  1
  Cs  Cs26  1  0.65766907  0.66825187  0.66171873  1
  Sn  Sn27  1  0.16680715  0.83339840  0.50027110  1
  Sn  Sn28  1  0.83334071  0.83319675  0.83348747  1
  Sn  Sn29  1  0.16634550  0.49977169  0.83312822  1
  Sn  Sn30  1  0.49969669  0.16679445  0.50053410  1
  Sn  Sn31  1  0.16660362  0.50023817  0.50047421  1
  Sn  Sn32  1  0.83380848  0.16598153  0.16637999  1
  Sn  Sn33  1  0.49973454  0.16627688  0.83376069  1
  Sn  Sn34  1  0.83340733  0.83374472  0.16635932  1
  Sn  Sn35  1  0.49976189  0.50000727  0.16654762  1
  Sn  Sn36  1  0.83321823  0.16702868  0.49990131  1
  Sn  Sn37  1  0.83346478  0.50038645  0.83268567  1
  Sn  Sn38  1  0.16704013  0.16632386  0.49999275  1
  Sn  Sn39  1  0.83292942  0.16662546  0.83358397  1
  Sn  Sn40  1  0.16759830  0.49986423  0.16634007  1
  Pb  Pb41  1  0.50207372  0.16792801  0.16618183  1
  Pb  Pb42  1  0.16397252  0.16845890  0.16889999  1
  Pb  Pb43  1  0.16694868  0.16806764  0.83201506  1
  Pb  Pb44  1  0.49735868  0.49762010  0.49796628  1
  Pb  Pb45  1  0.16405801  0.83055970  0.16865655  1
  Pb  Pb46  1  0.83344051  0.50026749  0.16499872  1
  Pb  Pb47  1  0.49693221  0.83664082  0.49999658  1
  Pb  Pb48  1  0.83492668  0.49765759  0.50310174  1
  Pb  Pb49  1  0.16450985  0.83061157  0.83136453  1
  Pb  Pb50  1  0.50325396  0.83034511  0.16672546  1
  Pb  Pb51  1  0.50268217  0.83698947  0.83347133  1
  Pb  Pb52  1  0.83470748  0.83542731  0.50032487  1
  Pb  Pb53  1  0.49987774  0.49793580  0.83499812  1
  I  I54  1  0.16756751  -0.00010465  0.16860039  1
  I  I55  1  0.16450573  0.00122489  0.50123084  1
  I  I56  1  0.16556384  -0.00007373  0.82998087  1
  I  I57  1  0.16680532  0.33664752  0.16909534  1
  I  I58  1  0.16552124  0.33321158  0.49986577  1
  I  I59  1  0.16029959  0.33638127  0.83109447  1
  I  I60  1  0.16711970  0.66250705  0.16915698  1
  I  I61  1  0.16363216  0.66562603  0.49894814  1
  I  I62  1  0.16048383  0.66228206  0.83155274  1
  I  I63  1  0.49953423  0.00007447  0.16725828  1
  I  I64  1  0.50018934  0.00488854  0.50311459  1
  I  I65  1  0.50615386  0.00500861  0.82815310  1
  I  I66  1  0.49803230  0.33569787  0.16724478  1
  I  I67  1  0.49947609  0.32959679  0.50356639  1
  I  I68  1  0.50721001  0.33021107  0.82905167  1
  I  I69  1  0.49584928  0.66261866  0.16541654  1
  I  I70  1  0.49963270  0.66655034  0.49877645  1
  I  I71  1  0.50097610  0.66662692  0.83445712  1
  I  I72  1  0.83309466  0.00118881  0.16243670  1
  I  I73  1  0.83655923  0.00393575  0.50426919  1
  I  I74  1  0.82860244  0.00119858  0.83328614  1
  I  I75  1  0.83357120  0.33089156  0.16662128  1
  I  I76  1  0.83600577  0.32914107  0.49830077  1
  I  I77  1  0.83401724  0.33241905  0.83351350  1
  I  I78  1  0.83461822  0.66881644  0.16107550  1
  I  I79  1  0.83629424  0.66652921  0.49847514  1
  I  I80  1  0.84066589  0.66641153  0.84075323  1
  I  I81  1  0.16634330  0.16995467  0.00018705  1
  I  I82  1  0.16669786  0.16949383  0.33751102  1
  I  I83  1  0.16165634  0.16959757  0.66331185  1
  I  I84  1  0.16466743  0.49820667  -0.00030042  1
  I  I85  1  0.17067419  0.49869762  0.33384173  1
  I  I86  1  0.15961969  0.49829466  0.66638276  1
  I  I87  1  0.16711028  0.83214982  0.00003601  1
  I  I88  1  0.16326510  0.83287382  0.33652663  1
  I  I89  1  0.16255803  0.83316030  0.66346934  1
  I  I90  1  0.50794252  0.17065673  -0.00261133  1
  I  I91  1  0.50045749  0.16879868  0.33601519  1
  I  I92  1  0.50575242  0.16836807  0.66625196  1
  I  I93  1  0.49493327  0.49590717  0.00251859  1
  I  I94  1  0.49654384  0.49698132  0.33031963  1
  I  I95  1  0.49983369  0.50024868  0.66661013  1
  I  I96  1  0.49684902  0.83561063  0.00005706  1
  I  I97  1  0.50279862  0.83528765  0.33337799  1
  I  I98  1  0.50218588  0.82920038  0.66668381  1
  I  I99  1  0.82791951  0.16735196  -0.00111421  1
  I  I100  1  0.83432301  0.16249424  0.33366501  1
  I  I101  1  0.83352519  0.16715459  0.66700863  1
  I  I102  1  0.83895724  0.49446142  -0.00290171  1
  I  I103  1  0.83435949  0.49943700  0.33350649  1
  I  I104  1  0.83916680  0.49986783  0.67118405  1
  I  I105  1  0.83425618  0.83862681  -0.00070447  1
  I  I106  1  0.83538861  0.83776903  0.33111434  1
  I  I107  1  0.83641151  0.83472229  0.66945374  1
  I  I108  1  -0.00429207  0.16628561  0.16508262  1
  I  I109  1  -0.00005715  0.16744189  0.50016449  1
  I  I110  1  -0.00336831  0.16608963  0.83222905  1
  I  I111  1  0.00243530  0.49943262  0.16919918  1
  I  I112  1  0.00340351  0.49719211  0.49443720  1
  I  I113  1  -0.00034695  0.49653485  0.83537417  1
  I  I114  1  -0.00358535  0.83617151  0.16276219  1
  I  I115  1  0.00266526  0.83498475  0.49985257  1
  I  I116  1  -0.00374292  0.83949230  0.83627373  1
  I  I117  1  0.33314081  0.16734761  0.16714584  1
  I  I118  1  0.33285232  0.16890050  0.50604040  1
  I  I119  1  0.33576117  0.17165886  0.82623909  1
  I  I120  1  0.33193899  0.49719153  0.16607378  1
  I  I121  1  0.32892374  0.49722367  0.50532849  1
  I  I122  1  0.33038531  0.49686767  0.83045641  1
  I  I123  1  0.33307594  0.83474003  0.16804152  1
  I  I124  1  0.32887931  0.83305906  0.50008800  1
  I  I125  1  0.33319517  0.83312907  0.83179585  1
  I  I126  1  0.67039077  0.16688973  0.17085297  1
  I  I127  1  0.66752856  0.16651080  0.50139787  1
  I  I128  1  0.66887196  0.16910929  0.82811164  1
  I  I129  1  0.66504364  0.49807464  0.16343354  1
  I  I130  1  0.66654661  0.49892136  0.49847136  1
  I  I131  1  0.66956748  0.49983762  0.83764165  1
  I  I132  1  0.67114829  0.83649686  0.16317695  1
  I  I133  1  0.66670543  0.83403730  0.49959742  1
  I  I134  1  0.67135286  0.82745326  0.83625869  1
