# generated using pymatgen
data_Cs27Sn13Pb14I81
_symmetry_space_group_name_H-M   'P 1'
_cell_length_a   18.99641372
_cell_length_b   18.97806644
_cell_length_c   19.00045879
_cell_angle_alpha   89.99995491
_cell_angle_beta   89.99978109
_cell_angle_gamma   89.99946262
_symmetry_Int_Tables_number   1
_chemical_formula_structural   Cs27Sn13Pb14I81
_chemical_formula_sum   'Cs27 Sn13 Pb14 I81'
_cell_volume   6849.95423628
_cell_formula_units_Z   1
loop_
 _symmetry_equiv_pos_site_id
 _symmetry_equiv_pos_as_xyz
  1  'x, y, z'
loop_
 _atom_site_type_symbol
 _atom_site_label
 _atom_site_symmetry_multiplicity
 _atom_site_fract_x
 _atom_site_fract_y
 _atom_site_fract_z
 _atom_site_occupancy
  Cs  Cs0  1  -0.00202715  0.00561610  -0.00491408  1
  Cs  Cs1  1  0.00386448  0.00210149  0.33786868  1
  Cs  Cs2  1  -0.00021629  0.00804544  0.66837580  1
  Cs  Cs3  1  -0.00061236  0.32896768  0.00036436  1
  Cs  Cs4  1  -0.01154884  0.33131990  0.33271499  1
  Cs  Cs5  1  -0.00123747  0.32711925  0.66784113  1
  Cs  Cs6  1  0.00119225  0.66640426  0.00019695  1
  Cs  Cs7  1  0.00127865  0.66633606  0.33242938  1
  Cs  Cs8  1  0.00289759  0.66766706  0.66895301  1
  Cs  Cs9  1  0.33510112  0.00044719  0.00038832  1
  Cs  Cs10  1  0.33354556  0.00331975  0.33529371  1
  Cs  Cs11  1  0.33084769  -0.00020294  0.66558082  1
  Cs  Cs12  1  0.33179186  0.33411528  -0.00079108  1
  Cs  Cs13  1  0.33567968  0.32497139  0.33242165  1
  Cs  Cs14  1  0.33729003  0.33549534  0.66637191  1
  Cs  Cs15  1  0.33288364  0.66631840  0.00052675  1
  Cs  Cs16  1  0.32988114  0.66936112  0.32940374  1
  Cs  Cs17  1  0.33260034  0.66540045  0.66757003  1
  Cs  Cs18  1  0.66679428  -0.00150155  -0.00202913  1
  Cs  Cs19  1  0.66355211  0.00027921  0.33292810  1
  Cs  Cs20  1  0.66992337  -0.00185642  0.67027209  1
  Cs  Cs21  1  0.66801849  0.33344279  0.00421200  1
  Cs  Cs22  1  0.67471607  0.32625920  0.34090612  1
  Cs  Cs23  1  0.66276749  0.33769295  0.65534656  1
  Cs  Cs24  1  0.66549949  0.66857724  -0.00000256  1
  Cs  Cs25  1  0.66898147  0.66754130  0.33251208  1
  Cs  Cs26  1  0.66537390  0.66585534  0.66715962  1
  Sn  Sn27  1  0.83389766  0.83296529  0.16734881  1
  Sn  Sn28  1  0.16636774  0.83322280  0.16549373  1
  Sn  Sn29  1  0.49973013  0.50048583  0.16726842  1
  Sn  Sn30  1  0.50055518  0.83245896  0.49996721  1
  Sn  Sn31  1  0.16558445  0.50083987  0.83340567  1
  Sn  Sn32  1  0.83311801  0.83256052  0.49949177  1
  Sn  Sn33  1  0.83399209  0.50043490  0.83347963  1
  Sn  Sn34  1  0.16685265  0.49999758  0.49931395  1
  Sn  Sn35  1  0.50012873  0.16615403  0.83355483  1
  Sn  Sn36  1  0.49889628  0.83389136  0.83325974  1
  Sn  Sn37  1  0.49972514  0.83242742  0.16686218  1
  Sn  Sn38  1  0.16742109  0.50030112  0.16711297  1
  Sn  Sn39  1  0.16732508  0.83275876  0.83420700  1
  Pb  Pb40  1  0.16660703  0.83230445  0.50016649  1
  Pb  Pb41  1  0.83348510  0.50192315  0.16518041  1
  Pb  Pb42  1  0.49987894  0.16353858  0.50273277  1
  Pb  Pb43  1  0.16888462  0.16686347  0.83346110  1
  Pb  Pb44  1  0.83374524  0.83213207  0.83335329  1
  Pb  Pb45  1  0.49788905  0.50257178  0.49627242  1
  Pb  Pb46  1  0.50001216  0.16663774  0.16480718  1
  Pb  Pb47  1  0.16683437  0.17078745  0.49994022  1
  Pb  Pb48  1  0.83318077  0.16274954  0.16642311  1
  Pb  Pb49  1  0.82975382  0.17049741  0.83326955  1
  Pb  Pb50  1  0.49966987  0.50049843  0.83513739  1
  Pb  Pb51  1  0.16667448  0.16681020  0.16657563  1
  Pb  Pb52  1  0.83572114  0.50266790  0.50225009  1
  Pb  Pb53  1  0.83318029  0.16307790  0.50023740  1
  I  I54  1  0.16786395  -0.00442830  0.16192415  1
  I  I55  1  0.16595564  -0.00028669  0.50027708  1
  I  I56  1  0.16844448  -0.00353418  0.83805120  1
  I  I57  1  0.17337578  0.33752798  0.16452926  1
  I  I58  1  0.16805139  0.33894975  0.50190065  1
  I  I59  1  0.16422844  0.33710331  0.83430670  1
  I  I60  1  0.16817624  0.66734116  0.16523784  1
  I  I61  1  0.16700564  0.66445632  0.50086303  1
  I  I62  1  0.16933067  0.66695781  0.83435896  1
  I  I63  1  0.49935755  -0.00421647  0.16849055  1
  I  I64  1  0.50186088  -0.00505222  0.49341926  1
  I  I65  1  0.49507284  -0.00322514  0.83555932  1
  I  I66  1  0.49255349  0.33663174  0.16168237  1
  I  I67  1  0.49805649  0.33366713  0.50138637  1
  I  I68  1  0.49945790  0.33187779  0.83683755  1
  I  I69  1  0.49862926  0.66863534  0.16331282  1
  I  I70  1  0.50380169  0.67066431  0.50677930  1
  I  I71  1  0.49896698  0.67003592  0.83224656  1
  I  I72  1  0.83203318  -0.00593787  0.16849279  1
  I  I73  1  0.83047825  -0.00513759  0.49703157  1
  I  I74  1  0.83590854  -0.00006809  0.83298312  1
  I  I75  1  0.83297568  0.33367866  0.16461955  1
  I  I76  1  0.83445160  0.33366476  0.50133467  1
  I  I77  1  0.84136596  0.33807117  0.83539028  1
  I  I78  1  0.83259746  0.67026590  0.16942273  1
  I  I79  1  0.82841681  0.67031316  0.49576256  1
  I  I80  1  0.83338018  0.66450079  0.83367944  1
  I  I81  1  0.16722160  0.16992480  -0.00013502  1
  I  I82  1  0.16892070  0.16291173  0.33325254  1
  I  I83  1  0.16719374  0.16384256  0.66691614  1
  I  I84  1  0.16741150  0.50531911  0.00004455  1
  I  I85  1  0.17230367  0.50769204  0.33184528  1
  I  I86  1  0.16268942  0.50591603  0.66804327  1
  I  I87  1  0.17010372  0.82541163  0.00007492  1
  I  I88  1  0.16880227  0.82845876  0.33041701  1
  I  I89  1  0.17042700  0.82807448  0.66950129  1
  I  I90  1  0.49909327  0.15935182  -0.00276845  1
  I  I91  1  0.49968131  0.16643710  0.33350504  1
  I  I92  1  0.49900553  0.16290722  0.67050441  1
  I  I93  1  0.49508213  0.50649891  0.00273714  1
  I  I94  1  0.49436425  0.50763282  0.32852943  1
  I  I95  1  0.49940548  0.50013515  0.66652029  1
  I  I96  1  0.49989365  0.83350555  0.00022995  1
  I  I97  1  0.50049751  0.82764306  0.33226090  1
  I  I98  1  0.50018788  0.83791443  0.66745255  1
  I  I99  1  0.83336118  0.16401884  -0.00046133  1
  I  I100  1  0.83241235  0.17177395  0.33339167  1
  I  I101  1  0.83398435  0.16333096  0.66699363  1
  I  I102  1  0.83795651  0.50412839  -0.00247394  1
  I  I103  1  0.83437940  0.49937812  0.33331737  1
  I  I104  1  0.83721416  0.50363017  0.66999986  1
  I  I105  1  0.83043572  0.83067552  0.00241495  1
  I  I106  1  0.82971991  0.83148995  0.33251213  1
  I  I107  1  0.82898738  0.83046448  0.66476365  1
  I  I108  1  -0.00003950  0.16791606  0.16554121  1
  I  I109  1  -0.00006042  0.16286466  0.50142276  1
  I  I110  1  -0.00017962  0.16362857  0.83252811  1
  I  I111  1  0.00341500  0.50565181  0.16757478  1
  I  I112  1  0.00347633  0.50475017  0.49474868  1
  I  I113  1  0.00222693  0.50804117  0.83527544  1
  I  I114  1  0.00107033  0.82755245  0.16691638  1
  I  I115  1  -0.00204097  0.83014665  0.49602432  1
  I  I116  1  0.00299673  0.82910363  0.83631919  1
  I  I117  1  0.33340996  0.16286076  0.16620646  1
  I  I118  1  0.33360220  0.16299058  0.50012103  1
  I  I119  1  0.33633348  0.16536154  0.83409362  1
  I  I120  1  0.33243808  0.50952472  0.16312822  1
  I  I121  1  0.33030211  0.50419602  0.50749495  1
  I  I122  1  0.33028391  0.50129576  0.83202456  1
  I  I123  1  0.33342420  0.82893436  0.16532180  1
  I  I124  1  0.33583420  0.83156769  0.49881015  1
  I  I125  1  0.33344782  0.83113883  0.83572538  1
  I  I126  1  0.66647647  0.16827247  0.16438858  1
  I  I127  1  0.66639854  0.17117648  0.50082711  1
  I  I128  1  0.66263699  0.15716910  0.83518179  1
  I  I129  1  0.66409901  0.50646068  0.16107905  1
  I  I130  1  0.66659045  0.49906248  0.50188901  1
  I  I131  1  0.66813552  0.50164632  0.83631961  1
  I  I132  1  0.66541135  0.82935249  0.16630123  1
  I  I133  1  0.66582717  0.83290833  0.49723680  1
  I  I134  1  0.66400149  0.83485030  0.83575698  1
