# generated using pymatgen
data_Cs27Sn14Pb13I81
_symmetry_space_group_name_H-M   'P 1'
_cell_length_a   18.95803601
_cell_length_b   18.96616380
_cell_length_c   18.95803607
_cell_angle_alpha   90.00241367
_cell_angle_beta   90.00122701
_cell_angle_gamma   89.99758629
_symmetry_Int_Tables_number   1
_chemical_formula_structural   Cs27Sn14Pb13I81
_chemical_formula_sum   'Cs27 Sn14 Pb13 I81'
_cell_volume   6816.57449217
_cell_formula_units_Z   1
loop_
 _symmetry_equiv_pos_site_id
 _symmetry_equiv_pos_as_xyz
  1  'x, y, z'
loop_
 _atom_site_type_symbol
 _atom_site_label
 _atom_site_symmetry_multiplicity
 _atom_site_fract_x
 _atom_site_fract_y
 _atom_site_fract_z
 _atom_site_occupancy
  Cs  Cs0  1  0.00292406  -0.00078334  -0.00074463  1
  Cs  Cs1  1  0.00785616  -0.00230524  0.33234603  1
  Cs  Cs2  1  -0.00356030  0.00203847  0.67022706  1
  Cs  Cs3  1  0.00023698  0.33325898  -0.00146698  1
  Cs  Cs4  1  0.00150437  0.33449758  0.33825236  1
  Cs  Cs5  1  0.00008602  0.33341899  0.66658073  1
  Cs  Cs6  1  -0.00240457  0.66711238  0.00047413  1
  Cs  Cs7  1  0.00077333  0.66829726  0.33188222  1
  Cs  Cs8  1  -0.00100639  0.66585264  0.66767312  1
  Cs  Cs9  1  0.33168478  0.00368217  0.00165236  1
  Cs  Cs10  1  0.32931365  -0.00372492  0.33735304  1
  Cs  Cs11  1  0.33432055  -0.00230530  0.65881041  1
  Cs  Cs12  1  0.33452013  0.33280585  0.00028042  1
  Cs  Cs13  1  0.33351470  0.33575666  0.33315202  1
  Cs  Cs14  1  0.32841431  0.33449764  0.66516201  1
  Cs  Cs15  1  0.33653491  0.66436227  -0.00202829  1
  Cs  Cs16  1  0.33086997  0.66556996  0.33579670  1
  Cs  Cs17  1  0.33478448  0.66829729  0.66589321  1
  Cs  Cs18  1  0.66668645  0.00236859  -0.00001989  1
  Cs  Cs19  1  0.66501438  0.00368230  0.33498165  1
  Cs  Cs20  1  0.66741125  -0.00078350  0.66374273  1
  Cs  Cs21  1  0.66584359  0.33310306  0.00082303  1
  Cs  Cs22  1  0.66638631  0.33280573  0.33214667  1
  Cs  Cs23  1  0.66813363  0.33325902  0.66642965  1
  Cs  Cs24  1  0.66676391  0.66641368  -0.00009719  1
  Cs  Cs25  1  0.66869506  0.66436225  0.33013184  1
  Cs  Cs26  1  0.66619246  0.66711243  0.66907117  1
  Sn  Sn27  1  0.49930229  0.50017023  0.16736441  1
  Sn  Sn28  1  0.16583756  0.50108160  0.83436331  1
  Sn  Sn29  1  0.16647778  0.83249978  0.83362258  1
  Sn  Sn30  1  0.50020077  0.83354372  0.16646594  1
  Sn  Sn31  1  0.16723474  0.49989465  0.16559083  1
  Sn  Sn32  1  0.83230337  0.50108160  0.50082914  1
  Sn  Sn33  1  0.83384912  0.50002477  0.83281748  1
  Sn  Sn34  1  0.83366238  0.83316937  0.83300426  1
  Sn  Sn35  1  0.83304414  0.83249980  0.50018888  1
  Sn  Sn36  1  0.50107582  0.49989472  0.49943191  1
  Sn  Sn37  1  0.50053571  0.16667144  0.83342933  1
  Sn  Sn38  1  0.50067140  0.16619533  0.16599523  1
  Sn  Sn39  1  0.83323734  0.16667141  0.16613094  1
  Sn  Sn40  1  0.83220196  0.16674112  0.83446472  1
  Pb  Pb41  1  0.16363059  0.83294511  0.50303603  1
  Pb  Pb42  1  0.16695236  0.16906973  0.16668316  1
  Pb  Pb43  1  0.16920452  0.83068568  0.16416607  1
  Pb  Pb44  1  0.16668520  0.16644576  0.49998140  1
  Pb  Pb45  1  0.49998352  0.16906974  0.49971433  1
  Pb  Pb46  1  0.83345071  0.16661204  0.49991361  1
  Pb  Pb47  1  0.50003483  0.49823188  0.83333775  1
  Pb  Pb48  1  0.83332888  0.49823188  0.16663182  1
  Pb  Pb49  1  0.16612759  0.50017028  0.50053907  1
  Pb  Pb50  1  0.16675309  0.16661204  0.83321600  1
  Pb  Pb51  1  0.50250058  0.83068567  0.49746212  1
  Pb  Pb52  1  0.83180190  0.83602250  0.16657971  1
  Pb  Pb53  1  0.50008696  0.83602248  0.83486472  1
  I  I54  1  0.16723083  -0.00023360  0.16570313  1
  I  I55  1  0.16559346  -0.00073549  0.50107317  1
  I  I56  1  0.16240619  -0.00271668  0.83295552  1
  I  I57  1  0.17151000  0.33720396  0.16019926  1
  I  I58  1  0.16431066  0.33418119  0.50235604  1
  I  I59  1  0.16377978  0.33654339  0.83634976  1
  I  I60  1  0.17070094  0.66265364  0.16486454  1
  I  I61  1  0.16902517  0.66637072  0.49764161  1
  I  I62  1  0.15896816  0.66556776  0.83722049  1
  I  I63  1  0.50620449  0.00114636  0.16046222  1
  I  I64  1  0.50096359  -0.00023359  0.49943578  1
  I  I65  1  0.50417229  0.00384238  0.83971935  1
  I  I66  1  0.50014306  0.33357647  0.16652369  1
  I  I67  1  0.50646725  0.33720395  0.49515655  1
  I  I68  1  0.50439202  0.33048378  0.83863779  1
  I  I69  1  0.49631193  0.66537483  0.17035447  1
  I  I70  1  0.50180220  0.66265356  0.49596618  1
  I  I71  1  0.50204118  0.66657111  0.83499131  1
  I  I72  1  0.82694731  0.00384233  0.16249451  1
  I  I73  1  0.83371111  -0.00271668  0.50426068  1
  I  I74  1  0.83375554  -0.00013073  0.83291086  1
  I  I75  1  0.82802895  0.33048371  0.16227490  1
  I  I76  1  0.83031699  0.33654342  0.50288638  1
  I  I77  1  0.83350390  0.33381625  0.83316296  1
  I  I78  1  0.83167533  0.66657113  0.16462534  1
  I  I79  1  0.82944612  0.66556772  0.50769857  1
  I  I80  1  0.83768749  0.66624745  0.82897920  1
  I  I81  1  0.16646225  0.16606610  -0.00016673  1
  I  I82  1  0.16506812  0.16924510  0.33270280  1
  I  I83  1  0.16686063  0.17049572  0.66749085  1
  I  I84  1  0.16693831  0.50253780  -0.00088894  1
  I  I85  1  0.16822186  0.49771983  0.33077292  1
  I  I86  1  0.16593577  0.50235674  0.67009693  1
  I  I87  1  0.15861543  0.83158456  -0.00364211  1
  I  I88  1  0.16577926  0.83305422  0.33317613  1
  I  I89  1  0.16721154  0.82631158  0.67112282  1
  I  I90  1  0.50462143  0.16970113  0.00096712  1
  I  I91  1  0.50546946  0.16673352  0.32960018  1
  I  I92  1  0.50484830  0.16816429  0.66961352  1
  I  I93  1  0.49923689  0.50020292  0.00271303  1
  I  I94  1  0.50029765  0.49784369  0.33198135  1
  I  I95  1  0.50139972  0.49786696  0.66464502  1
  I  I96  1  0.50250218  0.82767682  0.00283527  1
  I  I97  1  0.50212244  0.83818336  0.32946051  1
  I  I98  1  0.49794901  0.83359815  0.66669181  1
  I  I99  1  0.82874673  0.16776731  -0.00142610  1
  I  I100  1  0.82757617  0.16836785  0.33042418  1
  I  I101  1  0.82988483  0.16684304  0.67024999  1
  I  I102  1  0.83393702  0.50197141  -0.00290843  1
  I  I103  1  0.83234625  0.50221794  0.33564789  1
  I  I104  1  0.83328311  0.49826569  0.66783457  1
  I  I105  1  0.83551222  0.83046724  -0.00330732  1
  I  I106  1  0.82970961  0.82876563  0.33562245  1
  I  I107  1  0.83631396  0.83435361  0.66830558  1
  I  I108  1  -0.00294686  0.16816426  0.16181871  1
  I  I109  1  -0.00082420  0.17049570  0.49980603  1
  I  I110  1  -0.00358332  0.16684272  0.83678151  1
  I  I111  1  0.00202161  0.49786715  0.16526705  1
  I  I112  1  -0.00343027  0.50235681  0.50073098  1
  I  I113  1  -0.00116789  0.49826597  0.83338345  1
  I  I114  1  -0.00002516  0.83359800  0.16871769  1
  I  I115  1  -0.00445616  0.82631154  0.49945475  1
  I  I116  1  -0.00163895  0.83435372  0.83035295  1
  I  I117  1  0.33706646  0.16673364  0.16119682  1
  I  I118  1  0.33396386  0.16924507  0.50159900  1
  I  I119  1  0.33624249  0.16836809  0.83909060  1
  I  I120  1  0.33468532  0.49784341  0.16636893  1
  I  I121  1  0.33589372  0.49771980  0.49844491  1
  I  I122  1  0.33101873  0.50221765  0.83432055  1
  I  I123  1  0.33720617  0.83818351  0.16454364  1
  I  I124  1  0.33349057  0.83305425  0.50088775  1
  I  I125  1  0.33104413  0.82876563  0.83695699  1
  I  I126  1  0.66569959  0.16970110  0.16204537  1
  I  I127  1  0.66683341  0.16606636  0.50020395  1
  I  I128  1  0.66809279  0.16776738  0.83792026  1
  I  I129  1  0.66395367  0.50020303  0.16742982  1
  I  I130  1  0.66755561  0.50253765  0.49972819  1
  I  I131  1  0.66957511  0.50197147  0.83272977  1
  I  I132  1  0.66383142  0.82767666  0.16416498  1
  I  I133  1  0.67030876  0.83158446  0.50805125  1
  I  I134  1  0.66997402  0.83046718  0.83115415  1
