# generated using pymatgen
data_Cs27Sn14Pb13I81
_symmetry_space_group_name_H-M   'P 1'
_cell_length_a   18.97845642
_cell_length_b   18.97443405
_cell_length_c   18.97701143
_cell_angle_alpha   90.00224774
_cell_angle_beta   89.99881928
_cell_angle_gamma   90.00060964
_symmetry_Int_Tables_number   1
_chemical_formula_structural   Cs27Sn14Pb13I81
_chemical_formula_sum   'Cs27 Sn14 Pb13 I81'
_cell_volume   6833.72560636
_cell_formula_units_Z   1
loop_
 _symmetry_equiv_pos_site_id
 _symmetry_equiv_pos_as_xyz
  1  'x, y, z'
loop_
 _atom_site_type_symbol
 _atom_site_label
 _atom_site_symmetry_multiplicity
 _atom_site_fract_x
 _atom_site_fract_y
 _atom_site_fract_z
 _atom_site_occupancy
  Cs  Cs0  1  0.00159088  -0.00056085  -0.00149608  1
  Cs  Cs1  1  -0.00235553  0.00060863  0.33267625  1
  Cs  Cs2  1  -0.00047552  -0.00064903  0.66794557  1
  Cs  Cs3  1  -0.00634700  0.33717403  -0.00218254  1
  Cs  Cs4  1  -0.00345264  0.33185953  0.33126277  1
  Cs  Cs5  1  0.00347325  0.33448892  0.66848789  1
  Cs  Cs6  1  0.00039033  0.66417205  0.00140469  1
  Cs  Cs7  1  0.00672086  0.66842964  0.33204464  1
  Cs  Cs8  1  -0.00017199  0.66583024  0.66728251  1
  Cs  Cs9  1  0.33178273  0.00015520  0.00003788  1
  Cs  Cs10  1  0.33332434  0.00000829  0.33232381  1
  Cs  Cs11  1  0.33367025  0.00115082  0.66761125  1
  Cs  Cs12  1  0.33750314  0.33500428  -0.00068065  1
  Cs  Cs13  1  0.33472428  0.33148292  0.33684234  1
  Cs  Cs14  1  0.33066664  0.33120288  0.66474064  1
  Cs  Cs15  1  0.33442537  0.66032109  0.00461486  1
  Cs  Cs16  1  0.33229915  0.66688727  0.33251147  1
  Cs  Cs17  1  0.33252689  0.66676746  0.66564725  1
  Cs  Cs18  1  0.66597493  -0.00121483  -0.00161325  1
  Cs  Cs19  1  0.66823519  -0.00064445  0.33382328  1
  Cs  Cs20  1  0.66747647  -0.00189123  0.66755224  1
  Cs  Cs21  1  0.66887166  0.34364869  0.00083065  1
  Cs  Cs22  1  0.66788345  0.33233889  0.33158559  1
  Cs  Cs23  1  0.66525717  0.33514909  0.66687466  1
  Cs  Cs24  1  0.66594631  0.66136402  -0.00146059  1
  Cs  Cs25  1  0.66483980  0.66877938  0.33624763  1
  Cs  Cs26  1  0.66717982  0.66814025  0.66539498  1
  Sn  Sn27  1  0.83405894  0.83426109  0.83449893  1
  Sn  Sn28  1  0.83238691  0.83374160  0.16568582  1
  Sn  Sn29  1  0.50085861  0.83446625  0.16718209  1
  Sn  Sn30  1  0.49909167  0.83385748  0.49932919  1
  Sn  Sn31  1  0.16576833  0.16568445  0.83362728  1
  Sn  Sn32  1  0.50087016  0.49990424  0.49979409  1
  Sn  Sn33  1  0.16700862  0.16529108  0.49962348  1
  Sn  Sn34  1  0.16716870  0.16644577  0.16658057  1
  Sn  Sn35  1  0.16752882  0.83469387  0.50091363  1
  Sn  Sn36  1  0.83356916  0.16584035  0.83323240  1
  Sn  Sn37  1  0.49967947  0.16556117  0.16718740  1
  Sn  Sn38  1  0.16624873  0.83386042  0.83284123  1
  Sn  Sn39  1  0.49978683  0.16618916  0.49929398  1
  Sn  Sn40  1  0.83312156  0.49996430  0.49973884  1
  Pb  Pb41  1  0.83344722  0.50067243  0.83110999  1
  Pb  Pb42  1  0.83259070  0.16485903  0.16422136  1
  Pb  Pb43  1  0.83383193  0.83206830  0.50019249  1
  Pb  Pb44  1  0.49995436  0.16661416  0.83381328  1
  Pb  Pb45  1  0.83329991  0.50363996  0.16966970  1
  Pb  Pb46  1  0.16696292  0.49987268  0.49991814  1
  Pb  Pb47  1  0.83334876  0.16826579  0.50210193  1
  Pb  Pb48  1  0.16672730  0.50019913  0.83336955  1
  Pb  Pb49  1  0.49940400  0.83330942  0.83383449  1
  Pb  Pb50  1  0.16677641  0.49566716  0.16684886  1
  Pb  Pb51  1  0.16718457  0.83488014  0.16640664  1
  Pb  Pb52  1  0.49993727  0.49978073  0.16937327  1
  Pb  Pb53  1  0.49971884  0.50010293  0.83015735  1
  I  I54  1  0.16820809  0.00304580  0.16703086  1
  I  I55  1  0.17408624  0.00039558  0.50149787  1
  I  I56  1  0.16184423  0.00049385  0.83112545  1
  I  I57  1  0.17332049  0.32717802  0.16847212  1
  I  I58  1  0.16993887  0.32971219  0.50100664  1
  I  I59  1  0.16294671  0.32924442  0.83138699  1
  I  I60  1  0.16653800  0.66710709  0.16710810  1
  I  I61  1  0.16891416  0.67003241  0.50466808  1
  I  I62  1  0.16228546  0.67065670  0.82659633  1
  I  I63  1  0.50012562  0.00001535  0.17576526  1
  I  I64  1  0.49487195  -0.00003432  0.49601116  1
  I  I65  1  0.50168136  0.00000051  0.82781265  1
  I  I66  1  0.49442645  0.32980241  0.17006018  1
  I  I67  1  0.49935191  0.33195001  0.49710872  1
  I  I68  1  0.50025390  0.33286146  0.83376827  1
  I  I69  1  0.50391824  0.66999578  0.16999038  1
  I  I70  1  0.50020798  0.66803453  0.49700025  1
  I  I71  1  0.50035960  0.66715268  0.83340037  1
  I  I72  1  0.83162674  -0.00310575  0.16752549  1
  I  I73  1  0.83099686  -0.00006316  0.49900438  1
  I  I74  1  0.83798539  -0.00085363  0.83486925  1
  I  I75  1  0.83379546  0.33320396  0.16506068  1
  I  I76  1  0.82908226  0.33594050  0.50247158  1
  I  I77  1  0.83813442  0.33061001  0.83145460  1
  I  I78  1  0.82736570  0.67166672  0.15943250  1
  I  I79  1  0.82813078  0.66445396  0.50159548  1
  I  I80  1  0.83764543  0.67034990  0.83593472  1
  I  I81  1  0.16754880  0.16101195  -0.00050249  1
  I  I82  1  0.17190896  0.16302948  0.33430091  1
  I  I83  1  0.16733923  0.16371374  0.66611911  1
  I  I84  1  0.16620692  0.50276600  0.00003851  1
  I  I85  1  0.16534031  0.50314434  0.33379409  1
  I  I86  1  0.16774304  0.49569321  0.66635896  1
  I  I87  1  0.16524036  0.83878838  -0.00254382  1
  I  I88  1  0.16675561  0.83613884  0.33596753  1
  I  I89  1  0.16642241  0.84038138  0.66599146  1
  I  I90  1  0.49590392  0.15988099  0.00328882  1
  I  I91  1  0.49236296  0.16660895  0.33438107  1
  I  I92  1  0.49703703  0.16646085  0.66334913  1
  I  I93  1  0.49980141  0.49970333  0.00057057  1
  I  I94  1  0.50367858  0.50004063  0.33737558  1
  I  I95  1  0.50381013  0.49997967  0.66150607  1
  I  I96  1  0.50067013  0.83997536  0.00324541  1
  I  I97  1  0.50054710  0.83345577  0.33442115  1
  I  I98  1  0.49971814  0.83390853  0.66331877  1
  I  I99  1  0.83802783  0.16453489  -0.00360035  1
  I  I100  1  0.83647458  0.16699694  0.33328403  1
  I  I101  1  0.83697884  0.16027250  0.66986371  1
  I  I102  1  0.83360120  0.49771416  0.00003657  1
  I  I103  1  0.82872598  0.49897364  0.33718880  1
  I  I104  1  0.82780184  0.50247307  0.66361227  1
  I  I105  1  0.83371508  0.83840318  -0.00072521  1
  I  I106  1  0.83205865  0.83112508  0.33142473  1
  I  I107  1  0.83416708  0.83525706  0.66911992  1
  I  I108  1  0.00263049  0.16463687  0.17051961  1
  I  I109  1  0.00327127  0.16351280  0.49768502  1
  I  I110  1  0.00125529  0.16249126  0.83219977  1
  I  I111  1  -0.00023911  0.50080325  0.17058548  1
  I  I112  1  -0.00208382  0.50071753  0.50153840  1
  I  I113  1  -0.00006250  0.49899088  0.82847901  1
  I  I114  1  -0.00174782  0.83466727  0.16697139  1
  I  I115  1  0.00288609  0.83609543  0.50023076  1
  I  I116  1  0.00031928  0.83799763  0.83209234  1
  I  I117  1  0.33370298  0.16017266  0.16637901  1
  I  I118  1  0.33333787  0.16861473  0.50182763  1
  I  I119  1  0.33001196  0.16175674  0.83226419  1
  I  I120  1  0.33357364  0.50693435  0.16844504  1
  I  I121  1  0.33639239  0.49977968  0.49949792  1
  I  I122  1  0.33313965  0.49991106  0.83169533  1
  I  I123  1  0.33608469  0.83538306  0.16859171  1
  I  I124  1  0.33376039  0.83158465  0.50014335  1
  I  I125  1  0.32999003  0.83950884  0.83070294  1
  I  I126  1  0.66353596  0.16409348  0.17217105  1
  I  I127  1  0.66345327  0.16431092  0.49678031  1
  I  I128  1  0.66935665  0.16168556  0.83141289  1
  I  I129  1  0.66664128  0.49439927  0.16532310  1
  I  I130  1  0.66521004  0.50078941  0.50057432  1
  I  I131  1  0.66687657  0.49876817  0.83402303  1
  I  I132  1  0.66546927  0.83957171  0.16847843  1
  I  I133  1  0.66392294  0.83521064  0.49937525  1
  I  I134  1  0.66939188  0.83763701  0.83281332  1
