# generated using pymatgen
data_Cs27Sn14Pb13I81
_symmetry_space_group_name_H-M   'P 1'
_cell_length_a   18.97523509
_cell_length_b   18.97436791
_cell_length_c   18.97793996
_cell_angle_alpha   89.99984281
_cell_angle_beta   90.00062831
_cell_angle_gamma   90.00130069
_symmetry_Int_Tables_number   1
_chemical_formula_structural   Cs27Sn14Pb13I81
_chemical_formula_sum   'Cs27 Sn14 Pb13 I81'
_cell_volume   6832.87617644
_cell_formula_units_Z   1
loop_
 _symmetry_equiv_pos_site_id
 _symmetry_equiv_pos_as_xyz
  1  'x, y, z'
loop_
 _atom_site_type_symbol
 _atom_site_label
 _atom_site_symmetry_multiplicity
 _atom_site_fract_x
 _atom_site_fract_y
 _atom_site_fract_z
 _atom_site_occupancy
  Cs  Cs0  1  0.00044821  0.00077382  -0.00069690  1
  Cs  Cs1  1  -0.00049895  0.00143544  0.33538932  1
  Cs  Cs2  1  -0.00069683  -0.00204732  0.66524427  1
  Cs  Cs3  1  -0.00001180  0.33484830  0.00117267  1
  Cs  Cs4  1  -0.00169835  0.33205597  0.33274650  1
  Cs  Cs5  1  -0.00063379  0.33391943  0.66617359  1
  Cs  Cs6  1  0.00232192  0.66278945  0.00019519  1
  Cs  Cs7  1  -0.00144596  0.66951099  0.33554014  1
  Cs  Cs8  1  0.00060283  0.66677607  0.66516376  1
  Cs  Cs9  1  0.33253866  -0.00078561  0.00094793  1
  Cs  Cs10  1  0.33326070  0.00377548  0.33059501  1
  Cs  Cs11  1  0.33414127  0.00184491  0.66887099  1
  Cs  Cs12  1  0.33262151  0.33427398  0.00056566  1
  Cs  Cs13  1  0.33428842  0.33207899  0.33332391  1
  Cs  Cs14  1  0.33465301  0.33382631  0.66612121  1
  Cs  Cs15  1  0.33123835  0.66494881  0.00050047  1
  Cs  Cs16  1  0.33529095  0.66679728  0.33908650  1
  Cs  Cs17  1  0.33410276  0.66426136  0.65881269  1
  Cs  Cs18  1  0.67171977  -0.00827163  -0.00859038  1
  Cs  Cs19  1  0.66642642  -0.00610742  0.33145968  1
  Cs  Cs20  1  0.66792896  -0.00543726  0.67638484  1
  Cs  Cs21  1  0.66788319  0.33362608  -0.00054859  1
  Cs  Cs22  1  0.66675104  0.33329237  0.33342150  1
  Cs  Cs23  1  0.66706297  0.33299008  0.66675137  1
  Cs  Cs24  1  0.66635471  0.66976084  0.00309753  1
  Cs  Cs25  1  0.66574787  0.67650882  0.33187943  1
  Cs  Cs26  1  0.66588746  0.67023357  0.66456108  1
  Sn  Sn27  1  0.16705922  0.50005021  0.83347014  1
  Sn  Sn28  1  0.16758671  0.50011521  0.16660775  1
  Sn  Sn29  1  0.16663789  0.16691350  0.83356703  1
  Sn  Sn30  1  0.83260209  0.16739200  0.49991360  1
  Sn  Sn31  1  0.49911673  0.49897617  0.16618597  1
  Sn  Sn32  1  0.50072884  0.16691538  0.49957281  1
  Sn  Sn33  1  0.16695930  0.83310547  0.16622459  1
  Sn  Sn34  1  0.83309189  0.49929554  0.50034061  1
  Sn  Sn35  1  0.16677507  0.16729920  0.49996679  1
  Sn  Sn36  1  0.49992072  0.16721192  0.16652208  1
  Sn  Sn37  1  0.16717190  0.16693446  0.16655341  1
  Sn  Sn38  1  0.49974638  0.49964761  0.83400336  1
  Sn  Sn39  1  0.83324798  0.49957380  0.83247884  1
  Sn  Sn40  1  0.16700888  0.83280267  0.83389378  1
  Pb  Pb41  1  0.49828020  0.16837556  0.83425650  1
  Pb  Pb42  1  0.83633764  0.82984812  0.83340628  1
  Pb  Pb43  1  0.83586107  0.16868901  0.83131968  1
  Pb  Pb44  1  0.83342240  0.83366250  0.50021176  1
  Pb  Pb45  1  0.83285823  0.49987221  0.16690200  1
  Pb  Pb46  1  0.83669530  0.83348914  0.16635903  1
  Pb  Pb47  1  0.49971290  0.83747586  0.50011060  1
  Pb  Pb48  1  0.16510892  0.49788988  0.49944621  1
  Pb  Pb49  1  0.49676807  0.82972677  0.83353953  1
  Pb  Pb50  1  0.49739435  0.83359162  0.16638458  1
  Pb  Pb51  1  0.50257294  0.49826702  0.49923787  1
  Pb  Pb52  1  0.16694245  0.83637951  0.49996074  1
  Pb  Pb53  1  0.83252055  0.16660692  0.16848293  1
  I  I54  1  0.16976148  0.00136607  0.16457283  1
  I  I55  1  0.16398775  0.00499129  0.49994616  1
  I  I56  1  0.16671557  0.00087646  0.83551125  1
  I  I57  1  0.16970277  0.33322496  0.16405955  1
  I  I58  1  0.16813717  0.32951247  0.50032466  1
  I  I59  1  0.16633231  0.33405174  0.83536922  1
  I  I60  1  0.16906767  0.66543116  0.15805338  1
  I  I61  1  0.16349105  0.66647375  0.49993283  1
  I  I62  1  0.16550628  0.66518722  0.84121914  1
  I  I63  1  0.49389353  0.00355664  0.17429437  1
  I  I64  1  0.49988983  0.00585360  0.49270740  1
  I  I65  1  0.49860021  0.00004650  0.83189635  1
  I  I66  1  0.49096520  0.33338080  0.16716486  1
  I  I67  1  0.49633479  0.33020083  0.49891483  1
  I  I68  1  0.49642729  0.33665140  0.83367288  1
  I  I69  1  0.49685993  0.66326274  0.16196183  1
  I  I70  1  0.50192800  0.66636277  0.49984875  1
  I  I71  1  0.49910969  0.66139125  0.83964795  1
  I  I72  1  0.83393937  0.00027319  0.17004970  1
  I  I73  1  0.83588877  0.00376114  0.49755659  1
  I  I74  1  0.83428602  -0.00007774  0.83172326  1
  I  I75  1  0.83957947  0.33342709  0.16523068  1
  I  I76  1  0.83505618  0.33265022  0.50403819  1
  I  I77  1  0.83707516  0.33691047  0.83180996  1
  I  I78  1  0.83314551  0.66625174  0.16981205  1
  I  I79  1  0.83518734  0.66345321  0.50420819  1
  I  I80  1  0.83569962  0.66171077  0.82659995  1
  I  I81  1  0.17115146  0.16693299  0.00048982  1
  I  I82  1  0.16660380  0.16678326  0.33270933  1
  I  I83  1  0.16638439  0.16733579  0.66681307  1
  I  I84  1  0.16458894  0.49635236  -0.00054901  1
  I  I85  1  0.16966469  0.49987043  0.33000675  1
  I  I86  1  0.16862577  0.49994352  0.66974587  1
  I  I87  1  0.16654783  0.83727106  0.00003476  1
  I  I88  1  0.16672416  0.83258791  0.33008584  1
  I  I89  1  0.16565302  0.83243130  0.66987172  1
  I  I90  1  0.49238864  0.17008185  0.00324395  1
  I  I91  1  0.49339953  0.17333904  0.33274266  1
  I  I92  1  0.49740317  0.16907530  0.66443749  1
  I  I93  1  0.49976503  0.49354486  0.00038751  1
  I  I94  1  0.49470156  0.49732100  0.33019367  1
  I  I95  1  0.49610282  0.49856467  0.66913448  1
  I  I96  1  0.50229374  0.83927132  -0.00003279  1
  I  I97  1  0.49759089  0.82739413  0.33308067  1
  I  I98  1  0.49707414  0.83287391  0.66696176  1
  I  I99  1  0.83453810  0.16826694  -0.00025174  1
  I  I100  1  0.84027201  0.17467426  0.33692729  1
  I  I101  1  0.83376821  0.16955934  0.66300302  1
  I  I102  1  0.83561756  0.50070808  -0.00286015  1
  I  I103  1  0.83551296  0.49454248  0.33610144  1
  I  I104  1  0.83532817  0.49492380  0.66739684  1
  I  I105  1  0.83105999  0.83266464  -0.00037816  1
  I  I106  1  0.83586668  0.83013811  0.33346599  1
  I  I107  1  0.83706816  0.83548639  0.66690171  1
  I  I108  1  0.00373972  0.16768401  0.16697432  1
  I  I109  1  0.00083328  0.17039545  0.50028731  1
  I  I110  1  0.00472471  0.16900027  0.83477670  1
  I  I111  1  0.00345557  0.49902171  0.16323746  1
  I  I112  1  -0.00266712  0.49341554  0.50399503  1
  I  I113  1  0.00170883  0.49988324  0.83352782  1
  I  I114  1  0.00538359  0.83280194  0.16301930  1
  I  I115  1  0.00038637  0.83578292  0.49898895  1
  I  I116  1  0.00449176  0.83284943  0.83735639  1
  I  I117  1  0.33166858  0.16763731  0.17175999  1
  I  I118  1  0.33271072  0.16619795  0.49881171  1
  I  I119  1  0.32940059  0.16896013  0.82856877  1
  I  I120  1  0.33206520  0.49844681  0.15870476  1
  I  I121  1  0.33348522  0.49891855  0.50301571  1
  I  I122  1  0.33196635  0.49945810  0.83842834  1
  I  I123  1  0.32921685  0.83440375  0.16163352  1
  I  I124  1  0.33291177  0.83138251  0.50100991  1
  I  I125  1  0.32868831  0.83367389  0.83817214  1
  I  I126  1  0.66282072  0.17475708  0.17290570  1
  I  I127  1  0.66636058  0.17347189  0.49374091  1
  I  I128  1  0.66667866  0.16902631  0.83278914  1
  I  I129  1  0.66320938  0.49328742  0.16338553  1
  I  I130  1  0.67010484  0.49232978  0.50481343  1
  I  I131  1  0.66639951  0.49697746  0.83331162  1
  I  I132  1  0.66624625  0.83286078  0.16867851  1
  I  I133  1  0.66670267  0.83360988  0.49917332  1
  I  I134  1  0.66662976  0.83385904  0.83205522  1
