# generated using pymatgen
data_Cs27Sn14Pb13I81
_symmetry_space_group_name_H-M   'P 1'
_cell_length_a   18.98384045
_cell_length_b   18.96926680
_cell_length_c   18.97500397
_cell_angle_alpha   89.99984413
_cell_angle_beta   89.99903982
_cell_angle_gamma   89.99779945
_symmetry_Int_Tables_number   1
_chemical_formula_structural   Cs27Sn14Pb13I81
_chemical_formula_sum   'Cs27 Sn14 Pb13 I81'
_cell_volume   6833.07983736
_cell_formula_units_Z   1
loop_
 _symmetry_equiv_pos_site_id
 _symmetry_equiv_pos_as_xyz
  1  'x, y, z'
loop_
 _atom_site_type_symbol
 _atom_site_label
 _atom_site_symmetry_multiplicity
 _atom_site_fract_x
 _atom_site_fract_y
 _atom_site_fract_z
 _atom_site_occupancy
  Cs  Cs0  1  0.00010522  -0.00200617  -0.00014805  1
  Cs  Cs1  1  -0.00057522  -0.00213939  0.33014622  1
  Cs  Cs2  1  -0.00317319  0.00150991  0.66845336  1
  Cs  Cs3  1  -0.00043461  0.33295152  0.00135142  1
  Cs  Cs4  1  -0.00176908  0.33282369  0.33382365  1
  Cs  Cs5  1  -0.00329383  0.33666677  0.66305575  1
  Cs  Cs6  1  0.00161708  0.67041206  -0.00106024  1
  Cs  Cs7  1  0.00300966  0.67080325  0.33162002  1
  Cs  Cs8  1  0.00780965  0.65999732  0.66718948  1
  Cs  Cs9  1  0.33384205  0.00261629  -0.00128841  1
  Cs  Cs10  1  0.33209423  0.00063253  0.33506006  1
  Cs  Cs11  1  0.33363402  -0.00028097  0.66687733  1
  Cs  Cs12  1  0.33524175  0.33135038  0.00245621  1
  Cs  Cs13  1  0.33267978  0.33122879  0.32938577  1
  Cs  Cs14  1  0.33320246  0.33437053  0.66724541  1
  Cs  Cs15  1  0.33337822  0.66549063  -0.00335239  1
  Cs  Cs16  1  0.33453930  0.66689402  0.34308898  1
  Cs  Cs17  1  0.32493595  0.66106273  0.65724174  1
  Cs  Cs18  1  0.66658499  -0.00030987  -0.00176248  1
  Cs  Cs19  1  0.66696611  -0.00076256  0.33481513  1
  Cs  Cs20  1  0.66784657  0.00086365  0.66844282  1
  Cs  Cs21  1  0.66537718  0.33327918  0.00036106  1
  Cs  Cs22  1  0.66874146  0.33213344  0.33231718  1
  Cs  Cs23  1  0.67032502  0.33717697  0.66584772  1
  Cs  Cs24  1  0.66760763  0.66793970  0.00135557  1
  Cs  Cs25  1  0.66445657  0.66966872  0.33180460  1
  Cs  Cs26  1  0.66550440  0.66237330  0.66534009  1
  Sn  Sn27  1  0.83234617  0.83370251  0.83187119  1
  Sn  Sn28  1  0.16716032  0.16635927  0.50086102  1
  Sn  Sn29  1  0.83319799  0.16627520  0.83426434  1
  Sn  Sn30  1  0.49978988  0.83382432  0.16591557  1
  Sn  Sn31  1  0.83244447  0.16705838  0.16574831  1
  Sn  Sn32  1  0.83347871  0.49948754  0.16630230  1
  Sn  Sn33  1  0.16677522  0.50015994  0.16628801  1
  Sn  Sn34  1  0.50098330  0.16615884  0.16680451  1
  Sn  Sn35  1  0.50033010  0.16618662  0.83288818  1
  Sn  Sn36  1  0.49950435  0.16658824  0.50038554  1
  Sn  Sn37  1  0.49992067  0.50026473  0.16639696  1
  Sn  Sn38  1  0.83321079  0.83323407  0.50179848  1
  Sn  Sn39  1  0.50040086  0.83349581  0.83335672  1
  Sn  Sn40  1  0.16647512  0.16662488  0.83246378  1
  Pb  Pb41  1  0.83322767  0.50042420  0.83551444  1
  Pb  Pb42  1  0.83167849  0.83373581  0.16580036  1
  Pb  Pb43  1  0.83326883  0.50349116  0.49693896  1
  Pb  Pb44  1  0.16638327  0.16758662  0.16646429  1
  Pb  Pb45  1  0.50032677  0.49680534  0.49738522  1
  Pb  Pb46  1  0.50138077  0.83546807  0.50120151  1
  Pb  Pb47  1  0.49995904  0.50048206  0.83497859  1
  Pb  Pb48  1  0.16655091  0.49681536  0.49735810  1
  Pb  Pb49  1  0.17074258  0.83050210  0.16650720  1
  Pb  Pb50  1  0.16727115  0.83534572  0.83332431  1
  Pb  Pb51  1  0.83313660  0.16552899  0.49997882  1
  Pb  Pb52  1  0.16676416  0.49686219  0.83562363  1
  Pb  Pb53  1  0.16380590  0.83628169  0.50027156  1
  I  I54  1  0.16562503  0.00011537  0.16744020  1
  I  I55  1  0.17202696  0.00415363  0.50123568  1
  I  I56  1  0.16695065  0.00408417  0.83223610  1
  I  I57  1  0.17109982  0.33543283  0.16626081  1
  I  I58  1  0.16963034  0.32901151  0.50423090  1
  I  I59  1  0.16740296  0.32824948  0.83013959  1
  I  I60  1  0.16250553  0.66247976  0.16609466  1
  I  I61  1  0.16609223  0.66653328  0.49843459  1
  I  I62  1  0.16606694  0.66659277  0.83530530  1
  I  I63  1  0.50563590  0.00146066  0.16604549  1
  I  I64  1  0.49698442  0.00371002  0.49376008  1
  I  I65  1  0.50068470  0.00158315  0.83918654  1
  I  I66  1  0.50019878  0.33210109  0.16686818  1
  I  I67  1  0.49762506  0.32826918  0.50087376  1
  I  I68  1  0.50040419  0.32944009  0.83472553  1
  I  I69  1  0.50162120  0.66682733  0.16098440  1
  I  I70  1  0.50159416  0.66682356  0.49844874  1
  I  I71  1  0.50713181  0.67031945  0.84096898  1
  I  I72  1  0.82909549  0.00298627  0.16633525  1
  I  I73  1  0.83286698  -0.00205132  0.49790493  1
  I  I74  1  0.83263614  0.00149875  0.83620902  1
  I  I75  1  0.82863260  0.33183346  0.16213308  1
  I  I76  1  0.83377360  0.33320877  0.50116731  1
  I  I77  1  0.83210808  0.32970802  0.83592922  1
  I  I78  1  0.83172499  0.66441184  0.16767515  1
  I  I79  1  0.83095825  0.67119589  0.50487598  1
  I  I80  1  0.82709784  0.67023397  0.83206507  1
  I  I81  1  0.16888615  0.16849638  -0.00254998  1
  I  I82  1  0.17017163  0.16908133  0.33519008  1
  I  I83  1  0.17038433  0.16515820  0.66743303  1
  I  I84  1  0.16728223  0.49676929  0.00377229  1
  I  I85  1  0.16747865  0.49664078  0.32935864  1
  I  I86  1  0.16669658  0.50159957  0.66650019  1
  I  I87  1  0.16091009  0.83593427  0.00003017  1
  I  I88  1  0.16462267  0.83641534  0.33326106  1
  I  I89  1  0.17153901  0.83114937  0.66681758  1
  I  I90  1  0.50000022  0.16701536  0.00035695  1
  I  I91  1  0.49978329  0.16748744  0.33179378  1
  I  I92  1  0.49923208  0.16030152  0.66793402  1
  I  I93  1  0.50068383  0.49424412  0.00400640  1
  I  I94  1  0.50030362  0.50101959  0.32837578  1
  I  I95  1  0.49954556  0.50000873  0.66652389  1
  I  I96  1  0.50619148  0.83825914  -0.00001350  1
  I  I97  1  0.50247027  0.83373482  0.33083757  1
  I  I98  1  0.50369665  0.84156224  0.67017282  1
  I  I99  1  0.83102887  0.16514862  -0.00008601  1
  I  I100  1  0.83055541  0.16858266  0.33053327  1
  I  I101  1  0.83121310  0.16342829  0.66964490  1
  I  I102  1  0.83170240  0.49915309  0.00401726  1
  I  I103  1  0.83213443  0.49278579  0.32852712  1
  I  I104  1  0.83395464  0.49655446  0.66669501  1
  I  I105  1  0.83108856  0.83497446  -0.00276356  1
  I  I106  1  0.83174104  0.83400762  0.33446811  1
  I  I107  1  0.82669365  0.84330542  0.66860383  1
  I  I108  1  -0.00288350  0.17109266  0.16474928  1
  I  I109  1  0.00200804  0.16509382  0.50215212  1
  I  I110  1  -0.00111225  0.16285348  0.83465782  1
  I  I111  1  -0.00089914  0.49238551  0.16665593  1
  I  I112  1  -0.00010294  0.49706403  0.49648029  1
  I  I113  1  -0.00011538  0.50002992  0.83795662  1
  I  I114  1  -0.00006883  0.83334355  0.16721096  1
  I  I115  1  -0.00407665  0.83629901  0.50360501  1
  I  I116  1  -0.00318329  0.83837254  0.83117159  1
  I  I117  1  0.33648225  0.16786534  0.16464845  1
  I  I118  1  0.33436583  0.16624461  0.50102927  1
  I  I119  1  0.33477230  0.16354500  0.83454528  1
  I  I120  1  0.33461288  0.49712253  0.16561067  1
  I  I121  1  0.33347053  0.50324210  0.49694121  1
  I  I122  1  0.33344976  0.49933739  0.83852094  1
  I  I123  1  0.33884345  0.83761119  0.16072658  1
  I  I124  1  0.33344154  0.83242411  0.49857149  1
  I  I125  1  0.33711737  0.83919087  0.84072082  1
  I  I126  1  0.66570424  0.17115617  0.16487112  1
  I  I127  1  0.66406522  0.16468340  0.49974650  1
  I  I128  1  0.66635376  0.16252969  0.83533512  1
  I  I129  1  0.66621751  0.49779566  0.16642070  1
  I  I130  1  0.66677584  0.49623424  0.49744789  1
  I  I131  1  0.66662865  0.49481075  0.83629457  1
  I  I132  1  0.66364572  0.83026946  0.16614022  1
  I  I133  1  0.66909230  0.83794142  0.49926691  1
  I  I134  1  0.66646230  0.84293463  0.83518753  1
