# generated using pymatgen
data_Cs27Sn14Pb13I81
_symmetry_space_group_name_H-M   'P 1'
_cell_length_a   18.98197608
_cell_length_b   18.96959831
_cell_length_c   18.97753176
_cell_angle_alpha   89.99991445
_cell_angle_beta   90.00119963
_cell_angle_gamma   90.00031424
_symmetry_Int_Tables_number   1
_chemical_formula_structural   Cs27Sn14Pb13I81
_chemical_formula_sum   'Cs27 Sn14 Pb13 I81'
_cell_volume   6833.43838948
_cell_formula_units_Z   1
loop_
 _symmetry_equiv_pos_site_id
 _symmetry_equiv_pos_as_xyz
  1  'x, y, z'
loop_
 _atom_site_type_symbol
 _atom_site_label
 _atom_site_symmetry_multiplicity
 _atom_site_fract_x
 _atom_site_fract_y
 _atom_site_fract_z
 _atom_site_occupancy
  Cs  Cs0  1  -0.00406397  0.00483624  0.00054867  1
  Cs  Cs1  1  0.00310046  0.00252856  0.33122724  1
  Cs  Cs2  1  -0.00395471  -0.00053440  0.66721413  1
  Cs  Cs3  1  0.00119982  0.32776323  -0.00245499  1
  Cs  Cs4  1  -0.00070364  0.33281444  0.33581914  1
  Cs  Cs5  1  0.00269037  0.33540615  0.66405423  1
  Cs  Cs6  1  0.00021070  0.66703465  0.00124868  1
  Cs  Cs7  1  0.00004182  0.66595677  0.33287318  1
  Cs  Cs8  1  -0.00236397  0.66502207  0.66684517  1
  Cs  Cs9  1  0.33199427  -0.00154600  -0.00029144  1
  Cs  Cs10  1  0.33208076  -0.00031485  0.33611553  1
  Cs  Cs11  1  0.33789864  -0.00026309  0.66373320  1
  Cs  Cs12  1  0.33411909  0.32686953  -0.00195488  1
  Cs  Cs13  1  0.33596834  0.33458335  0.33206708  1
  Cs  Cs14  1  0.33220156  0.33409709  0.66934776  1
  Cs  Cs15  1  0.33447908  0.66625434  -0.00005343  1
  Cs  Cs16  1  0.33219648  0.66733464  0.33123411  1
  Cs  Cs17  1  0.33265904  0.66555002  0.66922857  1
  Cs  Cs18  1  0.67198169  0.00424949  -0.00404986  1
  Cs  Cs19  1  0.66260234  0.00163647  0.33727255  1
  Cs  Cs20  1  0.66552311  0.00005175  0.66685356  1
  Cs  Cs21  1  0.66521046  0.32998750  0.00290188  1
  Cs  Cs22  1  0.66431164  0.33411142  0.32998294  1
  Cs  Cs23  1  0.66498683  0.33500283  0.66652300  1
  Cs  Cs24  1  0.66513857  0.66556298  0.00042672  1
  Cs  Cs25  1  0.66846958  0.66561218  0.33313232  1
  Cs  Cs26  1  0.66929139  0.66645828  0.66650678  1
  Sn  Sn27  1  0.83266925  0.50026186  0.83467869  1
  Sn  Sn28  1  0.50078657  0.50082923  0.83290357  1
  Sn  Sn29  1  0.83369031  0.16671211  0.49990779  1
  Sn  Sn30  1  0.16602519  0.16680588  0.49998589  1
  Sn  Sn31  1  0.16696315  0.83296945  0.83355693  1
  Sn  Sn32  1  0.83456192  0.50063967  0.16546390  1
  Sn  Sn33  1  0.16756655  0.50024137  0.49912298  1
  Sn  Sn34  1  0.16588909  0.50038916  0.16694898  1
  Sn  Sn35  1  0.50008250  0.83301474  0.16582770  1
  Sn  Sn36  1  0.83338282  0.83272541  0.16686015  1
  Sn  Sn37  1  0.49898208  0.50074230  0.50073126  1
  Sn  Sn38  1  0.16645694  0.83303386  0.50031917  1
  Sn  Sn39  1  0.16647497  0.83239216  0.16616724  1
  Sn  Sn40  1  0.49945898  0.83224553  0.83418823  1
  Pb  Pb41  1  0.16671619  0.16289168  0.83030431  1
  Pb  Pb42  1  0.49985129  0.16249565  0.16658032  1
  Pb  Pb43  1  0.49993436  0.16631077  0.83331677  1
  Pb  Pb44  1  0.49958730  0.50142300  0.16608917  1
  Pb  Pb45  1  0.49945351  0.16972420  0.50006465  1
  Pb  Pb46  1  0.83317026  0.83151439  0.83537636  1
  Pb  Pb47  1  0.83580553  0.83526875  0.49738337  1
  Pb  Pb48  1  0.83343425  0.16709469  0.16879201  1
  Pb  Pb49  1  0.16684667  0.16692416  0.16863158  1
  Pb  Pb50  1  0.49813260  0.83094656  0.50029205  1
  Pb  Pb51  1  0.83352019  0.49876044  0.49946232  1
  Pb  Pb52  1  0.16683155  0.50151152  0.83401355  1
  Pb  Pb53  1  0.83339630  0.17020879  0.83062972  1
  I  I54  1  0.16663440  -0.00386639  0.16753464  1
  I  I55  1  0.16193429  -0.00098784  0.49926935  1
  I  I56  1  0.17249258  -0.00554743  0.83582448  1
  I  I57  1  0.16156441  0.33702619  0.17149423  1
  I  I58  1  0.16589494  0.33471727  0.49517337  1
  I  I59  1  0.16692648  0.33344175  0.83325960  1
  I  I60  1  0.16567272  0.66757015  0.17244244  1
  I  I61  1  0.17166459  0.66641018  0.49811334  1
  I  I62  1  0.16807435  0.66970843  0.82919256  1
  I  I63  1  0.49876645  -0.00608823  0.16207830  1
  I  I64  1  0.49928894  -0.00027375  0.49947784  1
  I  I65  1  0.49491141  -0.00402445  0.83751624  1
  I  I66  1  0.50042053  0.33373119  0.16743761  1
  I  I67  1  0.49459141  0.33781704  0.50530887  1
  I  I68  1  0.50353189  0.33698841  0.82838647  1
  I  I69  1  0.49857191  0.66961300  0.16585677  1
  I  I70  1  0.49517025  0.66305701  0.50128596  1
  I  I71  1  0.49915903  0.66682326  0.83306046  1
  I  I72  1  0.83475006  -0.00321885  0.16817961  1
  I  I73  1  0.83903547  0.00299866  0.49810745  1
  I  I74  1  0.83320650  -0.00016125  0.83421232  1
  I  I75  1  0.83820698  0.33708547  0.16448655  1
  I  I76  1  0.84014243  0.33121491  0.49919319  1
  I  I77  1  0.82763236  0.33831929  0.84051276  1
  I  I78  1  0.83521519  0.66633323  0.16449704  1
  I  I79  1  0.83383192  0.66656635  0.50137287  1
  I  I80  1  0.83217082  0.66352651  0.83259013  1
  I  I81  1  0.16732301  0.16769334  -0.00014138  1
  I  I82  1  0.16286631  0.16221635  0.33685849  1
  I  I83  1  0.16271410  0.16995574  0.66209956  1
  I  I84  1  0.16568135  0.50680526  0.00289721  1
  I  I85  1  0.16631886  0.50451220  0.33379911  1
  I  I86  1  0.16694441  0.50082461  0.66406193  1
  I  I87  1  0.16840035  0.82659526  0.00114124  1
  I  I88  1  0.16669470  0.83314953  0.33290769  1
  I  I89  1  0.17213882  0.83319764  0.66636655  1
  I  I90  1  0.50048560  0.17331080  -0.00010950  1
  I  I91  1  0.50059468  0.16741583  0.33370315  1
  I  I92  1  0.50013143  0.16170744  0.66640424  1
  I  I93  1  0.50104161  0.50363990  -0.00263498  1
  I  I94  1  0.49892927  0.50075518  0.33518540  1
  I  I95  1  0.50029961  0.50518399  0.66722652  1
  I  I96  1  0.49366026  0.82620265  -0.00023556  1
  I  I97  1  0.49907206  0.83169616  0.33071816  1
  I  I98  1  0.49448841  0.83144258  0.66948489  1
  I  I99  1  0.83237769  0.16476348  0.00002731  1
  I  I100  1  0.83915319  0.16880812  0.33633629  1
  I  I101  1  0.83923687  0.16719213  0.66297150  1
  I  I102  1  0.83350740  0.50528828  0.00096958  1
  I  I103  1  0.83419812  0.50267247  0.33055697  1
  I  I104  1  0.83247660  0.49793344  0.66849565  1
  I  I105  1  0.83841850  0.83172278  0.00350893  1
  I  I106  1  0.83240091  0.82568325  0.32919694  1
  I  I107  1  0.83389686  0.83305035  0.66667375  1
  I  I108  1  0.00017040  0.16189861  0.16625140  1
  I  I109  1  0.00163491  0.16911556  0.49894310  1
  I  I110  1  0.00007433  0.16653233  0.83459577  1
  I  I111  1  0.00056914  0.50854561  0.16823375  1
  I  I112  1  0.00308077  0.50167401  0.49954120  1
  I  I113  1  -0.00186293  0.50209656  0.83308159  1
  I  I114  1  0.00111445  0.82898591  0.16800931  1
  I  I115  1  0.00447595  0.82725804  0.50114247  1
  I  I116  1  0.00275196  0.83133600  0.83268453  1
  I  I117  1  0.33313101  0.16919493  0.17002134  1
  I  I118  1  0.32990728  0.16359589  0.49939385  1
  I  I119  1  0.33315125  0.17238868  0.83091797  1
  I  I120  1  0.33045925  0.50497859  0.16946200  1
  I  I121  1  0.33168553  0.49864422  0.49965699  1
  I  I122  1  0.33574744  0.50306138  0.83122053  1
  I  I123  1  0.33209512  0.82914971  0.16669132  1
  I  I124  1  0.32962886  0.83766564  0.49542392  1
  I  I125  1  0.33329625  0.82724528  0.83740836  1
  I  I126  1  0.66683869  0.16838396  0.17159652  1
  I  I127  1  0.66899475  0.16852568  0.49896686  1
  I  I128  1  0.66683217  0.16131531  0.82932506  1
  I  I129  1  0.66887506  0.50434540  0.16744392  1
  I  I130  1  0.66457615  0.49772529  0.50070563  1
  I  I131  1  0.66575497  0.50636383  0.83125022  1
  I  I132  1  0.66675471  0.82825963  0.16237263  1
  I  I133  1  0.66663859  0.83446952  0.49944573  1
  I  I134  1  0.66377057  0.83090258  0.83792943  1
