# generated using pymatgen
data_Cs27Sn13Pb14I81
_symmetry_space_group_name_H-M   'P 1'
_cell_length_a   18.97500848
_cell_length_b   18.97909775
_cell_length_c   18.97875629
_cell_angle_alpha   90.00116956
_cell_angle_beta   90.00277081
_cell_angle_gamma   90.00134007
_symmetry_Int_Tables_number   1
_chemical_formula_structural   Cs27Sn13Pb14I81
_chemical_formula_sum   'Cs27 Sn13 Pb14 I81'
_cell_volume   6834.79179394
_cell_formula_units_Z   1
loop_
 _symmetry_equiv_pos_site_id
 _symmetry_equiv_pos_as_xyz
  1  'x, y, z'
loop_
 _atom_site_type_symbol
 _atom_site_label
 _atom_site_symmetry_multiplicity
 _atom_site_fract_x
 _atom_site_fract_y
 _atom_site_fract_z
 _atom_site_occupancy
  Cs  Cs0  1  0.00035763  -0.00002322  -0.00371076  1
  Cs  Cs1  1  0.00070158  -0.00499608  0.33434640  1
  Cs  Cs2  1  0.00658022  0.00136679  0.66906568  1
  Cs  Cs3  1  -0.00699841  0.33350560  -0.00158113  1
  Cs  Cs4  1  -0.00061600  0.33484411  0.33417743  1
  Cs  Cs5  1  0.00407678  0.33020108  0.66655907  1
  Cs  Cs6  1  -0.00049390  0.66649987  0.00061790  1
  Cs  Cs7  1  0.00203375  0.66838573  0.33550024  1
  Cs  Cs8  1  0.00090093  0.66805223  0.65945498  1
  Cs  Cs9  1  0.33122713  -0.00107173  0.00164954  1
  Cs  Cs10  1  0.33466503  0.00133059  0.32983623  1
  Cs  Cs11  1  0.32850330  -0.00325076  0.67139237  1
  Cs  Cs12  1  0.33521062  0.33492144  0.00157646  1
  Cs  Cs13  1  0.33498786  0.33390823  0.33290987  1
  Cs  Cs14  1  0.33148290  0.33269883  0.66470042  1
  Cs  Cs15  1  0.33252953  0.66657137  -0.00068904  1
  Cs  Cs16  1  0.33092964  0.66406676  0.33122265  1
  Cs  Cs17  1  0.33440399  0.67152543  0.67118468  1
  Cs  Cs18  1  0.66847163  0.00142243  0.00141449  1
  Cs  Cs19  1  0.66649185  0.00102397  0.33448201  1
  Cs  Cs20  1  0.66540563  -0.00297981  0.66217115  1
  Cs  Cs21  1  0.67174909  0.33448016  -0.00164790  1
  Cs  Cs22  1  0.66615091  0.33250673  0.33274530  1
  Cs  Cs23  1  0.66670658  0.33438047  0.66643740  1
  Cs  Cs24  1  0.66816454  0.66496359  -0.00269118  1
  Cs  Cs25  1  0.66731418  0.66701761  0.33430196  1
  Cs  Cs26  1  0.66507881  0.66945629  0.66834550  1
  Sn  Sn27  1  0.50054784  0.16735185  0.50034415  1
  Sn  Sn28  1  0.83241155  0.83323655  0.16577753  1
  Sn  Sn29  1  0.83218976  0.49888155  0.49974982  1
  Sn  Sn30  1  0.50113511  0.83299085  0.16665019  1
  Sn  Sn31  1  0.83283916  0.16748791  0.49979998  1
  Sn  Sn32  1  0.49977978  0.16710509  0.16628919  1
  Sn  Sn33  1  0.49989163  0.49990952  0.16701797  1
  Sn  Sn34  1  0.50023702  0.16683895  0.83336354  1
  Sn  Sn35  1  0.83304471  0.83335409  0.83389417  1
  Sn  Sn36  1  0.50081374  0.49947728  0.49944534  1
  Sn  Sn37  1  0.16678336  0.16801797  0.16677295  1
  Sn  Sn38  1  0.16674352  0.49972350  0.83426339  1
  Sn  Sn39  1  0.16709704  0.49850622  0.16542123  1
  Pb  Pb40  1  0.83114024  0.16485861  0.83043515  1
  Pb  Pb41  1  0.49876084  0.49824579  0.83319429  1
  Pb  Pb42  1  0.83312832  0.83369818  0.49992270  1
  Pb  Pb43  1  0.83327512  0.50190715  0.16841334  1
  Pb  Pb44  1  0.50170727  0.83585986  0.83625427  1
  Pb  Pb45  1  0.16752531  0.16669163  0.49738202  1
  Pb  Pb46  1  0.16893082  0.16885644  0.83628826  1
  Pb  Pb47  1  0.49963330  0.83333782  0.49770939  1
  Pb  Pb48  1  0.83557902  0.50166010  0.83021955  1
  Pb  Pb49  1  0.83336740  0.16480175  0.16847153  1
  Pb  Pb50  1  0.16734458  0.83357956  0.49996102  1
  Pb  Pb51  1  0.16419301  0.83074750  0.83380420  1
  Pb  Pb52  1  0.16683565  0.83307052  0.16660376  1
  Pb  Pb53  1  0.16772551  0.49990869  0.49954455  1
  I  I54  1  0.17107024  0.00273785  0.16873934  1
  I  I55  1  0.16473181  0.00069397  0.49773383  1
  I  I56  1  0.16656149  0.00025334  0.83360174  1
  I  I57  1  0.17574567  0.33398360  0.16462571  1
  I  I58  1  0.16464291  0.33339624  0.50176257  1
  I  I59  1  0.16628174  0.33645021  0.83487751  1
  I  I60  1  0.17033230  0.66335445  0.16442586  1
  I  I61  1  0.16423844  0.66593422  0.49691969  1
  I  I62  1  0.16905634  0.66298365  0.84002499  1
  I  I63  1  0.49954103  0.00118651  0.16737420  1
  I  I64  1  0.50530897  0.00364942  0.49799370  1
  I  I65  1  0.50041619  0.00383160  0.83189412  1
  I  I66  1  0.49429404  0.33320081  0.16865296  1
  I  I67  1  0.50413023  0.33305215  0.49447986  1
  I  I68  1  0.49976081  0.33032646  0.83773797  1
  I  I69  1  0.49925443  0.66553612  0.17192924  1
  I  I70  1  0.50412224  0.66310968  0.49523533  1
  I  I71  1  0.49912712  0.66668677  0.83262669  1
  I  I72  1  0.82920154  -0.00302340  0.16654042  1
  I  I73  1  0.82759917  0.00287885  0.49836388  1
  I  I74  1  0.83258156  -0.00287037  0.83705995  1
  I  I75  1  0.83199969  0.33338727  0.16668646  1
  I  I76  1  0.82860167  0.33338091  0.49859696  1
  I  I77  1  0.83374783  0.33328323  0.83408760  1
  I  I78  1  0.82939821  0.66972486  0.16625092  1
  I  I79  1  0.83008655  0.66397542  0.49951927  1
  I  I80  1  0.83257973  0.66943314  0.83649594  1
  I  I81  1  0.17268887  0.16741218  0.00416659  1
  I  I82  1  0.17249370  0.17263458  0.32941970  1
  I  I83  1  0.16712721  0.16741717  0.66681458  1
  I  I84  1  0.17303223  0.49747276  0.00210753  1
  I  I85  1  0.16841518  0.49716433  0.33002651  1
  I  I86  1  0.16561097  0.50147341  0.66874846  1
  I  I87  1  0.16798386  0.83495540  0.00040693  1
  I  I88  1  0.16268306  0.83085122  0.33246305  1
  I  I89  1  0.16408515  0.83122219  0.66725402  1
  I  I90  1  0.49478101  0.16570671  0.00170598  1
  I  I91  1  0.50002227  0.16689089  0.33264767  1
  I  I92  1  0.50570416  0.17218167  0.66541503  1
  I  I93  1  0.49704423  0.49941186  0.00334283  1
  I  I94  1  0.49831290  0.49629682  0.33226681  1
  I  I95  1  0.50199941  0.49498552  0.66362745  1
  I  I96  1  0.50127333  0.83252117  0.00448574  1
  I  I97  1  0.50633141  0.83744088  0.32919700  1
  I  I98  1  0.50173349  0.83296811  0.66693325  1
  I  I99  1  0.83241721  0.16619194  0.00007597  1
  I  I100  1  0.82748168  0.16808824  0.33624911  1
  I  I101  1  0.82777889  0.16856194  0.66252422  1
  I  I102  1  0.83165065  0.50039411  0.00006727  1
  I  I103  1  0.83357734  0.49895178  0.33627488  1
  I  I104  1  0.82816407  0.49906671  0.66242498  1
  I  I105  1  0.82903338  0.83319126  0.00123465  1
  I  I106  1  0.82981683  0.83357383  0.33069340  1
  I  I107  1  0.83429202  0.83254417  0.66883957  1
  I  I108  1  0.00244598  0.16979421  0.16904919  1
  I  I109  1  -0.00267510  0.17017579  0.49806767  1
  I  I110  1  0.00004880  0.16557460  0.83275110  1
  I  I111  1  0.00269879  0.49739048  0.16514382  1
  I  I112  1  -0.00243252  0.49766869  0.49996696  1
  I  I113  1  0.00327372  0.50018768  0.84015142  1
  I  I114  1  -0.00273654  0.83347427  0.16466317  1
  I  I115  1  -0.00065851  0.83185792  0.49638813  1
  I  I116  1  -0.00360954  0.83448834  0.84024621  1
  I  I117  1  0.33543988  0.16478286  0.16912865  1
  I  I118  1  0.33736723  0.17208510  0.50008625  1
  I  I119  1  0.33695613  0.16626750  0.82823420  1
  I  I120  1  0.33474806  0.50139287  0.16927639  1
  I  I121  1  0.33696500  0.49467690  0.49729258  1
  I  I122  1  0.33084072  0.49929673  0.83382406  1
  I  I123  1  0.33658891  0.83421001  0.16851981  1
  I  I124  1  0.33409275  0.83240966  0.49813871  1
  I  I125  1  0.33346284  0.83368910  0.83312690  1
  I  I126  1  0.66315929  0.16848590  0.16609372  1
  I  I127  1  0.66515725  0.17014388  0.49693584  1
  I  I128  1  0.66316084  0.16798940  0.83991614  1
  I  I129  1  0.66340991  0.49743370  0.16936764  1
  I  I130  1  0.66543855  0.49609837  0.49396919  1
  I  I131  1  0.66668527  0.50024204  0.83533674  1
  I  I132  1  0.66561987  0.83402965  0.16404741  1
  I  I133  1  0.66654179  0.83301158  0.50079459  1
  I  I134  1  0.66938779  0.83212232  0.83506845  1
