# generated using pymatgen
data_Cs27Sn13Pb14I81
_symmetry_space_group_name_H-M   'P 1'
_cell_length_a   18.98228469
_cell_length_b   18.97166424
_cell_length_c   18.97784291
_cell_angle_alpha   89.99921342
_cell_angle_beta   89.99751241
_cell_angle_gamma   90.00144602
_symmetry_Int_Tables_number   1
_chemical_formula_structural   Cs27Sn13Pb14I81
_chemical_formula_sum   'Cs27 Sn13 Pb14 I81'
_cell_volume   6834.40575907
_cell_formula_units_Z   1
loop_
 _symmetry_equiv_pos_site_id
 _symmetry_equiv_pos_as_xyz
  1  'x, y, z'
loop_
 _atom_site_type_symbol
 _atom_site_label
 _atom_site_symmetry_multiplicity
 _atom_site_fract_x
 _atom_site_fract_y
 _atom_site_fract_z
 _atom_site_occupancy
  Cs  Cs0  1  0.00107759  0.00000887  0.00099578  1
  Cs  Cs1  1  0.00214386  0.00156833  0.33036399  1
  Cs  Cs2  1  -0.00547610  -0.00087821  0.66932555  1
  Cs  Cs3  1  -0.00437052  0.33493097  -0.00279179  1
  Cs  Cs4  1  0.00566335  0.33692102  0.33997783  1
  Cs  Cs5  1  -0.00508614  0.34027319  0.66198632  1
  Cs  Cs6  1  0.00076322  0.66668934  0.00090229  1
  Cs  Cs7  1  -0.00211455  0.66493975  0.33511870  1
  Cs  Cs8  1  0.00191649  0.66294610  0.66213124  1
  Cs  Cs9  1  0.33261761  -0.00106446  -0.00018588  1
  Cs  Cs10  1  0.33245037  0.00223445  0.33152882  1
  Cs  Cs11  1  0.33507016  -0.00166912  0.66929122  1
  Cs  Cs12  1  0.33506539  0.33518113  -0.00064981  1
  Cs  Cs13  1  0.33012184  0.32987151  0.33679846  1
  Cs  Cs14  1  0.33032625  0.33532011  0.66362292  1
  Cs  Cs15  1  0.33457116  0.66614800  -0.00074510  1
  Cs  Cs16  1  0.33469543  0.66805289  0.33314569  1
  Cs  Cs17  1  0.33307566  0.66684888  0.66720039  1
  Cs  Cs18  1  0.66642093  -0.00036877  -0.00019610  1
  Cs  Cs19  1  0.66535411  -0.00084903  0.33329345  1
  Cs  Cs20  1  0.66720486  0.00037136  0.66653683  1
  Cs  Cs21  1  0.66859256  0.33789513  0.00134094  1
  Cs  Cs22  1  0.66665953  0.33381202  0.33032041  1
  Cs  Cs23  1  0.67515740  0.32752377  0.66846699  1
  Cs  Cs24  1  0.66481394  0.66359706  0.00224148  1
  Cs  Cs25  1  0.66754168  0.66593298  0.33205089  1
  Cs  Cs26  1  0.66508781  0.66916147  0.66454235  1
  Sn  Sn27  1  0.16656655  0.83401966  0.83240212  1
  Sn  Sn28  1  0.83314638  0.83323825  0.83439504  1
  Sn  Sn29  1  0.50002291  0.83379095  0.83355529  1
  Sn  Sn30  1  0.16714267  0.50002488  0.16617983  1
  Sn  Sn31  1  0.49906188  0.16602445  0.83428452  1
  Sn  Sn32  1  0.16709404  0.16626881  0.83320813  1
  Sn  Sn33  1  0.49897369  0.83262976  0.49994013  1
  Sn  Sn34  1  0.83249458  0.83425932  0.16572093  1
  Sn  Sn35  1  0.50060093  0.16580736  0.16553695  1
  Sn  Sn36  1  0.50040069  0.50026147  0.50028634  1
  Sn  Sn37  1  0.50063121  0.83397496  0.16649930  1
  Sn  Sn38  1  0.16748017  0.83408663  0.50067466  1
  Sn  Sn39  1  0.83282493  0.16576602  0.16679435  1
  Pb  Pb40  1  0.83312445  0.16470365  0.83521250  1
  Pb  Pb41  1  0.49840587  0.49957129  0.16837961  1
  Pb  Pb42  1  0.83306407  0.50356757  0.83341568  1
  Pb  Pb43  1  0.83555625  0.50008224  0.16668810  1
  Pb  Pb44  1  0.16679790  0.16886122  0.16437337  1
  Pb  Pb45  1  0.82990991  0.50021472  0.49980266  1
  Pb  Pb46  1  0.83340079  0.16623821  0.49642259  1
  Pb  Pb47  1  0.16673387  0.16370122  0.50358096  1
  Pb  Pb48  1  0.16880501  0.50263636  0.49811579  1
  Pb  Pb49  1  0.50004309  0.16608802  0.50036984  1
  Pb  Pb50  1  0.83313601  0.83356083  0.49958152  1
  Pb  Pb51  1  0.16685573  0.50006592  0.83476623  1
  Pb  Pb52  1  0.16674192  0.83231728  0.16638547  1
  Pb  Pb53  1  0.50005693  0.49940331  0.83087416  1
  I  I54  1  0.16632454  -0.00003659  0.16897836  1
  I  I55  1  0.17472850  -0.00439833  0.49815830  1
  I  I56  1  0.16866026  -0.00173636  0.83128236  1
  I  I57  1  0.16801339  0.33604521  0.16524874  1
  I  I58  1  0.16824679  0.33349355  0.49939652  1
  I  I59  1  0.17317274  0.33012220  0.83787756  1
  I  I60  1  0.16744411  0.66500126  0.16552360  1
  I  I61  1  0.16870339  0.67063251  0.50641789  1
  I  I62  1  0.16774946  0.67059048  0.83103816  1
  I  I63  1  0.50274377  -0.00128808  0.16805410  1
  I  I64  1  0.49682577  -0.00377480  0.49975998  1
  I  I65  1  0.49907443  -0.00167228  0.83244664  1
  I  I66  1  0.50321614  0.32996709  0.16338164  1
  I  I67  1  0.49965363  0.33553268  0.49812733  1
  I  I68  1  0.49473169  0.32951914  0.83745915  1
  I  I69  1  0.50234889  0.67007101  0.16437492  1
  I  I70  1  0.49623637  0.66958936  0.49967643  1
  I  I71  1  0.49894447  0.67049411  0.83617854  1
  I  I72  1  0.82969942  -0.00137133  0.16292844  1
  I  I73  1  0.83066691  -0.00063467  0.50231855  1
  I  I74  1  0.83337384  -0.00373086  0.83499791  1
  I  I75  1  0.82795012  0.33017671  0.16586499  1
  I  I76  1  0.83217936  0.33333923  0.49932486  1
  I  I77  1  0.83325411  0.33280049  0.83496647  1
  I  I78  1  0.82955029  0.67027629  0.16320470  1
  I  I79  1  0.83566289  0.66733032  0.49797946  1
  I  I80  1  0.83285342  0.67241187  0.84036843  1
  I  I81  1  0.16856673  0.15827925  -0.00321426  1
  I  I82  1  0.16655047  0.16705972  0.33315374  1
  I  I83  1  0.17527068  0.16499834  0.67163341  1
  I  I84  1  0.16811162  0.50378071  0.00238867  1
  I  I85  1  0.16703377  0.50109574  0.33055394  1
  I  I86  1  0.16740350  0.49887101  0.66642980  1
  I  I87  1  0.16878106  0.83518601  -0.00300254  1
  I  I88  1  0.17019758  0.82967353  0.33528045  1
  I  I89  1  0.17051499  0.83605784  0.66779054  1
  I  I90  1  0.49926311  0.15837474  0.00012599  1
  I  I91  1  0.50423507  0.16331272  0.33021322  1
  I  I92  1  0.49542653  0.16263421  0.67015340  1
  I  I93  1  0.49888733  0.50298877  0.00010832  1
  I  I94  1  0.49835945  0.50637542  0.33593061  1
  I  I95  1  0.49742553  0.50717487  0.66330463  1
  I  I96  1  0.49979381  0.83742853  -0.00013547  1
  I  I97  1  0.49985434  0.83305996  0.33272567  1
  I  I98  1  0.49953527  0.83292401  0.66754786  1
  I  I99  1  0.83206410  0.16338347  0.00310945  1
  I  I100  1  0.82620274  0.15872430  0.32800438  1
  I  I101  1  0.83215871  0.16565282  0.66720405  1
  I  I102  1  0.83299936  0.49910975  0.00032487  1
  I  I103  1  0.83461769  0.50289024  0.33297535  1
  I  I104  1  0.83497465  0.50034648  0.66658834  1
  I  I105  1  0.83117646  0.83700048  0.00031636  1
  I  I106  1  0.83024607  0.83629183  0.32987650  1
  I  I107  1  0.83094319  0.83339620  0.66967532  1
  I  I108  1  -0.00253028  0.16151293  0.16489811  1
  I  I109  1  0.00024299  0.16478579  0.49921162  1
  I  I110  1  0.00231160  0.16047837  0.83601746  1
  I  I111  1  0.00303759  0.50191565  0.16644213  1
  I  I112  1  0.00028668  0.50134276  0.49839029  1
  I  I113  1  0.00008978  0.49924508  0.83457052  1
  I  I114  1  -0.00253149  0.83573040  0.16374224  1
  I  I115  1  0.00283599  0.83378533  0.50304453  1
  I  I116  1  0.00054076  0.83758117  0.83418450  1
  I  I117  1  0.33653541  0.16251552  0.16536940  1
  I  I118  1  0.33350259  0.16856894  0.49386295  1
  I  I119  1  0.33452543  0.15754553  0.83947166  1
  I  I120  1  0.33108803  0.50209707  0.16683235  1
  I  I121  1  0.33637839  0.50336236  0.49906033  1
  I  I122  1  0.33348783  0.50460548  0.83456171  1
  I  I123  1  0.33645611  0.83556234  0.16529737  1
  I  I124  1  0.33467801  0.82952969  0.50270837  1
  I  I125  1  0.33409109  0.83665786  0.83298084  1
  I  I126  1  0.66520645  0.16266010  0.16172744  1
  I  I127  1  0.66631258  0.16498698  0.50545469  1
  I  I128  1  0.66350881  0.16229777  0.83389308  1
  I  I129  1  0.66649569  0.50042574  0.16860804  1
  I  I130  1  0.66212500  0.50936821  0.49808694  1
  I  I131  1  0.66634927  0.49947540  0.83377354  1
  I  I132  1  0.66546366  0.83580104  0.16438253  1
  I  I133  1  0.66313977  0.82995879  0.50200843  1
  I  I134  1  0.66535340  0.83681948  0.83296239  1
