# generated using pymatgen
data_Cs27Sn14Pb13I81
_symmetry_space_group_name_H-M   'P 1'
_cell_length_a   18.96214817
_cell_length_b   18.96650287
_cell_length_c   18.95361392
_cell_angle_alpha   89.99982158
_cell_angle_beta   89.99940828
_cell_angle_gamma   89.99996008
_symmetry_Int_Tables_number   1
_chemical_formula_structural   Cs27Sn14Pb13I81
_chemical_formula_sum   'Cs27 Sn14 Pb13 I81'
_cell_volume   6816.58456352
_cell_formula_units_Z   1
loop_
 _symmetry_equiv_pos_site_id
 _symmetry_equiv_pos_as_xyz
  1  'x, y, z'
loop_
 _atom_site_type_symbol
 _atom_site_label
 _atom_site_symmetry_multiplicity
 _atom_site_fract_x
 _atom_site_fract_y
 _atom_site_fract_z
 _atom_site_occupancy
  Cs  Cs0  1  0.00093799  -0.00146922  -0.00061064  1
  Cs  Cs1  1  -0.00039289  0.00055958  0.33279028  1
  Cs  Cs2  1  -0.00032183  -0.00048552  0.66702230  1
  Cs  Cs3  1  -0.00276705  0.33353317  0.00570686  1
  Cs  Cs4  1  -0.00174468  0.33310727  0.33275772  1
  Cs  Cs5  1  0.00280178  0.33103983  0.66321923  1
  Cs  Cs6  1  -0.00006218  0.66793442  0.00076537  1
  Cs  Cs7  1  0.00067896  0.66625618  0.33328862  1
  Cs  Cs8  1  0.00269040  0.66845739  0.66661399  1
  Cs  Cs9  1  0.33314859  -0.00039438  0.00271007  1
  Cs  Cs10  1  0.33805219  -0.00254652  0.33024073  1
  Cs  Cs11  1  0.33179317  -0.00202952  0.66627222  1
  Cs  Cs12  1  0.33381396  0.33291336  -0.00134855  1
  Cs  Cs13  1  0.33307014  0.33465206  0.33300952  1
  Cs  Cs14  1  0.33400122  0.33426660  0.66741051  1
  Cs  Cs15  1  0.33246630  0.66677695  -0.00011931  1
  Cs  Cs16  1  0.33430139  0.66718762  0.33392505  1
  Cs  Cs17  1  0.33073735  0.66751938  0.66672571  1
  Cs  Cs18  1  0.66401780  0.00597638  -0.00186917  1
  Cs  Cs19  1  0.66248634  -0.00221834  0.33367534  1
  Cs  Cs20  1  0.66988941  0.00142793  0.66646284  1
  Cs  Cs21  1  0.67080359  0.33058969  -0.00610158  1
  Cs  Cs22  1  0.66920660  0.33516546  0.33507432  1
  Cs  Cs23  1  0.66360194  0.33366301  0.66750299  1
  Cs  Cs24  1  0.66956274  0.66384935  -0.00262133  1
  Cs  Cs25  1  0.66523384  0.66701051  0.33265935  1
  Cs  Cs26  1  0.66748810  0.66527885  0.66969208  1
  Sn  Sn27  1  0.16717302  0.16640362  0.50016260  1
  Sn  Sn28  1  0.49952125  0.83329173  0.83339235  1
  Sn  Sn29  1  0.16609203  0.83245016  0.16618281  1
  Sn  Sn30  1  0.16658357  0.49981959  0.83432173  1
  Sn  Sn31  1  0.50053735  0.49958527  0.49934624  1
  Sn  Sn32  1  0.83260294  0.50029893  0.50004542  1
  Sn  Sn33  1  0.16751766  0.50079844  0.16593970  1
  Sn  Sn34  1  0.16765973  0.83334043  0.83416405  1
  Sn  Sn35  1  0.49968096  0.16726022  0.49990537  1
  Sn  Sn36  1  0.49971814  0.49980560  0.16672754  1
  Sn  Sn37  1  0.83317673  0.16657036  0.49985892  1
  Sn  Sn38  1  0.83373645  0.83346889  0.16726619  1
  Sn  Sn39  1  0.16663385  0.16670085  0.83290997  1
  Sn  Sn40  1  0.83357108  0.83307291  0.49910242  1
  Pb  Pb41  1  0.50029320  0.83119260  0.16435144  1
  Pb  Pb42  1  0.83365587  0.83341875  0.83378962  1
  Pb  Pb43  1  0.49758491  0.16456044  0.83102689  1
  Pb  Pb44  1  0.50013298  0.16995299  0.16875750  1
  Pb  Pb45  1  0.83654044  0.49979278  0.83053974  1
  Pb  Pb46  1  0.83600264  0.16688259  0.83117986  1
  Pb  Pb47  1  0.50239727  0.83283255  0.50193954  1
  Pb  Pb48  1  0.49809832  0.50138619  0.83317382  1
  Pb  Pb49  1  0.83312449  0.16375200  0.16896645  1
  Pb  Pb50  1  0.16494404  0.83565900  0.49949864  1
  Pb  Pb51  1  0.16697295  0.49835478  0.49950861  1
  Pb  Pb52  1  0.16679098  0.16667290  0.16662211  1
  Pb  Pb53  1  0.83337690  0.50176467  0.16844993  1
  I  I54  1  0.16228111  -0.00311628  0.16429696  1
  I  I55  1  0.16634369  0.00371800  0.50421548  1
  I  I56  1  0.16957999  -0.00068921  0.83203685  1
  I  I57  1  0.17043009  0.33645172  0.16453110  1
  I  I58  1  0.16270497  0.33033529  0.50374913  1
  I  I59  1  0.16602454  0.33345178  0.83129656  1
  I  I60  1  0.16608005  0.66678292  0.15995482  1
  I  I61  1  0.16576235  0.66671676  0.50280095  1
  I  I62  1  0.16993571  0.66717753  0.83684927  1
  I  I63  1  0.49918006  -0.00031459  0.16764711  1
  I  I64  1  0.50036124  0.00240561  0.50285529  1
  I  I65  1  0.49487164  -0.00330533  0.83215933  1
  I  I66  1  0.49230987  0.33806824  0.16838467  1
  I  I67  1  0.50405798  0.33364660  0.49716595  1
  I  I68  1  0.49785699  0.33331431  0.83377541  1
  I  I69  1  0.49753055  0.66348503  0.17419250  1
  I  I70  1  0.50393945  0.66368335  0.49775423  1
  I  I71  1  0.49368840  0.66926747  0.83052300  1
  I  I72  1  0.84080164  -0.00447736  0.17179247  1
  I  I73  1  0.83454926  0.00017314  0.49699599  1
  I  I74  1  0.83538068  -0.00014544  0.83017555  1
  I  I75  1  0.83517330  0.33362072  0.16898388  1
  I  I76  1  0.83356449  0.33320018  0.50126480  1
  I  I77  1  0.83394794  0.33341193  0.83222921  1
  I  I78  1  0.83570456  0.66971654  0.17339724  1
  I  I79  1  0.82955365  0.66665819  0.49653694  1
  I  I80  1  0.83528881  0.66679561  0.82864652  1
  I  I81  1  0.16739161  0.16588995  -0.00301800  1
  I  I82  1  0.16525087  0.16746705  0.33650806  1
  I  I83  1  0.16565214  0.16688621  0.66640158  1
  I  I84  1  0.17224237  0.49960036  0.00041242  1
  I  I85  1  0.16721543  0.50352046  0.33077407  1
  I  I86  1  0.16604648  0.50247371  0.66881849  1
  I  I87  1  0.16446074  0.83441351  -0.00019950  1
  I  I88  1  0.16400307  0.82954296  0.33054047  1
  I  I89  1  0.16830917  0.83102961  0.66923877  1
  I  I90  1  0.49815344  0.16646523  -0.00036506  1
  I  I91  1  0.49690150  0.16557927  0.33780101  1
  I  I92  1  0.50229297  0.17291794  0.66250795  1
  I  I93  1  0.49617023  0.50431478  0.00243599  1
  I  I94  1  0.49720474  0.49764683  0.33429842  1
  I  I95  1  0.50260112  0.49714037  0.66360870  1
  I  I96  1  0.49874189  0.83118651  -0.00322970  1
  I  I97  1  0.49783937  0.83494608  0.33336412  1
  I  I98  1  0.49352154  0.83169271  0.66950018  1
  I  I99  1  0.83487552  0.16514946  0.00002055  1
  I  I100  1  0.83794001  0.16945427  0.33799644  1
  I  I101  1  0.83205236  0.16319331  0.66214580  1
  I  I102  1  0.83098485  0.50283208  0.00018850  1
  I  I103  1  0.83501865  0.49787688  0.33701509  1
  I  I104  1  0.82859412  0.50250014  0.66188309  1
  I  I105  1  0.83605247  0.83092297  0.00287766  1
  I  I106  1  0.83914592  0.83360940  0.33403655  1
  I  I107  1  0.83368195  0.83435906  0.66364824  1
  I  I108  1  0.00024318  0.17075697  0.16982612  1
  I  I109  1  -0.00006203  0.16672138  0.50439009  1
  I  I110  1  0.00452306  0.16323910  0.82697515  1
  I  I111  1  0.00297566  0.50211611  0.16430432  1
  I  I112  1  -0.00215403  0.49912645  0.50063389  1
  I  I113  1  0.00495071  0.50374166  0.83740208  1
  I  I114  1  0.00140375  0.82802669  0.16549365  1
  I  I115  1  -0.00322104  0.83239039  0.50111225  1
  I  I116  1  0.00353214  0.83346873  0.83349829  1
  I  I117  1  0.33317738  0.16199336  0.17092514  1
  I  I118  1  0.33322290  0.17207168  0.50437880  1
  I  I119  1  0.32930198  0.16836434  0.82645640  1
  I  I120  1  0.33220522  0.50559505  0.16998656  1
  I  I121  1  0.33572172  0.49517761  0.49946494  1
  I  I122  1  0.32965881  0.49897224  0.83134486  1
  I  I123  1  0.33043203  0.83165359  0.16422585  1
  I  I124  1  0.33331643  0.83388394  0.49863673  1
  I  I125  1  0.33097927  0.83338706  0.83703073  1
  I  I126  1  0.66660602  0.16525490  0.16831468  1
  I  I127  1  0.66686821  0.16713416  0.49811296  1
  I  I128  1  0.66638998  0.16397473  0.83202461  1
  I  I129  1  0.66427410  0.50245464  0.17151754  1
  I  I130  1  0.66624165  0.49619884  0.49484215  1
  I  I131  1  0.66652104  0.50315331  0.83499440  1
  I  I132  1  0.66915580  0.83205694  0.17122006  1
  I  I133  1  0.67044730  0.83729696  0.49608960  1
  I  I134  1  0.66442632  0.83203463  0.83139308  1
