# generated using pymatgen
data_Cs27Sn13Pb14I81
_symmetry_space_group_name_H-M   'P 1'
_cell_length_a   19.06442759
_cell_length_b   19.05793860
_cell_length_c   19.06897819
_cell_angle_alpha   90.00021934
_cell_angle_beta   89.99875888
_cell_angle_gamma   90.00163987
_symmetry_Int_Tables_number   1
_chemical_formula_structural   Cs27Sn13Pb14I81
_chemical_formula_sum   'Cs27 Sn13 Pb14 I81'
_cell_volume   6928.30686980
_cell_formula_units_Z   1
loop_
 _symmetry_equiv_pos_site_id
 _symmetry_equiv_pos_as_xyz
  1  'x, y, z'
loop_
 _atom_site_type_symbol
 _atom_site_label
 _atom_site_symmetry_multiplicity
 _atom_site_fract_x
 _atom_site_fract_y
 _atom_site_fract_z
 _atom_site_occupancy
  Cs  Cs0  1  0.00271162  -0.00202913  -0.00007123  1
  Cs  Cs1  1  0.00199841  0.01043144  0.33444089  1
  Cs  Cs2  1  0.00612223  -0.00184066  0.66786774  1
  Cs  Cs3  1  0.00663413  0.32980820  -0.00172391  1
  Cs  Cs4  1  0.01111441  0.31806932  0.34159161  1
  Cs  Cs5  1  -0.01473728  0.35152579  0.65897030  1
  Cs  Cs6  1  0.00055255  0.66999099  -0.00186058  1
  Cs  Cs7  1  -0.00302846  0.66628708  0.33612850  1
  Cs  Cs8  1  -0.00226350  0.65622470  0.66479722  1
  Cs  Cs9  1  0.33183503  -0.00272346  -0.00312922  1
  Cs  Cs10  1  0.33284508  0.00032428  0.34743782  1
  Cs  Cs11  1  0.33302961  0.00383778  0.65998694  1
  Cs  Cs12  1  0.33183143  0.33607320  0.00138214  1
  Cs  Cs13  1  0.32160960  0.33314903  0.33034578  1
  Cs  Cs14  1  0.33528463  0.32773401  0.66597759  1
  Cs  Cs15  1  0.33628576  0.66668729  -0.00007749  1
  Cs  Cs16  1  0.33537399  0.66639234  0.33675523  1
  Cs  Cs17  1  0.33337918  0.66657851  0.66443711  1
  Cs  Cs18  1  0.66720801  -0.00108573  0.00087013  1
  Cs  Cs19  1  0.66757134  0.00111600  0.33403333  1
  Cs  Cs20  1  0.66376322  0.01033017  0.66668458  1
  Cs  Cs21  1  0.66521751  0.32883744  -0.00055793  1
  Cs  Cs22  1  0.66934086  0.33792759  0.33212997  1
  Cs  Cs23  1  0.67609527  0.32270589  0.66520905  1
  Cs  Cs24  1  0.66329219  0.66841967  0.00481916  1
  Cs  Cs25  1  0.66463041  0.66666107  0.32895222  1
  Cs  Cs26  1  0.66731690  0.66573406  0.66527100  1
  Sn  Sn27  1  0.50035949  0.50012675  0.50055051  1
  Sn  Sn28  1  0.16723630  0.83346818  0.83402013  1
  Sn  Sn29  1  0.49969382  0.16615695  0.16644099  1
  Sn  Sn30  1  0.16642545  0.16648235  0.83347280  1
  Sn  Sn31  1  0.16707438  0.83278096  0.16639249  1
  Sn  Sn32  1  0.83268986  0.83321159  0.83313004  1
  Sn  Sn33  1  0.50079755  0.49995820  0.16654254  1
  Sn  Sn34  1  0.83273758  0.83342637  0.50027829  1
  Sn  Sn35  1  0.83355728  0.83263951  0.16676366  1
  Sn  Sn36  1  0.50043763  0.50068168  0.83308556  1
  Sn  Sn37  1  0.49921470  0.83409845  0.16626619  1
  Sn  Sn38  1  0.50020037  0.83265980  0.83363912  1
  Sn  Sn39  1  0.83373449  0.50023414  0.16599126  1
  Pb  Pb40  1  0.83151727  0.16700480  0.16622205  1
  Pb  Pb41  1  0.83636783  0.16394295  0.83377065  1
  Pb  Pb42  1  0.16581441  0.50285605  0.16643759  1
  Pb  Pb43  1  0.16674190  0.16669048  0.50434576  1
  Pb  Pb44  1  0.16395611  0.83288563  0.50046780  1
  Pb  Pb45  1  0.50218098  0.83181998  0.50047606  1
  Pb  Pb46  1  0.16929171  0.50035204  0.49993993  1
  Pb  Pb47  1  0.83308631  0.16372473  0.50005820  1
  Pb  Pb48  1  0.83011454  0.50275172  0.83677671  1
  Pb  Pb49  1  0.16900529  0.50086319  0.83344123  1
  Pb  Pb50  1  0.50022192  0.17017026  0.49657501  1
  Pb  Pb51  1  0.83057398  0.50246109  0.49637827  1
  Pb  Pb52  1  0.16962201  0.16319817  0.16445897  1
  Pb  Pb53  1  0.49835594  0.16620901  0.83544748  1
  I  I54  1  0.16291904  -0.00439463  0.16419771  1
  I  I55  1  0.16791742  -0.00041322  0.49462666  1
  I  I56  1  0.16874348  -0.00297516  0.84001962  1
  I  I57  1  0.16674482  0.33309788  0.16589620  1
  I  I58  1  0.16648785  0.33316485  0.49941988  1
  I  I59  1  0.17406962  0.33086629  0.83470309  1
  I  I60  1  0.17263890  0.67070265  0.15688885  1
  I  I61  1  0.16639661  0.66706327  0.50396396  1
  I  I62  1  0.16366903  0.67057060  0.83836610  1
  I  I63  1  0.50149078  -0.00233909  0.15780509  1
  I  I64  1  0.50043964  0.00037033  0.50026661  1
  I  I65  1  0.50433415  -0.00372990  0.83995940  1
  I  I66  1  0.50835477  0.33475379  0.16567223  1
  I  I67  1  0.50090955  0.33752193  0.50399356  1
  I  I68  1  0.49486968  0.33618886  0.83617212  1
  I  I69  1  0.50073035  0.66727853  0.16588043  1
  I  I70  1  0.50096633  0.66450057  0.49274871  1
  I  I71  1  0.49730443  0.66813221  0.84029556  1
  I  I72  1  0.83211951  -0.00403808  0.16645342  1
  I  I73  1  0.83087227  -0.00446239  0.49428871  1
  I  I74  1  0.82339787  -0.00513854  0.83816861  1
  I  I75  1  0.82182141  0.33672371  0.16600313  1
  I  I76  1  0.83348946  0.33372726  0.49986125  1
  I  I77  1  0.83421787  0.33369744  0.83341579  1
  I  I78  1  0.82549389  0.66900586  0.16608021  1
  I  I79  1  0.83451330  0.66967415  0.50428421  1
  I  I80  1  0.84272558  0.67092793  0.82992543  1
  I  I81  1  0.16690179  0.16363177  -0.00250635  1
  I  I82  1  0.16660364  0.16737250  0.33373246  1
  I  I83  1  0.17308141  0.15074246  0.67115153  1
  I  I84  1  0.17013735  0.49562643  0.00009842  1
  I  I85  1  0.17130762  0.50257341  0.33279477  1
  I  I86  1  0.16784124  0.50351763  0.66698061  1
  I  I87  1  0.16204381  0.83729709  -0.00003842  1
  I  I88  1  0.16989421  0.83067239  0.33036861  1
  I  I89  1  0.16925165  0.84001583  0.67012280  1
  I  I90  1  0.50043956  0.17213057  0.00285480  1
  I  I91  1  0.50002406  0.16010929  0.32911289  1
  I  I92  1  0.49757296  0.16625402  0.66648624  1
  I  I93  1  0.50323043  0.50248811  0.00087295  1
  I  I94  1  0.50606309  0.50164122  0.33133289  1
  I  I95  1  0.49496734  0.51176989  0.66752305  1
  I  I96  1  0.50400778  0.82837672  0.00073657  1
  I  I97  1  0.49923365  0.83273595  0.32994202  1
  I  I98  1  0.49878316  0.82670090  0.67002876  1
  I  I99  1  0.83229385  0.16445845  0.00012916  1
  I  I100  1  0.83375157  0.16315696  0.33294212  1
  I  I101  1  0.83073538  0.16593635  0.66697640  1
  I  I102  1  0.82508714  0.50856065  0.00380349  1
  I  I103  1  0.82199901  0.51133613  0.32919121  1
  I  I104  1  0.83374046  0.50031818  0.66660524  1
  I  I105  1  0.83291834  0.82917556  0.00047139  1
  I  I106  1  0.83117117  0.82686831  0.33140317  1
  I  I107  1  0.83307337  0.83523123  0.66758915  1
  I  I108  1  0.00041193  0.16858433  0.16774926  1
  I  I109  1  0.00012092  0.16682892  0.49528227  1
  I  I110  1  0.00384691  0.15568782  0.83726436  1
  I  I111  1  -0.00345354  0.51071746  0.16527836  1
  I  I112  1  -0.00075007  0.49992283  0.50072753  1
  I  I113  1  -0.00031430  0.49883715  0.83337968  1
  I  I114  1  -0.00072168  0.82586143  0.16198626  1
  I  I115  1  -0.00352889  0.83221345  0.49859765  1
  I  I116  1  -0.00014065  0.84178637  0.83861095  1
  I  I117  1  0.33685456  0.17200758  0.16549759  1
  I  I118  1  0.33356636  0.16495308  0.49895264  1
  I  I119  1  0.33137440  0.15681285  0.83507843  1
  I  I120  1  0.33696987  0.49992888  0.16676444  1
  I  I121  1  0.33781214  0.50351959  0.49436332  1
  I  I122  1  0.33734835  0.50835910  0.83855975  1
  I  I123  1  0.33461571  0.83265357  0.15598793  1
  I  I124  1  0.33336506  0.83264917  0.49881680  1
  I  I125  1  0.33392167  0.83219385  0.84420380  1
  I  I126  1  0.66354628  0.15978799  0.16428607  1
  I  I127  1  0.66640215  0.16593268  0.50399959  1
  I  I128  1  0.66676293  0.16724761  0.83174147  1
  I  I129  1  0.66462471  0.50787445  0.16693601  1
  I  I130  1  0.66350997  0.50221704  0.50211212  1
  I  I131  1  0.66251107  0.50746227  0.83158040  1
  I  I132  1  0.66597984  0.83270206  0.16368667  1
  I  I133  1  0.66937751  0.83063377  0.49827642  1
  I  I134  1  0.66617096  0.82542774  0.83818055  1
