# generated using pymatgen
data_Cs27Sn13Pb14I81
_symmetry_space_group_name_H-M   'P 1'
_cell_length_a   18.96919510
_cell_length_b   18.97764123
_cell_length_c   18.98325309
_cell_angle_alpha   89.99894873
_cell_angle_beta   89.99891581
_cell_angle_gamma   89.99931835
_symmetry_Int_Tables_number   1
_chemical_formula_structural   Cs27Sn13Pb14I81
_chemical_formula_sum   'Cs27 Sn13 Pb14 I81'
_cell_volume   6833.79227171
_cell_formula_units_Z   1
loop_
 _symmetry_equiv_pos_site_id
 _symmetry_equiv_pos_as_xyz
  1  'x, y, z'
loop_
 _atom_site_type_symbol
 _atom_site_label
 _atom_site_symmetry_multiplicity
 _atom_site_fract_x
 _atom_site_fract_y
 _atom_site_fract_z
 _atom_site_occupancy
  Cs  Cs0  1  -0.00079883  -0.00020045  -0.00164187  1
  Cs  Cs1  1  0.00433782  0.00276418  0.33298310  1
  Cs  Cs2  1  0.00142692  0.00128347  0.66855853  1
  Cs  Cs3  1  -0.00238054  0.33216987  0.00159805  1
  Cs  Cs4  1  -0.00150714  0.33730302  0.33438786  1
  Cs  Cs5  1  -0.00117726  0.33179813  0.66526087  1
  Cs  Cs6  1  -0.00020516  0.66786932  -0.00353101  1
  Cs  Cs7  1  -0.00531682  0.65638237  0.33579499  1
  Cs  Cs8  1  -0.00124021  0.66624334  0.66819027  1
  Cs  Cs9  1  0.33280714  -0.00113106  0.00225047  1
  Cs  Cs10  1  0.33280032  -0.00066835  0.33313297  1
  Cs  Cs11  1  0.33334002  0.00200972  0.66268139  1
  Cs  Cs12  1  0.33529480  0.33551820  -0.00059443  1
  Cs  Cs13  1  0.33264172  0.33380211  0.33227900  1
  Cs  Cs14  1  0.33638885  0.33392994  0.66995641  1
  Cs  Cs15  1  0.33357776  0.66712296  -0.00075274  1
  Cs  Cs16  1  0.33453123  0.66729380  0.33151580  1
  Cs  Cs17  1  0.33088181  0.66424084  0.67112537  1
  Cs  Cs18  1  0.66753179  -0.00173629  0.00271741  1
  Cs  Cs19  1  0.66648540  -0.00293928  0.33392842  1
  Cs  Cs20  1  0.66445969  -0.00043562  0.66212955  1
  Cs  Cs21  1  0.66655529  0.33250968  -0.00269955  1
  Cs  Cs22  1  0.66766983  0.33482650  0.33175012  1
  Cs  Cs23  1  0.66522188  0.33151540  0.67122439  1
  Cs  Cs24  1  0.66499541  0.67046667  0.00041151  1
  Cs  Cs25  1  0.66965889  0.66684380  0.33713543  1
  Cs  Cs26  1  0.66963318  0.66932417  0.66220988  1
  Sn  Sn27  1  0.16645069  0.16678050  0.83352489  1
  Sn  Sn28  1  0.16665745  0.83333079  0.49887198  1
  Sn  Sn29  1  0.49977873  0.83387195  0.83343718  1
  Sn  Sn30  1  0.16757336  0.16622561  0.16661816  1
  Sn  Sn31  1  0.16684789  0.83366380  0.16779245  1
  Sn  Sn32  1  0.83392538  0.16711611  0.83248613  1
  Sn  Sn33  1  0.49937670  0.16652905  0.16673535  1
  Sn  Sn34  1  0.83343050  0.49965246  0.83356951  1
  Sn  Sn35  1  0.49987400  0.50017101  0.16740029  1
  Sn  Sn36  1  0.49926497  0.83342046  0.16614954  1
  Sn  Sn37  1  0.83369060  0.16639567  0.50049633  1
  Sn  Sn38  1  0.49947663  0.49976937  0.49966796  1
  Sn  Sn39  1  0.16609718  0.16629504  0.49982813  1
  Pb  Pb40  1  0.50187526  0.50224227  0.83358525  1
  Pb  Pb41  1  0.16843192  0.83554322  0.83347647  1
  Pb  Pb42  1  0.50019737  0.16465155  0.83559354  1
  Pb  Pb43  1  0.83394264  0.16646985  0.16673375  1
  Pb  Pb44  1  0.16850547  0.49965704  0.50002053  1
  Pb  Pb45  1  0.83097807  0.49732742  0.50210800  1
  Pb  Pb46  1  0.16839397  0.50026089  0.16650207  1
  Pb  Pb47  1  0.49973518  0.16825386  0.49751206  1
  Pb  Pb48  1  0.83692129  0.83603612  0.49978279  1
  Pb  Pb49  1  0.83047730  0.50007600  0.16415661  1
  Pb  Pb50  1  0.49776112  0.83139198  0.49936066  1
  Pb  Pb51  1  0.16414227  0.49711115  0.83341194  1
  Pb  Pb52  1  0.83109957  0.83444032  0.83323665  1
  Pb  Pb53  1  0.83449515  0.83330208  0.16706762  1
  I  I54  1  0.17478536  0.00108531  0.16759883  1
  I  I55  1  0.16446246  0.00145200  0.49911594  1
  I  I56  1  0.16073807  0.00380012  0.83388733  1
  I  I57  1  0.17073488  0.32973874  0.16724802  1
  I  I58  1  0.16365109  0.32946687  0.49881632  1
  I  I59  1  0.16776493  0.32841678  0.83300903  1
  I  I60  1  0.17186762  0.67027303  0.17094548  1
  I  I61  1  0.17056429  0.66960544  0.49461122  1
  I  I62  1  0.16605184  0.66700836  0.83335929  1
  I  I63  1  0.49617335  -0.00019872  0.16165649  1
  I  I64  1  0.50234853  0.00010306  0.50005839  1
  I  I65  1  0.50112962  -0.00287701  0.83879057  1
  I  I66  1  0.49621719  0.33284170  0.17083867  1
  I  I67  1  0.49861199  0.33588764  0.49484528  1
  I  I68  1  0.49868960  0.33307323  0.83474519  1
  I  I69  1  0.49595641  0.66749652  0.16542689  1
  I  I70  1  0.49884314  0.66379623  0.49519503  1
  I  I71  1  0.50056785  0.66978918  0.83912476  1
  I  I72  1  0.82681773  0.00027908  0.16390753  1
  I  I73  1  0.83192241  0.00418516  0.50702654  1
  I  I74  1  0.83722690  0.00376904  0.83047161  1
  I  I75  1  0.83262614  0.33303659  0.16789271  1
  I  I76  1  0.84038924  0.32950219  0.50088501  1
  I  I77  1  0.83543099  0.33155116  0.82985569  1
  I  I78  1  0.83367060  0.66654576  0.16417262  1
  I  I79  1  0.83361871  0.66641764  0.50173734  1
  I  I80  1  0.82975975  0.66447365  0.83484950  1
  I  I81  1  0.16657330  0.16311776  0.00062250  1
  I  I82  1  0.16737231  0.16225627  0.33317126  1
  I  I83  1  0.16179888  0.16276539  0.66624682  1
  I  I84  1  0.16927844  0.50001586  -0.00004816  1
  I  I85  1  0.16507233  0.49560647  0.33325093  1
  I  I86  1  0.17174879  0.50144074  0.66668980  1
  I  I87  1  0.17001156  0.83798163  0.00304962  1
  I  I88  1  0.17425425  0.84393624  0.33237210  1
  I  I89  1  0.16900351  0.83817994  0.66437416  1
  I  I90  1  0.49646680  0.17077310  0.00364890  1
  I  I91  1  0.49669692  0.16225901  0.32945023  1
  I  I92  1  0.49776221  0.16731397  0.66665103  1
  I  I93  1  0.50119673  0.49848433  0.00302001  1
  I  I94  1  0.49918120  0.50094314  0.33194376  1
  I  I95  1  0.50089012  0.50065919  0.66468072  1
  I  I96  1  0.49526209  0.83144322  0.00200283  1
  I  I97  1  0.49749692  0.83524806  0.32997354  1
  I  I98  1  0.49927154  0.83160502  0.66844403  1
  I  I99  1  0.83579615  0.17040425  -0.00287670  1
  I  I100  1  0.83614069  0.16590735  0.33600919  1
  I  I101  1  0.84092143  0.17029603  0.66713500  1
  I  I102  1  0.83196417  0.49149547  -0.00352274  1
  I  I103  1  0.83371753  0.49875064  0.33356522  1
  I  I104  1  0.82988595  0.49721091  0.66970267  1
  I  I105  1  0.83596258  0.83525285  -0.00010986  1
  I  I106  1  0.82673281  0.83506258  0.33357465  1
  I  I107  1  0.83109907  0.83123095  0.66659299  1
  I  I108  1  0.00369096  0.16098273  0.16589196  1
  I  I109  1  0.00125861  0.16305758  0.49926824  1
  I  I110  1  0.00047513  0.16961090  0.83477205  1
  I  I111  1  -0.00007673  0.49969707  0.16603677  1
  I  I112  1  -0.00018283  0.50198330  0.50127661  1
  I  I113  1  -0.00375531  0.49960863  0.83230998  1
  I  I114  1  0.00444946  0.84139710  0.16899471  1
  I  I115  1  0.00500866  0.83469881  0.49482937  1
  I  I116  1  0.00023420  0.83128271  0.83415084  1
  I  I117  1  0.33266977  0.16601719  0.16670702  1
  I  I118  1  0.33005165  0.16417130  0.50225105  1
  I  I119  1  0.33062640  0.16410000  0.83063564  1
  I  I120  1  0.33704749  0.49915122  0.16866837  1
  I  I121  1  0.33643579  0.49756448  0.49645332  1
  I  I122  1  0.33369273  0.49922315  0.83313610  1
  I  I123  1  0.33389439  0.83498248  0.16634652  1
  I  I124  1  0.33007172  0.84138502  0.49871898  1
  I  I125  1  0.33625426  0.83381768  0.83608376  1
  I  I126  1  0.66369350  0.16643401  0.16610305  1
  I  I127  1  0.66886882  0.16994200  0.50439120  1
  I  I128  1  0.66933575  0.16942713  0.83029601  1
  I  I129  1  0.66185919  0.49907700  0.17046659  1
  I  I130  1  0.66324395  0.49985088  0.49486272  1
  I  I131  1  0.66935317  0.49133918  0.83389055  1
  I  I132  1  0.66301082  0.83463043  0.16171225  1
  I  I133  1  0.66651229  0.83362810  0.50026001  1
  I  I134  1  0.66308273  0.83468884  0.84067255  1
