# generated using pymatgen
data_Cs27Sn13Pb14I81
_symmetry_space_group_name_H-M   'P 1'
_cell_length_a   18.97707614
_cell_length_b   18.97724392
_cell_length_c   18.97663598
_cell_angle_alpha   90.00267854
_cell_angle_beta   89.99938105
_cell_angle_gamma   89.99827207
_symmetry_Int_Tables_number   1
_chemical_formula_structural   Cs27Sn13Pb14I81
_chemical_formula_sum   'Cs27 Sn13 Pb14 I81'
_cell_volume   6834.10529739
_cell_formula_units_Z   1
loop_
 _symmetry_equiv_pos_site_id
 _symmetry_equiv_pos_as_xyz
  1  'x, y, z'
loop_
 _atom_site_type_symbol
 _atom_site_label
 _atom_site_symmetry_multiplicity
 _atom_site_fract_x
 _atom_site_fract_y
 _atom_site_fract_z
 _atom_site_occupancy
  Cs  Cs0  1  -0.00298779  -0.00100309  0.00270138  1
  Cs  Cs1  1  0.00266780  0.00297533  0.33248142  1
  Cs  Cs2  1  0.00150107  -0.00060672  0.66508262  1
  Cs  Cs3  1  0.00087399  0.33446991  0.00109704  1
  Cs  Cs4  1  -0.00027462  0.32905138  0.32920452  1
  Cs  Cs5  1  -0.00246061  0.33450498  0.66853550  1
  Cs  Cs6  1  0.00096577  0.66640921  -0.00137823  1
  Cs  Cs7  1  -0.00038391  0.66780088  0.33807086  1
  Cs  Cs8  1  0.00058789  0.66613575  0.66696354  1
  Cs  Cs9  1  0.33822321  -0.00219171  -0.00336260  1
  Cs  Cs10  1  0.33018425  0.00158472  0.33756342  1
  Cs  Cs11  1  0.33397059  0.00073771  0.66490232  1
  Cs  Cs12  1  0.33095344  0.33687475  -0.00080430  1
  Cs  Cs13  1  0.33382815  0.33324627  0.32867535  1
  Cs  Cs14  1  0.33396615  0.33252574  0.67018031  1
  Cs  Cs15  1  0.33178813  0.66419712  0.00510784  1
  Cs  Cs16  1  0.33686704  0.66578869  0.33059834  1
  Cs  Cs17  1  0.32842191  0.66553419  0.66563042  1
  Cs  Cs18  1  0.66582907  -0.00734410  0.00081436  1
  Cs  Cs19  1  0.66716744  0.00085318  0.33189859  1
  Cs  Cs20  1  0.66535404  0.00122938  0.66827936  1
  Cs  Cs21  1  0.66871719  0.33128440  -0.00266943  1
  Cs  Cs22  1  0.66580521  0.33475646  0.33540509  1
  Cs  Cs23  1  0.66731624  0.33331727  0.66582436  1
  Cs  Cs24  1  0.66676074  0.67457652  0.00178986  1
  Cs  Cs25  1  0.66238680  0.66307029  0.33420912  1
  Cs  Cs26  1  0.66882948  0.66522251  0.66463331  1
  Sn  Sn27  1  0.50129160  0.50046157  0.83337849  1
  Sn  Sn28  1  0.83310252  0.50005586  0.16563231  1
  Sn  Sn29  1  0.83239669  0.83442346  0.50020059  1
  Sn  Sn30  1  0.16670946  0.49915519  0.49966409  1
  Sn  Sn31  1  0.16642862  0.83439822  0.83431144  1
  Sn  Sn32  1  0.16562034  0.16556658  0.83326870  1
  Sn  Sn33  1  0.16648469  0.83371872  0.16584062  1
  Sn  Sn34  1  0.50078546  0.16610823  0.49919992  1
  Sn  Sn35  1  0.83407456  0.16683040  0.83286269  1
  Sn  Sn36  1  0.50099336  0.83385004  0.50035278  1
  Sn  Sn37  1  0.83269295  0.16568873  0.50071993  1
  Sn  Sn38  1  0.83214757  0.49967794  0.83445045  1
  Sn  Sn39  1  0.50031198  0.16660580  0.16709020  1
  Pb  Pb40  1  0.16891288  0.16469502  0.16353843  1
  Pb  Pb41  1  0.50230989  0.49805442  0.16402126  1
  Pb  Pb42  1  0.83161131  0.16789039  0.16638028  1
  Pb  Pb43  1  0.16663083  0.16887228  0.50178920  1
  Pb  Pb44  1  0.83497783  0.83115223  0.16969643  1
  Pb  Pb45  1  0.16598559  0.49987845  0.83246769  1
  Pb  Pb46  1  0.83464959  0.49924726  0.50035121  1
  Pb  Pb47  1  0.49759611  0.83056675  0.83094941  1
  Pb  Pb48  1  0.49803459  0.49933053  0.50159817  1
  Pb  Pb49  1  0.16681285  0.83218705  0.50012187  1
  Pb  Pb50  1  0.16449535  0.50179389  0.16920971  1
  Pb  Pb51  1  0.49807340  0.83543724  0.16929818  1
  Pb  Pb52  1  0.83497085  0.83355282  0.83146332  1
  Pb  Pb53  1  0.50063672  0.16771456  0.83302043  1
  I  I54  1  0.16545091  -0.00303636  0.16788598  1
  I  I55  1  0.16671418  0.00026862  0.49954409  1
  I  I56  1  0.16192897  0.00044027  0.83465488  1
  I  I57  1  0.16720191  0.33312235  0.16667031  1
  I  I58  1  0.16566611  0.33604440  0.50371000  1
  I  I59  1  0.16622508  0.33110944  0.82945638  1
  I  I60  1  0.16698030  0.66957266  0.16051612  1
  I  I61  1  0.16521888  0.66473111  0.50349228  1
  I  I62  1  0.16703165  0.66874681  0.83361740  1
  I  I63  1  0.50126397  0.00324628  0.16628077  1
  I  I64  1  0.50239959  0.00078852  0.49764683  1
  I  I65  1  0.50080763  -0.00012125  0.83465399  1
  I  I66  1  0.49936464  0.33035558  0.17438643  1
  I  I67  1  0.50387116  0.33013954  0.49856428  1
  I  I68  1  0.49868964  0.33552967  0.83047917  1
  I  I69  1  0.49916209  0.66676156  0.16781279  1
  I  I70  1  0.50247298  0.66894535  0.50268495  1
  I  I71  1  0.50489388  0.66297526  0.83082606  1
  I  I72  1  0.83321581  -0.00006356  0.16474818  1
  I  I73  1  0.83062194  0.00106319  0.50571861  1
  I  I74  1  0.83604321  0.00296048  0.82990815  1
  I  I75  1  0.83385683  0.33588132  0.16757328  1
  I  I76  1  0.83026078  0.33030089  0.50194742  1
  I  I77  1  0.83553646  0.33284227  0.83024660  1
  I  I78  1  0.83418049  0.66337465  0.16133070  1
  I  I79  1  0.83207819  0.66857759  0.49994440  1
  I  I80  1  0.83202701  0.66402184  0.83420259  1
  I  I81  1  0.16210253  0.16771953  -0.00438359  1
  I  I82  1  0.16450198  0.16629812  0.33330430  1
  I  I83  1  0.16757648  0.16148430  0.66970216  1
  I  I84  1  0.16837010  0.49921194  0.00003969  1
  I  I85  1  0.16522428  0.50248038  0.33662063  1
  I  I86  1  0.16474725  0.50314883  0.66489380  1
  I  I87  1  0.16596220  0.83587649  -0.00106948  1
  I  I88  1  0.16655341  0.82960603  0.33179242  1
  I  I89  1  0.16655090  0.83463417  0.66880375  1
  I  I90  1  0.49858998  0.17038072  0.00160557  1
  I  I91  1  0.50495326  0.16388522  0.33523042  1
  I  I92  1  0.50072657  0.16450359  0.66395883  1
  I  I93  1  0.49880891  0.49672984  -0.00375848  1
  I  I94  1  0.49994803  0.50160635  0.33331347  1
  I  I95  1  0.50550348  0.49723674  0.66928268  1
  I  I96  1  0.49997409  0.83461922  -0.00003490  1
  I  I97  1  0.50091177  0.83292209  0.33728592  1
  I  I98  1  0.50092538  0.84038089  0.66314390  1
  I  I99  1  0.83608552  0.17087280  -0.00315224  1
  I  I100  1  0.83145297  0.16542281  0.33634395  1
  I  I101  1  0.83157708  0.16948876  0.66660338  1
  I  I102  1  0.83139642  0.49349375  -0.00184059  1
  I  I103  1  0.83697504  0.50064042  0.33184657  1
  I  I104  1  0.83200136  0.49848452  0.66929574  1
  I  I105  1  0.83360860  0.83497159  -0.00005850  1
  I  I106  1  0.83342151  0.83721229  0.33764534  1
  I  I107  1  0.83316939  0.83185858  0.66346964  1
  I  I108  1  -0.00006631  0.16720137  0.16936126  1
  I  I109  1  -0.00298720  0.16387009  0.50287916  1
  I  I110  1  -0.00118316  0.16958091  0.82715472  1
  I  I111  1  -0.00314543  0.49844293  0.16041516  1
  I  I112  1  0.00203304  0.50244160  0.50317662  1
  I  I113  1  -0.00288678  0.49849247  0.83431546  1
  I  I114  1  0.00280601  0.83315900  0.16525573  1
  I  I115  1  -0.00224203  0.83522663  0.50040852  1
  I  I116  1  0.00295432  0.83187644  0.83265700  1
  I  I117  1  0.33657316  0.16697467  0.17312667  1
  I  I118  1  0.33608713  0.16332943  0.49878159  1
  I  I119  1  0.33139249  0.16561031  0.83257264  1
  I  I120  1  0.33347658  0.50009238  0.16596317  1
  I  I121  1  0.33067285  0.50202476  0.50408387  1
  I  I122  1  0.33473995  0.49886127  0.82903625  1
  I  I123  1  0.33026284  0.83216898  0.16437589  1
  I  I124  1  0.33561868  0.83638217  0.50074384  1
  I  I125  1  0.32969039  0.83793885  0.83324265  1
  I  I126  1  0.66387141  0.16771043  0.16691069  1
  I  I127  1  0.66714696  0.16383600  0.50278269  1
  I  I128  1  0.66960355  0.17123079  0.83087446  1
  I  I129  1  0.67005699  0.50003834  0.16741874  1
  I  I130  1  0.66671904  0.50099547  0.49935014  1
  I  I131  1  0.66824343  0.49269492  0.83409953  1
  I  I132  1  0.66660942  0.83306287  0.16594860  1
  I  I133  1  0.66688341  0.83595337  0.50084089  1
  I  I134  1  0.66669021  0.83514044  0.83352495  1
