# generated using pymatgen
data_Cs27Sn14Pb13I81
_symmetry_space_group_name_H-M   'P 1'
_cell_length_a   18.98898733
_cell_length_b   18.97468258
_cell_length_c   18.96760722
_cell_angle_alpha   90.00071640
_cell_angle_beta   89.99857884
_cell_angle_gamma   89.99997408
_symmetry_Int_Tables_number   1
_chemical_formula_structural   Cs27Sn14Pb13I81
_chemical_formula_sum   'Cs27 Sn14 Pb13 I81'
_cell_volume   6834.21869002
_cell_formula_units_Z   1
loop_
 _symmetry_equiv_pos_site_id
 _symmetry_equiv_pos_as_xyz
  1  'x, y, z'
loop_
 _atom_site_type_symbol
 _atom_site_label
 _atom_site_symmetry_multiplicity
 _atom_site_fract_x
 _atom_site_fract_y
 _atom_site_fract_z
 _atom_site_occupancy
  Cs  Cs0  1  -0.00035682  -0.00001697  -0.00182471  1
  Cs  Cs1  1  -0.00455897  0.00199269  0.33226537  1
  Cs  Cs2  1  0.00186653  -0.00185228  0.66731249  1
  Cs  Cs3  1  0.00019117  0.33482665  -0.00033048  1
  Cs  Cs4  1  -0.00469723  0.33327190  0.33205345  1
  Cs  Cs5  1  0.00188450  0.33613914  0.66801868  1
  Cs  Cs6  1  0.00122357  0.66507344  0.00207590  1
  Cs  Cs7  1  0.00299237  0.66550080  0.33422390  1
  Cs  Cs8  1  -0.00056457  0.66723075  0.66650291  1
  Cs  Cs9  1  0.33450430  0.00249820  0.00056409  1
  Cs  Cs10  1  0.33428898  0.00034961  0.33179696  1
  Cs  Cs11  1  0.33123811  -0.00081597  0.66705306  1
  Cs  Cs12  1  0.33368644  0.33032698  0.00028353  1
  Cs  Cs13  1  0.33719290  0.33206710  0.33486431  1
  Cs  Cs14  1  0.33285400  0.33434495  0.66355728  1
  Cs  Cs15  1  0.33323578  0.66459140  0.00628514  1
  Cs  Cs16  1  0.33106700  0.66602386  0.32752713  1
  Cs  Cs17  1  0.33168818  0.66770574  0.66667924  1
  Cs  Cs18  1  0.66475509  0.00062019  -0.00094833  1
  Cs  Cs19  1  0.66945106  0.00307213  0.33126055  1
  Cs  Cs20  1  0.66702342  -0.00331255  0.66834814  1
  Cs  Cs21  1  0.66626575  0.33327909  -0.00030691  1
  Cs  Cs22  1  0.66724695  0.32994605  0.33501591  1
  Cs  Cs23  1  0.66470199  0.33647533  0.66555945  1
  Cs  Cs24  1  0.66469671  0.66519287  0.00272034  1
  Cs  Cs25  1  0.66540930  0.66635479  0.32840780  1
  Cs  Cs26  1  0.66925154  0.66805386  0.66775154  1
  Sn  Sn27  1  0.16661233  0.83273595  0.50066667  1
  Sn  Sn28  1  0.16683864  0.83229202  0.83305756  1
  Sn  Sn29  1  0.50056222  0.16611287  0.83335050  1
  Sn  Sn30  1  0.83397794  0.50114895  0.50107584  1
  Sn  Sn31  1  0.49907748  0.16641057  0.16584112  1
  Sn  Sn32  1  0.16696265  0.16653568  0.16666676  1
  Sn  Sn33  1  0.83406768  0.50043068  0.83260545  1
  Sn  Sn34  1  0.83336507  0.83292514  0.83315822  1
  Sn  Sn35  1  0.16601144  0.50080028  0.50103864  1
  Sn  Sn36  1  0.16631142  0.50102403  0.83256293  1
  Sn  Sn37  1  0.83261985  0.16673656  0.83287731  1
  Sn  Sn38  1  0.83336627  0.83230823  0.50067359  1
  Sn  Sn39  1  0.49972752  0.83381149  0.83267711  1
  Sn  Sn40  1  0.50002205  0.83319680  0.50071654  1
  Pb  Pb41  1  0.16648928  0.83536577  0.16668984  1
  Pb  Pb42  1  0.50000962  0.83525127  0.16635047  1
  Pb  Pb43  1  0.50005110  0.49667480  0.16677701  1
  Pb  Pb44  1  0.50007526  0.16399438  0.50101977  1
  Pb  Pb45  1  0.16656748  0.49761040  0.16699358  1
  Pb  Pb46  1  0.83346554  0.50023206  0.16696822  1
  Pb  Pb47  1  0.16646583  0.16676424  0.49765014  1
  Pb  Pb48  1  0.83300979  0.16663430  0.16371289  1
  Pb  Pb49  1  0.83349574  0.83309437  0.16670229  1
  Pb  Pb50  1  0.83345709  0.16675452  0.50317993  1
  Pb  Pb51  1  0.16688075  0.16679541  0.83420604  1
  Pb  Pb52  1  0.49973368  0.50053615  0.83322352  1
  Pb  Pb53  1  0.50012193  0.50319430  0.50029148  1
  I  I54  1  0.17125706  0.00301188  0.16520655  1
  I  I55  1  0.16613311  -0.00377382  0.50451419  1
  I  I56  1  0.16431334  -0.00305646  0.83034416  1
  I  I57  1  0.17183419  0.33002172  0.16461000  1
  I  I58  1  0.16159523  0.33693146  0.50413407  1
  I  I59  1  0.16311707  0.33609255  0.83101132  1
  I  I60  1  0.16630363  0.66656505  0.16611971  1
  I  I61  1  0.16587991  0.66755144  0.50406116  1
  I  I62  1  0.16385824  0.66740222  0.82988566  1
  I  I63  1  0.49567700  0.00310826  0.16418328  1
  I  I64  1  0.49980726  -0.00435774  0.50146466  1
  I  I65  1  0.50307010  -0.00081844  0.83386390  1
  I  I66  1  0.49570101  0.32842880  0.15926781  1
  I  I67  1  0.49955617  0.33340488  0.49814378  1
  I  I68  1  0.50312671  0.33055240  0.83944174  1
  I  I69  1  0.50061294  0.66698952  0.16594371  1
  I  I70  1  0.50034779  0.67125310  0.50897276  1
  I  I71  1  0.50263941  0.67030285  0.82766073  1
  I  I72  1  0.83402390  0.00018354  0.16829127  1
  I  I73  1  0.83407312  -0.00361483  0.50319448  1
  I  I74  1  0.83321106  -0.00116362  0.83066837  1
  I  I75  1  0.83282562  0.33319277  0.16708818  1
  I  I76  1  0.83912973  0.33675233  0.50336428  1
  I  I77  1  0.83403174  0.33401386  0.83075284  1
  I  I78  1  0.83299915  0.66663387  0.16110098  1
  I  I79  1  0.83401928  0.66748097  0.50877665  1
  I  I80  1  0.83350049  0.66723441  0.82904662  1
  I  I81  1  0.16808440  0.16623930  0.00193025  1
  I  I82  1  0.17433929  0.16604840  0.32982348  1
  I  I83  1  0.16734094  0.16672401  0.66673340  1
  I  I84  1  0.16228516  0.50369487  -0.00338569  1
  I  I85  1  0.16231880  0.50453894  0.33698196  1
  I  I86  1  0.16224311  0.50278059  0.66713158  1
  I  I87  1  0.16650254  0.83039681  -0.00385414  1
  I  I88  1  0.16689446  0.82975708  0.33708477  1
  I  I89  1  0.16669343  0.83114756  0.66735132  1
  I  I90  1  0.50011245  0.16034113  -0.00160263  1
  I  I91  1  0.49480219  0.16586359  0.33086916  1
  I  I92  1  0.50448466  0.16456058  0.67031115  1
  I  I93  1  0.50019213  0.50531777  -0.00048662  1
  I  I94  1  0.49987136  0.50054295  0.33378873  1
  I  I95  1  0.49908354  0.49148087  0.66685823  1
  I  I96  1  0.50060864  0.83546031  -0.00380379  1
  I  I97  1  0.49982777  0.83363450  0.33659294  1
  I  I98  1  0.50006067  0.83993053  0.66794132  1
  I  I99  1  0.83243739  0.16573895  -0.00464812  1
  I  I100  1  0.83258122  0.16670096  0.33344025  1
  I  I101  1  0.82760975  0.16557245  0.67125024  1
  I  I102  1  0.83748198  0.50014222  -0.00410848  1
  I  I103  1  0.83822018  0.50497118  0.33736816  1
  I  I104  1  0.83769531  0.50065902  0.66768470  1
  I  I105  1  0.83309174  0.83369997  -0.00453733  1
  I  I106  1  0.83363194  0.82908164  0.33744396  1
  I  I107  1  0.83292237  0.83340037  0.66763452  1
  I  I108  1  0.00219839  0.16678650  0.16615949  1
  I  I109  1  -0.00005935  0.16122963  0.49821892  1
  I  I110  1  -0.00235843  0.16398955  0.83493856  1
  I  I111  1  0.00017324  0.49491287  0.16539430  1
  I  I112  1  0.00002392  0.50785233  0.50420347  1
  I  I113  1  -0.00025636  0.50133383  0.83015703  1
  I  I114  1  0.00013354  0.83869413  0.16533983  1
  I  I115  1  -0.00001220  0.83006030  0.50621192  1
  I  I116  1  -0.00020700  0.83477003  0.82859116  1
  I  I117  1  0.33432095  0.16589418  0.15924140  1
  I  I118  1  0.33331024  0.16709399  0.50388080  1
  I  I119  1  0.33580748  0.16285768  0.83638225  1
  I  I120  1  0.33299663  0.50162066  0.16627498  1
  I  I121  1  0.32996317  0.50260792  0.50445187  1
  I  I122  1  0.32993845  0.50208427  0.82923112  1
  I  I123  1  0.33327547  0.83307217  0.16688242  1
  I  I124  1  0.33266812  0.83140926  0.50661812  1
  I  I125  1  0.33311825  0.83503600  0.82723619  1
  I  I126  1  0.66373415  0.16549920  0.16422219  1
  I  I127  1  0.66673304  0.16793368  0.49405817  1
  I  I128  1  0.66648737  0.16322898  0.83905493  1
  I  I129  1  0.66687177  0.49810038  0.16634204  1
  I  I130  1  0.67016197  0.50277711  0.50518743  1
  I  I131  1  0.66995353  0.50115568  0.82931580  1
  I  I132  1  0.66662955  0.83689060  0.16733400  1
  I  I133  1  0.66742106  0.83090195  0.50680591  1
  I  I134  1  0.66702768  0.83514665  0.82790937  1
