# generated using pymatgen
data_Cs27Sn14Pb13I81
_symmetry_space_group_name_H-M   'P 1'
_cell_length_a   18.97283624
_cell_length_b   18.97232653
_cell_length_c   18.98125356
_cell_angle_alpha   90.00116038
_cell_angle_beta   90.00019246
_cell_angle_gamma   90.00426717
_symmetry_Int_Tables_number   1
_chemical_formula_structural   Cs27Sn14Pb13I81
_chemical_formula_sum   'Cs27 Sn14 Pb13 I81'
_cell_volume   6832.47007658
_cell_formula_units_Z   1
loop_
 _symmetry_equiv_pos_site_id
 _symmetry_equiv_pos_as_xyz
  1  'x, y, z'
loop_
 _atom_site_type_symbol
 _atom_site_label
 _atom_site_symmetry_multiplicity
 _atom_site_fract_x
 _atom_site_fract_y
 _atom_site_fract_z
 _atom_site_occupancy
  Cs  Cs0  1  -0.00275492  -0.00160894  -0.00183488  1
  Cs  Cs1  1  0.00253476  -0.00335674  0.33310323  1
  Cs  Cs2  1  0.00002037  -0.00061574  0.66943358  1
  Cs  Cs3  1  0.00033169  0.33520050  0.00160818  1
  Cs  Cs4  1  -0.00018102  0.33427290  0.33581050  1
  Cs  Cs5  1  -0.00360009  0.33074514  0.66092149  1
  Cs  Cs6  1  0.00100975  0.66609231  0.00111702  1
  Cs  Cs7  1  -0.00101209  0.66731914  0.33222708  1
  Cs  Cs8  1  -0.00075000  0.67002985  0.66629954  1
  Cs  Cs9  1  0.33464255  0.00178768  0.00220227  1
  Cs  Cs10  1  0.33345902  -0.00009743  0.33456367  1
  Cs  Cs11  1  0.33145326  0.00422580  0.66373411  1
  Cs  Cs12  1  0.33229892  0.33570483  -0.00288642  1
  Cs  Cs13  1  0.33197842  0.33381879  0.33454633  1
  Cs  Cs14  1  0.33454372  0.33074098  0.66686461  1
  Cs  Cs15  1  0.33377552  0.66163819  -0.01039957  1
  Cs  Cs16  1  0.33309188  0.66726865  0.33397735  1
  Cs  Cs17  1  0.33673521  0.66654916  0.67218184  1
  Cs  Cs18  1  0.66904193  0.00090925  0.00396039  1
  Cs  Cs19  1  0.66360599  -0.00194345  0.32693845  1
  Cs  Cs20  1  0.66776519  -0.00159702  0.67099279  1
  Cs  Cs21  1  0.66754833  0.33285226  0.00232252  1
  Cs  Cs22  1  0.66844202  0.33421628  0.33292801  1
  Cs  Cs23  1  0.66734711  0.33455835  0.66473845  1
  Cs  Cs24  1  0.66642818  0.66558719  -0.00168419  1
  Cs  Cs25  1  0.66765591  0.66679644  0.33318273  1
  Cs  Cs26  1  0.66364060  0.66677730  0.66973277  1
  Sn  Sn27  1  0.83367080  0.83356814  0.49918344  1
  Sn  Sn28  1  0.49980691  0.16736719  0.50038327  1
  Sn  Sn29  1  0.16639619  0.16604732  0.16683963  1
  Sn  Sn30  1  0.16709662  0.16662935  0.49972828  1
  Sn  Sn31  1  0.49907578  0.49932998  0.49898043  1
  Sn  Sn32  1  0.83414920  0.83225115  0.16774001  1
  Sn  Sn33  1  0.49970555  0.16669043  0.83275080  1
  Sn  Sn34  1  0.16613789  0.83314116  0.49943415  1
  Sn  Sn35  1  0.83371300  0.49981692  0.83407162  1
  Sn  Sn36  1  0.16650435  0.83365004  0.16704727  1
  Sn  Sn37  1  0.16701076  0.16673539  0.83332685  1
  Sn  Sn38  1  0.50026275  0.50015477  0.16747224  1
  Sn  Sn39  1  0.16753005  0.50039090  0.50007350  1
  Sn  Sn40  1  0.83264707  0.50067275  0.16607005  1
  Pb  Pb41  1  0.16687336  0.83572985  0.83345756  1
  Pb  Pb42  1  0.49750611  0.16898087  0.16717347  1
  Pb  Pb43  1  0.83292369  0.50197343  0.49939382  1
  Pb  Pb44  1  0.49955373  0.83357073  0.50001372  1
  Pb  Pb45  1  0.16667767  0.50060106  0.16829018  1
  Pb  Pb46  1  0.49908190  0.83037240  0.16655517  1
  Pb  Pb47  1  0.83604650  0.16652018  0.16699439  1
  Pb  Pb48  1  0.50175236  0.49775688  0.83281759  1
  Pb  Pb49  1  0.83352328  0.83113365  0.83394434  1
  Pb  Pb50  1  0.16436313  0.49736725  0.82979039  1
  Pb  Pb51  1  0.83270868  0.16342729  0.49967214  1
  Pb  Pb52  1  0.83316671  0.16885349  0.83327458  1
  Pb  Pb53  1  0.49985070  0.83709804  0.83348039  1
  I  I54  1  0.16177771  -0.00020255  0.17131009  1
  I  I55  1  0.16680148  0.00065685  0.49961556  1
  I  I56  1  0.16963771  0.00395144  0.82830160  1
  I  I57  1  0.16718722  0.33109385  0.16798135  1
  I  I58  1  0.17072029  0.33263865  0.49959312  1
  I  I59  1  0.17063376  0.32939670  0.83533990  1
  I  I60  1  0.16460223  0.66936236  0.17356353  1
  I  I61  1  0.16561307  0.66711427  0.49338424  1
  I  I62  1  0.16527599  0.66628759  0.83365652  1
  I  I63  1  0.50314847  0.00018239  0.16604999  1
  I  I64  1  0.49623002  0.00324316  0.50472839  1
  I  I65  1  0.49605011  0.00526860  0.82582730  1
  I  I66  1  0.50509463  0.33678303  0.16854410  1
  I  I67  1  0.49215873  0.33334767  0.50013332  1
  I  I68  1  0.49509195  0.33015097  0.83146496  1
  I  I69  1  0.50011414  0.66242913  0.17430119  1
  I  I70  1  0.49735840  0.66362734  0.49538067  1
  I  I71  1  0.50168499  0.66605603  0.83290652  1
  I  I72  1  0.83516924  -0.00328836  0.17100323  1
  I  I73  1  0.83806374  -0.00441818  0.49424301  1
  I  I74  1  0.83263545  0.00003998  0.83344995  1
  I  I75  1  0.83081343  0.33642801  0.16247661  1
  I  I76  1  0.83646175  0.33346732  0.50019197  1
  I  I77  1  0.83393187  0.33662736  0.83909448  1
  I  I78  1  0.83606232  0.66674206  0.16717929  1
  I  I79  1  0.83857496  0.66963003  0.49854545  1
  I  I80  1  0.83241910  0.66331165  0.83402716  1
  I  I81  1  0.17005485  0.16225176  0.00024245  1
  I  I82  1  0.17005167  0.16581607  0.33452200  1
  I  I83  1  0.17073768  0.16718710  0.66533642  1
  I  I84  1  0.16866666  0.49946741  -0.00009599  1
  I  I85  1  0.16564112  0.49494073  0.33642378  1
  I  I86  1  0.17109768  0.50136974  0.66169602  1
  I  I87  1  0.16147696  0.83787130  0.00349185  1
  I  I88  1  0.16202866  0.83853925  0.33405085  1
  I  I89  1  0.16215421  0.83388030  0.66311391  1
  I  I90  1  0.49499640  0.16819339  -0.00207998  1
  I  I91  1  0.49536909  0.16851803  0.33635180  1
  I  I92  1  0.49082357  0.17266781  0.66530563  1
  I  I93  1  0.50252981  0.49937899  0.00224164  1
  I  I94  1  0.50230917  0.49402633  0.33439105  1
  I  I95  1  0.49772371  0.49840690  0.66356055  1
  I  I96  1  0.50039917  0.83282290  0.00035002  1
  I  I97  1  0.50087015  0.83817578  0.33333967  1
  I  I98  1  0.50162599  0.82714973  0.66627671  1
  I  I99  1  0.83344163  0.16305251  0.00016229  1
  I  I100  1  0.83242965  0.17303785  0.33336039  1
  I  I101  1  0.83794268  0.16734596  0.66638585  1
  I  I102  1  0.82812304  0.50472476  0.00188621  1
  I  I103  1  0.83232507  0.50254144  0.33074092  1
  I  I104  1  0.83408694  0.50018686  0.66789725  1
  I  I105  1  0.83835064  0.83159034  0.00368998  1
  I  I106  1  0.83830466  0.82704447  0.33252991  1
  I  I107  1  0.83799846  0.83273978  0.66385491  1
  I  I108  1  0.00439734  0.16831209  0.16775520  1
  I  I109  1  0.00352777  0.17044616  0.50071326  1
  I  I110  1  0.00324846  0.16741544  0.83151493  1
  I  I111  1  -0.00236343  0.50076672  0.16451095  1
  I  I112  1  0.00261770  0.49636784  0.50001362  1
  I  I113  1  -0.00299565  0.49842895  0.83983537  1
  I  I114  1  0.00014948  0.83153979  0.17149336  1
  I  I115  1  0.00152713  0.83268631  0.49610062  1
  I  I116  1  0.00015393  0.83626235  0.83177375  1
  I  I117  1  0.32941589  0.16184308  0.16777072  1
  I  I118  1  0.33193799  0.16560647  0.50074691  1
  I  I119  1  0.33246531  0.16766930  0.83149167  1
  I  I120  1  0.33538798  0.49852542  0.17017652  1
  I  I121  1  0.33335454  0.50021283  0.49373744  1
  I  I122  1  0.33325488  0.50143068  0.83663550  1
  I  I123  1  0.32956146  0.83805528  0.17316757  1
  I  I124  1  0.32973388  0.83444967  0.49479763  1
  I  I125  1  0.33303233  0.82759166  0.83387903  1
  I  I126  1  0.66643067  0.16427299  0.16565000  1
  I  I127  1  0.66315846  0.17172256  0.50585042  1
  I  I128  1  0.66357652  0.16844021  0.82688203  1
  I  I129  1  0.66733288  0.50430946  0.16886793  1
  I  I130  1  0.66397995  0.49608457  0.49950306  1
  I  I131  1  0.66941507  0.49787028  0.83252138  1
  I  I132  1  0.66968222  0.83127408  0.17139255  1
  I  I133  1  0.66934724  0.83226110  0.49560964  1
  I  I134  1  0.66701103  0.83559758  0.83174824  1
