# generated using pymatgen
data_Cs27Sn14Pb13I81
_symmetry_space_group_name_H-M   'P 1'
_cell_length_a   18.97631726
_cell_length_b   18.97738419
_cell_length_c   18.97185925
_cell_angle_alpha   89.99940339
_cell_angle_beta   89.99790733
_cell_angle_gamma   90.00093731
_symmetry_Int_Tables_number   1
_chemical_formula_structural   Cs27Sn14Pb13I81
_chemical_formula_sum   'Cs27 Sn14 Pb13 I81'
_cell_volume   6832.16232371
_cell_formula_units_Z   1
loop_
 _symmetry_equiv_pos_site_id
 _symmetry_equiv_pos_as_xyz
  1  'x, y, z'
loop_
 _atom_site_type_symbol
 _atom_site_label
 _atom_site_symmetry_multiplicity
 _atom_site_fract_x
 _atom_site_fract_y
 _atom_site_fract_z
 _atom_site_occupancy
  Cs  Cs0  1  -0.00159010  0.00045128  0.00182610  1
  Cs  Cs1  1  0.00070463  0.00027952  0.32900572  1
  Cs  Cs2  1  0.00232887  0.00072377  0.66714227  1
  Cs  Cs3  1  -0.00017605  0.33176659  -0.00241147  1
  Cs  Cs4  1  -0.00533595  0.33118169  0.33573323  1
  Cs  Cs5  1  -0.00105966  0.33381757  0.66778436  1
  Cs  Cs6  1  0.00345062  0.66917368  0.00207805  1
  Cs  Cs7  1  0.00198806  0.66790766  0.33535037  1
  Cs  Cs8  1  -0.00035359  0.66585758  0.66468441  1
  Cs  Cs9  1  0.33279394  0.00096217  0.00038421  1
  Cs  Cs10  1  0.33394050  0.00016365  0.33499629  1
  Cs  Cs11  1  0.33307898  0.00297797  0.66527502  1
  Cs  Cs12  1  0.33411260  0.34174348  -0.00035372  1
  Cs  Cs13  1  0.33483679  0.33045734  0.33342202  1
  Cs  Cs14  1  0.33390139  0.32819617  0.66835616  1
  Cs  Cs15  1  0.33214471  0.65481787  0.00191586  1
  Cs  Cs16  1  0.33466218  0.66800044  0.33152437  1
  Cs  Cs17  1  0.33129143  0.66754426  0.66698934  1
  Cs  Cs18  1  0.66913923  -0.00272798  -0.00098654  1
  Cs  Cs19  1  0.66522604  0.00019248  0.33053268  1
  Cs  Cs20  1  0.66415766  -0.00151463  0.66964509  1
  Cs  Cs21  1  0.66632545  0.33389082  0.00165338  1
  Cs  Cs22  1  0.66954187  0.33598538  0.33156901  1
  Cs  Cs23  1  0.66970943  0.33119738  0.66719676  1
  Cs  Cs24  1  0.66481885  0.66814243  -0.00442946  1
  Cs  Cs25  1  0.66339859  0.66404793  0.33765410  1
  Cs  Cs26  1  0.66783790  0.67018187  0.66366917  1
  Sn  Sn27  1  0.49910676  0.16596476  0.16636562  1
  Sn  Sn28  1  0.49971724  0.83389129  0.16680080  1
  Sn  Sn29  1  0.83398363  0.16704222  0.83251558  1
  Sn  Sn30  1  0.49963160  0.83288219  0.49951719  1
  Sn  Sn31  1  0.16811619  0.50031255  0.50001238  1
  Sn  Sn32  1  0.16762362  0.16681368  0.16563388  1
  Sn  Sn33  1  0.16678561  0.83277449  0.50056168  1
  Sn  Sn34  1  0.16613304  0.16586124  0.83446712  1
  Sn  Sn35  1  0.83353416  0.49980976  0.83468147  1
  Sn  Sn36  1  0.83318734  0.16502233  0.50080769  1
  Sn  Sn37  1  0.16707348  0.83385482  0.83308741  1
  Sn  Sn38  1  0.49839150  0.50018503  0.50038148  1
  Sn  Sn39  1  0.83349578  0.83507737  0.49981947  1
  Sn  Sn40  1  0.83372970  0.50081594  0.16523157  1
  Pb  Pb41  1  0.83554040  0.83363524  0.83144753  1
  Pb  Pb42  1  0.83336829  0.50025524  0.50054814  1
  Pb  Pb43  1  0.83091872  0.83058890  0.16919300  1
  Pb  Pb44  1  0.16882328  0.83493624  0.16670256  1
  Pb  Pb45  1  0.50171338  0.50023252  0.16855004  1
  Pb  Pb46  1  0.16491718  0.16628875  0.50014913  1
  Pb  Pb47  1  0.16480806  0.49972756  0.83114113  1
  Pb  Pb48  1  0.49663145  0.83327562  0.83328726  1
  Pb  Pb49  1  0.83321125  0.16760772  0.16599493  1
  Pb  Pb50  1  0.49999127  0.16659413  0.83632065  1
  Pb  Pb51  1  0.50274179  0.16631923  0.49825648  1
  Pb  Pb52  1  0.50292495  0.50002597  0.82987931  1
  Pb  Pb53  1  0.16443822  0.49719813  0.16951474  1
  I  I54  1  0.16641503  0.00305575  0.16833510  1
  I  I55  1  0.16889814  -0.00281793  0.50107651  1
  I  I56  1  0.16103344  0.00076830  0.83045610  1
  I  I57  1  0.17269978  0.32936039  0.16186333  1
  I  I58  1  0.16808682  0.33532134  0.49925153  1
  I  I59  1  0.16359584  0.33040987  0.83516397  1
  I  I60  1  0.16717319  0.66655573  0.16421809  1
  I  I61  1  0.16386489  0.66813374  0.50523817  1
  I  I62  1  0.16527485  0.66900074  0.82928924  1
  I  I63  1  0.49716519  -0.00012245  0.17424812  1
  I  I64  1  0.49748476  -0.00311615  0.49761181  1
  I  I65  1  0.50447078  -0.00004615  0.82888040  1
  I  I66  1  0.49830318  0.33098648  0.16840571  1
  I  I67  1  0.49774300  0.33554125  0.49806627  1
  I  I68  1  0.49582848  0.33326222  0.83278647  1
  I  I69  1  0.50224292  0.66923729  0.17081321  1
  I  I70  1  0.50259764  0.66805142  0.49407355  1
  I  I71  1  0.50050908  0.66672889  0.83848433  1
  I  I72  1  0.83404940  -0.00027395  0.16591192  1
  I  I73  1  0.83378090  -0.00023929  0.50475181  1
  I  I74  1  0.83569912  0.00286837  0.83048376  1
  I  I75  1  0.83146647  0.33532773  0.17025662  1
  I  I76  1  0.83407159  0.33152350  0.50009331  1
  I  I77  1  0.83910218  0.33208482  0.82977505  1
  I  I78  1  0.83227569  0.66301811  0.16284233  1
  I  I79  1  0.83304451  0.66906346  0.49967271  1
  I  I80  1  0.83415705  0.66444409  0.83441158  1
  I  I81  1  0.16293315  0.16019093  -0.00106675  1
  I  I82  1  0.16810981  0.16707387  0.33143264  1
  I  I83  1  0.16292736  0.16610551  0.66900717  1
  I  I84  1  0.16669844  0.50271486  -0.00003383  1
  I  I85  1  0.16669203  0.50585273  0.33732233  1
  I  I86  1  0.16667301  0.49980239  0.66314240  1
  I  I87  1  0.16632664  0.83693067  -0.00247475  1
  I  I88  1  0.16484471  0.83095826  0.33660085  1
  I  I89  1  0.16782155  0.83561179  0.66515668  1
  I  I90  1  0.50193035  0.16028404  0.00429433  1
  I  I91  1  0.49540294  0.16545459  0.33050759  1
  I  I92  1  0.49850041  0.16690689  0.66658371  1
  I  I93  1  0.49999871  0.50067310  0.00007080  1
  I  I94  1  0.50064294  0.50175768  0.33655669  1
  I  I95  1  0.49869799  0.50694482  0.66186307  1
  I  I96  1  0.50052686  0.83904925  0.00288770  1
  I  I97  1  0.49852299  0.83343756  0.33501073  1
  I  I98  1  0.50274588  0.82855053  0.66304946  1
  I  I99  1  0.83478990  0.17022593  -0.00280212  1
  I  I100  1  0.83406410  0.16620413  0.33535892  1
  I  I101  1  0.83885262  0.17040317  0.66717185  1
  I  I102  1  0.83314941  0.49199340  -0.00075905  1
  I  I103  1  0.83258721  0.49841340  0.33228360  1
  I  I104  1  0.83378643  0.49764345  0.66863470  1
  I  I105  1  0.83298653  0.83505412  0.00002632  1
  I  I106  1  0.83890537  0.83759074  0.33766104  1
  I  I107  1  0.82861295  0.83157161  0.66293762  1
  I  I108  1  0.00206983  0.16856948  0.16657807  1
  I  I109  1  -0.00303630  0.16505491  0.49857116  1
  I  I110  1  0.00003148  0.16684626  0.83481504  1
  I  I111  1  -0.00316578  0.49745045  0.16673667  1
  I  I112  1  0.00181154  0.50313604  0.49995008  1
  I  I113  1  -0.00305915  0.49754762  0.83277838  1
  I  I114  1  0.00010429  0.83420086  0.16849973  1
  I  I115  1  0.00057624  0.83163435  0.50501751  1
  I  I116  1  0.00332966  0.83458558  0.82699577  1
  I  I117  1  0.33306400  0.16306919  0.16364623  1
  I  I118  1  0.33336352  0.16603515  0.50171737  1
  I  I119  1  0.32997680  0.16211333  0.83351218  1
  I  I120  1  0.33323307  0.50067634  0.16653177  1
  I  I121  1  0.33319247  0.50808369  0.49882185  1
  I  I122  1  0.33304763  0.49973116  0.83400052  1
  I  I123  1  0.33655734  0.83532975  0.17376307  1
  I  I124  1  0.33316542  0.82798538  0.49968351  1
  I  I125  1  0.32884946  0.84053466  0.82616418  1
  I  I126  1  0.66456715  0.16482704  0.16908782  1
  I  I127  1  0.67072256  0.16495271  0.50370919  1
  I  I128  1  0.66995561  0.17111109  0.82969972  1
  I  I129  1  0.66945322  0.49632472  0.16725648  1
  I  I130  1  0.66486749  0.50327593  0.49921145  1
  I  I131  1  0.67100770  0.49318839  0.83505902  1
  I  I132  1  0.66310909  0.84064221  0.17268871  1
  I  I133  1  0.66631208  0.83160195  0.49551294  1
  I  I134  1  0.66671714  0.83355344  0.83203189  1
