# generated using pymatgen
data_Cs27Sn13Pb14I81
_symmetry_space_group_name_H-M   'P 1'
_cell_length_a   18.97291902
_cell_length_b   18.97843062
_cell_length_c   18.97999807
_cell_angle_alpha   89.99923989
_cell_angle_beta   90.00122591
_cell_angle_gamma   89.99830872
_symmetry_Int_Tables_number   1
_chemical_formula_structural   Cs27Sn13Pb14I81
_chemical_formula_sum   'Cs27 Sn13 Pb14 I81'
_cell_volume   6834.24609302
_cell_formula_units_Z   1
loop_
 _symmetry_equiv_pos_site_id
 _symmetry_equiv_pos_as_xyz
  1  'x, y, z'
loop_
 _atom_site_type_symbol
 _atom_site_label
 _atom_site_symmetry_multiplicity
 _atom_site_fract_x
 _atom_site_fract_y
 _atom_site_fract_z
 _atom_site_occupancy
  Cs  Cs0  1  -0.00105255  0.00684657  -0.00062077  1
  Cs  Cs1  1  0.00162619  0.00436840  0.33850203  1
  Cs  Cs2  1  -0.00360147  0.00485852  0.66026135  1
  Cs  Cs3  1  0.00047510  0.32221259  0.00132654  1
  Cs  Cs4  1  -0.00194749  0.32577492  0.32859682  1
  Cs  Cs5  1  -0.00690962  0.33224423  0.66948049  1
  Cs  Cs6  1  0.00067394  0.66721863  -0.00055343  1
  Cs  Cs7  1  -0.00030018  0.66803601  0.33558921  1
  Cs  Cs8  1  -0.00462348  0.66617825  0.66371102  1
  Cs  Cs9  1  0.33529263  -0.00304647  -0.00182403  1
  Cs  Cs10  1  0.33422951  -0.00120289  0.33875224  1
  Cs  Cs11  1  0.33354470  0.00102946  0.66543815  1
  Cs  Cs12  1  0.33157774  0.33624932  0.00002205  1
  Cs  Cs13  1  0.33116698  0.33629878  0.33318759  1
  Cs  Cs14  1  0.33452789  0.33468481  0.66778748  1
  Cs  Cs15  1  0.33397266  0.66634259  -0.00017205  1
  Cs  Cs16  1  0.33266161  0.66537788  0.33294911  1
  Cs  Cs17  1  0.33325596  0.66582927  0.66780255  1
  Cs  Cs18  1  0.66539435  -0.00233838  0.00093142  1
  Cs  Cs19  1  0.66478351  0.00332856  0.33160915  1
  Cs  Cs20  1  0.66775457  -0.00015458  0.66526269  1
  Cs  Cs21  1  0.66644240  0.33301426  0.00007824  1
  Cs  Cs22  1  0.66756147  0.33109707  0.33547720  1
  Cs  Cs23  1  0.66978533  0.33621177  0.66287514  1
  Cs  Cs24  1  0.66582658  0.66748987  0.00074394  1
  Cs  Cs25  1  0.66648225  0.66616015  0.33115883  1
  Cs  Cs26  1  0.67038504  0.66509135  0.66748975  1
  Sn  Sn27  1  0.16699875  0.83277928  0.83360405  1
  Sn  Sn28  1  0.49998554  0.83192350  0.50033464  1
  Sn  Sn29  1  0.49910560  0.50127384  0.50070426  1
  Sn  Sn30  1  0.49959922  0.83390011  0.16683679  1
  Sn  Sn31  1  0.16657220  0.83311212  0.16603385  1
  Sn  Sn32  1  0.16712159  0.50009066  0.50089677  1
  Sn  Sn33  1  0.49929694  0.16605494  0.16582411  1
  Sn  Sn34  1  0.49939862  0.83312913  0.83293094  1
  Sn  Sn35  1  0.49950232  0.50014289  0.83260282  1
  Sn  Sn36  1  0.83384014  0.83251016  0.16635067  1
  Sn  Sn37  1  0.83361783  0.50073146  0.16612483  1
  Sn  Sn38  1  0.16706418  0.50098666  0.83260416  1
  Sn  Sn39  1  0.49970266  0.16674869  0.83414206  1
  Pb  Pb40  1  0.83395146  0.50020869  0.83587003  1
  Pb  Pb41  1  0.49975652  0.16719739  0.50042183  1
  Pb  Pb42  1  0.16720509  0.17054950  0.50044795  1
  Pb  Pb43  1  0.83400735  0.83333375  0.83528297  1
  Pb  Pb44  1  0.17008085  0.16304403  0.16661879  1
  Pb  Pb45  1  0.83001997  0.16645042  0.83338099  1
  Pb  Pb46  1  0.83071044  0.16574229  0.16649966  1
  Pb  Pb47  1  0.50104039  0.50011558  0.16660894  1
  Pb  Pb48  1  0.16854379  0.83170167  0.50084232  1
  Pb  Pb49  1  0.83038642  0.83321381  0.49721729  1
  Pb  Pb50  1  0.16413857  0.50181283  0.16612178  1
  Pb  Pb51  1  0.83354697  0.50019169  0.49744594  1
  Pb  Pb52  1  0.83313531  0.16664726  0.49998918  1
  Pb  Pb53  1  0.16896157  0.16634368  0.83309648  1
  I  I54  1  0.16204164  -0.00529548  0.16019931  1
  I  I55  1  0.16775039  -0.00030191  0.49906943  1
  I  I56  1  0.17217855  -0.00375683  0.84000367  1
  I  I57  1  0.16552099  0.33332320  0.16722377  1
  I  I58  1  0.17573041  0.33887365  0.50442396  1
  I  I59  1  0.17160660  0.33673877  0.82965830  1
  I  I60  1  0.17348334  0.67002819  0.16543002  1
  I  I61  1  0.17041043  0.66374977  0.50034079  1
  I  I62  1  0.17594160  0.66683065  0.83486251  1
  I  I63  1  0.50246878  -0.00217090  0.16390447  1
  I  I64  1  0.50080415  -0.00307687  0.50071745  1
  I  I65  1  0.49699905  -0.00152928  0.83497393  1
  I  I66  1  0.50369573  0.33138622  0.16379189  1
  I  I67  1  0.49703870  0.33690680  0.50216762  1
  I  I68  1  0.49647602  0.33435479  0.83432382  1
  I  I69  1  0.49926135  0.66992265  0.16487716  1
  I  I70  1  0.49685401  0.66664895  0.50111710  1
  I  I71  1  0.49669869  0.66711364  0.83410166  1
  I  I72  1  0.83291200  -0.00355956  0.16589857  1
  I  I73  1  0.83138673  -0.00045207  0.49778782  1
  I  I74  1  0.83295617  -0.00025270  0.83677974  1
  I  I75  1  0.83119308  0.33552395  0.16726254  1
  I  I76  1  0.82992610  0.33399179  0.49634037  1
  I  I77  1  0.83319537  0.33357901  0.83692965  1
  I  I78  1  0.82858146  0.66815468  0.16640528  1
  I  I79  1  0.83315576  0.66667274  0.49989641  1
  I  I80  1  0.82723086  0.66670750  0.83403833  1
  I  I81  1  0.16554683  0.17255557  0.00000251  1
  I  I82  1  0.16896815  0.16688605  0.33322265  1
  I  I83  1  0.17029190  0.16035884  0.66692750  1
  I  I84  1  0.17229730  0.50291584  -0.00317122  1
  I  I85  1  0.17186276  0.50228750  0.33551461  1
  I  I86  1  0.17288386  0.50614112  0.66777738  1
  I  I87  1  0.17286805  0.82687471  -0.00030278  1
  I  I88  1  0.16866279  0.83140128  0.33084620  1
  I  I89  1  0.17394385  0.83112235  0.67006489  1
  I  I90  1  0.50048928  0.16312405  -0.00025258  1
  I  I91  1  0.50144585  0.16246274  0.33064010  1
  I  I92  1  0.49921361  0.16370963  0.66995680  1
  I  I93  1  0.49755752  0.50194707  -0.00295443  1
  I  I94  1  0.49767983  0.50314280  0.33575639  1
  I  I95  1  0.49712567  0.50241630  0.66745319  1
  I  I96  1  0.50025570  0.83378050  0.00004033  1
  I  I97  1  0.50041592  0.83349810  0.33236853  1
  I  I98  1  0.49475468  0.83378044  0.66778227  1
  I  I99  1  0.83435065  0.16794157  0.00030524  1
  I  I100  1  0.82955335  0.16799120  0.33262518  1
  I  I101  1  0.83090394  0.16750558  0.66683060  1
  I  I102  1  0.83010641  0.50551211  0.00334855  1
  I  I103  1  0.83090349  0.50522193  0.32985253  1
  I  I104  1  0.83228143  0.49873609  0.66675238  1
  I  I105  1  0.82668082  0.82926916  0.00369141  1
  I  I106  1  0.83310529  0.82840336  0.32872532  1
  I  I107  1  0.83249746  0.83370182  0.66659791  1
  I  I108  1  0.00011141  0.16713823  0.16745526  1
  I  I109  1  0.00027571  0.16678077  0.49874709  1
  I  I110  1  0.00031867  0.16751642  0.83355026  1
  I  I111  1  -0.00323619  0.50730597  0.16735190  1
  I  I112  1  0.00320243  0.50122364  0.50447495  1
  I  I113  1  0.00374933  0.50671781  0.82919091  1
  I  I114  1  0.00049256  0.82566956  0.16135743  1
  I  I115  1  0.00023541  0.83156431  0.49930026  1
  I  I116  1  0.00389947  0.82618741  0.83904474  1
  I  I117  1  0.33794867  0.16342595  0.16258249  1
  I  I118  1  0.33401870  0.16384302  0.49830903  1
  I  I119  1  0.33749963  0.16634218  0.83764101  1
  I  I120  1  0.33321872  0.49980576  0.16739742  1
  I  I121  1  0.33478182  0.50403288  0.50253147  1
  I  I122  1  0.33476183  0.50089143  0.83077213  1
  I  I123  1  0.33454741  0.83730914  0.16545398  1
  I  I124  1  0.33711169  0.83170283  0.49463584  1
  I  I125  1  0.33502012  0.83206662  0.83880765  1
  I  I126  1  0.66275434  0.16095690  0.16298718  1
  I  I127  1  0.66565828  0.16890985  0.49901249  1
  I  I128  1  0.66115036  0.16595584  0.83826562  1
  I  I129  1  0.66853033  0.50568587  0.16643264  1
  I  I130  1  0.66324084  0.50280573  0.50366603  1
  I  I131  1  0.66306794  0.50077647  0.83047791  1
  I  I132  1  0.66495905  0.83325621  0.16679636  1
  I  I133  1  0.66148913  0.82741075  0.50166089  1
  I  I134  1  0.66277199  0.83278242  0.83447318  1
