# generated using pymatgen
data_Cs27Sn13Pb14I81
_symmetry_space_group_name_H-M   'P 1'
_cell_length_a   18.97523510
_cell_length_b   18.97993763
_cell_length_c   18.97396191
_cell_angle_alpha   90.00016657
_cell_angle_beta   89.99913167
_cell_angle_gamma   89.99781072
_symmetry_Int_Tables_number   1
_chemical_formula_structural   Cs27Sn13Pb14I81
_chemical_formula_sum   'Cs27 Sn13 Pb14 I81'
_cell_volume   6833.44920471
_cell_formula_units_Z   1
loop_
 _symmetry_equiv_pos_site_id
 _symmetry_equiv_pos_as_xyz
  1  'x, y, z'
loop_
 _atom_site_type_symbol
 _atom_site_label
 _atom_site_symmetry_multiplicity
 _atom_site_fract_x
 _atom_site_fract_y
 _atom_site_fract_z
 _atom_site_occupancy
  Cs  Cs0  1  -0.00323411  -0.00170707  0.00195399  1
  Cs  Cs1  1  0.00020443  -0.00012802  0.33300289  1
  Cs  Cs2  1  0.00106469  0.00174555  0.66585182  1
  Cs  Cs3  1  0.00578278  0.33529170  0.00034765  1
  Cs  Cs4  1  0.00249881  0.32985952  0.33694624  1
  Cs  Cs5  1  -0.00192356  0.33503099  0.66165269  1
  Cs  Cs6  1  -0.00023702  0.66783853  -0.00180807  1
  Cs  Cs7  1  0.00027753  0.66890199  0.33385019  1
  Cs  Cs8  1  -0.00029393  0.66406220  0.66693020  1
  Cs  Cs9  1  0.33250461  0.00211148  -0.00814027  1
  Cs  Cs10  1  0.33491065  -0.00017958  0.33390091  1
  Cs  Cs11  1  0.33573506  0.00004945  0.67579747  1
  Cs  Cs12  1  0.32756637  0.33986326  -0.00541858  1
  Cs  Cs13  1  0.33238748  0.33514358  0.33237500  1
  Cs  Cs14  1  0.33362470  0.32918490  0.67024415  1
  Cs  Cs15  1  0.33135847  0.65868464  -0.00541872  1
  Cs  Cs16  1  0.33345725  0.66500027  0.33492345  1
  Cs  Cs17  1  0.33377262  0.67062544  0.66665707  1
  Cs  Cs18  1  0.67014519  0.00144720  0.00309730  1
  Cs  Cs19  1  0.66577787  -0.00039374  0.33156029  1
  Cs  Cs20  1  0.66360130  -0.00086000  0.66811414  1
  Cs  Cs21  1  0.66470810  0.33265372  -0.00033841  1
  Cs  Cs22  1  0.66593259  0.33231696  0.33439098  1
  Cs  Cs23  1  0.66918653  0.33590979  0.66671429  1
  Cs  Cs24  1  0.66742885  0.66306399  0.00228916  1
  Cs  Cs25  1  0.66563134  0.66849300  0.33284092  1
  Cs  Cs26  1  0.66540983  0.66522131  0.66712935  1
  Sn  Sn27  1  0.83352944  0.49949709  0.16729153  1
  Sn  Sn28  1  0.83278175  0.16701844  0.16612435  1
  Sn  Sn29  1  0.83383118  0.83343911  0.50016120  1
  Sn  Sn30  1  0.83314388  0.83411924  0.83325023  1
  Sn  Sn31  1  0.49919373  0.49900448  0.49950722  1
  Sn  Sn32  1  0.83332946  0.16608845  0.83413015  1
  Sn  Sn33  1  0.49923573  0.83385348  0.16660930  1
  Sn  Sn34  1  0.83324559  0.83334996  0.16693094  1
  Sn  Sn35  1  0.16615289  0.83293340  0.49913199  1
  Sn  Sn36  1  0.16740318  0.83360815  0.16710503  1
  Sn  Sn37  1  0.50003376  0.16621763  0.16713321  1
  Sn  Sn38  1  0.50008585  0.16729025  0.49915185  1
  Sn  Sn39  1  0.16774161  0.50072443  0.49949155  1
  Pb  Pb40  1  0.16721426  0.16430444  0.16664380  1
  Pb  Pb41  1  0.16420390  0.83335768  0.83316995  1
  Pb  Pb42  1  0.83335600  0.49971048  0.83603630  1
  Pb  Pb43  1  0.16631019  0.50028341  0.82965966  1
  Pb  Pb44  1  0.50285970  0.83322188  0.83743686  1
  Pb  Pb45  1  0.50237002  0.16676683  0.83439306  1
  Pb  Pb46  1  0.16972396  0.16566487  0.49984314  1
  Pb  Pb47  1  0.83325060  0.50227759  0.49786220  1
  Pb  Pb48  1  0.16420783  0.50254335  0.16880738  1
  Pb  Pb49  1  0.49955306  0.83365138  0.49856574  1
  Pb  Pb50  1  0.50143496  0.49952962  0.16816795  1
  Pb  Pb51  1  0.83135477  0.16414567  0.49970280  1
  Pb  Pb52  1  0.16294150  0.16656610  0.83341495  1
  Pb  Pb53  1  0.50023194  0.49999300  0.82996826  1
  I  I54  1  0.16054659  -0.00418886  0.17395869  1
  I  I55  1  0.16176164  -0.00370807  0.49542812  1
  I  I56  1  0.16887225  -0.00035705  0.82996238  1
  I  I57  1  0.16498563  0.33357044  0.16833231  1
  I  I58  1  0.16755726  0.33591154  0.50022436  1
  I  I59  1  0.16454724  0.33348952  0.83278571  1
  I  I60  1  0.16575298  0.67089875  0.16935381  1
  I  I61  1  0.16798977  0.66782326  0.49523400  1
  I  I62  1  0.16326810  0.66704596  0.83619197  1
  I  I63  1  0.50676657  -0.00006211  0.17427828  1
  I  I64  1  0.50226622  0.00220368  0.49664320  1
  I  I65  1  0.49800403  -0.00005872  0.82651914  1
  I  I66  1  0.50787914  0.33023004  0.17025258  1
  I  I67  1  0.49639028  0.33317461  0.49337394  1
  I  I68  1  0.50358764  0.33314311  0.83698574  1
  I  I69  1  0.50352247  0.66943819  0.16932671  1
  I  I70  1  0.49989696  0.66499439  0.49769931  1
  I  I71  1  0.50341909  0.66690664  0.83324033  1
  I  I72  1  0.83270618  -0.00115552  0.16599563  1
  I  I73  1  0.83726739  -0.00397316  0.49529400  1
  I  I74  1  0.83314535  -0.00093842  0.83888220  1
  I  I75  1  0.82718635  0.33205557  0.16260618  1
  I  I76  1  0.83556408  0.33324312  0.49996455  1
  I  I77  1  0.83189118  0.33000536  0.83759568  1
  I  I78  1  0.83267196  0.66881819  0.16725601  1
  I  I79  1  0.83208120  0.67048804  0.49878817  1
  I  I80  1  0.83389400  0.66992528  0.83459176  1
  I  I81  1  0.17079229  0.16484191  0.00029162  1
  I  I82  1  0.16081396  0.16748573  0.33331722  1
  I  I83  1  0.16683456  0.16476446  0.66632595  1
  I  I84  1  0.16556631  0.50091599  0.00029443  1
  I  I85  1  0.16983033  0.50289373  0.33666972  1
  I  I86  1  0.16874313  0.50806797  0.66152140  1
  I  I87  1  0.16456053  0.83522557  0.00323611  1
  I  I88  1  0.16033136  0.83023016  0.33330186  1
  I  I89  1  0.16198639  0.82900625  0.66311593  1
  I  I90  1  0.50430211  0.15990123  0.00387452  1
  I  I91  1  0.50679962  0.16583370  0.33226527  1
  I  I92  1  0.50096995  0.17060676  0.66406641  1
  I  I93  1  0.50218391  0.50047989  0.00036681  1
  I  I94  1  0.49784421  0.49953453  0.33623150  1
  I  I95  1  0.49841943  0.49540544  0.66138192  1
  I  I96  1  0.50034694  0.84035226  0.00567979  1
  I  I97  1  0.50616071  0.83423653  0.33044174  1
  I  I98  1  0.50084429  0.83316354  0.66669706  1
  I  I99  1  0.82749546  0.16027657  0.00191551  1
  I  I100  1  0.83125736  0.16490725  0.33011767  1
  I  I101  1  0.83192294  0.16119001  0.66877096  1
  I  I102  1  0.83214307  0.50576620  0.00413723  1
  I  I103  1  0.83252825  0.50091543  0.33004415  1
  I  I104  1  0.83342087  0.50053849  0.66626986  1
  I  I105  1  0.83319939  0.83433310  0.00181438  1
  I  I106  1  0.83390742  0.83311678  0.33191639  1
  I  I107  1  0.83800023  0.83751069  0.66619193  1
  I  I108  1  -0.00350804  0.16516221  0.16289857  1
  I  I109  1  -0.00020723  0.16904780  0.50045044  1
  I  I110  1  -0.00524944  0.16099318  0.83960437  1
  I  I111  1  -0.00389974  0.50010904  0.16859612  1
  I  I112  1  0.00219800  0.50354096  0.49854342  1
  I  I113  1  -0.00046648  0.49989836  0.83136974  1
  I  I114  1  -0.00168698  0.83312583  0.16748218  1
  I  I115  1  -0.00043139  0.82842749  0.49500521  1
  I  I116  1  -0.00414895  0.83715661  0.83835368  1
  I  I117  1  0.33697942  0.16107727  0.17310859  1
  I  I118  1  0.33762596  0.16619782  0.49259804  1
  I  I119  1  0.33355112  0.16677568  0.83278124  1
  I  I120  1  0.33314815  0.50074240  0.16668424  1
  I  I121  1  0.33327827  0.50331755  0.49745489  1
  I  I122  1  0.33321952  0.49976965  0.83828671  1
  I  I123  1  0.33345257  0.83832526  0.17539246  1
  I  I124  1  0.33073206  0.83145718  0.49351147  1
  I  I125  1  0.33337315  0.83313551  0.83229096  1
  I  I126  1  0.66775114  0.16126970  0.16751316  1
  I  I127  1  0.66360489  0.17078673  0.49783036  1
  I  I128  1  0.67032130  0.16109683  0.83534000  1
  I  I129  1  0.66954778  0.50580119  0.16963595  1
  I  I130  1  0.66440422  0.49796427  0.49813554  1
  I  I131  1  0.66717464  0.50129904  0.83017621  1
  I  I132  1  0.66819770  0.83416094  0.16763060  1
  I  I133  1  0.66916375  0.83324276  0.49822564  1
  I  I134  1  0.67124876  0.83730332  0.83094143  1
