# generated using pymatgen
data_Cs27Sn13Pb14I81
_symmetry_space_group_name_H-M   'P 1'
_cell_length_a   18.97651087
_cell_length_b   18.98064686
_cell_length_c   18.97565197
_cell_angle_alpha   89.99846150
_cell_angle_beta   89.99999542
_cell_angle_gamma   89.99917815
_symmetry_Int_Tables_number   1
_chemical_formula_structural   Cs27Sn13Pb14I81
_chemical_formula_sum   'Cs27 Sn13 Pb14 I81'
_cell_volume   6834.77274591
_cell_formula_units_Z   1
loop_
 _symmetry_equiv_pos_site_id
 _symmetry_equiv_pos_as_xyz
  1  'x, y, z'
loop_
 _atom_site_type_symbol
 _atom_site_label
 _atom_site_symmetry_multiplicity
 _atom_site_fract_x
 _atom_site_fract_y
 _atom_site_fract_z
 _atom_site_occupancy
  Cs  Cs0  1  -0.00000597  0.00328339  0.00030644  1
  Cs  Cs1  1  0.00212741  0.00241177  0.33162673  1
  Cs  Cs2  1  0.00077881  -0.00281350  0.66750011  1
  Cs  Cs3  1  -0.00205753  0.33412113  -0.00107330  1
  Cs  Cs4  1  0.00437781  0.33206969  0.33445319  1
  Cs  Cs5  1  0.00399890  0.33653420  0.66542757  1
  Cs  Cs6  1  0.00038528  0.66344863  0.00221761  1
  Cs  Cs7  1  -0.00288403  0.66522745  0.32961542  1
  Cs  Cs8  1  -0.00262189  0.66802192  0.66933998  1
  Cs  Cs9  1  0.33325942  -0.00106059  -0.00097500  1
  Cs  Cs10  1  0.33252878  -0.00011910  0.33292824  1
  Cs  Cs11  1  0.33212165  -0.00150056  0.66687418  1
  Cs  Cs12  1  0.33527672  0.33249973  -0.00457640  1
  Cs  Cs13  1  0.32783693  0.33168337  0.33552070  1
  Cs  Cs14  1  0.33125707  0.33516346  0.66681247  1
  Cs  Cs15  1  0.33213397  0.66812430  0.00065486  1
  Cs  Cs16  1  0.33607242  0.66756409  0.33207408  1
  Cs  Cs17  1  0.33412055  0.66827936  0.66711118  1
  Cs  Cs18  1  0.66774155  0.00769236  0.00015839  1
  Cs  Cs19  1  0.66645177  -0.00007445  0.33450534  1
  Cs  Cs20  1  0.66934130  -0.00164080  0.66494975  1
  Cs  Cs21  1  0.66676225  0.32565778  -0.00473962  1
  Cs  Cs22  1  0.66737526  0.33652855  0.33380525  1
  Cs  Cs23  1  0.66555470  0.33379403  0.66826414  1
  Cs  Cs24  1  0.66619267  0.66558263  0.00450306  1
  Cs  Cs25  1  0.66642093  0.66563146  0.33347282  1
  Cs  Cs26  1  0.66851690  0.66750589  0.66561755  1
  Sn  Sn27  1  0.49941481  0.83329358  0.50002364  1
  Sn  Sn28  1  0.16675019  0.16584068  0.83316979  1
  Sn  Sn29  1  0.83189846  0.50047152  0.16763988  1
  Sn  Sn30  1  0.83227786  0.83314448  0.16677247  1
  Sn  Sn31  1  0.50062453  0.16674529  0.49980964  1
  Sn  Sn32  1  0.16728307  0.83398985  0.83254747  1
  Sn  Sn33  1  0.83247659  0.49914482  0.49931663  1
  Sn  Sn34  1  0.50072394  0.50027932  0.16738452  1
  Sn  Sn35  1  0.50115204  0.83304175  0.16661462  1
  Sn  Sn36  1  0.83276933  0.16765969  0.49989170  1
  Sn  Sn37  1  0.50067619  0.49993702  0.49923261  1
  Sn  Sn38  1  0.16714663  0.83285012  0.50029469  1
  Sn  Sn39  1  0.50009504  0.83321579  0.83337862  1
  Pb  Pb40  1  0.83573077  0.16658772  0.82993453  1
  Pb  Pb41  1  0.83319382  0.83324335  0.83668832  1
  Pb  Pb42  1  0.16697422  0.83333234  0.16637715  1
  Pb  Pb43  1  0.16684522  0.50093845  0.83331688  1
  Pb  Pb44  1  0.16692070  0.16676093  0.16354559  1
  Pb  Pb45  1  0.83288062  0.50011515  0.83351825  1
  Pb  Pb46  1  0.16671383  0.50308672  0.49989699  1
  Pb  Pb47  1  0.16671360  0.16430660  0.50139912  1
  Pb  Pb48  1  0.50020779  0.50236754  0.83340075  1
  Pb  Pb49  1  0.49983408  0.16710015  0.16903305  1
  Pb  Pb50  1  0.83326325  0.83293771  0.49816527  1
  Pb  Pb51  1  0.49847881  0.16398365  0.83029627  1
  Pb  Pb52  1  0.16730857  0.49991507  0.16681452  1
  Pb  Pb53  1  0.83314174  0.16744365  0.16910120  1
  I  I54  1  0.16581442  -0.00055730  0.17002389  1
  I  I55  1  0.17038206  -0.00358558  0.50151953  1
  I  I56  1  0.17096582  -0.00185006  0.82852814  1
  I  I57  1  0.16625123  0.33346141  0.16583560  1
  I  I58  1  0.16880798  0.33326807  0.50242569  1
  I  I59  1  0.16546273  0.33052729  0.83285615  1
  I  I60  1  0.16554037  0.66695335  0.16415380  1
  I  I61  1  0.17097535  0.67101728  0.50632349  1
  I  I62  1  0.17096104  0.67079886  0.82971539  1
  I  I63  1  0.50306103  -0.00349500  0.16752643  1
  I  I64  1  0.50008868  -0.00114768  0.50030178  1
  I  I65  1  0.49778600  -0.00429619  0.83436751  1
  I  I66  1  0.50447030  0.33709229  0.17111507  1
  I  I67  1  0.50458786  0.33410546  0.49535486  1
  I  I68  1  0.49739867  0.33306713  0.83398517  1
  I  I69  1  0.50334490  0.66777240  0.17120166  1
  I  I70  1  0.49966264  0.66723761  0.49976004  1
  I  I71  1  0.49305929  0.67082188  0.82888295  1
  I  I72  1  0.82969098  -0.00262917  0.16773750  1
  I  I73  1  0.83026206  0.00160919  0.49895055  1
  I  I74  1  0.83138572  -0.00025558  0.83304677  1
  I  I75  1  0.82889412  0.33711099  0.16856759  1
  I  I76  1  0.82610907  0.33426290  0.49513292  1
  I  I77  1  0.83616140  0.33320965  0.83790891  1
  I  I78  1  0.83018381  0.66636188  0.17265719  1
  I  I79  1  0.83077115  0.66397597  0.49794269  1
  I  I80  1  0.83671868  0.66699732  0.82753682  1
  I  I81  1  0.16727283  0.15786705  -0.00441703  1
  I  I82  1  0.16612261  0.16509314  0.33393921  1
  I  I83  1  0.16684463  0.16239370  0.66909286  1
  I  I84  1  0.16597876  0.50180885  0.00007237  1
  I  I85  1  0.16642644  0.50168131  0.33364934  1
  I  I86  1  0.16627183  0.49911368  0.66629581  1
  I  I87  1  0.17033315  0.83731167  -0.00305151  1
  I  I88  1  0.17056468  0.83302513  0.33596113  1
  I  I89  1  0.17457800  0.83657471  0.66648267  1
  I  I90  1  0.49779105  0.16691743  -0.00033312  1
  I  I91  1  0.50280768  0.16086824  0.33746030  1
  I  I92  1  0.50336484  0.16756496  0.66211660  1
  I  I93  1  0.50337169  0.50572499  0.00361197  1
  I  I94  1  0.50428890  0.50620756  0.33434167  1
  I  I95  1  0.50344964  0.50081728  0.66291649  1
  I  I96  1  0.49841960  0.82762035  0.00066451  1
  I  I97  1  0.49937292  0.83272416  0.33408856  1
  I  I98  1  0.49453854  0.83354845  0.66546432  1
  I  I99  1  0.83568009  0.16683647  -0.00001803  1
  I  I100  1  0.82997761  0.16654258  0.33711609  1
  I  I101  1  0.82818292  0.17105314  0.66192347  1
  I  I102  1  0.83048738  0.50590678  0.00402160  1
  I  I103  1  0.82872599  0.50122096  0.33386639  1
  I  I104  1  0.82941857  0.49667163  0.66281115  1
  I  I105  1  0.83037093  0.82652900  0.00465195  1
  I  I106  1  0.82979660  0.83213363  0.33044622  1
  I  I107  1  0.83198120  0.83317421  0.66643680  1
  I  I108  1  -0.00029297  0.16505315  0.17018076  1
  I  I109  1  -0.00255872  0.16994095  0.50078777  1
  I  I110  1  0.00351026  0.15774170  0.83179124  1
  I  I111  1  -0.00373694  0.50544733  0.17077598  1
  I  I112  1  -0.00332654  0.49607492  0.49587756  1
  I  I113  1  -0.00007077  0.50235841  0.83307866  1
  I  I114  1  -0.00278383  0.82882512  0.16797754  1
  I  I115  1  0.00214256  0.83412292  0.50369558  1
  I  I116  1  0.00315114  0.83690667  0.82811648  1
  I  I117  1  0.33371867  0.16598891  0.17091055  1
  I  I118  1  0.33630535  0.16853505  0.50078650  1
  I  I119  1  0.33062016  0.16396287  0.83079744  1
  I  I120  1  0.33761461  0.50621465  0.17146229  1
  I  I121  1  0.33703103  0.49774348  0.49596928  1
  I  I122  1  0.33368796  0.49814357  0.83334742  1
  I  I123  1  0.33697387  0.82890104  0.16730549  1
  I  I124  1  0.33547771  0.83379658  0.49882896  1
  I  I125  1  0.33395235  0.83660975  0.83360726  1
  I  I126  1  0.66649744  0.16396998  0.16309210  1
  I  I127  1  0.66573961  0.16405342  0.49976187  1
  I  I128  1  0.66647059  0.16571918  0.83477068  1
  I  I129  1  0.66621374  0.50744940  0.17275722  1
  I  I130  1  0.66569043  0.50175882  0.49631096  1
  I  I131  1  0.66631947  0.50226297  0.83195478  1
  I  I132  1  0.66516648  0.82881682  0.16810369  1
  I  I133  1  0.66340294  0.83388883  0.50263153  1
  I  I134  1  0.66330764  0.83159896  0.82841164  1
