# generated using pymatgen
data_Cs27Sn14Pb13I81
_symmetry_space_group_name_H-M   'P 1'
_cell_length_a   18.97231142
_cell_length_b   18.97221324
_cell_length_c   18.98153616
_cell_angle_alpha   90.00056801
_cell_angle_beta   90.00134240
_cell_angle_gamma   89.99986649
_symmetry_Int_Tables_number   1
_chemical_formula_structural   Cs27Sn14Pb13I81
_chemical_formula_sum   'Cs27 Sn14 Pb13 I81'
_cell_volume   6832.34201842
_cell_formula_units_Z   1
loop_
 _symmetry_equiv_pos_site_id
 _symmetry_equiv_pos_as_xyz
  1  'x, y, z'
loop_
 _atom_site_type_symbol
 _atom_site_label
 _atom_site_symmetry_multiplicity
 _atom_site_fract_x
 _atom_site_fract_y
 _atom_site_fract_z
 _atom_site_occupancy
  Cs  Cs0  1  0.00062355  0.00059224  0.00039551  1
  Cs  Cs1  1  0.00185732  0.00103094  0.33250662  1
  Cs  Cs2  1  -0.00139644  -0.00093793  0.66646724  1
  Cs  Cs3  1  -0.00118296  0.33517002  0.00538874  1
  Cs  Cs4  1  0.00346704  0.32996306  0.32410376  1
  Cs  Cs5  1  -0.00089107  0.33147743  0.66805302  1
  Cs  Cs6  1  0.00221232  0.66459118  0.00081618  1
  Cs  Cs7  1  -0.00199400  0.66993562  0.32818511  1
  Cs  Cs8  1  -0.00366399  0.66841658  0.66905480  1
  Cs  Cs9  1  0.33795111  -0.00206972  -0.00219682  1
  Cs  Cs10  1  0.33252824  -0.00078937  0.33368807  1
  Cs  Cs11  1  0.33290918  0.00173913  0.66774805  1
  Cs  Cs12  1  0.33427754  0.33532277  -0.00213420  1
  Cs  Cs13  1  0.33021223  0.33285760  0.33751226  1
  Cs  Cs14  1  0.33206520  0.33641009  0.66413036  1
  Cs  Cs15  1  0.33281500  0.66805483  0.00067146  1
  Cs  Cs16  1  0.33633105  0.66766771  0.33676819  1
  Cs  Cs17  1  0.33031637  0.66045589  0.66212390  1
  Cs  Cs18  1  0.66031618  -0.00106064  -0.00262093  1
  Cs  Cs19  1  0.66569131  0.00089617  0.33454326  1
  Cs  Cs20  1  0.66901017  0.00149832  0.66825672  1
  Cs  Cs21  1  0.66768815  0.33321419  -0.00022454  1
  Cs  Cs22  1  0.66706259  0.33361025  0.33283917  1
  Cs  Cs23  1  0.66621901  0.33296811  0.66700442  1
  Cs  Cs24  1  0.66475527  0.66757037  0.00065334  1
  Cs  Cs25  1  0.66495427  0.66598652  0.33434188  1
  Cs  Cs26  1  0.67191637  0.66467107  0.66562470  1
  Sn  Sn27  1  0.16672765  0.83410437  0.83306983  1
  Sn  Sn28  1  0.50059232  0.16586429  0.49929650  1
  Sn  Sn29  1  0.16570673  0.16617742  0.83331782  1
  Sn  Sn30  1  0.83340135  0.83382000  0.16636070  1
  Sn  Sn31  1  0.50004209  0.49885565  0.16606203  1
  Sn  Sn32  1  0.83417465  0.16728786  0.83287706  1
  Sn  Sn33  1  0.83250222  0.49903072  0.83273862  1
  Sn  Sn34  1  0.49970068  0.83431035  0.50068658  1
  Sn  Sn35  1  0.83302529  0.16784767  0.50020848  1
  Sn  Sn36  1  0.50085691  0.50004789  0.83398402  1
  Sn  Sn37  1  0.16730423  0.83354190  0.50034550  1
  Sn  Sn38  1  0.83377694  0.49852405  0.50001020  1
  Sn  Sn39  1  0.50002325  0.16773673  0.16763431  1
  Sn  Sn40  1  0.16599421  0.83362133  0.16651156  1
  Pb  Pb41  1  0.83343629  0.83394014  0.49856613  1
  Pb  Pb42  1  0.50011446  0.16842510  0.83259566  1
  Pb  Pb43  1  0.16966994  0.16448407  0.16390941  1
  Pb  Pb44  1  0.83503087  0.83347737  0.83557601  1
  Pb  Pb45  1  0.49748827  0.83034637  0.83003398  1
  Pb  Pb46  1  0.49961123  0.83341827  0.16833552  1
  Pb  Pb47  1  0.16985268  0.50229097  0.16694154  1
  Pb  Pb48  1  0.83135979  0.16461485  0.16636527  1
  Pb  Pb49  1  0.16628606  0.16500470  0.50178119  1
  Pb  Pb50  1  0.16248643  0.50240554  0.49982036  1
  Pb  Pb51  1  0.50166720  0.49939000  0.50007315  1
  Pb  Pb52  1  0.16588189  0.49961481  0.83324441  1
  Pb  Pb53  1  0.83146421  0.50171208  0.16638810  1
  I  I54  1  0.16496088  -0.00366622  0.16939770  1
  I  I55  1  0.16608792  -0.00339344  0.49819500  1
  I  I56  1  0.16119404  -0.00030492  0.83295813  1
  I  I57  1  0.16530581  0.33290725  0.16466372  1
  I  I58  1  0.17104771  0.33305469  0.50347215  1
  I  I59  1  0.16658992  0.33049533  0.83211480  1
  I  I60  1  0.16408974  0.67087838  0.16336799  1
  I  I61  1  0.17342263  0.67107704  0.50240393  1
  I  I62  1  0.16742722  0.66957527  0.83380710  1
  I  I63  1  0.50023875  0.00211634  0.16900500  1
  I  I64  1  0.50205201  0.00090645  0.49373164  1
  I  I65  1  0.50201884  -0.00002716  0.83631273  1
  I  I66  1  0.50247720  0.33309452  0.16837934  1
  I  I67  1  0.50296554  0.33049035  0.49928120  1
  I  I68  1  0.49908634  0.33620996  0.83284877  1
  I  I69  1  0.50018026  0.66473829  0.16420482  1
  I  I70  1  0.49704044  0.66860341  0.49916323  1
  I  I71  1  0.50524549  0.66279816  0.83907434  1
  I  I72  1  0.83516837  -0.00302062  0.16800628  1
  I  I73  1  0.83160524  0.00287037  0.50380880  1
  I  I74  1  0.83551030  0.00287140  0.82908254  1
  I  I75  1  0.83312612  0.33313430  0.16699877  1
  I  I76  1  0.82530883  0.33233380  0.50480400  1
  I  I77  1  0.83497510  0.33300395  0.82925128  1
  I  I78  1  0.83525137  0.66958994  0.16775324  1
  I  I79  1  0.83281452  0.66477051  0.50347667  1
  I  I80  1  0.83072143  0.66398038  0.82951933  1
  I  I81  1  0.16170914  0.16115546  -0.00385350  1
  I  I82  1  0.16453022  0.16477799  0.33324876  1
  I  I83  1  0.16754484  0.16029736  0.66967055  1
  I  I84  1  0.16341443  0.50316756  -0.00007100  1
  I  I85  1  0.16720851  0.50180170  0.33341931  1
  I  I86  1  0.17370330  0.50379930  0.66669518  1
  I  I87  1  0.16148665  0.83662312  -0.00014572  1
  I  I88  1  0.16695334  0.83184235  0.33350944  1
  I  I89  1  0.17149479  0.83708050  0.66669886  1
  I  I90  1  0.49980774  0.16819389  0.00166320  1
  I  I91  1  0.50591431  0.16760923  0.33435271  1
  I  I92  1  0.50103864  0.16350020  0.66390761  1
  I  I93  1  0.50566615  0.49509166  -0.00016197  1
  I  I94  1  0.50187432  0.50100028  0.33149296  1
  I  I95  1  0.50174582  0.50075586  0.66884302  1
  I  I96  1  0.49940300  0.83529565  -0.00023812  1
  I  I97  1  0.49540126  0.83210033  0.33612204  1
  I  I98  1  0.49659881  0.83926989  0.66238964  1
  I  I99  1  0.83622373  0.16992621  -0.00305410  1
  I  I100  1  0.82992118  0.16906934  0.33614045  1
  I  I101  1  0.83072830  0.16915784  0.66656261  1
  I  I102  1  0.83134097  0.49690673  -0.00301147  1
  I  I103  1  0.83090157  0.49850059  0.33576078  1
  I  I104  1  0.82653109  0.49833532  0.66747062  1
  I  I105  1  0.83784727  0.83284099  0.00311393  1
  I  I106  1  0.83803187  0.83247408  0.33094449  1
  I  I107  1  0.83412528  0.83223556  0.66680838  1
  I  I108  1  0.00006796  0.16616623  0.16901525  1
  I  I109  1  -0.00308779  0.16824452  0.50342246  1
  I  I110  1  -0.00122806  0.16734959  0.82706833  1
  I  I111  1  -0.00018652  0.50092785  0.16623235  1
  I  I112  1  -0.00527000  0.49610403  0.50832158  1
  I  I113  1  -0.00334305  0.50030352  0.82809702  1
  I  I114  1  0.00086059  0.83286005  0.16980800  1
  I  I115  1  0.00255367  0.83245793  0.50122870  1
  I  I116  1  0.00319707  0.83248308  0.82815550  1
  I  I117  1  0.33749481  0.16826835  0.17201519  1
  I  I118  1  0.33603191  0.16379264  0.49760700  1
  I  I119  1  0.33137234  0.16273281  0.83434933  1
  I  I120  1  0.33795745  0.49843042  0.16010122  1
  I  I121  1  0.33341008  0.49917369  0.50050859  1
  I  I122  1  0.33576467  0.50059464  0.83777708  1
  I  I123  1  0.33074306  0.83312335  0.16505606  1
  I  I124  1  0.33343221  0.83814768  0.49727425  1
  I  I125  1  0.32956195  0.83924857  0.83946907  1
  I  I126  1  0.66350006  0.16648160  0.16594013  1
  I  I127  1  0.66665555  0.16356018  0.50231809  1
  I  I128  1  0.66927159  0.16928353  0.83232029  1
  I  I129  1  0.66364536  0.50037886  0.16558790  1
  I  I130  1  0.66943980  0.50246427  0.50165045  1
  I  I131  1  0.66758935  0.49440676  0.83308652  1
  I  I132  1  0.66814166  0.83272896  0.16931033  1
  I  I133  1  0.66460133  0.83365763  0.49585373  1
  I  I134  1  0.66653563  0.83559562  0.83463017  1
