# generated using pymatgen
data_Cs27Sn14Pb13I81
_symmetry_space_group_name_H-M   'P 1'
_cell_length_a   18.97284940
_cell_length_b   18.98658474
_cell_length_c   18.96705966
_cell_angle_alpha   90.00013093
_cell_angle_beta   90.00264556
_cell_angle_gamma   90.00003096
_symmetry_Int_Tables_number   1
_chemical_formula_structural   Cs27Sn14Pb13I81
_chemical_formula_sum   'Cs27 Sn14 Pb13 I81'
_cell_volume   6832.49655057
_cell_formula_units_Z   1
loop_
 _symmetry_equiv_pos_site_id
 _symmetry_equiv_pos_as_xyz
  1  'x, y, z'
loop_
 _atom_site_type_symbol
 _atom_site_label
 _atom_site_symmetry_multiplicity
 _atom_site_fract_x
 _atom_site_fract_y
 _atom_site_fract_z
 _atom_site_occupancy
  Cs  Cs0  1  0.00609361  -0.00117555  -0.00963965  1
  Cs  Cs1  1  -0.00388703  -0.00083980  0.33364631  1
  Cs  Cs2  1  0.00083549  0.00116503  0.67190288  1
  Cs  Cs3  1  0.00237770  0.32748335  -0.00145641  1
  Cs  Cs4  1  -0.00246341  0.33433741  0.33565192  1
  Cs  Cs5  1  0.00010506  0.33411843  0.66583224  1
  Cs  Cs6  1  0.00290237  0.67314259  0.00196047  1
  Cs  Cs7  1  -0.00185612  0.66635474  0.33239209  1
  Cs  Cs8  1  -0.00028005  0.66440974  0.66758213  1
  Cs  Cs9  1  0.32785435  0.00141068  0.00005968  1
  Cs  Cs10  1  0.33460754  0.00092332  0.33514565  1
  Cs  Cs11  1  0.33643091  -0.00016342  0.66459522  1
  Cs  Cs12  1  0.33596274  0.33524922  0.00960487  1
  Cs  Cs13  1  0.33309756  0.33261426  0.33011214  1
  Cs  Cs14  1  0.33311114  0.33501072  0.66564540  1
  Cs  Cs15  1  0.33202741  0.66322254  0.00191464  1
  Cs  Cs16  1  0.33103235  0.66699108  0.33496003  1
  Cs  Cs17  1  0.33456442  0.66400386  0.66411939  1
  Cs  Cs18  1  0.66783686  -0.00094974  0.00068483  1
  Cs  Cs19  1  0.66753135  -0.00128400  0.33297701  1
  Cs  Cs20  1  0.66286310  -0.00016535  0.66675451  1
  Cs  Cs21  1  0.66246985  0.33661898  -0.00137495  1
  Cs  Cs22  1  0.66941436  0.33157774  0.33249359  1
  Cs  Cs23  1  0.66676830  0.33561628  0.66871103  1
  Cs  Cs24  1  0.66563596  0.66595326  -0.00229839  1
  Cs  Cs25  1  0.67068331  0.67231212  0.33368118  1
  Cs  Cs26  1  0.66595074  0.66314336  0.67000757  1
  Sn  Sn27  1  0.16661993  0.49979399  0.83297551  1
  Sn  Sn28  1  0.49981282  0.16610129  0.83303349  1
  Sn  Sn29  1  0.16651013  0.16657924  0.49998829  1
  Sn  Sn30  1  0.83323521  0.16560282  0.49985378  1
  Sn  Sn31  1  0.16743772  0.49984288  0.50055726  1
  Sn  Sn32  1  0.83426784  0.83422557  0.50015489  1
  Sn  Sn33  1  0.49982903  0.49890120  0.49941850  1
  Sn  Sn34  1  0.49983953  0.83399589  0.83476317  1
  Sn  Sn35  1  0.16524414  0.83346989  0.50001099  1
  Sn  Sn36  1  0.83339679  0.50004555  0.16627204  1
  Sn  Sn37  1  0.50028617  0.16796387  0.50045894  1
  Sn  Sn38  1  0.83329033  0.16610075  0.16684324  1
  Sn  Sn39  1  0.50024458  0.83354613  0.16541198  1
  Sn  Sn40  1  0.83268670  0.83396434  0.16695403  1
  Pb  Pb41  1  0.83633303  0.49998537  0.83673945  1
  Pb  Pb42  1  0.83137308  0.83337937  0.83296409  1
  Pb  Pb43  1  0.16360989  0.16643333  0.16928717  1
  Pb  Pb44  1  0.49819128  0.49971614  0.83161207  1
  Pb  Pb45  1  0.50214182  0.50262262  0.16981797  1
  Pb  Pb46  1  0.50049140  0.83342164  0.49988996  1
  Pb  Pb47  1  0.16635209  0.83359248  0.16893463  1
  Pb  Pb48  1  0.50197022  0.16463306  0.16705022  1
  Pb  Pb49  1  0.83100625  0.16671298  0.83283470  1
  Pb  Pb50  1  0.16967075  0.83150919  0.83028934  1
  Pb  Pb51  1  0.83341848  0.50003172  0.49906720  1
  Pb  Pb52  1  0.16421812  0.49989317  0.16730680  1
  Pb  Pb53  1  0.16986962  0.16887576  0.83091235  1
  I  I54  1  0.16586357  -0.00003839  0.16810425  1
  I  I55  1  0.16734419  0.00031629  0.49761779  1
  I  I56  1  0.16563406  0.00012083  0.83274246  1
  I  I57  1  0.16524413  0.33324960  0.16837798  1
  I  I58  1  0.16677146  0.33325611  0.50384323  1
  I  I59  1  0.16708861  0.33633176  0.82594148  1
  I  I60  1  0.16424459  0.66675486  0.17001382  1
  I  I61  1  0.16800150  0.66641899  0.50289752  1
  I  I62  1  0.16856580  0.66393149  0.82623773  1
  I  I63  1  0.50663081  -0.00314946  0.16935605  1
  I  I64  1  0.49792437  0.00240728  0.50069223  1
  I  I65  1  0.50127927  0.00022491  0.82875788  1
  I  I66  1  0.50204147  0.33330346  0.16410688  1
  I  I67  1  0.49794828  0.33203866  0.50567444  1
  I  I68  1  0.50003513  0.33075653  0.82897093  1
  I  I69  1  0.50616883  0.67034057  0.16292069  1
  I  I70  1  0.49660851  0.66497350  0.49973933  1
  I  I71  1  0.49944397  0.66899670  0.83474096  1
  I  I72  1  0.82756175  -0.00056218  0.17449332  1
  I  I73  1  0.83494282  0.00028382  0.49177604  1
  I  I74  1  0.83561535  0.00005733  0.83673893  1
  I  I75  1  0.83487571  0.33243078  0.17330502  1
  I  I76  1  0.83476588  0.33054645  0.49536790  1
  I  I77  1  0.83029213  0.33330645  0.83265155  1
  I  I78  1  0.83004914  0.66809441  0.17232505  1
  I  I79  1  0.83522531  0.66926385  0.49496033  1
  I  I80  1  0.82953569  0.66671461  0.83122751  1
  I  I81  1  0.16630487  0.16903011  -0.00030105  1
  I  I82  1  0.17310541  0.16978641  0.33823200  1
  I  I83  1  0.16122458  0.16448018  0.66221479  1
  I  I84  1  0.16551154  0.50097421  -0.00238017  1
  I  I85  1  0.16955977  0.50001518  0.33719080  1
  I  I86  1  0.17040031  0.50043991  0.66401286  1
  I  I87  1  0.16425824  0.83054777  -0.00032395  1
  I  I88  1  0.16835601  0.83026086  0.33757401  1
  I  I89  1  0.16235223  0.83567616  0.66201969  1
  I  I90  1  0.50279844  0.16452830  -0.00225008  1
  I  I91  1  0.49813977  0.16866879  0.33684513  1
  I  I92  1  0.50189038  0.16347363  0.66468801  1
  I  I93  1  0.49861788  0.49775229  0.00028358  1
  I  I94  1  0.49284740  0.49484435  0.33769071  1
  I  I95  1  0.49960489  0.50182694  0.66327998  1
  I  I96  1  0.50725762  0.83773990  0.00029678  1
  I  I97  1  0.50217699  0.83271394  0.33158437  1
  I  I98  1  0.49917564  0.83439895  0.66815114  1
  I  I99  1  0.83073690  0.16637365  0.00305757  1
  I  I100  1  0.83134615  0.16592733  0.33483503  1
  I  I101  1  0.83522514  0.16200028  0.66270130  1
  I  I102  1  0.83264843  0.50066753  0.00479284  1
  I  I103  1  0.83452484  0.50071897  0.33112630  1
  I  I104  1  0.83114255  0.50052559  0.66655466  1
  I  I105  1  0.83016284  0.83317057  0.00335015  1
  I  I106  1  0.83058251  0.83375216  0.33356076  1
  I  I107  1  0.83571387  0.83827884  0.66308932  1
  I  I108  1  -0.00482194  0.16483995  0.17268377  1
  I  I109  1  -0.00031007  0.16704881  0.49400867  1
  I  I110  1  0.00037725  0.16797859  0.83372294  1
  I  I111  1  -0.00371835  0.50337125  0.17067418  1
  I  I112  1  0.00270767  0.49816274  0.50165190  1
  I  I113  1  0.00377744  0.49990462  0.82317936  1
  I  I114  1  -0.00361197  0.83191716  0.17084737  1
  I  I115  1  -0.00076316  0.83482474  0.49361959  1
  I  I116  1  0.00044490  0.83187058  0.83585340  1
  I  I117  1  0.33356513  0.16556945  0.16738567  1
  I  I118  1  0.33365046  0.16634574  0.50537131  1
  I  I119  1  0.33752569  0.16170901  0.82661782  1
  I  I120  1  0.33341951  0.50180281  0.16562195  1
  I  I121  1  0.33268150  0.49882233  0.50355112  1
  I  I122  1  0.33052251  0.50102129  0.82876400  1
  I  I123  1  0.33614665  0.83293534  0.16525002  1
  I  I124  1  0.33148207  0.83466835  0.50033999  1
  I  I125  1  0.33744690  0.83768292  0.83733956  1
  I  I126  1  0.67003983  0.16763826  0.17400615  1
  I  I127  1  0.66672965  0.16597194  0.49943293  1
  I  I128  1  0.66315243  0.16395576  0.82630692  1
  I  I129  1  0.66995661  0.49783184  0.16962684  1
  I  I130  1  0.66442420  0.49768695  0.49826041  1
  I  I131  1  0.66632697  0.50033120  0.83181404  1
  I  I132  1  0.66795794  0.83327627  0.17075553  1
  I  I133  1  0.66920299  0.83619634  0.49792460  1
  I  I134  1  0.66330282  0.83567264  0.83086473  1
