# generated using pymatgen
data_Cs27Sn13Pb14I81
_symmetry_space_group_name_H-M   'P 1'
_cell_length_a   18.99021034
_cell_length_b   18.98615314
_cell_length_c   18.99634081
_cell_angle_alpha   90.00157043
_cell_angle_beta   90.00174153
_cell_angle_gamma   89.99827404
_symmetry_Int_Tables_number   1
_chemical_formula_structural   Cs27Sn13Pb14I81
_chemical_formula_sum   'Cs27 Sn13 Pb14 I81'
_cell_volume   6849.15045596
_cell_formula_units_Z   1
loop_
 _symmetry_equiv_pos_site_id
 _symmetry_equiv_pos_as_xyz
  1  'x, y, z'
loop_
 _atom_site_type_symbol
 _atom_site_label
 _atom_site_symmetry_multiplicity
 _atom_site_fract_x
 _atom_site_fract_y
 _atom_site_fract_z
 _atom_site_occupancy
  Cs  Cs0  1  -0.00234437  -0.00219339  0.00179324  1
  Cs  Cs1  1  0.00230656  0.00363186  0.33662460  1
  Cs  Cs2  1  -0.00329329  -0.00153468  0.66163515  1
  Cs  Cs3  1  0.00469459  0.33470508  -0.00370461  1
  Cs  Cs4  1  -0.00012988  0.32932997  0.33872318  1
  Cs  Cs5  1  -0.00185018  0.33723486  0.66414799  1
  Cs  Cs6  1  0.00027679  0.66678447  -0.00110189  1
  Cs  Cs7  1  0.00077148  0.66564097  0.33034281  1
  Cs  Cs8  1  -0.00150428  0.66544094  0.66985955  1
  Cs  Cs9  1  0.33113086  0.00527136  -0.00255339  1
  Cs  Cs10  1  0.33069118  -0.00176937  0.33746186  1
  Cs  Cs11  1  0.33322665  -0.00086442  0.66556224  1
  Cs  Cs12  1  0.33171647  0.32993876  -0.00261690  1
  Cs  Cs13  1  0.33412621  0.33565368  0.33227074  1
  Cs  Cs14  1  0.33645009  0.33512767  0.67072221  1
  Cs  Cs15  1  0.33190816  0.66595385  0.00139718  1
  Cs  Cs16  1  0.33480243  0.66637931  0.33476473  1
  Cs  Cs17  1  0.33405585  0.66712821  0.66431181  1
  Cs  Cs18  1  0.66861270  0.00049341  -0.00114921  1
  Cs  Cs19  1  0.66567549  -0.00080906  0.33099809  1
  Cs  Cs20  1  0.66750756  -0.00064370  0.66950161  1
  Cs  Cs21  1  0.66553234  0.33101387  0.00250441  1
  Cs  Cs22  1  0.66701488  0.33422076  0.33474126  1
  Cs  Cs23  1  0.66613016  0.33340532  0.66345086  1
  Cs  Cs24  1  0.66744368  0.66611052  0.00783508  1
  Cs  Cs25  1  0.66530578  0.66707351  0.32141120  1
  Cs  Cs26  1  0.66623915  0.66771634  0.66718763  1
  Sn  Sn27  1  0.49992519  0.16689166  0.49915892  1
  Sn  Sn28  1  0.83295163  0.16673544  0.16581173  1
  Sn  Sn29  1  0.49961737  0.49977144  0.50043730  1
  Sn  Sn30  1  0.50037809  0.16648109  0.16781889  1
  Sn  Sn31  1  0.16671590  0.83349983  0.83382887  1
  Sn  Sn32  1  0.50007236  0.83230257  0.83354982  1
  Sn  Sn33  1  0.83275861  0.83255894  0.49999729  1
  Sn  Sn34  1  0.16684168  0.50046153  0.16749961  1
  Sn  Sn35  1  0.50049533  0.50117188  0.83305121  1
  Sn  Sn36  1  0.83312823  0.83378648  0.83278561  1
  Sn  Sn37  1  0.16691566  0.83296985  0.16611887  1
  Sn  Sn38  1  0.83355773  0.16647955  0.83380399  1
  Sn  Sn39  1  0.16724162  0.50025241  0.49951008  1
  Pb  Pb40  1  0.83237981  0.50284829  0.49985151  1
  Pb  Pb41  1  0.50173890  0.16658337  0.83309326  1
  Pb  Pb42  1  0.16886729  0.50214684  0.83310126  1
  Pb  Pb43  1  0.83552595  0.83518755  0.16629837  1
  Pb  Pb44  1  0.83645477  0.49667442  0.16661877  1
  Pb  Pb45  1  0.16961361  0.16957459  0.50034964  1
  Pb  Pb46  1  0.50202282  0.83272377  0.50161125  1
  Pb  Pb47  1  0.16478986  0.83104471  0.50022194  1
  Pb  Pb48  1  0.83042222  0.50037629  0.83347770  1
  Pb  Pb49  1  0.49733271  0.83604237  0.16379861  1
  Pb  Pb50  1  0.16321117  0.16381590  0.83292648  1
  Pb  Pb51  1  0.16652276  0.16668646  0.16669013  1
  Pb  Pb52  1  0.49807556  0.49798249  0.16660636  1
  Pb  Pb53  1  0.83099394  0.16487766  0.50013571  1
  I  I54  1  0.16634972  -0.00260229  0.16063588  1
  I  I55  1  0.16698249  -0.00035657  0.49906502  1
  I  I56  1  0.17337875  -0.00468277  0.84030727  1
  I  I57  1  0.16704686  0.33600453  0.17141294  1
  I  I58  1  0.16577560  0.33764402  0.49273349  1
  I  I59  1  0.16746595  0.33363086  0.83487022  1
  I  I60  1  0.16685212  0.66687488  0.16608062  1
  I  I61  1  0.17437689  0.66354383  0.49854898  1
  I  I62  1  0.16124653  0.67021304  0.83477881  1
  I  I63  1  0.50234673  0.00368116  0.17133818  1
  I  I64  1  0.50303727  0.00219319  0.49780341  1
  I  I65  1  0.49871069  -0.00273240  0.83362767  1
  I  I66  1  0.50150517  0.33021392  0.16501438  1
  I  I67  1  0.49674782  0.33397692  0.50294317  1
  I  I68  1  0.50083910  0.33544889  0.83208336  1
  I  I69  1  0.50095981  0.66682596  0.16879123  1
  I  I70  1  0.49629494  0.66366121  0.50397191  1
  I  I71  1  0.50091444  0.66716138  0.82636415  1
  I  I72  1  0.83123962  0.00285599  0.16465186  1
  I  I73  1  0.83288213  -0.00287936  0.50281950  1
  I  I74  1  0.83070180  -0.00123933  0.83364488  1
  I  I75  1  0.82987898  0.32880096  0.16084146  1
  I  I76  1  0.83573089  0.33338651  0.50051326  1
  I  I77  1  0.83064951  0.33046672  0.83781118  1
  I  I78  1  0.83222063  0.66679172  0.16650557  1
  I  I79  1  0.83297508  0.67046331  0.50928616  1
  I  I80  1  0.83591663  0.67030699  0.82831931  1
  I  I81  1  0.17229569  0.17196553  -0.00007770  1
  I  I82  1  0.16153008  0.16106970  0.33334900  1
  I  I83  1  0.16735696  0.16627108  0.66669072  1
  I  I84  1  0.16763241  0.50173756  0.00215857  1
  I  I85  1  0.17295789  0.50628912  0.33337469  1
  I  I86  1  0.16943218  0.50095486  0.66418091  1
  I  I87  1  0.16457926  0.82722886  -0.00058750  1
  I  I88  1  0.16399302  0.83198796  0.33100556  1
  I  I89  1  0.16788809  0.83249515  0.66964516  1
  I  I90  1  0.50196962  0.16639579  0.00184066  1
  I  I91  1  0.50605246  0.17273349  0.33341526  1
  I  I92  1  0.50130876  0.16832896  0.66460951  1
  I  I93  1  0.49916261  0.50280970  -0.00246965  1
  I  I94  1  0.49749302  0.49687061  0.33598958  1
  I  I95  1  0.49381394  0.49735588  0.66599787  1
  I  I96  1  0.50595451  0.82825649  -0.00419941  1
  I  I97  1  0.50103911  0.83171480  0.33306869  1
  I  I98  1  0.49555371  0.83495309  0.66996000  1
  I  I99  1  0.82662128  0.15987872  -0.00027232  1
  I  I100  1  0.83179727  0.16481153  0.33099403  1
  I  I101  1  0.83163087  0.16271913  0.66921555  1
  I  I102  1  0.83298435  0.50418223  0.00001062  1
  I  I103  1  0.82909162  0.50175943  0.33329376  1
  I  I104  1  0.83859214  0.49538048  0.66667066  1
  I  I105  1  0.83211220  0.83640357  -0.00311824  1
  I  I106  1  0.83497340  0.83454231  0.33525641  1
  I  I107  1  0.83554073  0.83964285  0.66882567  1
  I  I108  1  -0.00266373  0.16573419  0.16133693  1
  I  I109  1  -0.00030253  0.16701962  0.49919543  1
  I  I110  1  -0.00482595  0.16226118  0.84077996  1
  I  I111  1  0.00437044  0.50320779  0.17169353  1
  I  I112  1  0.00259002  0.50222900  0.49582450  1
  I  I113  1  0.00012390  0.49975378  0.83289398  1
  I  I114  1  0.00313680  0.83122611  0.16075602  1
  I  I115  1  -0.00287299  0.83323508  0.50609412  1
  I  I116  1  -0.00034306  0.83845946  0.83371366  1
  I  I117  1  0.33593165  0.16682615  0.17027378  1
  I  I118  1  0.33775425  0.16533017  0.49377010  1
  I  I119  1  0.33352491  0.16571815  0.83446127  1
  I  I120  1  0.33042682  0.50209009  0.16775462  1
  I  I121  1  0.33413003  0.49689278  0.50008751  1
  I  I122  1  0.33669960  0.50408250  0.83178602  1
  I  I123  1  0.32968801  0.83137117  0.16238144  1
  I  I124  1  0.33348462  0.83582415  0.50123878  1
  I  I125  1  0.33352965  0.82823113  0.83783265  1
  I  I126  1  0.66648174  0.16618120  0.16586772  1
  I  I127  1  0.66337287  0.17369053  0.49922615  1
  I  I128  1  0.66928982  0.15984722  0.83479387  1
  I  I129  1  0.66642900  0.50120997  0.16740979  1
  I  I130  1  0.66298954  0.49564935  0.50584633  1
  I  I131  1  0.66248300  0.50458702  0.82622671  1
  I  I132  1  0.66655343  0.83252544  0.16637037  1
  I  I133  1  0.66959548  0.83337216  0.50751661  1
  I  I134  1  0.66699150  0.83468497  0.82700162  1
