# generated using pymatgen
data_Cs27Sn13Pb14I81
_symmetry_space_group_name_H-M   'P 1'
_cell_length_a   18.97490523
_cell_length_b   18.97878136
_cell_length_c   18.97661232
_cell_angle_alpha   89.99840320
_cell_angle_beta   90.00160293
_cell_angle_gamma   90.00254725
_symmetry_Int_Tables_number   1
_chemical_formula_structural   Cs27Sn13Pb14I81
_chemical_formula_sum   'Cs27 Sn13 Pb14 I81'
_cell_volume   6833.86857861
_cell_formula_units_Z   1
loop_
 _symmetry_equiv_pos_site_id
 _symmetry_equiv_pos_as_xyz
  1  'x, y, z'
loop_
 _atom_site_type_symbol
 _atom_site_label
 _atom_site_symmetry_multiplicity
 _atom_site_fract_x
 _atom_site_fract_y
 _atom_site_fract_z
 _atom_site_occupancy
  Cs  Cs0  1  -0.00060632  0.00003895  0.00132147  1
  Cs  Cs1  1  -0.00070481  0.00009518  0.33031514  1
  Cs  Cs2  1  -0.00104211  -0.00155183  0.66880680  1
  Cs  Cs3  1  0.00117857  0.32961741  0.00584373  1
  Cs  Cs4  1  0.00501949  0.33474792  0.32658721  1
  Cs  Cs5  1  -0.00165158  0.33520424  0.66680602  1
  Cs  Cs6  1  -0.00184184  0.67005335  -0.00133972  1
  Cs  Cs7  1  0.00255818  0.66370202  0.33513915  1
  Cs  Cs8  1  -0.00083758  0.66725953  0.66632357  1
  Cs  Cs9  1  0.33202604  0.00122178  -0.00260629  1
  Cs  Cs10  1  0.33895022  -0.00139469  0.33729520  1
  Cs  Cs11  1  0.33429021  0.00191832  0.66649386  1
  Cs  Cs12  1  0.33591079  0.33358066  0.00021390  1
  Cs  Cs13  1  0.32322401  0.33294829  0.33649530  1
  Cs  Cs14  1  0.33154386  0.33155207  0.66592620  1
  Cs  Cs15  1  0.33601392  0.66491385  -0.00166100  1
  Cs  Cs16  1  0.33259574  0.66792158  0.32994858  1
  Cs  Cs17  1  0.33264647  0.66688232  0.66878746  1
  Cs  Cs18  1  0.66818988  0.00020393  0.00057493  1
  Cs  Cs19  1  0.66162402  -0.00019913  0.33249873  1
  Cs  Cs20  1  0.66698224  0.00106814  0.66610453  1
  Cs  Cs21  1  0.66410137  0.33411485  0.00008075  1
  Cs  Cs22  1  0.67016142  0.33272549  0.33449631  1
  Cs  Cs23  1  0.66736453  0.33465025  0.66714278  1
  Cs  Cs24  1  0.66440608  0.66678450  0.00626195  1
  Cs  Cs25  1  0.66377611  0.66755070  0.32894622  1
  Cs  Cs26  1  0.66927458  0.66311016  0.66718638  1
  Sn  Sn27  1  0.49991246  0.16703743  0.16623542  1
  Sn  Sn28  1  0.50100103  0.16590752  0.83387921  1
  Sn  Sn29  1  0.83422986  0.49921076  0.83325590  1
  Sn  Sn30  1  0.83258002  0.16760320  0.83258506  1
  Sn  Sn31  1  0.16741170  0.83260536  0.83324350  1
  Sn  Sn32  1  0.83364600  0.83325670  0.50014678  1
  Sn  Sn33  1  0.83358037  0.16687982  0.50064650  1
  Sn  Sn34  1  0.16673149  0.83345043  0.16638840  1
  Sn  Sn35  1  0.16607081  0.83351466  0.50016047  1
  Sn  Sn36  1  0.83251550  0.49981858  0.50053008  1
  Sn  Sn37  1  0.16547042  0.50043512  0.83319296  1
  Sn  Sn38  1  0.49988884  0.83382688  0.83277570  1
  Sn  Sn39  1  0.50036078  0.50008773  0.50006507  1
  Pb  Pb40  1  0.50025788  0.83140704  0.50218299  1
  Pb  Pb41  1  0.49785864  0.83507501  0.16382051  1
  Pb  Pb42  1  0.16958160  0.16410076  0.16666826  1
  Pb  Pb43  1  0.83314049  0.83321225  0.83203074  1
  Pb  Pb44  1  0.50039848  0.49965105  0.83213394  1
  Pb  Pb45  1  0.16336398  0.16389014  0.50019878  1
  Pb  Pb46  1  0.16670505  0.50238525  0.16310100  1
  Pb  Pb47  1  0.83145736  0.16661398  0.16635065  1
  Pb  Pb48  1  0.16605342  0.50200351  0.50195554  1
  Pb  Pb49  1  0.50193772  0.16890766  0.50066546  1
  Pb  Pb50  1  0.16619832  0.16673245  0.83324407  1
  Pb  Pb51  1  0.49979428  0.49713814  0.17009449  1
  Pb  Pb52  1  0.83328554  0.50002759  0.16641753  1
  Pb  Pb53  1  0.83540879  0.83332109  0.17018031  1
  I  I54  1  0.16543954  -0.00389462  0.16308195  1
  I  I55  1  0.16332200  -0.00463563  0.50377610  1
  I  I56  1  0.16758146  -0.00333657  0.83301752  1
  I  I57  1  0.16696655  0.33330718  0.16629724  1
  I  I58  1  0.16759248  0.33358039  0.50177134  1
  I  I59  1  0.16630038  0.33609754  0.83128487  1
  I  I60  1  0.16759311  0.67042422  0.17002098  1
  I  I61  1  0.16117109  0.67016460  0.49965350  1
  I  I62  1  0.16692557  0.66792239  0.83249662  1
  I  I63  1  0.49983767  0.00289670  0.16633930  1
  I  I64  1  0.50051148  0.00004792  0.49872856  1
  I  I65  1  0.49939231  0.00033298  0.83534393  1
  I  I66  1  0.50122664  0.32961704  0.15695121  1
  I  I67  1  0.50586461  0.33652248  0.50292369  1
  I  I68  1  0.50092105  0.33063332  0.83551235  1
  I  I69  1  0.49937247  0.66679187  0.16576048  1
  I  I70  1  0.50581796  0.66391324  0.50374440  1
  I  I71  1  0.49786733  0.66875236  0.83006937  1
  I  I72  1  0.83428169  -0.00002718  0.16604022  1
  I  I73  1  0.83838725  0.00011082  0.50490547  1
  I  I74  1  0.83222899  0.00235193  0.82873441  1
  I  I75  1  0.83391889  0.33320417  0.17099303  1
  I  I76  1  0.82639959  0.33365541  0.50573495  1
  I  I77  1  0.83271377  0.33321197  0.82484794  1
  I  I78  1  0.83219355  0.66678549  0.16497979  1
  I  I79  1  0.83433033  0.66620788  0.50533421  1
  I  I80  1  0.83482561  0.66421567  0.82779603  1
  I  I81  1  0.16188329  0.16401409  -0.00033709  1
  I  I82  1  0.16725689  0.16577267  0.33352671  1
  I  I83  1  0.17243373  0.16357063  0.66686106  1
  I  I84  1  0.16192178  0.50536861  -0.00502024  1
  I  I85  1  0.16676228  0.50139273  0.33350063  1
  I  I86  1  0.16540415  0.50656123  0.66983181  1
  I  I87  1  0.17207937  0.82950130  -0.00150434  1
  I  I88  1  0.16068249  0.83463371  0.33423543  1
  I  I89  1  0.16606988  0.82948982  0.66736247  1
  I  I90  1  0.50544389  0.16254128  -0.00221011  1
  I  I91  1  0.50162103  0.16729364  0.33165781  1
  I  I92  1  0.50197040  0.16362444  0.66976301  1
  I  I93  1  0.49996870  0.50208950  -0.00021123  1
  I  I94  1  0.50756774  0.50086203  0.33790096  1
  I  I95  1  0.50225684  0.49886713  0.66444016  1
  I  I96  1  0.49576517  0.83315543  -0.00434789  1
  I  I97  1  0.49905229  0.83443483  0.33352546  1
  I  I98  1  0.49405126  0.83945769  0.67001439  1
  I  I99  1  0.83181765  0.17087849  -0.00368400  1
  I  I100  1  0.83202080  0.16645835  0.33665323  1
  I  I101  1  0.82756092  0.16702883  0.66730101  1
  I  I102  1  0.83731117  0.49534115  -0.00404247  1
  I  I103  1  0.82919736  0.49975021  0.33728871  1
  I  I104  1  0.83344725  0.49939600  0.66652398  1
  I  I105  1  0.83418850  0.83366926  -0.00022269  1
  I  I106  1  0.83745682  0.83346448  0.33877195  1
  I  I107  1  0.83861082  0.83334174  0.66387430  1
  I  I108  1  0.00009624  0.16589039  0.16667163  1
  I  I109  1  -0.00489223  0.17120576  0.50715294  1
  I  I110  1  -0.00332393  0.16687096  0.82790554  1
  I  I111  1  0.00013912  0.49923012  0.17125487  1
  I  I112  1  -0.00331122  0.49940167  0.50319675  1
  I  I113  1  -0.00085917  0.50135241  0.82654924  1
  I  I114  1  0.00354413  0.83417482  0.15982065  1
  I  I115  1  -0.00008690  0.83184340  0.50296147  1
  I  I116  1  0.00265775  0.83250521  0.83394477  1
  I  I117  1  0.33724287  0.16648881  0.15888531  1
  I  I118  1  0.33347765  0.16742508  0.49991655  1
  I  I119  1  0.33611613  0.16550636  0.83722898  1
  I  I120  1  0.33326213  0.49978306  0.16714386  1
  I  I121  1  0.33510178  0.50132095  0.50231806  1
  I  I122  1  0.33137927  0.50237774  0.83119165  1
  I  I123  1  0.32991504  0.83441095  0.17214095  1
  I  I124  1  0.33066167  0.83080025  0.49921150  1
  I  I125  1  0.33223329  0.83297047  0.83117983  1
  I  I126  1  0.66375036  0.16474944  0.16453349  1
  I  I127  1  0.67016498  0.16175549  0.50184833  1
  I  I128  1  0.66690169  0.16614352  0.83275192  1
  I  I129  1  0.66644649  0.50172143  0.16226183  1
  I  I130  1  0.66874647  0.50166703  0.50692725  1
  I  I131  1  0.66952093  0.49912771  0.82917829  1
  I  I132  1  0.66630540  0.83405966  0.16648117  1
  I  I133  1  0.66957702  0.83487027  0.50362544  1
  I  I134  1  0.66445295  0.83471425  0.82998671  1
