# generated using pymatgen
data_Cs27Sn14Pb13I81
_symmetry_space_group_name_H-M   'P 1'
_cell_length_a   18.97335029
_cell_length_b   18.97432126
_cell_length_c   18.97879445
_cell_angle_alpha   90.00093913
_cell_angle_beta   90.00146476
_cell_angle_gamma   89.99999584
_symmetry_Int_Tables_number   1
_chemical_formula_structural   Cs27Sn14Pb13I81
_chemical_formula_sum   'Cs27 Sn14 Pb13 I81'
_cell_volume   6832.48829329
_cell_formula_units_Z   1
loop_
 _symmetry_equiv_pos_site_id
 _symmetry_equiv_pos_as_xyz
  1  'x, y, z'
loop_
 _atom_site_type_symbol
 _atom_site_label
 _atom_site_symmetry_multiplicity
 _atom_site_fract_x
 _atom_site_fract_y
 _atom_site_fract_z
 _atom_site_occupancy
  Cs  Cs0  1  -0.00035791  0.00011259  -0.00157017  1
  Cs  Cs1  1  0.00173595  0.00076709  0.33676018  1
  Cs  Cs2  1  -0.00168889  0.00082308  0.66562115  1
  Cs  Cs3  1  0.01075540  0.33409552  -0.00057355  1
  Cs  Cs4  1  0.00137128  0.33714639  0.32983863  1
  Cs  Cs5  1  0.00257267  0.33185257  0.67029804  1
  Cs  Cs6  1  0.00127406  0.66605318  0.00248337  1
  Cs  Cs7  1  -0.00485566  0.66192349  0.33026619  1
  Cs  Cs8  1  -0.00069159  0.66832353  0.66690452  1
  Cs  Cs9  1  0.33564149  -0.00184673  0.00122859  1
  Cs  Cs10  1  0.33050594  -0.00200963  0.33712679  1
  Cs  Cs11  1  0.33119602  -0.00242915  0.66259041  1
  Cs  Cs12  1  0.33180053  0.33592389  0.00183756  1
  Cs  Cs13  1  0.33229598  0.33062984  0.32997034  1
  Cs  Cs14  1  0.33266762  0.33505244  0.66710451  1
  Cs  Cs15  1  0.33218813  0.66557022  -0.00174668  1
  Cs  Cs16  1  0.33667592  0.67192837  0.34125178  1
  Cs  Cs17  1  0.33271506  0.66717504  0.66498319  1
  Cs  Cs18  1  0.66648420  0.00061615  0.00080331  1
  Cs  Cs19  1  0.66650187  0.00106337  0.33017079  1
  Cs  Cs20  1  0.67035107  0.00263109  0.66857721  1
  Cs  Cs21  1  0.66354943  0.33015411  -0.00133324  1
  Cs  Cs22  1  0.66714332  0.33346815  0.33516691  1
  Cs  Cs23  1  0.66692175  0.33332217  0.66574497  1
  Cs  Cs24  1  0.66692450  0.66842612  0.00014574  1
  Cs  Cs25  1  0.66889687  0.66505803  0.33279327  1
  Cs  Cs26  1  0.66691679  0.66374026  0.66661182  1
  Sn  Sn27  1  0.50065323  0.16646745  0.49997085  1
  Sn  Sn28  1  0.50034907  0.49996166  0.16632229  1
  Sn  Sn29  1  0.50089350  0.50006127  0.83409369  1
  Sn  Sn30  1  0.50072667  0.16729100  0.16676531  1
  Sn  Sn31  1  0.83252338  0.16611327  0.49890815  1
  Sn  Sn32  1  0.16657819  0.49988085  0.49999451  1
  Sn  Sn33  1  0.83283869  0.50036650  0.83375269  1
  Sn  Sn34  1  0.83320603  0.83243775  0.83280986  1
  Sn  Sn35  1  0.83281170  0.83365310  0.50031384  1
  Sn  Sn36  1  0.83312029  0.16689022  0.16714354  1
  Sn  Sn37  1  0.16664006  0.83342782  0.16638030  1
  Sn  Sn38  1  0.16649943  0.83347992  0.83402952  1
  Sn  Sn39  1  0.49992679  0.16671122  0.83318053  1
  Sn  Sn40  1  0.50018536  0.83325680  0.83321638  1
  Pb  Pb41  1  0.16706059  0.50226820  0.83213856  1
  Pb  Pb42  1  0.17021963  0.16372999  0.83329703  1
  Pb  Pb43  1  0.50289465  0.83574518  0.50257813  1
  Pb  Pb44  1  0.83112400  0.49711909  0.16356890  1
  Pb  Pb45  1  0.49877314  0.49770356  0.50013949  1
  Pb  Pb46  1  0.83484083  0.49918947  0.50210102  1
  Pb  Pb47  1  0.49859596  0.83342737  0.16489353  1
  Pb  Pb48  1  0.16698776  0.16458383  0.16663749  1
  Pb  Pb49  1  0.16382752  0.83162587  0.50019861  1
  Pb  Pb50  1  0.83494468  0.83527432  0.16627476  1
  Pb  Pb51  1  0.16600549  0.16884226  0.49994065  1
  Pb  Pb52  1  0.83198622  0.16693895  0.83356724  1
  Pb  Pb53  1  0.16989412  0.50269959  0.16894818  1
  I  I54  1  0.16926057  -0.00311238  0.16245974  1
  I  I55  1  0.16853477  -0.00018865  0.50029483  1
  I  I56  1  0.16457450  -0.00452273  0.83534465  1
  I  I57  1  0.16504404  0.33356902  0.16810828  1
  I  I58  1  0.16591039  0.33621413  0.50128707  1
  I  I59  1  0.16517889  0.33358055  0.83157611  1
  I  I60  1  0.16658170  0.67002264  0.16105269  1
  I  I61  1  0.16726134  0.66437367  0.50110164  1
  I  I62  1  0.17100896  0.67022385  0.83559421  1
  I  I63  1  0.50246673  0.00313304  0.16495881  1
  I  I64  1  0.49966153  0.00396055  0.49883094  1
  I  I65  1  0.50008651  0.00001389  0.83372293  1
  I  I66  1  0.50283758  0.33216962  0.16145183  1
  I  I67  1  0.50594605  0.32962475  0.50484819  1
  I  I68  1  0.50585706  0.33348816  0.83329057  1
  I  I69  1  0.49701916  0.66421699  0.16087599  1
  I  I70  1  0.49938137  0.66674506  0.49955168  1
  I  I71  1  0.50042770  0.66655964  0.83842819  1
  I  I72  1  0.82597481  0.00313863  0.16538161  1
  I  I73  1  0.83071644  0.00041527  0.50356754  1
  I  I74  1  0.83266815  -0.00264835  0.83226985  1
  I  I75  1  0.83131859  0.32930356  0.17304832  1
  I  I76  1  0.82964733  0.33006810  0.49815965  1
  I  I77  1  0.82723379  0.33559766  0.83216950  1
  I  I78  1  0.83303067  0.66650740  0.16959165  1
  I  I79  1  0.83656256  0.66890511  0.50367549  1
  I  I80  1  0.82851995  0.66805332  0.82748042  1
  I  I81  1  0.16440822  0.16896546  -0.00012786  1
  I  I82  1  0.17194651  0.16312454  0.33333386  1
  I  I83  1  0.16653607  0.16501920  0.66668849  1
  I  I84  1  0.16515216  0.49934958  0.00004897  1
  I  I85  1  0.16649152  0.50174259  0.33607228  1
  I  I86  1  0.16889149  0.50183384  0.66471725  1
  I  I87  1  0.16536587  0.83321043  -0.00169642  1
  I  I88  1  0.16672535  0.83272117  0.33138103  1
  I  I89  1  0.16921528  0.83174110  0.66956470  1
  I  I90  1  0.50432079  0.16633100  -0.00006955  1
  I  I91  1  0.50400262  0.17222270  0.33286205  1
  I  I92  1  0.50419137  0.16625106  0.66707407  1
  I  I93  1  0.50271536  0.49497506  -0.00149588  1
  I  I94  1  0.49670272  0.49477922  0.33083258  1
  I  I95  1  0.50189434  0.49956683  0.66996455  1
  I  I96  1  0.50474371  0.83797746  -0.00376275  1
  I  I97  1  0.49783216  0.83281953  0.33355862  1
  I  I98  1  0.49428755  0.83199078  0.67108625  1
  I  I99  1  0.82763100  0.16543509  0.00210443  1
  I  I100  1  0.82474497  0.16053845  0.33416005  1
  I  I101  1  0.82883709  0.16522182  0.66449591  1
  I  I102  1  0.83209166  0.50675507  -0.00424119  1
  I  I103  1  0.83345657  0.50311413  0.33315633  1
  I  I104  1  0.82679287  0.49999844  0.67001999  1
  I  I105  1  0.83138006  0.83173703  -0.00340396  1
  I  I106  1  0.83656208  0.83626880  0.33569632  1
  I  I107  1  0.83505463  0.83641065  0.66807293  1
  I  I108  1  -0.00285793  0.16384909  0.17211674  1
  I  I109  1  -0.00367902  0.16313779  0.49617273  1
  I  I110  1  -0.00004264  0.16739260  0.83277326  1
  I  I111  1  0.00001311  0.49853810  0.16609813  1
  I  I112  1  0.00232439  0.49975634  0.50263716  1
  I  I113  1  -0.00243299  0.50405337  0.82993818  1
  I  I114  1  0.00266460  0.83534555  0.16050352  1
  I  I115  1  -0.00361962  0.84018559  0.50680906  1
  I  I116  1  -0.00102404  0.82834517  0.83283414  1
  I  I117  1  0.33709561  0.16968760  0.16609639  1
  I  I118  1  0.33645312  0.16833253  0.50013491  1
  I  I119  1  0.33885526  0.16871686  0.83382550  1
  I  I120  1  0.33743197  0.49162746  0.15830050  1
  I  I121  1  0.33122413  0.50005340  0.50243310  1
  I  I122  1  0.33673476  0.49967108  0.83546728  1
  I  I123  1  0.33077047  0.83461566  0.16078897  1
  I  I124  1  0.33344413  0.83411738  0.50081519  1
  I  I125  1  0.33405171  0.83429937  0.83867755  1
  I  I126  1  0.66530918  0.16833050  0.16709025  1
  I  I127  1  0.66650971  0.16359285  0.50010392  1
  I  I128  1  0.66348067  0.16245749  0.83367758  1
  I  I129  1  0.66301930  0.49991727  0.16607074  1
  I  I130  1  0.66670238  0.50170864  0.49921966  1
  I  I131  1  0.66537547  0.50509749  0.83504801  1
  I  I132  1  0.66663858  0.83235404  0.16605316  1
  I  I133  1  0.67066223  0.83353889  0.50504496  1
  I  I134  1  0.66661154  0.83304668  0.82883334  1
