# generated using pymatgen
data_Cs27Sn14Pb13I81
_symmetry_space_group_name_H-M   'P 1'
_cell_length_a   18.98247738
_cell_length_b   18.97188936
_cell_length_c   18.97204428
_cell_angle_alpha   89.99952003
_cell_angle_beta   90.00032507
_cell_angle_gamma   89.99955231
_symmetry_Int_Tables_number   1
_chemical_formula_structural   Cs27Sn14Pb13I81
_chemical_formula_sum   'Cs27 Sn14 Pb13 I81'
_cell_volume   6832.46796229
_cell_formula_units_Z   1
loop_
 _symmetry_equiv_pos_site_id
 _symmetry_equiv_pos_as_xyz
  1  'x, y, z'
loop_
 _atom_site_type_symbol
 _atom_site_label
 _atom_site_symmetry_multiplicity
 _atom_site_fract_x
 _atom_site_fract_y
 _atom_site_fract_z
 _atom_site_occupancy
  Cs  Cs0  1  0.00078882  -0.00024394  0.00199613  1
  Cs  Cs1  1  0.00035538  -0.00028438  0.33329911  1
  Cs  Cs2  1  0.00207773  -0.00282327  0.66560699  1
  Cs  Cs3  1  -0.00269607  0.33218750  -0.01022831  1
  Cs  Cs4  1  0.00007050  0.33369980  0.33328274  1
  Cs  Cs5  1  0.00101636  0.33539296  0.67300092  1
  Cs  Cs6  1  -0.00098087  0.66774964  0.00207219  1
  Cs  Cs7  1  -0.00123927  0.66553711  0.33266344  1
  Cs  Cs8  1  -0.00095264  0.66871596  0.66732545  1
  Cs  Cs9  1  0.33261233  -0.00104579  0.00024087  1
  Cs  Cs10  1  0.33194821  -0.00035303  0.33394452  1
  Cs  Cs11  1  0.33258277  -0.00092857  0.66590000  1
  Cs  Cs12  1  0.34070445  0.34167564  -0.00867879  1
  Cs  Cs13  1  0.33125957  0.33728584  0.33475734  1
  Cs  Cs14  1  0.33215663  0.33336466  0.66903993  1
  Cs  Cs15  1  0.33646746  0.66434492  0.00541497  1
  Cs  Cs16  1  0.33260429  0.66387058  0.33098221  1
  Cs  Cs17  1  0.33306972  0.66903391  0.66501840  1
  Cs  Cs18  1  0.66576116  0.00593039  0.00508330  1
  Cs  Cs19  1  0.66669034  0.00241533  0.33387472  1
  Cs  Cs20  1  0.66492866  -0.00311176  0.66275064  1
  Cs  Cs21  1  0.66311787  0.32610827  -0.00752424  1
  Cs  Cs22  1  0.66838419  0.33119350  0.33398887  1
  Cs  Cs23  1  0.66677424  0.33516211  0.66831558  1
  Cs  Cs24  1  0.66589365  0.66558180  0.00075917  1
  Cs  Cs25  1  0.66877259  0.66657698  0.33393094  1
  Cs  Cs26  1  0.66783122  0.66780511  0.66570331  1
  Sn  Sn27  1  0.16758315  0.83382846  0.49950307  1
  Sn  Sn28  1  0.16580251  0.83401992  0.16703920  1
  Sn  Sn29  1  0.83290247  0.49895106  0.49921555  1
  Sn  Sn30  1  0.83334006  0.49974890  0.16691356  1
  Sn  Sn31  1  0.50084074  0.50024023  0.49969964  1
  Sn  Sn32  1  0.49889047  0.83313356  0.50015340  1
  Sn  Sn33  1  0.16696650  0.83342126  0.83365963  1
  Sn  Sn34  1  0.50018310  0.83349333  0.83294835  1
  Sn  Sn35  1  0.83285641  0.83357835  0.83488831  1
  Sn  Sn36  1  0.83403732  0.16792451  0.50002094  1
  Sn  Sn37  1  0.49951088  0.16683950  0.49972151  1
  Sn  Sn38  1  0.83380622  0.83285840  0.16595520  1
  Sn  Sn39  1  0.16637535  0.16594968  0.49905523  1
  Sn  Sn40  1  0.16699833  0.16679207  0.16693122  1
  Pb  Pb41  1  0.16419979  0.49914965  0.16655356  1
  Pb  Pb42  1  0.50326866  0.49964310  0.16892988  1
  Pb  Pb43  1  0.83329948  0.16331831  0.83016326  1
  Pb  Pb44  1  0.16673858  0.50331136  0.83358506  1
  Pb  Pb45  1  0.50021495  0.50293141  0.83047562  1
  Pb  Pb46  1  0.83347534  0.83328811  0.49946669  1
  Pb  Pb47  1  0.83310965  0.50230481  0.83333316  1
  Pb  Pb48  1  0.49640153  0.16686011  0.16888229  1
  Pb  Pb49  1  0.83540025  0.16690024  0.16836982  1
  Pb  Pb50  1  0.50004930  0.83341892  0.16711929  1
  Pb  Pb51  1  0.16684075  0.16461723  0.83348840  1
  Pb  Pb52  1  0.49986099  0.16376614  0.83069779  1
  Pb  Pb53  1  0.16619062  0.49979134  0.50004107  1
  I  I54  1  0.16040525  -0.00205101  0.16866079  1
  I  I55  1  0.16864659  -0.00113423  0.50009304  1
  I  I56  1  0.16636049  -0.00430588  0.83134687  1
  I  I57  1  0.16550647  0.32992060  0.17775313  1
  I  I58  1  0.16900994  0.32995386  0.49403993  1
  I  I59  1  0.16581342  0.33305306  0.83256399  1
  I  I60  1  0.16486254  0.67022266  0.16741562  1
  I  I61  1  0.16917941  0.67020800  0.50032542  1
  I  I62  1  0.16572821  0.67243746  0.83080471  1
  I  I63  1  0.50593695  -0.00019041  0.16937281  1
  I  I64  1  0.49989657  -0.00054876  0.50441557  1
  I  I65  1  0.49923047  -0.00458930  0.82607627  1
  I  I66  1  0.49928625  0.33325608  0.16950339  1
  I  I67  1  0.50077542  0.33296831  0.49665740  1
  I  I68  1  0.50022027  0.33335868  0.83292908  1
  I  I69  1  0.49546585  0.66688064  0.16973870  1
  I  I70  1  0.50095155  0.66762246  0.50441986  1
  I  I71  1  0.49953683  0.67124640  0.82627391  1
  I  I72  1  0.83574623  -0.00295792  0.16438503  1
  I  I73  1  0.83144473  0.00189182  0.50066577  1
  I  I74  1  0.83446863  -0.00494594  0.83747736  1
  I  I75  1  0.83497946  0.33581145  0.17338364  1
  I  I76  1  0.83020381  0.33354661  0.49343975  1
  I  I77  1  0.83361229  0.33317808  0.83552413  1
  I  I78  1  0.83892994  0.66812679  0.16987851  1
  I  I79  1  0.83019830  0.66487227  0.49976684  1
  I  I80  1  0.83446733  0.67087862  0.83026910  1
  I  I81  1  0.16325282  0.15987887  0.00314069  1
  I  I82  1  0.16637197  0.15682625  0.33506046  1
  I  I83  1  0.16724071  0.16215355  0.66293358  1
  I  I84  1  0.16426366  0.49946160  0.00027297  1
  I  I85  1  0.16859336  0.50633384  0.33354559  1
  I  I86  1  0.16384074  0.50044693  0.66627083  1
  I  I87  1  0.16506624  0.83724742  0.00051684  1
  I  I88  1  0.16602194  0.83717966  0.33383078  1
  I  I89  1  0.16660510  0.83660383  0.66584283  1
  I  I90  1  0.50003126  0.16511542  -0.00012690  1
  I  I91  1  0.50320902  0.16124197  0.33807044  1
  I  I92  1  0.49703179  0.16814229  0.66172128  1
  I  I93  1  0.49965342  0.50221704  -0.00023740  1
  I  I94  1  0.50072356  0.50460759  0.33775519  1
  I  I95  1  0.50709416  0.49816698  0.66196859  1
  I  I96  1  0.49727654  0.83248296  -0.00275779  1
  I  I97  1  0.49751318  0.83371834  0.33715448  1
  I  I98  1  0.49773667  0.83354469  0.66508714  1
  I  I99  1  0.83554242  0.16919830  0.00001453  1
  I  I100  1  0.83128392  0.16408453  0.33702932  1
  I  I101  1  0.83585455  0.17113722  0.66156716  1
  I  I102  1  0.83712953  0.50513026  0.00296011  1
  I  I103  1  0.83002043  0.50434804  0.33447278  1
  I  I104  1  0.82936829  0.49781190  0.66328357  1
  I  I105  1  0.83722360  0.82720729  0.00065618  1
  I  I106  1  0.83678687  0.83248313  0.33111982  1
  I  I107  1  0.83575357  0.83396564  0.66816197  1
  I  I108  1  0.00317044  0.16255802  0.17543134  1
  I  I109  1  0.00068510  0.16437497  0.49594017  1
  I  I110  1  0.00003933  0.16433704  0.82942469  1
  I  I111  1  -0.00357449  0.50459514  0.17636074  1
  I  I112  1  -0.00318466  0.49868512  0.49609404  1
  I  I113  1  -0.00039032  0.50229374  0.82938260  1
  I  I114  1  0.00043942  0.83299886  0.16496673  1
  I  I115  1  0.00250034  0.83603189  0.50221425  1
  I  I116  1  0.00037205  0.83325481  0.83180463  1
  I  I117  1  0.32844813  0.15567918  0.17385684  1
  I  I118  1  0.33295092  0.16420418  0.49633138  1
  I  I119  1  0.33327999  0.16385314  0.83130518  1
  I  I120  1  0.33328949  0.50191276  0.16811824  1
  I  I121  1  0.33604279  0.49945823  0.50154743  1
  I  I122  1  0.33364275  0.50140307  0.83138805  1
  I  I123  1  0.33005148  0.83763341  0.16529957  1
  I  I124  1  0.33302600  0.83577001  0.50338310  1
  I  I125  1  0.33295501  0.83410393  0.83012828  1
  I  I126  1  0.66684702  0.16500419  0.16928212  1
  I  I127  1  0.66651704  0.16503999  0.50105718  1
  I  I128  1  0.66667448  0.16304253  0.83230209  1
  I  I129  1  0.67121872  0.50966412  0.17047570  1
  I  I130  1  0.66693311  0.49889652  0.49638132  1
  I  I131  1  0.66672653  0.50461870  0.83401509  1
  I  I132  1  0.66972771  0.82869658  0.16478371  1
  I  I133  1  0.66450655  0.83533927  0.50320602  1
  I  I134  1  0.66660980  0.83218350  0.82969275  1
