# generated using pymatgen
data_Cs27Sn14Pb13I81
_symmetry_space_group_name_H-M   'P 1'
_cell_length_a   18.98173076
_cell_length_b   18.97346835
_cell_length_c   18.97359335
_cell_angle_alpha   89.99979619
_cell_angle_beta   89.99988993
_cell_angle_gamma   89.99912612
_symmetry_Int_Tables_number   1
_chemical_formula_structural   Cs27Sn14Pb13I81
_chemical_formula_sum   'Cs27 Sn14 Pb13 I81'
_cell_volume   6833.32575184
_cell_formula_units_Z   1
loop_
 _symmetry_equiv_pos_site_id
 _symmetry_equiv_pos_as_xyz
  1  'x, y, z'
loop_
 _atom_site_type_symbol
 _atom_site_label
 _atom_site_symmetry_multiplicity
 _atom_site_fract_x
 _atom_site_fract_y
 _atom_site_fract_z
 _atom_site_occupancy
  Cs  Cs0  1  -0.00054574  -0.00178824  0.00106538  1
  Cs  Cs1  1  0.00021737  0.00057002  0.33509981  1
  Cs  Cs2  1  0.00170317  -0.00000126  0.66377760  1
  Cs  Cs3  1  -0.00064747  0.33188480  -0.00204621  1
  Cs  Cs4  1  0.00228338  0.32980136  0.33368035  1
  Cs  Cs5  1  -0.00048080  0.33266546  0.66728076  1
  Cs  Cs6  1  0.00018275  0.66706089  0.00080905  1
  Cs  Cs7  1  -0.00092216  0.66925652  0.33182074  1
  Cs  Cs8  1  -0.00140531  0.66703072  0.66589712  1
  Cs  Cs9  1  0.33441931  -0.00043350  -0.00115605  1
  Cs  Cs10  1  0.33410910  0.00285389  0.33411746  1
  Cs  Cs11  1  0.33855622  -0.00245379  0.66733452  1
  Cs  Cs12  1  0.33076105  0.33825224  0.00164868  1
  Cs  Cs13  1  0.33379367  0.33235921  0.33333038  1
  Cs  Cs14  1  0.33055888  0.33422574  0.66582962  1
  Cs  Cs15  1  0.33285468  0.66583953  0.00067835  1
  Cs  Cs16  1  0.33242497  0.66544814  0.33042917  1
  Cs  Cs17  1  0.33318833  0.66839085  0.66858359  1
  Cs  Cs18  1  0.66673661  0.00329520  -0.00329934  1
  Cs  Cs19  1  0.66565280  0.00357340  0.33457901  1
  Cs  Cs20  1  0.65414265  -0.00016706  0.66824980  1
  Cs  Cs21  1  0.67037611  0.32836492  -0.00297784  1
  Cs  Cs22  1  0.66181827  0.33222110  0.33631013  1
  Cs  Cs23  1  0.67004417  0.33331019  0.66496604  1
  Cs  Cs24  1  0.66630663  0.66778747  0.00272984  1
  Cs  Cs25  1  0.66837748  0.66536729  0.33303803  1
  Cs  Cs26  1  0.66767586  0.66544041  0.65785478  1
  Sn  Sn27  1  0.16634318  0.49969257  0.49996830  1
  Sn  Sn28  1  0.83354957  0.49999505  0.16642597  1
  Sn  Sn29  1  0.49999033  0.83275002  0.16641409  1
  Sn  Sn30  1  0.83332345  0.83280295  0.16575477  1
  Sn  Sn31  1  0.16588237  0.16738096  0.50113800  1
  Sn  Sn32  1  0.16694240  0.50025860  0.83325027  1
  Sn  Sn33  1  0.50022219  0.50065184  0.16538869  1
  Sn  Sn34  1  0.83375703  0.83298040  0.83353183  1
  Sn  Sn35  1  0.49998071  0.50032291  0.83403700  1
  Sn  Sn36  1  0.83404824  0.16631406  0.50037585  1
  Sn  Sn37  1  0.16673852  0.83273741  0.16585855  1
  Sn  Sn38  1  0.16655727  0.16639145  0.83274271  1
  Sn  Sn39  1  0.16569111  0.83337330  0.83417903  1
  Sn  Sn40  1  0.16617477  0.50071837  0.16676942  1
  Pb  Pb41  1  0.83558167  0.16358283  0.83114650  1
  Pb  Pb42  1  0.16667473  0.16641397  0.16639147  1
  Pb  Pb43  1  0.83340874  0.50202134  0.83509682  1
  Pb  Pb44  1  0.49990654  0.83279895  0.49646594  1
  Pb  Pb45  1  0.50004247  0.83073089  0.83528894  1
  Pb  Pb46  1  0.83607674  0.49828297  0.49715300  1
  Pb  Pb47  1  0.16676566  0.83332260  0.50007450  1
  Pb  Pb48  1  0.49695225  0.17021122  0.83364289  1
  Pb  Pb49  1  0.83346876  0.16635251  0.16836987  1
  Pb  Pb50  1  0.49736855  0.50016393  0.49990922  1
  Pb  Pb51  1  0.49903014  0.16696369  0.50023512  1
  Pb  Pb52  1  0.49995441  0.16728878  0.16620777  1
  Pb  Pb53  1  0.83338621  0.83563196  0.50004616  1
  I  I54  1  0.16612959  -0.00357283  0.16431905  1
  I  I55  1  0.16279268  0.00287332  0.50170828  1
  I  I56  1  0.16129865  -0.00087998  0.83380305  1
  I  I57  1  0.16732089  0.33684745  0.16482533  1
  I  I58  1  0.16331398  0.33387520  0.50211691  1
  I  I59  1  0.17152371  0.33445920  0.83327665  1
  I  I60  1  0.16687010  0.66598922  0.16482408  1
  I  I61  1  0.16810752  0.66364108  0.50104024  1
  I  I62  1  0.16721577  0.66622831  0.83425416  1
  I  I63  1  0.49910222  -0.00347238  0.16789307  1
  I  I64  1  0.49766402  0.00004496  0.49837729  1
  I  I65  1  0.49940208  -0.00030695  0.83416935  1
  I  I66  1  0.49815657  0.33765288  0.16467865  1
  I  I67  1  0.50149706  0.33366732  0.49600055  1
  I  I68  1  0.49470968  0.33813787  0.84080851  1
  I  I69  1  0.49863714  0.66582672  0.16311609  1
  I  I70  1  0.49873233  0.66619006  0.50280695  1
  I  I71  1  0.49173356  0.66312606  0.83616322  1
  I  I72  1  0.83456490  -0.00381202  0.16451269  1
  I  I73  1  0.84344422  0.00321575  0.49676987  1
  I  I74  1  0.83929486  -0.00424061  0.84176688  1
  I  I75  1  0.83437457  0.33654181  0.16812239  1
  I  I76  1  0.83653783  0.33049118  0.49871142  1
  I  I77  1  0.83358333  0.33338470  0.83469846  1
  I  I78  1  0.83434566  0.66705142  0.16415733  1
  I  I79  1  0.83404648  0.66667179  0.50091228  1
  I  I80  1  0.84064369  0.66993817  0.83542363  1
  I  I81  1  0.16761870  0.16921957  -0.00302579  1
  I  I82  1  0.16368583  0.16990885  0.33597869  1
  I  I83  1  0.16219802  0.17106118  0.66693926  1
  I  I84  1  0.16802052  0.50010297  0.00026572  1
  I  I85  1  0.16676332  0.49973637  0.33194952  1
  I  I86  1  0.17168023  0.49944004  0.66782852  1
  I  I87  1  0.16609143  0.83072125  0.00036209  1
  I  I88  1  0.16612502  0.83004221  0.32980696  1
  I  I89  1  0.16151085  0.83039478  0.67013312  1
  I  I90  1  0.49888055  0.16473644  -0.00028940  1
  I  I91  1  0.49736923  0.16722680  0.33331349  1
  I  I92  1  0.50215668  0.16708328  0.66701095  1
  I  I93  1  0.49256773  0.50370393  0.00124994  1
  I  I94  1  0.49927745  0.50388250  0.32959371  1
  I  I95  1  0.49394818  0.49924723  0.66972346  1
  I  I96  1  0.49880945  0.83030943  0.00352111  1
  I  I97  1  0.49884622  0.82632847  0.32774443  1
  I  I98  1  0.50006899  0.83297904  0.66719441  1
  I  I99  1  0.83442526  0.16807772  -0.00030780  1
  I  I100  1  0.84200028  0.16540351  0.33613032  1
  I  I101  1  0.83791660  0.16731601  0.66352191  1
  I  I102  1  0.83834530  0.50128419  0.00353276  1
  I  I103  1  0.83274829  0.50704323  0.32885275  1
  I  I104  1  0.83267182  0.50120855  0.66662996  1
  I  I105  1  0.83585585  0.82995642  0.00136886  1
  I  I106  1  0.83458498  0.83019973  0.32953434  1
  I  I107  1  0.84122726  0.83384706  0.66978911  1
  I  I108  1  0.00030753  0.16762307  0.16600258  1
  I  I109  1  0.00192138  0.17069803  0.50251372  1
  I  I110  1  0.00392279  0.17270857  0.83229868  1
  I  I111  1  0.00128674  0.50569434  0.16721857  1
  I  I112  1  0.00429878  0.49845658  0.50121876  1
  I  I113  1  0.00363226  0.49807801  0.83412850  1
  I  I114  1  0.00057816  0.82710214  0.16299968  1
  I  I115  1  0.00025737  0.83178599  0.49488557  1
  I  I116  1  0.00185545  0.83160317  0.84160285  1
  I  I117  1  0.33297542  0.16574969  0.17009772  1
  I  I118  1  0.32932557  0.17099329  0.50268700  1
  I  I119  1  0.32850910  0.16059966  0.82660937  1
  I  I120  1  0.33214914  0.50501184  0.16637920  1
  I  I121  1  0.32894277  0.49322287  0.49532710  1
  I  I122  1  0.33095687  0.50093797  0.83786158  1
  I  I123  1  0.33223951  0.82734533  0.16362957  1
  I  I124  1  0.33291489  0.83649809  0.50057909  1
  I  I125  1  0.32996221  0.83521995  0.83646186  1
  I  I126  1  0.66679731  0.16706079  0.17055698  1
  I  I127  1  0.66923792  0.16498289  0.49642882  1
  I  I128  1  0.66676609  0.16626226  0.83160706  1
  I  I129  1  0.66635754  0.50678996  0.16254659  1
  I  I130  1  0.66688919  0.49778027  0.50021595  1
  I  I131  1  0.66429304  0.50211608  0.83938744  1
  I  I132  1  0.66723259  0.82630348  0.16381887  1
  I  I133  1  0.66685859  0.83640445  0.50173994  1
  I  I134  1  0.66909470  0.83264976  0.83809473  1
