# generated using pymatgen
data_Cs27Sn13Pb14I81
_symmetry_space_group_name_H-M   'P 1'
_cell_length_a   18.98209318
_cell_length_b   18.97027005
_cell_length_c   18.98092390
_cell_angle_alpha   89.99721748
_cell_angle_beta   90.00019484
_cell_angle_gamma   89.99871299
_symmetry_Int_Tables_number   1
_chemical_formula_structural   Cs27Sn13Pb14I81
_chemical_formula_sum   'Cs27 Sn13 Pb14 I81'
_cell_volume   6834.94401747
_cell_formula_units_Z   1
loop_
 _symmetry_equiv_pos_site_id
 _symmetry_equiv_pos_as_xyz
  1  'x, y, z'
loop_
 _atom_site_type_symbol
 _atom_site_label
 _atom_site_symmetry_multiplicity
 _atom_site_fract_x
 _atom_site_fract_y
 _atom_site_fract_z
 _atom_site_occupancy
  Cs  Cs0  1  0.00288538  -0.00478118  0.00265211  1
  Cs  Cs1  1  0.00253008  0.00010683  0.33323905  1
  Cs  Cs2  1  -0.00195770  0.00074970  0.66408575  1
  Cs  Cs3  1  -0.00066670  0.33530342  -0.00166651  1
  Cs  Cs4  1  0.00427927  0.33267450  0.33506603  1
  Cs  Cs5  1  0.00202711  0.33596818  0.66598680  1
  Cs  Cs6  1  -0.00489086  0.67111962  -0.00540706  1
  Cs  Cs7  1  -0.00095142  0.66752310  0.33397811  1
  Cs  Cs8  1  0.00258483  0.66402082  0.67095584  1
  Cs  Cs9  1  0.32900309  -0.00407703  0.00026201  1
  Cs  Cs10  1  0.32928159  -0.00185934  0.33169532  1
  Cs  Cs11  1  0.33713211  -0.00044732  0.66729548  1
  Cs  Cs12  1  0.33593431  0.33269049  -0.00017413  1
  Cs  Cs13  1  0.32996541  0.33404244  0.33280262  1
  Cs  Cs14  1  0.33376120  0.33437560  0.66720526  1
  Cs  Cs15  1  0.33173674  0.67455064  0.00342263  1
  Cs  Cs16  1  0.33704184  0.66666087  0.33033863  1
  Cs  Cs17  1  0.33144670  0.66733440  0.66866373  1
  Cs  Cs18  1  0.66794732  0.00135655  -0.00227844  1
  Cs  Cs19  1  0.66724035  0.00105328  0.33686123  1
  Cs  Cs20  1  0.66556190  0.00130447  0.66543988  1
  Cs  Cs21  1  0.66533789  0.33332255  0.00079984  1
  Cs  Cs22  1  0.66646525  0.33354014  0.33320017  1
  Cs  Cs23  1  0.66577011  0.33127328  0.66647376  1
  Cs  Cs24  1  0.67446603  0.66999975  0.00874016  1
  Cs  Cs25  1  0.66490093  0.66522518  0.32941706  1
  Cs  Cs26  1  0.66636753  0.66867865  0.66549325  1
  Sn  Sn27  1  0.50036835  0.16682688  0.16692226  1
  Sn  Sn28  1  0.83287913  0.16700586  0.16695992  1
  Sn  Sn29  1  0.83263156  0.49969010  0.50017914  1
  Sn  Sn30  1  0.83369715  0.16696656  0.83328854  1
  Sn  Sn31  1  0.16666376  0.16704472  0.83304589  1
  Sn  Sn32  1  0.49982167  0.16731934  0.83345261  1
  Sn  Sn33  1  0.50073599  0.49894399  0.50103450  1
  Sn  Sn34  1  0.83422315  0.83313116  0.50014046  1
  Sn  Sn35  1  0.83295326  0.16721372  0.49984085  1
  Sn  Sn36  1  0.50033189  0.16767972  0.49945907  1
  Sn  Sn37  1  0.50039570  0.49993915  0.83327118  1
  Sn  Sn38  1  0.16632556  0.49989825  0.16615183  1
  Sn  Sn39  1  0.16620086  0.83329158  0.50032832  1
  Pb  Pb40  1  0.83077527  0.49799078  0.83128185  1
  Pb  Pb41  1  0.50030186  0.83681732  0.16670695  1
  Pb  Pb42  1  0.50045109  0.83305592  0.50005089  1
  Pb  Pb43  1  0.83303642  0.83570084  0.83076818  1
  Pb  Pb44  1  0.16646875  0.16786319  0.16423495  1
  Pb  Pb45  1  0.83321963  0.83620168  0.16938098  1
  Pb  Pb46  1  0.83530023  0.49755031  0.16889446  1
  Pb  Pb47  1  0.16660208  0.83572307  0.83080199  1
  Pb  Pb48  1  0.16729185  0.50209661  0.49902303  1
  Pb  Pb49  1  0.16630129  0.83026476  0.16888022  1
  Pb  Pb50  1  0.16708133  0.16545026  0.50182007  1
  Pb  Pb51  1  0.49884774  0.49811496  0.16645600  1
  Pb  Pb52  1  0.50043554  0.83279030  0.83339674  1
  Pb  Pb53  1  0.16921801  0.49833186  0.83566321  1
  I  I54  1  0.16739099  0.00006303  0.16609149  1
  I  I55  1  0.16246483  -0.00229189  0.50059560  1
  I  I56  1  0.16989116  0.00430437  0.83450263  1
  I  I57  1  0.16721420  0.33511151  0.16976834  1
  I  I58  1  0.16429834  0.33342620  0.49957283  1
  I  I59  1  0.16497897  0.32986190  0.83130718  1
  I  I60  1  0.16957349  0.66286849  0.16824621  1
  I  I61  1  0.16219117  0.66967716  0.49857439  1
  I  I62  1  0.16895546  0.66654597  0.83363208  1
  I  I63  1  0.50253820  0.00577227  0.16780325  1
  I  I64  1  0.50318371  0.00356040  0.50116664  1
  I  I65  1  0.50043980  0.00453156  0.83143964  1
  I  I66  1  0.50331683  0.32957638  0.16685068  1
  I  I67  1  0.50693045  0.33204310  0.50087494  1
  I  I68  1  0.50013398  0.33107666  0.83135890  1
  I  I69  1  0.49711726  0.66623033  0.16762409  1
  I  I70  1  0.50239508  0.66318110  0.50461529  1
  I  I71  1  0.49780645  0.66292754  0.82458758  1
  I  I72  1  0.83026836  0.00488815  0.16798350  1
  I  I73  1  0.83306780  0.00192936  0.50033385  1
  I  I74  1  0.82960653  0.00510446  0.83098537  1
  I  I75  1  0.82937595  0.32913045  0.16903783  1
  I  I76  1  0.82845379  0.33192479  0.50000150  1
  I  I77  1  0.83462306  0.32895083  0.83049217  1
  I  I78  1  0.83459075  0.66647996  0.16842962  1
  I  I79  1  0.83294997  0.66615478  0.49965968  1
  I  I80  1  0.83237424  0.66635019  0.83172745  1
  I  I81  1  0.16766529  0.16822190  -0.00349446  1
  I  I82  1  0.16704895  0.16584252  0.33334202  1
  I  I83  1  0.16705948  0.16631459  0.66963455  1
  I  I84  1  0.16876953  0.49575938  0.00296892  1
  I  I85  1  0.16864079  0.49790385  0.33155929  1
  I  I86  1  0.16541832  0.50046092  0.66675984  1
  I  I87  1  0.16803594  0.83408237  -0.00006140  1
  I  I88  1  0.16272014  0.83692241  0.33674680  1
  I  I89  1  0.16239642  0.83250081  0.66305228  1
  I  I90  1  0.50321592  0.17084035  -0.00081236  1
  I  I91  1  0.50716483  0.17003880  0.33444531  1
  I  I92  1  0.50252289  0.16936708  0.66631479  1
  I  I93  1  0.49623891  0.49192399  -0.00265683  1
  I  I94  1  0.50208592  0.49609304  0.33646797  1
  I  I95  1  0.50260413  0.49071116  0.66548870  1
  I  I96  1  0.49793713  0.83317230  0.00003497  1
  I  I97  1  0.49912627  0.83332623  0.33380890  1
  I  I98  1  0.49988495  0.83916785  0.66634810  1
  I  I99  1  0.82937816  0.16764517  -0.00037127  1
  I  I100  1  0.82654207  0.16615995  0.33471882  1
  I  I101  1  0.83046977  0.16551960  0.66568819  1
  I  I102  1  0.83317486  0.49754981  -0.00004831  1
  I  I103  1  0.82729275  0.49769124  0.33749375  1
  I  I104  1  0.83361963  0.49730942  0.66265372  1
  I  I105  1  0.83341161  0.83452199  0.00007248  1
  I  I106  1  0.83663073  0.83658087  0.33776430  1
  I  I107  1  0.83623380  0.83664655  0.66231014  1
  I  I108  1  -0.00299542  0.16824615  0.16846381  1
  I  I109  1  -0.00329076  0.16840733  0.50009054  1
  I  I110  1  -0.00100050  0.16557600  0.83201127  1
  I  I111  1  0.00259884  0.49538598  0.17020067  1
  I  I112  1  -0.00277908  0.49612249  0.49721449  1
  I  I113  1  -0.00016435  0.49677828  0.83199501  1
  I  I114  1  -0.00020784  0.83715156  0.16736161  1
  I  I115  1  -0.00145187  0.83582825  0.49945508  1
  I  I116  1  -0.00016461  0.83567653  0.83352639  1
  I  I117  1  0.33617933  0.16892395  0.16760810  1
  I  I118  1  0.33673982  0.16929859  0.50015265  1
  I  I119  1  0.33485609  0.17018457  0.83245715  1
  I  I120  1  0.33142444  0.49564768  0.17022366  1
  I  I121  1  0.33667996  0.49559174  0.50182614  1
  I  I122  1  0.33713675  0.49096651  0.82480030  1
  I  I123  1  0.33311756  0.83568258  0.17015117  1
  I  I124  1  0.33127638  0.83479052  0.50005956  1
  I  I125  1  0.33338380  0.83706148  0.82962651  1
  I  I126  1  0.66656971  0.16759747  0.16416775  1
  I  I127  1  0.66717398  0.16481844  0.50306155  1
  I  I128  1  0.66630631  0.16932754  0.83249828  1
  I  I129  1  0.66671596  0.50068412  0.16583611  1
  I  I130  1  0.66643954  0.49958301  0.50271184  1
  I  I131  1  0.66279082  0.49174880  0.83156341  1
  I  I132  1  0.66691033  0.82930399  0.16949175  1
  I  I133  1  0.66974551  0.83590373  0.50049524  1
  I  I134  1  0.66682993  0.83744712  0.82947539  1
