# generated using pymatgen
data_Cs27Sn13Pb14I81
_symmetry_space_group_name_H-M   'P 1'
_cell_length_a   19.01714515
_cell_length_b   19.01847593
_cell_length_c   19.03175120
_cell_angle_alpha   90.00000012
_cell_angle_beta   89.99999986
_cell_angle_gamma   89.99896580
_symmetry_Int_Tables_number   1
_chemical_formula_structural   Cs27Sn13Pb14I81
_chemical_formula_sum   'Cs27 Sn13 Pb14 I81'
_cell_volume   6883.34890574
_cell_formula_units_Z   1
loop_
 _symmetry_equiv_pos_site_id
 _symmetry_equiv_pos_as_xyz
  1  'x, y, z'
loop_
 _atom_site_type_symbol
 _atom_site_label
 _atom_site_symmetry_multiplicity
 _atom_site_fract_x
 _atom_site_fract_y
 _atom_site_fract_z
 _atom_site_occupancy
  Cs  Cs0  1  -0.00319349  -0.00550125  0.00957996  1
  Cs  Cs1  1  -0.00319355  -0.00550118  0.32375342  1
  Cs  Cs2  1  0.00062165  -0.00252405  0.66666662  1
  Cs  Cs3  1  0.00335834  0.33478615  0.00568711  1
  Cs  Cs4  1  0.00335830  0.33478601  0.32764609  1
  Cs  Cs5  1  -0.00281116  0.33639798  0.66666669  1
  Cs  Cs6  1  0.01035565  0.67153494  -0.01442194  1
  Cs  Cs7  1  0.01035563  0.67153494  0.34775500  1
  Cs  Cs8  1  -0.00094157  0.67136841  0.66666675  1
  Cs  Cs9  1  0.33401268  -0.00193898  0.00012426  1
  Cs  Cs10  1  0.33401274  -0.00193897  0.33320900  1
  Cs  Cs11  1  0.33504486  0.00375295  0.66666666  1
  Cs  Cs12  1  0.33412603  0.33372431  -0.00010362  1
  Cs  Cs13  1  0.33412621  0.33372431  0.33343692  1
  Cs  Cs14  1  0.33561296  0.32922607  0.66666660  1
  Cs  Cs15  1  0.32780522  0.66867392  0.00166172  1
  Cs  Cs16  1  0.32780512  0.66867427  0.33167171  1
  Cs  Cs17  1  0.33034315  0.66897817  0.66666667  1
  Cs  Cs18  1  0.66801561  -0.00211539  0.00274723  1
  Cs  Cs19  1  0.66801561  -0.00211534  0.33058608  1
  Cs  Cs20  1  0.66499810  0.00333978  0.66666665  1
  Cs  Cs21  1  0.66648599  0.33457550  0.00154220  1
  Cs  Cs22  1  0.66648605  0.33457543  0.33179107  1
  Cs  Cs23  1  0.66617567  0.33229945  0.66666660  1
  Cs  Cs24  1  0.66806901  0.66610766  0.00177610  1
  Cs  Cs25  1  0.66806915  0.66610776  0.33155736  1
  Cs  Cs26  1  0.67213741  0.66549380  0.66666665  1
  Sn  Sn27  1  0.50020081  0.16754533  0.16666666  1
  Sn  Sn28  1  0.50039136  0.16675960  0.83384797  1
  Sn  Sn29  1  0.16580051  0.16677374  0.83255569  1
  Sn  Sn30  1  0.50082684  0.49914991  0.16666673  1
  Sn  Sn31  1  0.83373497  0.16701932  0.83300357  1
  Sn  Sn32  1  0.50022586  0.50031089  0.83310990  1
  Sn  Sn33  1  0.50057064  0.83311424  0.83220950  1
  Sn  Sn34  1  0.50039134  0.16675959  0.49948540  1
  Sn  Sn35  1  0.50022584  0.50031092  0.50022334  1
  Sn  Sn36  1  0.16580053  0.16677376  0.50077765  1
  Sn  Sn37  1  0.50057066  0.83311422  0.50112380  1
  Sn  Sn38  1  0.83334395  0.50084973  0.16666666  1
  Sn  Sn39  1  0.83373498  0.16701929  0.50032980  1
  Pb  Pb40  1  0.16892782  0.49714361  0.83286096  1
  Pb  Pb41  1  0.16667145  0.83329147  0.16666666  1
  Pb  Pb42  1  0.83058921  0.83591769  0.83328950  1
  Pb  Pb43  1  0.83145263  0.49767761  0.49816855  1
  Pb  Pb44  1  0.50021262  0.83245545  0.16666668  1
  Pb  Pb45  1  0.16892780  0.49714365  0.50047235  1
  Pb  Pb46  1  0.83307982  0.82847415  0.16666668  1
  Pb  Pb47  1  0.83084724  0.16807138  0.16666662  1
  Pb  Pb48  1  0.16650582  0.50002210  0.16666669  1
  Pb  Pb49  1  0.83145260  0.49767762  0.83516481  1
  Pb  Pb50  1  0.16939858  0.83688196  0.50045195  1
  Pb  Pb51  1  0.83058925  0.83591769  0.50004384  1
  Pb  Pb52  1  0.16945506  0.16663969  0.16666668  1
  Pb  Pb53  1  0.16939864  0.83688200  0.83288137  1
  I  I54  1  0.16945254  0.00061797  0.16666660  1
  I  I55  1  0.17201744  0.00473047  0.50568882  1
  I  I56  1  0.17201759  0.00473045  0.82764463  1
  I  I57  1  0.16597566  0.33297580  0.16666634  1
  I  I58  1  0.17211396  0.32896776  0.50391175  1
  I  I59  1  0.17211404  0.32896772  0.82942189  1
  I  I60  1  0.17256301  0.66632381  0.16666707  1
  I  I61  1  0.16876741  0.66697796  0.49652474  1
  I  I62  1  0.16876713  0.66697798  0.83680825  1
  I  I63  1  0.49869058  0.00281202  0.16666659  1
  I  I64  1  0.49912394  0.00209133  0.50323474  1
  I  I65  1  0.49912385  0.00209130  0.83009872  1
  I  I66  1  0.50273031  0.33278522  0.16666668  1
  I  I67  1  0.49953211  0.33171461  0.50177175  1
  I  I68  1  0.49953205  0.33171461  0.83156161  1
  I  I69  1  0.50434859  0.66297088  0.16666674  1
  I  I70  1  0.50060745  0.66622903  0.50245312  1
  I  I71  1  0.50060755  0.66622903  0.83088005  1
  I  I72  1  0.83287792  -0.00010103  0.16666664  1
  I  I73  1  0.82904080  0.00466748  0.50407033  1
  I  I74  1  0.82904083  0.00466750  0.82926308  1
  I  I75  1  0.82766426  0.33539203  0.16666697  1
  I  I76  1  0.82813100  0.32925273  0.50485589  1
  I  I77  1  0.82813103  0.32925274  0.82847726  1
  I  I78  1  0.81607740  0.66125880  0.16666648  1
  I  I79  1  0.83047974  0.66659998  0.49656364  1
  I  I80  1  0.83047985  0.66660001  0.83676979  1
  I  I81  1  0.16924037  0.16762665  -0.00313339  1
  I  I82  1  0.16924038  0.16762684  0.33646675  1
  I  I83  1  0.17566731  0.16694072  0.66666668  1
  I  I84  1  0.17088030  0.49634430  -0.00019560  1
  I  I85  1  0.17088059  0.49634363  0.33352895  1
  I  I86  1  0.16954281  0.50049423  0.66666668  1
  I  I87  1  0.17051839  0.83553090  -0.00066995  1
  I  I88  1  0.17051869  0.83553123  0.33400331  1
  I  I89  1  0.16648278  0.83095124  0.66666668  1
  I  I90  1  0.49953225  0.16911306  -0.00118458  1
  I  I91  1  0.49953236  0.16911297  0.33451789  1
  I  I92  1  0.49960835  0.16836636  0.66666666  1
  I  I93  1  0.50378434  0.49408334  -0.00014436  1
  I  I94  1  0.50378444  0.49408307  0.33347777  1
  I  I95  1  0.49808841  0.49460782  0.66666670  1
  I  I96  1  0.49950953  0.83660117  -0.00294129  1
  I  I97  1  0.49950960  0.83660136  0.33627464  1
  I  I98  1  0.49936796  0.83674184  0.66666670  1
  I  I99  1  0.83097290  0.16805485  -0.00278655  1
  I  I100  1  0.83097285  0.16805459  0.33611984  1
  I  I101  1  0.82546736  0.16734378  0.66666666  1
  I  I102  1  0.82152608  0.49422115  0.00281170  1
  I  I103  1  0.82152573  0.49422170  0.33052168  1
  I  I104  1  0.83074992  0.49979163  0.66666666  1
  I  I105  1  0.82885299  0.83980354  -0.00004155  1
  I  I106  1  0.82885250  0.83980347  0.33337487  1
  I  I107  1  0.83393012  0.82913743  0.66666665  1
  I  I108  1  -0.00011871  0.16879243  0.16666672  1
  I  I109  1  -0.00015208  0.16847820  0.51041367  1
  I  I110  1  -0.00015209  0.16847820  0.82291957  1
  I  I111  1  -0.00336700  0.49422224  0.16666689  1
  I  I112  1  -0.00007227  0.49711192  0.49458201  1
  I  I113  1  -0.00007222  0.49711170  0.83875124  1
  I  I114  1  -0.00048670  0.83643605  0.16666695  1
  I  I115  1  0.00011725  0.83351940  0.49757626  1
  I  I116  1  0.00011723  0.83351950  0.83575685  1
  I  I117  1  0.33810880  0.17349095  0.16666674  1
  I  I118  1  0.33596585  0.16688032  0.50275846  1
  I  I119  1  0.33596584  0.16688036  0.83057491  1
  I  I120  1  0.33745921  0.49507728  0.16666651  1
  I  I121  1  0.33853063  0.49693460  0.49649017  1
  I  I122  1  0.33853061  0.49693479  0.83684339  1
  I  I123  1  0.33428000  0.83251698  0.16666661  1
  I  I124  1  0.33778489  0.83569543  0.50361788  1
  I  I125  1  0.33778490  0.83569531  0.82971539  1
  I  I126  1  0.66257883  0.16849233  0.16666666  1
  I  I127  1  0.66424804  0.16679624  0.50345349  1
  I  I128  1  0.66424807  0.16679617  0.82987990  1
  I  I129  1  0.66322360  0.49326251  0.16666649  1
  I  I130  1  0.66200386  0.49570587  0.50292424  1
  I  I131  1  0.66200389  0.49570581  0.83040928  1
  I  I132  1  0.66603756  0.83868788  0.16666643  1
  I  I133  1  0.66215324  0.83721156  0.50413311  1
  I  I134  1  0.66215324  0.83721163  0.82920030  1
