# generated using pymatgen
data_Cs27Sn13Pb14I81
_symmetry_space_group_name_H-M   'P 1'
_cell_length_a   18.97633260
_cell_length_b   18.97995035
_cell_length_c   18.97384052
_cell_angle_alpha   89.99928129
_cell_angle_beta   89.99885247
_cell_angle_gamma   89.99976671
_symmetry_Int_Tables_number   1
_chemical_formula_structural   Cs27Sn13Pb14I81
_chemical_formula_sum   'Cs27 Sn13 Pb14 I81'
_cell_volume   6833.80530401
_cell_formula_units_Z   1
loop_
 _symmetry_equiv_pos_site_id
 _symmetry_equiv_pos_as_xyz
  1  'x, y, z'
loop_
 _atom_site_type_symbol
 _atom_site_label
 _atom_site_symmetry_multiplicity
 _atom_site_fract_x
 _atom_site_fract_y
 _atom_site_fract_z
 _atom_site_occupancy
  Cs  Cs0  1  -0.00007238  -0.00131939  -0.00008075  1
  Cs  Cs1  1  0.00313461  0.00107294  0.33551051  1
  Cs  Cs2  1  -0.00841702  -0.00162037  0.66264740  1
  Cs  Cs3  1  0.00190278  0.33245195  0.00133156  1
  Cs  Cs4  1  0.00639938  0.33103488  0.33129354  1
  Cs  Cs5  1  -0.00023732  0.33555626  0.66496635  1
  Cs  Cs6  1  -0.00012495  0.66918188  -0.00096586  1
  Cs  Cs7  1  -0.00000916  0.66789192  0.33567798  1
  Cs  Cs8  1  0.00170384  0.66641926  0.66406099  1
  Cs  Cs9  1  0.33260489  0.00000160  -0.00123481  1
  Cs  Cs10  1  0.33397950  0.00027352  0.34237734  1
  Cs  Cs11  1  0.33481552  0.00011178  0.66622218  1
  Cs  Cs12  1  0.33216564  0.33190624  -0.00014975  1
  Cs  Cs13  1  0.32412907  0.33070757  0.33098613  1
  Cs  Cs14  1  0.33455710  0.33362509  0.66848172  1
  Cs  Cs15  1  0.33436450  0.66756507  0.00017347  1
  Cs  Cs16  1  0.33563433  0.66882105  0.33231569  1
  Cs  Cs17  1  0.32992563  0.66646889  0.66859984  1
  Cs  Cs18  1  0.66751454  0.00157481  -0.00110254  1
  Cs  Cs19  1  0.66313975  -0.00028692  0.33793932  1
  Cs  Cs20  1  0.67238669  0.00124477  0.66198190  1
  Cs  Cs21  1  0.66657615  0.33251381  -0.00035860  1
  Cs  Cs22  1  0.66739891  0.33538234  0.33384601  1
  Cs  Cs23  1  0.66671193  0.33406240  0.66633922  1
  Cs  Cs24  1  0.66566030  0.66657957  0.00126006  1
  Cs  Cs25  1  0.66426802  0.66538344  0.33128066  1
  Cs  Cs26  1  0.66838134  0.66340033  0.66725438  1
  Sn  Sn27  1  0.16642568  0.83349453  0.16598367  1
  Sn  Sn28  1  0.83324083  0.49993754  0.16660235  1
  Sn  Sn29  1  0.83253828  0.49986590  0.49967855  1
  Sn  Sn30  1  0.83375245  0.83352849  0.16633440  1
  Sn  Sn31  1  0.49970192  0.16626594  0.83395696  1
  Sn  Sn32  1  0.50083183  0.50001203  0.83295819  1
  Sn  Sn33  1  0.49992192  0.83368733  0.83356272  1
  Sn  Sn34  1  0.50052088  0.16662069  0.16619947  1
  Sn  Sn35  1  0.83276253  0.50000449  0.83363312  1
  Sn  Sn36  1  0.16715133  0.83472892  0.83407701  1
  Sn  Sn37  1  0.16687795  0.16545049  0.83347609  1
  Sn  Sn38  1  0.50009846  0.49963498  0.50039303  1
  Sn  Sn39  1  0.83236991  0.16656687  0.16637045  1
  Pb  Pb40  1  0.50013189  0.83052480  0.50347996  1
  Pb  Pb41  1  0.83324723  0.16935025  0.49656744  1
  Pb  Pb42  1  0.16709247  0.50024781  0.83352169  1
  Pb  Pb43  1  0.50006089  0.83592518  0.16491361  1
  Pb  Pb44  1  0.16673521  0.16654154  0.50408070  1
  Pb  Pb45  1  0.16400361  0.50291267  0.16646491  1
  Pb  Pb46  1  0.83306646  0.83082532  0.49660829  1
  Pb  Pb47  1  0.16677483  0.83334902  0.50066674  1
  Pb  Pb48  1  0.16689921  0.16406762  0.16488741  1
  Pb  Pb49  1  0.83330273  0.16883305  0.83487944  1
  Pb  Pb50  1  0.50137749  0.49780910  0.16643170  1
  Pb  Pb51  1  0.16725392  0.50002371  0.49995900  1
  Pb  Pb52  1  0.49997027  0.16933545  0.50041292  1
  Pb  Pb53  1  0.83330398  0.83122790  0.83488247  1
  I  I54  1  0.15980419  -0.00338604  0.16262304  1
  I  I55  1  0.16695477  -0.00009081  0.49684505  1
  I  I56  1  0.17562592  -0.00048071  0.83889256  1
  I  I57  1  0.16559211  0.33284090  0.16569285  1
  I  I58  1  0.16579280  0.33338566  0.50010723  1
  I  I59  1  0.16977333  0.33081576  0.83379660  1
  I  I60  1  0.16265981  0.67084798  0.15942973  1
  I  I61  1  0.16574593  0.66664176  0.50240214  1
  I  I62  1  0.16947757  0.66973702  0.83699452  1
  I  I63  1  0.50605855  0.00361675  0.15981745  1
  I  I64  1  0.49895830  0.00013357  0.49977947  1
  I  I65  1  0.49412440  0.00041072  0.84019598  1
  I  I66  1  0.50575010  0.33001089  0.16062847  1
  I  I67  1  0.50616142  0.33719266  0.50662392  1
  I  I68  1  0.49998890  0.33339512  0.83327276  1
  I  I69  1  0.50086776  0.66675365  0.16578324  1
  I  I70  1  0.50501487  0.66241910  0.50340235  1
  I  I71  1  0.49984795  0.66620517  0.82963007  1
  I  I72  1  0.83382935  0.00005997  0.16310863  1
  I  I73  1  0.83426631  0.00004693  0.50011996  1
  I  I74  1  0.83122297  0.00002210  0.83601550  1
  I  I75  1  0.82758469  0.33367542  0.16612025  1
  I  I76  1  0.82844557  0.33766246  0.50021901  1
  I  I77  1  0.82967780  0.33703970  0.83557133  1
  I  I78  1  0.83792428  0.66614811  0.16628698  1
  I  I79  1  0.82963723  0.66245334  0.49934563  1
  I  I80  1  0.82956953  0.66303975  0.83603720  1
  I  I81  1  0.16844098  0.16560013  -0.00306496  1
  I  I82  1  0.16693989  0.16635056  0.33300439  1
  I  I83  1  0.17367326  0.16215109  0.67228041  1
  I  I84  1  0.16593041  0.49856813  -0.00018364  1
  I  I85  1  0.16749407  0.50100043  0.33310856  1
  I  I86  1  0.16100718  0.50168481  0.66706004  1
  I  I87  1  0.16571922  0.83601922  -0.00102251  1
  I  I88  1  0.16080535  0.83190033  0.33019407  1
  I  I89  1  0.17184311  0.83551925  0.67078784  1
  I  I90  1  0.50059764  0.16971864  -0.00144291  1
  I  I91  1  0.50536041  0.16764380  0.33039785  1
  I  I92  1  0.49507224  0.16593230  0.67055626  1
  I  I93  1  0.50429851  0.50132151  -0.00334938  1
  I  I94  1  0.50568154  0.49897921  0.33549116  1
  I  I95  1  0.50825094  0.49875980  0.66858440  1
  I  I96  1  0.49911259  0.82749838  -0.00340926  1
  I  I97  1  0.49940441  0.83300510  0.33316720  1
  I  I98  1  0.49394071  0.83766036  0.67202630  1
  I  I99  1  0.83200192  0.16997014  0.00309439  1
  I  I100  1  0.82763646  0.16782740  0.32815001  1
  I  I101  1  0.83383310  0.16821984  0.66675568  1
  I  I102  1  0.82935513  0.50029759  0.00018310  1
  I  I103  1  0.82855542  0.50081116  0.33283377  1
  I  I104  1  0.82902425  0.50005095  0.66734058  1
  I  I105  1  0.83435742  0.82978243  0.00305520  1
  I  I106  1  0.83928689  0.83172909  0.32820374  1
  I  I107  1  0.83418740  0.83150875  0.66678386  1
  I  I108  1  -0.00272873  0.16993558  0.16522307  1
  I  I109  1  -0.00017788  0.17004524  0.49974708  1
  I  I110  1  0.00230045  0.16392005  0.83589691  1
  I  I111  1  -0.00498717  0.49415836  0.16592210  1
  I  I112  1  -0.00359382  0.50049406  0.50091485  1
  I  I113  1  -0.00303870  0.49990787  0.83350582  1
  I  I114  1  -0.00065905  0.83319331  0.15978494  1
  I  I115  1  -0.00021100  0.82966892  0.50472390  1
  I  I116  1  0.00259601  0.83594119  0.83654698  1
  I  I117  1  0.33596577  0.16706310  0.16338274  1
  I  I118  1  0.33357374  0.17050990  0.49373855  1
  I  I119  1  0.33490756  0.16908424  0.83934740  1
  I  I120  1  0.33346310  0.49955717  0.16675952  1
  I  I121  1  0.33691710  0.49996595  0.50767985  1
  I  I122  1  0.33686536  0.49986087  0.82827632  1
  I  I123  1  0.33098369  0.83416714  0.16298722  1
  I  I124  1  0.33352778  0.82962973  0.49422362  1
  I  I125  1  0.33355114  0.83097856  0.83937100  1
  I  I126  1  0.66708215  0.16603822  0.15962501  1
  I  I127  1  0.66665940  0.16525276  0.50418850  1
  I  I128  1  0.66360066  0.16539461  0.83630057  1
  I  I129  1  0.67007558  0.50468795  0.16589377  1
  I  I130  1  0.66729430  0.50007557  0.50168695  1
  I  I131  1  0.66597813  0.50025271  0.83315589  1
  I  I132  1  0.66945657  0.83032903  0.16474311  1
  I  I133  1  0.66662790  0.83468486  0.49978741  1
  I  I134  1  0.66389535  0.83431938  0.83562261  1
