# generated using pymatgen
data_Cs27Sn13Pb14I81
_symmetry_space_group_name_H-M   'P 1'
_cell_length_a   19.02501172
_cell_length_b   19.02912862
_cell_length_c   19.00766964
_cell_angle_alpha   89.99852613
_cell_angle_beta   90.00480626
_cell_angle_gamma   90.00039960
_symmetry_Int_Tables_number   1
_chemical_formula_structural   Cs27Sn13Pb14I81
_chemical_formula_sum   'Cs27 Sn13 Pb14 I81'
_cell_volume   6881.33511739
_cell_formula_units_Z   1
loop_
 _symmetry_equiv_pos_site_id
 _symmetry_equiv_pos_as_xyz
  1  'x, y, z'
loop_
 _atom_site_type_symbol
 _atom_site_label
 _atom_site_symmetry_multiplicity
 _atom_site_fract_x
 _atom_site_fract_y
 _atom_site_fract_z
 _atom_site_occupancy
  Cs  Cs0  1  -0.00217390  0.00470217  -0.00075609  1
  Cs  Cs1  1  -0.00014769  -0.00204854  0.33454836  1
  Cs  Cs2  1  -0.00202194  -0.00093892  0.66694275  1
  Cs  Cs3  1  0.00116647  0.33066795  -0.00119104  1
  Cs  Cs4  1  -0.00103995  0.34370484  0.33015463  1
  Cs  Cs5  1  -0.00126418  0.33166034  0.67061509  1
  Cs  Cs6  1  0.00222946  0.66505366  -0.00161709  1
  Cs  Cs7  1  0.01133847  0.65736203  0.32364656  1
  Cs  Cs8  1  -0.00296602  0.66951981  0.66940433  1
  Cs  Cs9  1  0.33900108  0.00199575  0.00042205  1
  Cs  Cs10  1  0.32743776  -0.00047800  0.33611102  1
  Cs  Cs11  1  0.33622541  0.00339680  0.66332823  1
  Cs  Cs12  1  0.33472996  0.33236193  -0.00044070  1
  Cs  Cs13  1  0.33520729  0.33229161  0.34027107  1
  Cs  Cs14  1  0.33673937  0.32996505  0.65890919  1
  Cs  Cs15  1  0.33658678  0.66660621  0.00167197  1
  Cs  Cs16  1  0.32053233  0.66830560  0.33259093  1
  Cs  Cs17  1  0.33208069  0.66649006  0.66648789  1
  Cs  Cs18  1  0.66266651  -0.00194930  0.00336056  1
  Cs  Cs19  1  0.67157364  -0.00481116  0.33096681  1
  Cs  Cs20  1  0.66681014  -0.00171722  0.66637678  1
  Cs  Cs21  1  0.66376353  0.33221534  0.00133423  1
  Cs  Cs22  1  0.66655835  0.33817974  0.33245550  1
  Cs  Cs23  1  0.66534329  0.33300713  0.66356602  1
  Cs  Cs24  1  0.66154203  0.66955936  0.00097774  1
  Cs  Cs25  1  0.66879635  0.66691884  0.33747867  1
  Cs  Cs26  1  0.66940436  0.66889202  0.66380538  1
  Sn  Sn27  1  0.50049542  0.83321550  0.49996297  1
  Sn  Sn28  1  0.83275095  0.49985223  0.83358694  1
  Sn  Sn29  1  0.16749511  0.16672708  0.16597566  1
  Sn  Sn30  1  0.16659106  0.16640799  0.83376639  1
  Sn  Sn31  1  0.49912789  0.16725537  0.16693084  1
  Sn  Sn32  1  0.50012119  0.49971822  0.83345916  1
  Sn  Sn33  1  0.16630834  0.83419797  0.83349453  1
  Sn  Sn34  1  0.50000074  0.49942937  0.16630976  1
  Sn  Sn35  1  0.83382225  0.83374743  0.83344429  1
  Sn  Sn36  1  0.83356698  0.16627808  0.50055677  1
  Sn  Sn37  1  0.83330773  0.83380327  0.50057549  1
  Sn  Sn38  1  0.83324270  0.16642502  0.83270509  1
  Sn  Sn39  1  0.16708221  0.49940146  0.83337745  1
  Pb  Pb40  1  0.83073821  0.50010386  0.16331355  1
  Pb  Pb41  1  0.16647958  0.49971979  0.50321750  1
  Pb  Pb42  1  0.83358003  0.16667824  0.16678696  1
  Pb  Pb43  1  0.50030619  0.16860806  0.83431985  1
  Pb  Pb44  1  0.16510557  0.83342937  0.50264957  1
  Pb  Pb45  1  0.50000850  0.50258763  0.49964811  1
  Pb  Pb46  1  0.16940220  0.49709404  0.16356713  1
  Pb  Pb47  1  0.49990283  0.83285802  0.16985339  1
  Pb  Pb48  1  0.16654966  0.83642261  0.16293868  1
  Pb  Pb49  1  0.83366726  0.83305304  0.16665255  1
  Pb  Pb50  1  0.50007436  0.83112276  0.83175639  1
  Pb  Pb51  1  0.83352163  0.50048659  0.50217231  1
  Pb  Pb52  1  0.50306149  0.16449320  0.49674282  1
  Pb  Pb53  1  0.16346820  0.16671605  0.50017082  1
  I  I54  1  0.17447488  0.00400673  0.16012752  1
  I  I55  1  0.17105608  0.00003407  0.50178025  1
  I  I56  1  0.15747126  0.00061467  0.83734061  1
  I  I57  1  0.16610316  0.32990929  0.15864741  1
  I  I58  1  0.16612721  0.33291040  0.50251557  1
  I  I59  1  0.16172746  0.33290298  0.83845000  1
  I  I60  1  0.16781555  0.66644025  0.16781406  1
  I  I61  1  0.16587671  0.66690194  0.50042005  1
  I  I62  1  0.16277994  0.66651241  0.83023778  1
  I  I63  1  0.49637388  0.00279444  0.16640405  1
  I  I64  1  0.50175551  -0.00278579  0.50134496  1
  I  I65  1  0.49961580  -0.00002915  0.83498531  1
  I  I66  1  0.49670766  0.33319946  0.16012243  1
  I  I67  1  0.50064934  0.33335983  0.50190594  1
  I  I68  1  0.50075271  0.33655942  0.83494293  1
  I  I69  1  0.50241871  0.66363181  0.16014935  1
  I  I70  1  0.51024572  0.66977082  0.50069594  1
  I  I71  1  0.49974586  0.66320607  0.84019583  1
  I  I72  1  0.82919276  0.00025302  0.16045832  1
  I  I73  1  0.82865909  -0.00032898  0.51044839  1
  I  I74  1  0.84221098  0.00017657  0.82893441  1
  I  I75  1  0.83535022  0.33321573  0.16832993  1
  I  I76  1  0.83451487  0.33063033  0.50515660  1
  I  I77  1  0.83687354  0.33286478  0.82978690  1
  I  I78  1  0.82997369  0.66651668  0.16717270  1
  I  I79  1  0.82611706  0.67006889  0.50748195  1
  I  I80  1  0.83646663  0.66699210  0.82931274  1
  I  I81  1  0.16332526  0.16701148  -0.00212473  1
  I  I82  1  0.17155076  0.16590912  0.33045269  1
  I  I83  1  0.16426379  0.16734734  0.67044879  1
  I  I84  1  0.16214975  0.50326677  -0.00450571  1
  I  I85  1  0.16790504  0.49977580  0.33259353  1
  I  I86  1  0.17011280  0.49640187  0.67250546  1
  I  I87  1  0.15971541  0.82859989  -0.00509425  1
  I  I88  1  0.16713221  0.83419817  0.33331534  1
  I  I89  1  0.16515198  0.83547982  0.67083130  1
  I  I90  1  0.50167254  0.16706785  0.00215670  1
  I  I91  1  0.49337877  0.17536209  0.32926416  1
  I  I92  1  0.49638284  0.16816580  0.66636018  1
  I  I93  1  0.50074857  0.49692354  -0.00139235  1
  I  I94  1  0.50135166  0.49441338  0.33020867  1
  I  I95  1  0.49954468  0.50158596  0.66991710  1
  I  I96  1  0.50045798  0.83446016  0.00014253  1
  I  I97  1  0.51095991  0.83267356  0.33719216  1
  I  I98  1  0.50218425  0.83183353  0.66432013  1
  I  I99  1  0.83515205  0.16660805  -0.00343826  1
  I  I100  1  0.83190922  0.15812093  0.33623446  1
  I  I101  1  0.83942004  0.16653849  0.66886641  1
  I  I102  1  0.83787828  0.49878480  -0.00536144  1
  I  I103  1  0.83071065  0.49905709  0.33332469  1
  I  I104  1  0.83079774  0.49987215  0.67115726  1
  I  I105  1  0.83784043  0.83449883  -0.00428145  1
  I  I106  1  0.82524308  0.84259521  0.33703756  1
  I  I107  1  0.83300878  0.83364312  0.66840945  1
  I  I108  1  0.00257238  0.16441457  0.16291581  1
  I  I109  1  -0.00387908  0.15722360  0.50126537  1
  I  I110  1  -0.00012922  0.17101635  0.83581806  1
  I  I111  1  0.00039575  0.49954829  0.16877189  1
  I  I112  1  -0.00026975  0.50198321  0.49891381  1
  I  I113  1  -0.00011476  0.50021443  0.83048490  1
  I  I114  1  0.00025093  0.83535045  0.17289134  1
  I  I115  1  -0.00386436  0.84021109  0.50510160  1
  I  I116  1  -0.00088472  0.82876482  0.82727495  1
  I  I117  1  0.33308098  0.17009757  0.15754967  1
  I  I118  1  0.33331861  0.16529479  0.50296689  1
  I  I119  1  0.33047917  0.16597138  0.83684219  1
  I  I120  1  0.33666485  0.49956012  0.15829037  1
  I  I121  1  0.33362501  0.50261027  0.50393471  1
  I  I122  1  0.33321729  0.50163062  0.83886416  1
  I  I123  1  0.33336878  0.83092543  0.16748686  1
  I  I124  1  0.33509691  0.83112089  0.50077076  1
  I  I125  1  0.33058347  0.83306852  0.83192270  1
  I  I126  1  0.66420894  0.17138228  0.16603021  1
  I  I127  1  0.67022484  0.16548489  0.50840123  1
  I  I128  1  0.66989563  0.16640153  0.83103519  1
  I  I129  1  0.66304383  0.49123258  0.15979178  1
  I  I130  1  0.66678413  0.49741748  0.50318715  1
  I  I131  1  0.66700183  0.50003399  0.83774088  1
  I  I132  1  0.66641498  0.83711224  0.15979556  1
  I  I133  1  0.66825448  0.83699304  0.50753893  1
  I  I134  1  0.66975646  0.83366668  0.83135495  1
