# generated using pymatgen
data_Cs27Sn14Pb13I81
_symmetry_space_group_name_H-M   'P 1'
_cell_length_a   18.98200157
_cell_length_b   18.96644911
_cell_length_c   18.97632048
_cell_angle_alpha   90.00029944
_cell_angle_beta   89.99932424
_cell_angle_gamma   90.00134246
_symmetry_Int_Tables_number   1
_chemical_formula_structural   Cs27Sn14Pb13I81
_chemical_formula_sum   'Cs27 Sn14 Pb13 I81'
_cell_volume   6831.87703539
_cell_formula_units_Z   1
loop_
 _symmetry_equiv_pos_site_id
 _symmetry_equiv_pos_as_xyz
  1  'x, y, z'
loop_
 _atom_site_type_symbol
 _atom_site_label
 _atom_site_symmetry_multiplicity
 _atom_site_fract_x
 _atom_site_fract_y
 _atom_site_fract_z
 _atom_site_occupancy
  Cs  Cs0  1  0.00037446  0.00163856  -0.00082236  1
  Cs  Cs1  1  0.00111230  -0.00060463  0.33110669  1
  Cs  Cs2  1  -0.00091445  0.00046499  0.66881928  1
  Cs  Cs3  1  -0.00113748  0.33522199  -0.00115801  1
  Cs  Cs4  1  -0.00505840  0.33821039  0.34598471  1
  Cs  Cs5  1  0.00278695  0.33004188  0.66175350  1
  Cs  Cs6  1  0.00046064  0.66516792  0.00010299  1
  Cs  Cs7  1  0.00016386  0.66468648  0.33112764  1
  Cs  Cs8  1  0.00223862  0.66924347  0.66910248  1
  Cs  Cs9  1  0.33159549  0.00296008  0.00226687  1
  Cs  Cs10  1  0.33499282  0.00222513  0.32712413  1
  Cs  Cs11  1  0.33200131  -0.00161595  0.66909774  1
  Cs  Cs12  1  0.33338381  0.33231386  -0.00122343  1
  Cs  Cs13  1  0.33447300  0.32501166  0.33944849  1
  Cs  Cs14  1  0.33202319  0.33613270  0.66084322  1
  Cs  Cs15  1  0.33284791  0.66551869  0.00068788  1
  Cs  Cs16  1  0.33130484  0.66930726  0.33162762  1
  Cs  Cs17  1  0.33436757  0.66594790  0.66721502  1
  Cs  Cs18  1  0.66791948  0.00048680  -0.00113685  1
  Cs  Cs19  1  0.66530840  0.00062262  0.33297317  1
  Cs  Cs20  1  0.66904822  -0.00284612  0.66835029  1
  Cs  Cs21  1  0.66756330  0.33349810  0.00020122  1
  Cs  Cs22  1  0.67008025  0.33009751  0.33939465  1
  Cs  Cs23  1  0.66363252  0.33429185  0.66278303  1
  Cs  Cs24  1  0.66657187  0.66569842  0.00011729  1
  Cs  Cs25  1  0.66864133  0.66692081  0.32969546  1
  Cs  Cs26  1  0.66127847  0.66998786  0.66966225  1
  Sn  Sn27  1  0.83394968  0.49880301  0.83321310  1
  Sn  Sn28  1  0.16590928  0.50062226  0.83423086  1
  Sn  Sn29  1  0.16672720  0.83319265  0.50059768  1
  Sn  Sn30  1  0.83274145  0.83411527  0.16713076  1
  Sn  Sn31  1  0.83346136  0.83314482  0.49878471  1
  Sn  Sn32  1  0.49871762  0.83418297  0.83398428  1
  Sn  Sn33  1  0.16777663  0.83262002  0.83314352  1
  Sn  Sn34  1  0.49974456  0.83320916  0.49966448  1
  Sn  Sn35  1  0.49888145  0.49995683  0.16678237  1
  Sn  Sn36  1  0.83375013  0.16629296  0.16598619  1
  Sn  Sn37  1  0.50081856  0.83266915  0.16630516  1
  Sn  Sn38  1  0.50067215  0.16615159  0.83346962  1
  Sn  Sn39  1  0.16787287  0.49945906  0.16628100  1
  Sn  Sn40  1  0.83239452  0.16818136  0.83412484  1
  Pb  Pb41  1  0.50186225  0.16679948  0.16478641  1
  Pb  Pb42  1  0.50003322  0.50259397  0.49622668  1
  Pb  Pb43  1  0.16669556  0.16708829  0.83349576  1
  Pb  Pb44  1  0.16312611  0.17090063  0.16663330  1
  Pb  Pb45  1  0.16656979  0.83230252  0.16621148  1
  Pb  Pb46  1  0.83304786  0.50340710  0.50394365  1
  Pb  Pb47  1  0.50006626  0.16363657  0.50328678  1
  Pb  Pb48  1  0.16688874  0.50237561  0.50012577  1
  Pb  Pb49  1  0.16675807  0.16300731  0.49985736  1
  Pb  Pb50  1  0.83322607  0.16393415  0.50051998  1
  Pb  Pb51  1  0.83344329  0.83333347  0.83386469  1
  Pb  Pb52  1  0.83320271  0.49982611  0.16534711  1
  Pb  Pb53  1  0.49958171  0.49986829  0.83473449  1
  I  I54  1  0.16842357  0.00010087  0.16702571  1
  I  I55  1  0.16582198  -0.00562473  0.50755056  1
  I  I56  1  0.16696715  -0.00314692  0.82838043  1
  I  I57  1  0.17300003  0.33857783  0.15640044  1
  I  I58  1  0.16576739  0.33362679  0.50044957  1
  I  I59  1  0.16539288  0.33655340  0.83927524  1
  I  I60  1  0.16522987  0.66441290  0.16457764  1
  I  I61  1  0.16688902  0.67078483  0.50224766  1
  I  I62  1  0.16568431  0.66737421  0.83297083  1
  I  I63  1  0.50225578  -0.00345974  0.16882469  1
  I  I64  1  0.50041649  -0.00503109  0.49430864  1
  I  I65  1  0.50109188  -0.00203309  0.83454172  1
  I  I66  1  0.49745809  0.33592800  0.16111642  1
  I  I67  1  0.49985880  0.33319577  0.50039719  1
  I  I68  1  0.50206570  0.33108371  0.83784957  1
  I  I69  1  0.50284545  0.66874409  0.16404560  1
  I  I70  1  0.50026499  0.67144521  0.50770350  1
  I  I71  1  0.50025121  0.66986194  0.83127240  1
  I  I72  1  0.82768605  -0.00148210  0.16425927  1
  I  I73  1  0.83274873  -0.00440384  0.50199050  1
  I  I74  1  0.83221918  0.00179308  0.83372528  1
  I  I75  1  0.83341803  0.33101282  0.16119492  1
  I  I76  1  0.83400902  0.33337291  0.49665777  1
  I  I77  1  0.83270538  0.33267226  0.84161315  1
  I  I78  1  0.83195163  0.66938342  0.16882114  1
  I  I79  1  0.83334115  0.67152112  0.49377990  1
  I  I80  1  0.83440815  0.66500557  0.83369960  1
  I  I81  1  0.16776114  0.15989568  -0.00002286  1
  I  I82  1  0.16602499  0.16582882  0.33296773  1
  I  I83  1  0.16433018  0.17045703  0.66707973  1
  I  I84  1  0.16588971  0.50801736  -0.00110351  1
  I  I85  1  0.16960514  0.50289814  0.33040200  1
  I  I86  1  0.16226111  0.50256293  0.67002223  1
  I  I87  1  0.16907102  0.83085107  -0.00290035  1
  I  I88  1  0.16794356  0.83155531  0.33545372  1
  I  I89  1  0.16885509  0.82781796  0.66785604  1
  I  I90  1  0.50257245  0.15943690  -0.00311227  1
  I  I91  1  0.50134622  0.16674283  0.33325099  1
  I  I92  1  0.50681822  0.16198317  0.67143048  1
  I  I93  1  0.49988535  0.50782597  0.00246887  1
  I  I94  1  0.49515474  0.50635371  0.32807433  1
  I  I95  1  0.50033017  0.50051622  0.66675387  1
  I  I96  1  0.50114685  0.83286962  -0.00007227  1
  I  I97  1  0.50090330  0.82750691  0.33273522  1
  I  I98  1  0.50076090  0.83794650  0.66733956  1
  I  I99  1  0.82944551  0.16289088  -0.00081732  1
  I  I100  1  0.83348508  0.16429841  0.33057259  1
  I  I101  1  0.83028105  0.16850157  0.67014931  1
  I  I102  1  0.83459102  0.50256429  -0.00267661  1
  I  I103  1  0.83408097  0.49762191  0.33338039  1
  I  I104  1  0.83960415  0.49510709  0.67190251  1
  I  I105  1  0.82996781  0.83347806  0.00245127  1
  I  I106  1  0.83050063  0.83826991  0.33228402  1
  I  I107  1  0.83128064  0.83243006  0.66502146  1
  I  I108  1  -0.00469439  0.15786734  0.15812037  1
  I  I109  1  -0.00035772  0.16410417  0.50187475  1
  I  I110  1  -0.00303824  0.16594818  0.83706643  1
  I  I111  1  0.00205514  0.50183118  0.16275261  1
  I  I112  1  -0.00008391  0.50364250  0.49462174  1
  I  I113  1  0.00072912  0.50268785  0.84016715  1
  I  I114  1  -0.00260578  0.83481959  0.16900392  1
  I  I115  1  -0.00002361  0.83303712  0.50123820  1
  I  I116  1  0.00212099  0.83229438  0.83040614  1
  I  I117  1  0.33333542  0.16360859  0.16523110  1
  I  I118  1  0.33363089  0.16557045  0.50159663  1
  I  I119  1  0.33609894  0.16339795  0.83370265  1
  I  I120  1  0.33351860  0.50947060  0.15897868  1
  I  I121  1  0.33342608  0.50285477  0.50567163  1
  I  I122  1  0.33072382  0.50267222  0.83590407  1
  I  I123  1  0.33605536  0.83062360  0.16845886  1
  I  I124  1  0.33369678  0.83224424  0.50187642  1
  I  I125  1  0.33398006  0.83304870  0.83009702  1
  I  I126  1  0.66980029  0.16583672  0.16323607  1
  I  I127  1  0.66670677  0.16433727  0.49866161  1
  I  I128  1  0.66726511  0.16474425  0.83749324  1
  I  I129  1  0.66455501  0.50384703  0.16353503  1
  I  I130  1  0.66666704  0.50310185  0.50041268  1
  I  I131  1  0.66861220  0.50082815  0.83590378  1
  I  I132  1  0.66611960  0.83082090  0.16858649  1
  I  I133  1  0.66626340  0.83352582  0.50073228  1
  I  I134  1  0.66439476  0.83343221  0.83122293  1
