# generated using pymatgen
data_Cs27Sn13Pb14I81
_symmetry_space_group_name_H-M   'P 1'
_cell_length_a   18.97284744
_cell_length_b   18.98145484
_cell_length_c   18.97647383
_cell_angle_alpha   89.99914134
_cell_angle_beta   90.00241849
_cell_angle_gamma   89.99920894
_symmetry_Int_Tables_number   1
_chemical_formula_structural   Cs27Sn13Pb14I81
_chemical_formula_sum   'Cs27 Sn13 Pb14 I81'
_cell_volume   6834.04015500
_cell_formula_units_Z   1
loop_
 _symmetry_equiv_pos_site_id
 _symmetry_equiv_pos_as_xyz
  1  'x, y, z'
loop_
 _atom_site_type_symbol
 _atom_site_label
 _atom_site_symmetry_multiplicity
 _atom_site_fract_x
 _atom_site_fract_y
 _atom_site_fract_z
 _atom_site_occupancy
  Cs  Cs0  1  -0.00019693  -0.00119920  -0.00137214  1
  Cs  Cs1  1  0.00819715  -0.00632758  0.33419496  1
  Cs  Cs2  1  0.00009642  0.00066805  0.66650404  1
  Cs  Cs3  1  -0.00222493  0.33415162  -0.00323574  1
  Cs  Cs4  1  0.00156064  0.33362764  0.33323915  1
  Cs  Cs5  1  0.00047397  0.33092459  0.67006492  1
  Cs  Cs6  1  -0.00017269  0.66692132  0.00035276  1
  Cs  Cs7  1  -0.00465593  0.67251061  0.33278681  1
  Cs  Cs8  1  0.00020853  0.66871909  0.66779918  1
  Cs  Cs9  1  0.33739858  0.00154637  0.00272422  1
  Cs  Cs10  1  0.32825224  0.00033613  0.33291793  1
  Cs  Cs11  1  0.33358707  -0.00137383  0.66507826  1
  Cs  Cs12  1  0.33509959  0.33483260  0.00217410  1
  Cs  Cs13  1  0.33153037  0.33281376  0.33159497  1
  Cs  Cs14  1  0.33256317  0.34027352  0.66675624  1
  Cs  Cs15  1  0.33344704  0.66452079  -0.00090570  1
  Cs  Cs16  1  0.33413738  0.66649331  0.33199477  1
  Cs  Cs17  1  0.33618723  0.66080664  0.66949016  1
  Cs  Cs18  1  0.66474148  0.00315518  -0.00219509  1
  Cs  Cs19  1  0.66555086  -0.00074755  0.33497982  1
  Cs  Cs20  1  0.66669916  0.00056633  0.66773464  1
  Cs  Cs21  1  0.66929284  0.32797735  0.00117100  1
  Cs  Cs22  1  0.66709370  0.33560457  0.33533613  1
  Cs  Cs23  1  0.66569856  0.33281309  0.66341133  1
  Cs  Cs24  1  0.66701167  0.66922217  0.00306051  1
  Cs  Cs25  1  0.66967851  0.66521508  0.33378803  1
  Cs  Cs26  1  0.66293601  0.66557710  0.66231145  1
  Sn  Sn27  1  0.83331597  0.16631189  0.49949247  1
  Sn  Sn28  1  0.83373377  0.83334373  0.83316434  1
  Sn  Sn29  1  0.50002094  0.83291130  0.16762079  1
  Sn  Sn30  1  0.83398612  0.16649214  0.83306198  1
  Sn  Sn31  1  0.16649799  0.83445486  0.83341386  1
  Sn  Sn32  1  0.50010042  0.16603676  0.50005346  1
  Sn  Sn33  1  0.49993041  0.83403476  0.49907775  1
  Sn  Sn34  1  0.16666511  0.16578349  0.83347512  1
  Sn  Sn35  1  0.49983414  0.50045879  0.16673881  1
  Sn  Sn36  1  0.16655733  0.50017183  0.16773211  1
  Sn  Sn37  1  0.83404591  0.16608287  0.16741104  1
  Sn  Sn38  1  0.16590625  0.50027387  0.49879665  1
  Sn  Sn39  1  0.83271069  0.50015272  0.83305804  1
  Pb  Pb40  1  0.83122879  0.83592602  0.16469107  1
  Pb  Pb41  1  0.16881686  0.83121576  0.16425631  1
  Pb  Pb42  1  0.83148286  0.83563179  0.50219525  1
  Pb  Pb43  1  0.16664779  0.16804146  0.50203552  1
  Pb  Pb44  1  0.83569105  0.49796717  0.50200706  1
  Pb  Pb45  1  0.50166674  0.16664051  0.16919234  1
  Pb  Pb46  1  0.83343046  0.49850505  0.16517442  1
  Pb  Pb47  1  0.16506758  0.50002891  0.83385976  1
  Pb  Pb48  1  0.49997322  0.83338292  0.83329438  1
  Pb  Pb49  1  0.50327323  0.49979044  0.83633948  1
  Pb  Pb50  1  0.16915189  0.83091432  0.50239429  1
  Pb  Pb51  1  0.16436289  0.16857283  0.16415697  1
  Pb  Pb52  1  0.49850921  0.49984977  0.49769440  1
  Pb  Pb53  1  0.49981293  0.16690434  0.83076002  1
  I  I54  1  0.16755093  -0.00006875  0.16664650  1
  I  I55  1  0.16580477  -0.00011699  0.50060631  1
  I  I56  1  0.15783407  0.00033174  0.83224365  1
  I  I57  1  0.17352285  0.33649669  0.16723659  1
  I  I58  1  0.16878074  0.33583947  0.49998658  1
  I  I59  1  0.16115715  0.33115441  0.83280444  1
  I  I60  1  0.16758883  0.66322095  0.16706219  1
  I  I61  1  0.16877165  0.66330986  0.49943709  1
  I  I62  1  0.16221633  0.66878600  0.83326354  1
  I  I63  1  0.50295767  -0.00235516  0.16721411  1
  I  I64  1  0.50406749  0.00009067  0.49585937  1
  I  I65  1  0.50350296  0.00004732  0.83766681  1
  I  I66  1  0.49744444  0.33569383  0.16679563  1
  I  I67  1  0.50376950  0.33085879  0.50023858  1
  I  I68  1  0.49904925  0.33332712  0.83290924  1
  I  I69  1  0.49706380  0.66674390  0.17097960  1
  I  I70  1  0.49783105  0.66901943  0.49959964  1
  I  I71  1  0.49948241  0.66668935  0.82843603  1
  I  I72  1  0.83051141  0.00384977  0.16319796  1
  I  I73  1  0.83182000  0.00393626  0.50324665  1
  I  I74  1  0.83721923  0.00101195  0.83325986  1
  I  I75  1  0.83104165  0.33039409  0.16243889  1
  I  I76  1  0.82669207  0.32963593  0.50334665  1
  I  I77  1  0.83763984  0.33170785  0.83381848  1
  I  I78  1  0.83390122  0.66688836  0.16302045  1
  I  I79  1  0.83200328  0.66679903  0.50282292  1
  I  I80  1  0.83823902  0.66726022  0.83486128  1
  I  I81  1  0.16074443  0.16566186  -0.00391703  1
  I  I82  1  0.16493081  0.16752813  0.33332534  1
  I  I83  1  0.16052616  0.16634139  0.66999168  1
  I  I84  1  0.16978404  0.49980978  0.00226099  1
  I  I85  1  0.17139626  0.49728369  0.33270280  1
  I  I86  1  0.16565829  0.49909952  0.66531613  1
  I  I87  1  0.16400010  0.83475092  -0.00368186  1
  I  I88  1  0.16627703  0.83382012  0.33329691  1
  I  I89  1  0.16395754  0.83478639  0.67024696  1
  I  I90  1  0.50162480  0.16622649  0.00021102  1
  I  I91  1  0.50618040  0.16617227  0.33689156  1
  I  I92  1  0.50577816  0.16090476  0.66296803  1
  I  I93  1  0.49263798  0.50567827  0.00405563  1
  I  I94  1  0.49926320  0.50070518  0.33000492  1
  I  I95  1  0.49805810  0.50075355  0.66636891  1
  I  I96  1  0.50047488  0.82859760  0.00252933  1
  I  I97  1  0.50043509  0.83346358  0.33336531  1
  I  I98  1  0.50068692  0.83807149  0.66412374  1
  I  I99  1  0.83675669  0.16788278  -0.00150198  1
  I  I100  1  0.82612448  0.16974456  0.33396214  1
  I  I101  1  0.83290680  0.16691320  0.66774048  1
  I  I102  1  0.83534049  0.49648449  -0.00309688  1
  I  I103  1  0.83216347  0.49665671  0.33335083  1
  I  I104  1  0.83613295  0.49756191  0.67019009  1
  I  I105  1  0.83456150  0.83546246  -0.00367593  1
  I  I106  1  0.83352884  0.83470037  0.33341240  1
  I  I107  1  0.83482449  0.83545063  0.67053333  1
  I  I108  1  -0.00379808  0.16947912  0.16933005  1
  I  I109  1  -0.00284245  0.17027495  0.50122963  1
  I  I110  1  -0.00174149  0.16694514  0.83124720  1
  I  I111  1  0.00245579  0.49643637  0.16735449  1
  I  I112  1  0.00342130  0.49773426  0.49463346  1
  I  I113  1  -0.00279324  0.49817728  0.83532799  1
  I  I114  1  -0.00000502  0.83226537  0.16674104  1
  I  I115  1  0.00012872  0.83372124  0.49982324  1
  I  I116  1  -0.00072523  0.83433297  0.83336594  1
  I  I117  1  0.33328440  0.16610576  0.16567314  1
  I  I118  1  0.33584717  0.16430443  0.50152880  1
  I  I119  1  0.33029852  0.16202439  0.83190626  1
  I  I120  1  0.33341273  0.50271589  0.16898632  1
  I  I121  1  0.33066324  0.49756646  0.50140311  1
  I  I122  1  0.33319225  0.50000992  0.83159096  1
  I  I123  1  0.33682373  0.83306584  0.16758347  1
  I  I124  1  0.33700080  0.84067007  0.49827344  1
  I  I125  1  0.33061983  0.83766609  0.83319649  1
  I  I126  1  0.66969369  0.16866658  0.15985828  1
  I  I127  1  0.66739953  0.16420560  0.50328112  1
  I  I128  1  0.67028670  0.16572020  0.83531856  1
  I  I129  1  0.66420463  0.50249224  0.16417478  1
  I  I130  1  0.66674461  0.50072031  0.50049668  1
  I  I131  1  0.67124246  0.49863801  0.83359270  1
  I  I132  1  0.66329754  0.82644296  0.16820312  1
  I  I133  1  0.66341950  0.83368366  0.49918482  1
  I  I134  1  0.66963861  0.83536159  0.83381671  1
