# generated using pymatgen
data_Cs27Sn14Pb13I81
_symmetry_space_group_name_H-M   'P 1'
_cell_length_a   18.96906227
_cell_length_b   18.98654933
_cell_length_c   18.97314063
_cell_angle_alpha   89.99915275
_cell_angle_beta   89.99956901
_cell_angle_gamma   90.00006586
_symmetry_Int_Tables_number   1
_chemical_formula_structural   Cs27Sn14Pb13I81
_chemical_formula_sum   'Cs27 Sn14 Pb13 I81'
_cell_volume   6833.31010051
_cell_formula_units_Z   1
loop_
 _symmetry_equiv_pos_site_id
 _symmetry_equiv_pos_as_xyz
  1  'x, y, z'
loop_
 _atom_site_type_symbol
 _atom_site_label
 _atom_site_symmetry_multiplicity
 _atom_site_fract_x
 _atom_site_fract_y
 _atom_site_fract_z
 _atom_site_occupancy
  Cs  Cs0  1  0.00131128  -0.00076721  0.00196182  1
  Cs  Cs1  1  -0.00020695  -0.00180009  0.33259935  1
  Cs  Cs2  1  -0.00084093  0.00241639  0.66590958  1
  Cs  Cs3  1  -0.00136527  0.33630401  0.00160608  1
  Cs  Cs4  1  0.00193111  0.33145521  0.33357094  1
  Cs  Cs5  1  0.00053225  0.33287700  0.66529977  1
  Cs  Cs6  1  0.00154714  0.66536745  -0.00054076  1
  Cs  Cs7  1  -0.00181851  0.67151933  0.32985651  1
  Cs  Cs8  1  -0.00277439  0.66408016  0.67096622  1
  Cs  Cs9  1  0.33385417  -0.00041479  -0.00123944  1
  Cs  Cs10  1  0.33199750  -0.00227570  0.33387322  1
  Cs  Cs11  1  0.33397847  0.00141884  0.66652015  1
  Cs  Cs12  1  0.33563542  0.32706995  0.00010430  1
  Cs  Cs13  1  0.33315013  0.33825060  0.33604887  1
  Cs  Cs14  1  0.32536845  0.33182506  0.66301579  1
  Cs  Cs15  1  0.33084223  0.67029383  0.00021920  1
  Cs  Cs16  1  0.33459649  0.66697901  0.33349698  1
  Cs  Cs17  1  0.33392657  0.66524798  0.66602764  1
  Cs  Cs18  1  0.66432853  0.00349207  -0.00068479  1
  Cs  Cs19  1  0.66917514  -0.00112430  0.33629421  1
  Cs  Cs20  1  0.66694006  0.00011399  0.66572922  1
  Cs  Cs21  1  0.66521014  0.33184647  0.00343236  1
  Cs  Cs22  1  0.66416531  0.33519371  0.32853912  1
  Cs  Cs23  1  0.66885605  0.33383733  0.66743490  1
  Cs  Cs24  1  0.66726121  0.66508017  -0.00421675  1
  Cs  Cs25  1  0.66641402  0.66604978  0.33256209  1
  Cs  Cs26  1  0.66760082  0.66625661  0.66760171  1
  Sn  Sn27  1  0.16691775  0.16642116  0.16677298  1
  Sn  Sn28  1  0.50092615  0.83264825  0.83313605  1
  Sn  Sn29  1  0.49988491  0.83340420  0.16676479  1
  Sn  Sn30  1  0.83315314  0.49915083  0.50006048  1
  Sn  Sn31  1  0.83317928  0.16686918  0.83291349  1
  Sn  Sn32  1  0.83225753  0.16781486  0.50042781  1
  Sn  Sn33  1  0.50068365  0.16644443  0.50009248  1
  Sn  Sn34  1  0.50004509  0.50018417  0.83293087  1
  Sn  Sn35  1  0.49938361  0.83387996  0.50006566  1
  Sn  Sn36  1  0.83256318  0.83362348  0.83347533  1
  Sn  Sn37  1  0.16705265  0.50018573  0.16662244  1
  Sn  Sn38  1  0.16765495  0.83342193  0.16762326  1
  Sn  Sn39  1  0.16720174  0.83308830  0.49994145  1
  Sn  Sn40  1  0.83227042  0.49957941  0.83256717  1
  Pb  Pb41  1  0.16380166  0.50301136  0.49805469  1
  Pb  Pb42  1  0.50183657  0.50022576  0.50207026  1
  Pb  Pb43  1  0.16378561  0.16672161  0.83552844  1
  Pb  Pb44  1  0.83287527  0.83336938  0.16355813  1
  Pb  Pb45  1  0.50172592  0.16678579  0.83114394  1
  Pb  Pb46  1  0.49795760  0.16424794  0.16969383  1
  Pb  Pb47  1  0.83315528  0.83330873  0.50198239  1
  Pb  Pb48  1  0.16725159  0.83338551  0.83303405  1
  Pb  Pb49  1  0.16705855  0.49987999  0.83516373  1
  Pb  Pb50  1  0.49784798  0.50235612  0.16388755  1
  Pb  Pb51  1  0.16638234  0.16463305  0.49826363  1
  Pb  Pb52  1  0.83482830  0.50007165  0.16657030  1
  Pb  Pb53  1  0.83486990  0.16657721  0.16727507  1
  I  I54  1  0.16931069  -0.00156367  0.17033069  1
  I  I55  1  0.16556262  -0.00323098  0.49378958  1
  I  I56  1  0.16546641  -0.00019485  0.83653448  1
  I  I57  1  0.16255442  0.33330139  0.16464294  1
  I  I58  1  0.16901311  0.33340958  0.49740090  1
  I  I59  1  0.16802344  0.33334404  0.83594709  1
  I  I60  1  0.16971713  0.66822451  0.16976835  1
  I  I61  1  0.17191947  0.67071337  0.49452045  1
  I  I62  1  0.16088065  0.66686769  0.83615136  1
  I  I63  1  0.49403877  -0.00391549  0.16063820  1
  I  I64  1  0.50211365  -0.00149340  0.50179802  1
  I  I65  1  0.50375138  -0.00317153  0.83522620  1
  I  I66  1  0.49776666  0.33329102  0.16594149  1
  I  I67  1  0.50257681  0.33097327  0.50188080  1
  I  I68  1  0.50463803  0.33578948  0.83306595  1
  I  I69  1  0.49430752  0.67061921  0.17166332  1
  I  I70  1  0.49735906  0.66995908  0.49834772  1
  I  I71  1  0.50816502  0.66829655  0.83201495  1
  I  I72  1  0.83753750  -0.00019208  0.16623911  1
  I  I73  1  0.83294993  0.00218714  0.50438238  1
  I  I74  1  0.83035499  -0.00010928  0.82969078  1
  I  I75  1  0.83678493  0.33330580  0.16234039  1
  I  I76  1  0.82958119  0.33251992  0.50858670  1
  I  I77  1  0.83069778  0.33381452  0.82933836  1
  I  I78  1  0.83748330  0.66689417  0.16808666  1
  I  I79  1  0.83456448  0.66476887  0.50461233  1
  I  I80  1  0.82996417  0.66640841  0.82954929  1
  I  I81  1  0.16584504  0.16253368  0.00374375  1
  I  I82  1  0.16400381  0.16700723  0.33035295  1
  I  I83  1  0.16798167  0.16452238  0.66621558  1
  I  I84  1  0.16361680  0.50472623  0.00324578  1
  I  I85  1  0.16541088  0.49854507  0.33010307  1
  I  I86  1  0.16743778  0.50189050  0.66644351  1
  I  I87  1  0.16874647  0.83326355  0.00309042  1
  I  I88  1  0.17339383  0.83317104  0.33245276  1
  I  I89  1  0.16950159  0.83435821  0.66392628  1
  I  I90  1  0.50038222  0.16587785  0.00000302  1
  I  I91  1  0.50714414  0.16136387  0.33749714  1
  I  I92  1  0.50106120  0.15935834  0.66338178  1
  I  I93  1  0.50746717  0.50526079  -0.00397828  1
  I  I94  1  0.50123245  0.50069910  0.33341184  1
  I  I95  1  0.50235752  0.50735789  0.66996370  1
  I  I96  1  0.49918300  0.82848361  -0.00046167  1
  I  I97  1  0.49410668  0.83805487  0.33385701  1
  I  I98  1  0.50019158  0.83350747  0.66658421  1
  I  I99  1  0.83561298  0.16709487  -0.00309491  1
  I  I100  1  0.83117069  0.17077517  0.33702730  1
  I  I101  1  0.83041861  0.16660609  0.66652878  1
  I  I102  1  0.83165327  0.50012537  -0.00362786  1
  I  I103  1  0.83534497  0.49513324  0.33630260  1
  I  I104  1  0.83076112  0.50024260  0.66785739  1
  I  I105  1  0.83097465  0.83240174  -0.00468139  1
  I  I106  1  0.83217578  0.83342525  0.33348196  1
  I  I107  1  0.83001045  0.83285810  0.66994310  1
  I  I108  1  0.00312102  0.16254747  0.16760465  1
  I  I109  1  -0.00301429  0.16875334  0.50305347  1
  I  I110  1  -0.00481691  0.16617619  0.82634517  1
  I  I111  1  0.00305556  0.50401551  0.16455608  1
  I  I112  1  -0.00395256  0.49491752  0.50729044  1
  I  I113  1  -0.00355266  0.50127730  0.83142881  1
  I  I114  1  0.00323906  0.83359645  0.17054954  1
  I  I115  1  0.00200147  0.83347558  0.49518035  1
  I  I116  1  -0.00285862  0.83226857  0.83305484  1
  I  I117  1  0.32994875  0.16812636  0.16739114  1
  I  I118  1  0.33576861  0.16313608  0.49864738  1
  I  I119  1  0.33362382  0.16644775  0.83271259  1
  I  I120  1  0.32988123  0.49879557  0.16587573  1
  I  I121  1  0.33332513  0.49725046  0.50136599  1
  I  I122  1  0.33651626  0.50806068  0.83526748  1
  I  I123  1  0.33291724  0.83318510  0.16504828  1
  I  I124  1  0.33470176  0.83882456  0.50100442  1
  I  I125  1  0.33690203  0.82825523  0.83381866  1
  I  I126  1  0.66630840  0.16470814  0.16502891  1
  I  I127  1  0.66731942  0.16240890  0.50393134  1
  I  I128  1  0.67008830  0.16559374  0.83220155  1
  I  I129  1  0.66630355  0.50206442  0.16794618  1
  I  I130  1  0.66994382  0.50165921  0.50204154  1
  I  I131  1  0.66782791  0.50301937  0.83014641  1
  I  I132  1  0.66323782  0.83334056  0.17024286  1
  I  I133  1  0.66376125  0.83458047  0.49756765  1
  I  I134  1  0.66596605  0.83217173  0.83303169  1
