# generated using pymatgen
data_Cs27Sn13Pb14I81
_symmetry_space_group_name_H-M   'P 1'
_cell_length_a   18.97236663
_cell_length_b   18.99081540
_cell_length_c   18.97235001
_cell_angle_alpha   90.00000000
_cell_angle_beta   89.99993921
_cell_angle_gamma   89.99999994
_symmetry_Int_Tables_number   1
_chemical_formula_structural   Cs27Sn13Pb14I81
_chemical_formula_sum   'Cs27 Sn13 Pb14 I81'
_cell_volume   6835.75122515
_cell_formula_units_Z   1
loop_
 _symmetry_equiv_pos_site_id
 _symmetry_equiv_pos_as_xyz
  1  'x, y, z'
loop_
 _atom_site_type_symbol
 _atom_site_label
 _atom_site_symmetry_multiplicity
 _atom_site_fract_x
 _atom_site_fract_y
 _atom_site_fract_z
 _atom_site_occupancy
  Cs  Cs0  1  -0.00065254  -0.00000004  -0.00404795  1
  Cs  Cs1  1  -0.00076379  -0.00000000  0.33708861  1
  Cs  Cs2  1  -0.00174548  -0.00000012  0.66890937  1
  Cs  Cs3  1  -0.00198178  0.33097620  0.00264357  1
  Cs  Cs4  1  0.00042207  0.33330492  0.33180730  1
  Cs  Cs5  1  0.00643727  0.32534284  0.66659928  1
  Cs  Cs6  1  -0.00198178  0.66902377  0.00264362  1
  Cs  Cs7  1  0.00042217  0.66669512  0.33180742  1
  Cs  Cs8  1  0.00643719  0.67465716  0.66659920  1
  Cs  Cs9  1  0.33557587  0.00000001  0.00354958  1
  Cs  Cs10  1  0.33658815  0.00000020  0.33003795  1
  Cs  Cs11  1  0.33132927  0.00000007  0.66713583  1
  Cs  Cs12  1  0.33366534  0.33393022  -0.00224292  1
  Cs  Cs13  1  0.33346361  0.33270717  0.33364181  1
  Cs  Cs14  1  0.33023805  0.33548026  0.66885452  1
  Cs  Cs15  1  0.33366532  0.66606987  -0.00224293  1
  Cs  Cs16  1  0.33346357  0.66729283  0.33364184  1
  Cs  Cs17  1  0.33023807  0.66451969  0.66885448  1
  Cs  Cs18  1  0.66464092  -0.00000011  -0.00004859  1
  Cs  Cs19  1  0.66369207  -0.00000000  0.33389686  1
  Cs  Cs20  1  0.67090444  0.00000005  0.66681453  1
  Cs  Cs21  1  0.66815921  0.33601509  -0.00098782  1
  Cs  Cs22  1  0.66685365  0.33591886  0.33414747  1
  Cs  Cs23  1  0.66543609  0.33336097  0.66649719  1
  Cs  Cs24  1  0.66815925  0.66398490  -0.00098790  1
  Cs  Cs25  1  0.66685371  0.66408115  0.33414742  1
  Cs  Cs26  1  0.66543604  0.66663896  0.66649709  1
  Sn  Sn27  1  0.83374296  0.16520107  0.16697564  1
  Sn  Sn28  1  0.16800679  0.49999999  0.16677165  1
  Sn  Sn29  1  0.83374296  0.83479891  0.16697565  1
  Sn  Sn30  1  0.50029426  0.16582440  0.83218323  1
  Sn  Sn31  1  0.50029427  0.83417564  0.83218322  1
  Sn  Sn32  1  0.50020375  0.83307461  0.50127062  1
  Sn  Sn33  1  0.49906771  0.50000000  0.16717266  1
  Sn  Sn34  1  0.50020378  0.16692541  0.50127059  1
  Sn  Sn35  1  0.16561156  0.83359032  0.16680036  1
  Sn  Sn36  1  0.16561156  0.16640965  0.16680038  1
  Sn  Sn37  1  0.83404072  0.49999996  0.83100105  1
  Sn  Sn38  1  0.50046283  0.49999999  0.49936674  1
  Sn  Sn39  1  0.83346770  0.49999999  0.50208353  1
  Pb  Pb40  1  0.83357840  0.50000003  0.16721051  1
  Pb  Pb41  1  0.16291162  0.50000002  0.83585987  1
  Pb  Pb42  1  0.83144647  0.83129544  0.49802352  1
  Pb  Pb43  1  0.50016253  0.83098213  0.16664908  1
  Pb  Pb44  1  0.16913687  0.16650534  0.83564796  1
  Pb  Pb45  1  0.50094912  0.50000000  0.83256267  1
  Pb  Pb46  1  0.50016257  0.16901784  0.16664908  1
  Pb  Pb47  1  0.83128970  0.16844107  0.83515308  1
  Pb  Pb48  1  0.83128969  0.83155894  0.83515307  1
  Pb  Pb49  1  0.16906137  0.16641463  0.49782026  1
  Pb  Pb50  1  0.16913689  0.83349465  0.83564798  1
  Pb  Pb51  1  0.16906142  0.83358535  0.49782024  1
  Pb  Pb52  1  0.83144652  0.16870458  0.49802351  1
  Pb  Pb53  1  0.16650109  0.50000001  0.49829483  1
  I  I54  1  0.16382403  -0.00000003  0.16674611  1
  I  I55  1  0.17024412  0.00000001  0.49454863  1
  I  I56  1  0.16638137  0.00000002  0.83764342  1
  I  I57  1  0.16657292  0.33345738  0.16717291  1
  I  I58  1  0.16953561  0.33337325  0.49542925  1
  I  I59  1  0.17043656  0.33336900  0.83722150  1
  I  I60  1  0.16657274  0.66654265  0.16717276  1
  I  I61  1  0.16953539  0.66662672  0.49542934  1
  I  I62  1  0.17043671  0.66663099  0.83722152  1
  I  I63  1  0.49817097  0.00000002  0.16862001  1
  I  I64  1  0.49851566  -0.00000003  0.50221523  1
  I  I65  1  0.50038978  -0.00000000  0.82839153  1
  I  I66  1  0.49810993  0.33673546  0.16975330  1
  I  I67  1  0.50411685  0.33402554  0.49778523  1
  I  I68  1  0.50182238  0.33135914  0.83275439  1
  I  I69  1  0.49811050  0.66326453  0.16975366  1
  I  I70  1  0.50411684  0.66597445  0.49778506  1
  I  I71  1  0.50182240  0.66864087  0.83275438  1
  I  I72  1  0.83910432  0.00000000  0.16616721  1
  I  I73  1  0.83002092  0.00000000  0.49748353  1
  I  I74  1  0.83201660  -0.00000001  0.83560067  1
  I  I75  1  0.83512133  0.33167935  0.16646159  1
  I  I76  1  0.82526836  0.33681325  0.49871144  1
  I  I77  1  0.82810799  0.33632378  0.83505525  1
  I  I78  1  0.83512091  0.66832065  0.16646162  1
  I  I79  1  0.82526867  0.66318673  0.49871147  1
  I  I80  1  0.82810798  0.66367623  0.83505518  1
  I  I81  1  0.16613983  0.16782954  0.00454542  1
  I  I82  1  0.16617086  0.16803888  0.32888120  1
  I  I83  1  0.16657852  0.16789187  0.66670032  1
  I  I84  1  0.17294753  0.49999995  0.00469352  1
  I  I85  1  0.16672301  0.50000009  0.32932486  1
  I  I86  1  0.17044745  0.49999997  0.66669137  1
  I  I87  1  0.16613972  0.83217051  0.00454541  1
  I  I88  1  0.16617072  0.83196093  0.32888117  1
  I  I89  1  0.16657847  0.83210823  0.66670030  1
  I  I90  1  0.49962929  0.16348181  -0.00180115  1
  I  I91  1  0.49961050  0.16508490  0.33551414  1
  I  I92  1  0.50134403  0.16895724  0.66603987  1
  I  I93  1  0.49905934  0.50000012  0.00217824  1
  I  I94  1  0.50279601  0.49999979  0.33382631  1
  I  I95  1  0.50376690  0.50000008  0.66352603  1
  I  I96  1  0.49962921  0.83651813  -0.00180115  1
  I  I97  1  0.49961048  0.83491524  0.33551413  1
  I  I98  1  0.50134417  0.83104266  0.66603982  1
  I  I99  1  0.83384825  0.16752808  0.00368055  1
  I  I100  1  0.83392334  0.16685664  0.32952864  1
  I  I101  1  0.83267581  0.16718554  0.66654831  1
  I  I102  1  0.83149336  0.50000008  -0.00113425  1
  I  I103  1  0.82986907  0.50000003  0.33525772  1
  I  I104  1  0.82130571  0.50000001  0.66576942  1
  I  I105  1  0.83384827  0.83247194  0.00368055  1
  I  I106  1  0.83392335  0.83314336  0.32952865  1
  I  I107  1  0.83267574  0.83281451  0.66654830  1
  I  I108  1  0.00017291  0.17050431  0.16639538  1
  I  I109  1  -0.00020147  0.16995932  0.49861263  1
  I  I110  1  -0.00015405  0.16916773  0.83448069  1
  I  I111  1  0.00233197  0.49999998  0.16611747  1
  I  I112  1  -0.00313196  0.49999986  0.49925970  1
  I  I113  1  -0.00473335  0.50000006  0.83107101  1
  I  I114  1  0.00017289  0.82949561  0.16639535  1
  I  I115  1  -0.00020146  0.83004083  0.49861270  1
  I  I116  1  -0.00015405  0.83083228  0.83448062  1
  I  I117  1  0.33126522  0.16481620  0.16696937  1
  I  I118  1  0.33810650  0.17035402  0.50030913  1
  I  I119  1  0.33765257  0.16535402  0.83247774  1
  I  I120  1  0.33391416  0.50000027  0.17173603  1
  I  I121  1  0.33697065  0.50000007  0.49604771  1
  I  I122  1  0.33322578  0.49999996  0.83346027  1
  I  I123  1  0.33126519  0.83518349  0.16696932  1
  I  I124  1  0.33810654  0.82964578  0.50030918  1
  I  I125  1  0.33765259  0.83464598  0.83247776  1
  I  I126  1  0.66870828  0.16445388  0.16663731  1
  I  I127  1  0.66267273  0.16579868  0.49911473  1
  I  I128  1  0.66300366  0.16426117  0.83368748  1
  I  I129  1  0.66463328  0.49999970  0.16767295  1
  I  I130  1  0.66490246  0.50000009  0.49521563  1
  I  I131  1  0.66849237  0.49999998  0.83790851  1
  I  I132  1  0.66870829  0.83554648  0.16663731  1
  I  I133  1  0.66267274  0.83420121  0.49911462  1
  I  I134  1  0.66300368  0.83573889  0.83368766  1
