# generated using pymatgen
data_Cs27Sn13Pb14I81
_symmetry_space_group_name_H-M   'P 1'
_cell_length_a   18.97923004
_cell_length_b   18.97554871
_cell_length_c   18.97616528
_cell_angle_alpha   90.00170039
_cell_angle_beta   90.00060839
_cell_angle_gamma   89.99911872
_symmetry_Int_Tables_number   1
_chemical_formula_structural   Cs27Sn13Pb14I81
_chemical_formula_sum   'Cs27 Sn13 Pb14 I81'
_cell_volume   6834.10090639
_cell_formula_units_Z   1
loop_
 _symmetry_equiv_pos_site_id
 _symmetry_equiv_pos_as_xyz
  1  'x, y, z'
loop_
 _atom_site_type_symbol
 _atom_site_label
 _atom_site_symmetry_multiplicity
 _atom_site_fract_x
 _atom_site_fract_y
 _atom_site_fract_z
 _atom_site_occupancy
  Cs  Cs0  1  -0.00149348  0.00051284  -0.00039473  1
  Cs  Cs1  1  -0.00124025  -0.00003237  0.33588948  1
  Cs  Cs2  1  -0.00092112  0.00024722  0.66517989  1
  Cs  Cs3  1  0.00048843  0.33315958  0.00027084  1
  Cs  Cs4  1  -0.00059981  0.33263636  0.33390427  1
  Cs  Cs5  1  -0.00021283  0.33204361  0.66652677  1
  Cs  Cs6  1  0.00583111  0.66750166  0.00040313  1
  Cs  Cs7  1  -0.00032624  0.66715733  0.33407513  1
  Cs  Cs8  1  -0.00010450  0.66832876  0.66532979  1
  Cs  Cs9  1  0.33411947  -0.00642069  0.00262749  1
  Cs  Cs10  1  0.34112274  0.00100277  0.33391855  1
  Cs  Cs11  1  0.33634748  0.00250288  0.66336887  1
  Cs  Cs12  1  0.33256204  0.33648343  -0.00280430  1
  Cs  Cs13  1  0.33333411  0.32963503  0.33732181  1
  Cs  Cs14  1  0.33306007  0.33043967  0.66731707  1
  Cs  Cs15  1  0.32536229  0.66948167  0.00286770  1
  Cs  Cs16  1  0.33289606  0.66997420  0.33074037  1
  Cs  Cs17  1  0.33354455  0.66975855  0.66647889  1
  Cs  Cs18  1  0.66588270  -0.00015039  0.00155771  1
  Cs  Cs19  1  0.66320209  0.00105884  0.32821989  1
  Cs  Cs20  1  0.66869582  -0.00408855  0.66950958  1
  Cs  Cs21  1  0.66715042  0.33279026  0.00003154  1
  Cs  Cs22  1  0.66515039  0.33618301  0.33068549  1
  Cs  Cs23  1  0.66747304  0.33692915  0.66883653  1
  Cs  Cs24  1  0.66766377  0.66435486  -0.00088361  1
  Cs  Cs25  1  0.66781409  0.66340576  0.33637576  1
  Cs  Cs26  1  0.66539079  0.66574926  0.66547566  1
  Sn  Sn27  1  0.50039194  0.16717110  0.83353135  1
  Sn  Sn28  1  0.83360541  0.83230441  0.16729865  1
  Sn  Sn29  1  0.83380772  0.83432485  0.49896456  1
  Sn  Sn30  1  0.50045030  0.49953519  0.83450880  1
  Sn  Sn31  1  0.16662767  0.16667488  0.16597622  1
  Sn  Sn32  1  0.16659202  0.16658712  0.83447858  1
  Sn  Sn33  1  0.83311901  0.50085858  0.16570627  1
  Sn  Sn34  1  0.83304522  0.16613671  0.50041079  1
  Sn  Sn35  1  0.83323979  0.49946144  0.83423501  1
  Sn  Sn36  1  0.83315902  0.16744956  0.83255127  1
  Sn  Sn37  1  0.16603877  0.83265856  0.49989848  1
  Sn  Sn38  1  0.16663953  0.50079376  0.50012207  1
  Sn  Sn39  1  0.50025406  0.49990610  0.16573365  1
  Pb  Pb40  1  0.83457400  0.50005915  0.50021090  1
  Pb  Pb41  1  0.49735532  0.16906783  0.16401001  1
  Pb  Pb42  1  0.50081407  0.83334556  0.49987352  1
  Pb  Pb43  1  0.16659246  0.83662615  0.83071049  1
  Pb  Pb44  1  0.16650200  0.49842392  0.16865612  1
  Pb  Pb45  1  0.83340572  0.83278905  0.83341265  1
  Pb  Pb46  1  0.50289994  0.83017802  0.16646903  1
  Pb  Pb47  1  0.49706992  0.50001955  0.50036333  1
  Pb  Pb48  1  0.16656415  0.49846334  0.83140803  1
  Pb  Pb49  1  0.16516531  0.16607088  0.50017410  1
  Pb  Pb50  1  0.83427029  0.16702665  0.16634439  1
  Pb  Pb51  1  0.16434449  0.83605339  0.16906744  1
  Pb  Pb52  1  0.49997478  0.83246095  0.83359535  1
  Pb  Pb53  1  0.50400753  0.16692053  0.50261333  1
  I  I54  1  0.16363696  0.00368356  0.16314024  1
  I  I55  1  0.16185896  -0.00232846  0.50111424  1
  I  I56  1  0.16468285  0.00504939  0.83515041  1
  I  I57  1  0.16314486  0.33075581  0.16568949  1
  I  I58  1  0.16476724  0.33464710  0.50007183  1
  I  I59  1  0.16544324  0.33019719  0.83296667  1
  I  I60  1  0.16818401  0.66673969  0.16696029  1
  I  I61  1  0.15970666  0.66712860  0.49988955  1
  I  I62  1  0.16658615  0.66661730  0.83311598  1
  I  I63  1  0.49998540  0.00013229  0.16613291  1
  I  I64  1  0.49456449  0.00031694  0.50189143  1
  I  I65  1  0.50100271  0.00349308  0.83103918  1
  I  I66  1  0.50801701  0.33684040  0.16559632  1
  I  I67  1  0.49807986  0.33341568  0.49769305  1
  I  I68  1  0.50140459  0.33344150  0.83654137  1
  I  I69  1  0.49968262  0.66220048  0.15985077  1
  I  I70  1  0.50398968  0.66644490  0.50337939  1
  I  I71  1  0.50688476  0.66240951  0.83506971  1
  I  I72  1  0.83731131  -0.00182887  0.16822544  1
  I  I73  1  0.84042679  -0.00016092  0.50099873  1
  I  I74  1  0.83351824  0.00320214  0.83186494  1
  I  I75  1  0.83142917  0.33614504  0.16620268  1
  I  I76  1  0.83676468  0.33120345  0.50175544  1
  I  I77  1  0.83299110  0.33285993  0.83267879  1
  I  I78  1  0.83012021  0.66569550  0.16776704  1
  I  I79  1  0.83642025  0.66902466  0.49908355  1
  I  I80  1  0.82768799  0.66316724  0.83308339  1
  I  I81  1  0.16268563  0.16937661  -0.00126021  1
  I  I82  1  0.16243136  0.16815548  0.33169621  1
  I  I83  1  0.16747282  0.16729194  0.66940598  1
  I  I84  1  0.16624245  0.49934782  -0.00007581  1
  I  I85  1  0.16478669  0.49992434  0.33626986  1
  I  I86  1  0.16486372  0.50078144  0.66374082  1
  I  I87  1  0.16561663  0.83274770  0.00026575  1
  I  I88  1  0.16283716  0.83119546  0.33684691  1
  I  I89  1  0.15872362  0.83062305  0.66277036  1
  I  I90  1  0.50664273  0.16880241  -0.00411313  1
  I  I91  1  0.49810779  0.16787119  0.33306067  1
  I  I92  1  0.49340248  0.17366710  0.67092070  1
  I  I93  1  0.50532243  0.49463985  -0.00079610  1
  I  I94  1  0.50510112  0.50102601  0.33043232  1
  I  I95  1  0.50475672  0.49556891  0.67032013  1
  I  I96  1  0.50232519  0.83699306  0.00016772  1
  I  I97  1  0.49793159  0.83212551  0.33310050  1
  I  I98  1  0.50176742  0.83150593  0.66668068  1
  I  I99  1  0.83257616  0.16756880  -0.00315275  1
  I  I100  1  0.83887412  0.16619187  0.33532191  1
  I  I101  1  0.83638623  0.16699784  0.66790743  1
  I  I102  1  0.83007967  0.49877557  -0.00033130  1
  I  I103  1  0.83084558  0.50010186  0.33087629  1
  I  I104  1  0.83053787  0.49815479  0.66945562  1
  I  I105  1  0.83214381  0.83311466  0.00271364  1
  I  I106  1  0.83797879  0.83325273  0.33393082  1
  I  I107  1  0.83755961  0.83518088  0.66378978  1
  I  I108  1  0.00194545  0.16915430  0.16159406  1
  I  I109  1  -0.00271141  0.16595175  0.50575485  1
  I  I110  1  -0.00105147  0.17065058  0.83250358  1
  I  I111  1  -0.00314269  0.50192039  0.16349574  1
  I  I112  1  0.00220065  0.50002252  0.50011685  1
  I  I113  1  -0.00303872  0.49516546  0.83603724  1
  I  I114  1  -0.00358135  0.82674771  0.16831396  1
  I  I115  1  -0.00117565  0.83362485  0.49680393  1
  I  I116  1  -0.00020623  0.83309744  0.83466404  1
  I  I117  1  0.32963802  0.16869566  0.16395465  1
  I  I118  1  0.33339585  0.16624586  0.50061363  1
  I  I119  1  0.33340332  0.17178771  0.83701897  1
  I  I120  1  0.33575616  0.49655521  0.16291743  1
  I  I121  1  0.32931675  0.50441780  0.50003152  1
  I  I122  1  0.33611423  0.49470038  0.83575591  1
  I  I123  1  0.33316387  0.83316755  0.16805032  1
  I  I124  1  0.33031040  0.82931339  0.50180551  1
  I  I125  1  0.33314683  0.83282187  0.83104502  1
  I  I126  1  0.66660272  0.16462033  0.16739557  1
  I  I127  1  0.67198907  0.16165799  0.50336580  1
  I  I128  1  0.66764042  0.17114617  0.82759317  1
  I  I129  1  0.66800427  0.50262820  0.16375286  1
  I  I130  1  0.66676624  0.49994836  0.50007780  1
  I  I131  1  0.66762713  0.49200527  0.83623225  1
  I  I132  1  0.67106908  0.83480583  0.17329206  1
  I  I133  1  0.67077537  0.83740879  0.49734252  1
  I  I134  1  0.66704678  0.83825079  0.83041917  1
