# generated using pymatgen
data_Cs27Sn14Pb13I81
_symmetry_space_group_name_H-M   'P 1'
_cell_length_a   18.97409246
_cell_length_b   18.98217547
_cell_length_c   18.97165476
_cell_angle_alpha   89.99892825
_cell_angle_beta   90.00037102
_cell_angle_gamma   89.99988837
_symmetry_Int_Tables_number   1
_chemical_formula_structural   Cs27Sn14Pb13I81
_chemical_formula_sum   'Cs27 Sn14 Pb13 I81'
_cell_volume   6833.01240450
_cell_formula_units_Z   1
loop_
 _symmetry_equiv_pos_site_id
 _symmetry_equiv_pos_as_xyz
  1  'x, y, z'
loop_
 _atom_site_type_symbol
 _atom_site_label
 _atom_site_symmetry_multiplicity
 _atom_site_fract_x
 _atom_site_fract_y
 _atom_site_fract_z
 _atom_site_occupancy
  Cs  Cs0  1  0.00308324  0.00239595  0.00014937  1
  Cs  Cs1  1  -0.00108469  0.00044996  0.33387512  1
  Cs  Cs2  1  -0.00177284  0.00004513  0.66473273  1
  Cs  Cs3  1  0.00484060  0.33063286  -0.00183053  1
  Cs  Cs4  1  0.00038275  0.33382936  0.33482257  1
  Cs  Cs5  1  0.00190637  0.33740484  0.66739003  1
  Cs  Cs6  1  -0.00001587  0.66754940  -0.00238104  1
  Cs  Cs7  1  -0.00256250  0.66538982  0.33613741  1
  Cs  Cs8  1  0.00005636  0.66338540  0.66600420  1
  Cs  Cs9  1  0.32512381  -0.00782186  -0.00688797  1
  Cs  Cs10  1  0.33225169  0.00153482  0.33583264  1
  Cs  Cs11  1  0.33607994  -0.00130063  0.66620541  1
  Cs  Cs12  1  0.32215889  0.33380227  0.00210314  1
  Cs  Cs13  1  0.33503496  0.33271233  0.33118935  1
  Cs  Cs14  1  0.33515877  0.33447822  0.66751356  1
  Cs  Cs15  1  0.32778066  0.67303532  0.00680245  1
  Cs  Cs16  1  0.33547205  0.66520839  0.32587677  1
  Cs  Cs17  1  0.33198251  0.66640970  0.66846211  1
  Cs  Cs18  1  0.66679314  0.00024521  -0.00335263  1
  Cs  Cs19  1  0.66795098  0.00164741  0.33490665  1
  Cs  Cs20  1  0.66576384  0.00127450  0.66652292  1
  Cs  Cs21  1  0.66779159  0.33442453  -0.00056513  1
  Cs  Cs22  1  0.66622283  0.33194307  0.33314320  1
  Cs  Cs23  1  0.66568869  0.33412631  0.66840240  1
  Cs  Cs24  1  0.66631416  0.66548706  0.00095436  1
  Cs  Cs25  1  0.66759901  0.66627913  0.33158031  1
  Cs  Cs26  1  0.66776619  0.66497592  0.66665568  1
  Sn  Sn27  1  0.83312983  0.83395898  0.50005296  1
  Sn  Sn28  1  0.50025957  0.49999272  0.83367512  1
  Sn  Sn29  1  0.50016825  0.16681732  0.49946870  1
  Sn  Sn30  1  0.50055836  0.16607505  0.16641844  1
  Sn  Sn31  1  0.16660483  0.16621154  0.49994499  1
  Sn  Sn32  1  0.83210286  0.16677071  0.16743449  1
  Sn  Sn33  1  0.83276166  0.83269730  0.83300909  1
  Sn  Sn34  1  0.83341731  0.16632303  0.49950859  1
  Sn  Sn35  1  0.83226583  0.50063955  0.83429386  1
  Sn  Sn36  1  0.50045959  0.50011475  0.50051706  1
  Sn  Sn37  1  0.83292779  0.49947170  0.16565307  1
  Sn  Sn38  1  0.50011866  0.83297220  0.49983911  1
  Sn  Sn39  1  0.83282880  0.83380998  0.16658205  1
  Sn  Sn40  1  0.16658537  0.83371965  0.49978129  1
  Pb  Pb41  1  0.83160926  0.49968780  0.50005374  1
  Pb  Pb42  1  0.16690333  0.16645779  0.82987803  1
  Pb  Pb43  1  0.49992755  0.16887313  0.83413836  1
  Pb  Pb44  1  0.16317643  0.50007752  0.16699940  1
  Pb  Pb45  1  0.50168622  0.49785081  0.16605779  1
  Pb  Pb46  1  0.50209568  0.83634204  0.16854988  1
  Pb  Pb47  1  0.16375444  0.83351037  0.16964546  1
  Pb  Pb48  1  0.83321799  0.16692522  0.83336392  1
  Pb  Pb49  1  0.16370132  0.83325737  0.83040122  1
  Pb  Pb50  1  0.16694694  0.50037045  0.83325140  1
  Pb  Pb51  1  0.16667604  0.16640037  0.16898197  1
  Pb  Pb52  1  0.50206647  0.83097958  0.83139887  1
  Pb  Pb53  1  0.17028202  0.50028634  0.49982459  1
  I  I54  1  0.16415604  0.00000047  0.16521313  1
  I  I55  1  0.16915842  0.00013666  0.49959792  1
  I  I56  1  0.16469604  -0.00032762  0.83563173  1
  I  I57  1  0.16455603  0.33302060  0.16959385  1
  I  I58  1  0.16436714  0.33019898  0.49940444  1
  I  I59  1  0.16336554  0.33353596  0.83093191  1
  I  I60  1  0.16689855  0.66693627  0.17025140  1
  I  I61  1  0.16294259  0.66995872  0.50101167  1
  I  I62  1  0.16688019  0.66688512  0.82867512  1
  I  I63  1  0.50741586  0.00420673  0.17476540  1
  I  I64  1  0.50064293  0.00031910  0.49563992  1
  I  I65  1  0.50199223  -0.00018109  0.83141171  1
  I  I66  1  0.50814933  0.33013344  0.17535142  1
  I  I67  1  0.50111746  0.33240821  0.50034541  1
  I  I68  1  0.50968871  0.33678066  0.82443024  1
  I  I69  1  0.50215221  0.66675452  0.16935658  1
  I  I70  1  0.50201348  0.66711525  0.50519757  1
  I  I71  1  0.50431667  0.66301344  0.82604829  1
  I  I72  1  0.82991113  0.00028036  0.16933589  1
  I  I73  1  0.83040890  -0.00042637  0.49809439  1
  I  I74  1  0.83422187  -0.00283535  0.83346369  1
  I  I75  1  0.82898981  0.33260978  0.16798726  1
  I  I76  1  0.83331908  0.33042373  0.49720460  1
  I  I77  1  0.82949137  0.33638066  0.83507747  1
  I  I78  1  0.83411422  0.66706621  0.16804594  1
  I  I79  1  0.83354482  0.66950984  0.49774997  1
  I  I80  1  0.82972677  0.66672571  0.83486819  1
  I  I81  1  0.16616640  0.16867015  0.00030352  1
  I  I82  1  0.16594280  0.16207131  0.33733721  1
  I  I83  1  0.16543216  0.16281580  0.66122875  1
  I  I84  1  0.17141022  0.49907278  0.00002834  1
  I  I85  1  0.16562325  0.50018430  0.33382728  1
  I  I86  1  0.16037568  0.49885690  0.66627073  1
  I  I87  1  0.16620420  0.83226112  0.00002925  1
  I  I88  1  0.16439528  0.83824456  0.33787980  1
  I  I89  1  0.16475748  0.83800045  0.66213158  1
  I  I90  1  0.50984524  0.16955415  0.00343818  1
  I  I91  1  0.50165071  0.16906275  0.33567159  1
  I  I92  1  0.50117948  0.16474228  0.66280108  1
  I  I93  1  0.50577221  0.49717846  -0.00263055  1
  I  I94  1  0.50148282  0.50117211  0.33609300  1
  I  I95  1  0.50687555  0.49817838  0.66545546  1
  I  I96  1  0.50230945  0.83350959  0.00013014  1
  I  I97  1  0.50261345  0.82817282  0.33768663  1
  I  I98  1  0.50288736  0.83907661  0.66227763  1
  I  I99  1  0.82778403  0.16429924  0.00338019  1
  I  I100  1  0.83280523  0.16425286  0.33442924  1
  I  I101  1  0.83245954  0.16317564  0.66304167  1
  I  I102  1  0.82694741  0.50336315  -0.00016486  1
  I  I103  1  0.83181198  0.50212301  0.33119337  1
  I  I104  1  0.83145093  0.50311071  0.66880928  1
  I  I105  1  0.83213582  0.83246206  0.00034886  1
  I  I106  1  0.83366467  0.83350907  0.33443282  1
  I  I107  1  0.83351436  0.83314677  0.66506309  1
  I  I108  1  -0.00382604  0.16668238  0.17066469  1
  I  I109  1  -0.00132381  0.15939982  0.49644855  1
  I  I110  1  -0.00041861  0.16936155  0.83327144  1
  I  I111  1  -0.00576534  0.49726222  0.16214194  1
  I  I112  1  -0.00020086  0.49947309  0.50011086  1
  I  I113  1  -0.00370236  0.50363282  0.83671664  1
  I  I114  1  -0.00516497  0.83593097  0.16886603  1
  I  I115  1  -0.00170453  0.84034470  0.49969224  1
  I  I116  1  -0.00489085  0.82671824  0.83131722  1
  I  I117  1  0.33644043  0.16995736  0.17331620  1
  I  I118  1  0.33442325  0.16411585  0.49680394  1
  I  I119  1  0.33360461  0.16967301  0.83348483  1
  I  I120  1  0.33374990  0.49754990  0.16702652  1
  I  I121  1  0.33845027  0.49901992  0.50640976  1
  I  I122  1  0.33672079  0.49692960  0.82495712  1
  I  I123  1  0.33351512  0.83355293  0.16794857  1
  I  I124  1  0.33404809  0.83737466  0.50109772  1
  I  I125  1  0.33338305  0.83225415  0.83168845  1
  I  I126  1  0.66823464  0.16700687  0.17661101  1
  I  I127  1  0.66690910  0.16385486  0.49628893  1
  I  I128  1  0.66684231  0.16500574  0.82731823  1
  I  I129  1  0.67021530  0.50203310  0.16655730  1
  I  I130  1  0.66375522  0.49964037  0.50091432  1
  I  I131  1  0.66784612  0.50345633  0.83172958  1
  I  I132  1  0.67080939  0.83075181  0.17027830  1
  I  I133  1  0.66770208  0.83606527  0.50008236  1
  I  I134  1  0.67061312  0.83191776  0.83011036  1
