# generated using pymatgen
data_Cs27Sn13Pb14I81
_symmetry_space_group_name_H-M   'P 1'
_cell_length_a   18.98745025
_cell_length_b   18.97775217
_cell_length_c   18.96878869
_cell_angle_alpha   90.00060992
_cell_angle_beta   90.00027109
_cell_angle_gamma   90.00020642
_symmetry_Int_Tables_number   1
_chemical_formula_structural   Cs27Sn13Pb14I81
_chemical_formula_sum   'Cs27 Sn13 Pb14 I81'
_cell_volume   6835.19672224
_cell_formula_units_Z   1
loop_
 _symmetry_equiv_pos_site_id
 _symmetry_equiv_pos_as_xyz
  1  'x, y, z'
loop_
 _atom_site_type_symbol
 _atom_site_label
 _atom_site_symmetry_multiplicity
 _atom_site_fract_x
 _atom_site_fract_y
 _atom_site_fract_z
 _atom_site_occupancy
  Cs  Cs0  1  -0.00001989  0.00021973  0.00042857  1
  Cs  Cs1  1  0.00139662  -0.00055911  0.33200993  1
  Cs  Cs2  1  0.00028271  -0.00211719  0.66681220  1
  Cs  Cs3  1  -0.00222053  0.33202971  -0.00079103  1
  Cs  Cs4  1  -0.00578916  0.33159345  0.33427393  1
  Cs  Cs5  1  0.00076915  0.33816019  0.66796573  1
  Cs  Cs6  1  0.00075679  0.66830703  -0.00168493  1
  Cs  Cs7  1  0.00112964  0.66922808  0.33480617  1
  Cs  Cs8  1  0.00193780  0.66481867  0.66811801  1
  Cs  Cs9  1  0.33418170  0.00262005  0.00018833  1
  Cs  Cs10  1  0.33125693  -0.00149014  0.33156609  1
  Cs  Cs11  1  0.33631554  0.00369008  0.67040666  1
  Cs  Cs12  1  0.33225419  0.33059020  -0.00067178  1
  Cs  Cs13  1  0.33486381  0.33393233  0.33350626  1
  Cs  Cs14  1  0.33420695  0.33288513  0.66698452  1
  Cs  Cs15  1  0.33364271  0.66635080  0.00129474  1
  Cs  Cs16  1  0.33379411  0.66806903  0.33234075  1
  Cs  Cs17  1  0.32951947  0.66382407  0.66733610  1
  Cs  Cs18  1  0.66531566  -0.00089497  -0.00170846  1
  Cs  Cs19  1  0.66702613  0.00018648  0.33439708  1
  Cs  Cs20  1  0.66311294  0.00199097  0.66805175  1
  Cs  Cs21  1  0.67074593  0.33852263  0.00089962  1
  Cs  Cs22  1  0.67197962  0.33758331  0.33955939  1
  Cs  Cs23  1  0.66583671  0.33122718  0.66233233  1
  Cs  Cs24  1  0.66647635  0.66384181  -0.00200830  1
  Cs  Cs25  1  0.66457446  0.66480358  0.33243028  1
  Cs  Cs26  1  0.66784707  0.66789726  0.67098231  1
  Sn  Sn27  1  0.16644804  0.49968080  0.16700094  1
  Sn  Sn28  1  0.16662220  0.16586961  0.49918358  1
  Sn  Sn29  1  0.49961726  0.83334315  0.49944182  1
  Sn  Sn30  1  0.50021423  0.49977761  0.83330487  1
  Sn  Sn31  1  0.83251029  0.49892703  0.83331121  1
  Sn  Sn32  1  0.83305783  0.83330845  0.16732428  1
  Sn  Sn33  1  0.16706028  0.83450557  0.49929729  1
  Sn  Sn34  1  0.83323761  0.83345532  0.49919665  1
  Sn  Sn35  1  0.16679152  0.83350484  0.16704056  1
  Sn  Sn36  1  0.50005662  0.83412472  0.16730158  1
  Sn  Sn37  1  0.16727910  0.16677592  0.16764002  1
  Sn  Sn38  1  0.83330928  0.16713546  0.83326714  1
  Sn  Sn39  1  0.50030577  0.16666073  0.16709332  1
  Pb  Pb40  1  0.83333451  0.83334220  0.83320485  1
  Pb  Pb41  1  0.16667797  0.49987703  0.49725238  1
  Pb  Pb42  1  0.49977261  0.83172454  0.83361120  1
  Pb  Pb43  1  0.49842266  0.49979058  0.16558554  1
  Pb  Pb44  1  0.49987516  0.50257491  0.50229403  1
  Pb  Pb45  1  0.16671281  0.49984934  0.83570382  1
  Pb  Pb46  1  0.50223074  0.16899826  0.83599148  1
  Pb  Pb47  1  0.83573105  0.16419177  0.50217577  1
  Pb  Pb48  1  0.49786789  0.16456291  0.49741283  1
  Pb  Pb49  1  0.83561020  0.50276744  0.16521515  1
  Pb  Pb50  1  0.83335309  0.50275954  0.50243378  1
  Pb  Pb51  1  0.16702591  0.83366433  0.83314247  1
  Pb  Pb52  1  0.16487643  0.16656882  0.83328337  1
  Pb  Pb53  1  0.83309266  0.16465019  0.16564320  1
  I  I54  1  0.16696483  -0.00075783  0.17024840  1
  I  I55  1  0.16571696  -0.00141955  0.49164703  1
  I  I56  1  0.16338449  0.00019045  0.83779829  1
  I  I57  1  0.17237971  0.33198796  0.16864138  1
  I  I58  1  0.16633582  0.33011262  0.49609707  1
  I  I59  1  0.16745598  0.33325632  0.83392846  1
  I  I60  1  0.16670427  0.66856902  0.16875669  1
  I  I61  1  0.16636232  0.67039656  0.49659377  1
  I  I62  1  0.16357046  0.66659731  0.83378943  1
  I  I63  1  0.49499624  -0.00147681  0.16867434  1
  I  I64  1  0.50245132  -0.00400611  0.49953357  1
  I  I65  1  0.50181294  0.00028146  0.83226277  1
  I  I66  1  0.49308071  0.33057477  0.16234748  1
  I  I67  1  0.49808689  0.33297905  0.49960332  1
  I  I68  1  0.50106228  0.33655379  0.83614259  1
  I  I69  1  0.49855960  0.67009767  0.16861498  1
  I  I70  1  0.49691604  0.67146024  0.49278986  1
  I  I71  1  0.50740963  0.66404845  0.83554952  1
  I  I72  1  0.83784586  -0.00369110  0.16695794  1
  I  I73  1  0.83221354  -0.00406113  0.49852761  1
  I  I74  1  0.83560493  0.00196284  0.83411768  1
  I  I75  1  0.83427026  0.33335922  0.16507356  1
  I  I76  1  0.83516519  0.33308495  0.49969306  1
  I  I77  1  0.83062130  0.33379672  0.83608207  1
  I  I78  1  0.83311119  0.67117731  0.16762115  1
  I  I79  1  0.83724026  0.67134981  0.49793358  1
  I  I80  1  0.82965452  0.66436264  0.83374102  1
  I  I81  1  0.16916628  0.16501389  0.00373088  1
  I  I82  1  0.16944467  0.16410964  0.33182450  1
  I  I83  1  0.16451689  0.16002197  0.66346202  1
  I  I84  1  0.16656823  0.50188732  0.00378087  1
  I  I85  1  0.16816164  0.50243598  0.32926035  1
  I  I86  1  0.16610595  0.50131379  0.66658382  1
  I  I87  1  0.16581841  0.83376705  0.00421877  1
  I  I88  1  0.16606310  0.83348083  0.33222137  1
  I  I89  1  0.16555475  0.83726695  0.66257333  1
  I  I90  1  0.49183927  0.15833074  0.00384618  1
  I  I91  1  0.49849743  0.16491927  0.32918515  1
  I  I92  1  0.49863913  0.16536145  0.66657981  1
  I  I93  1  0.50362557  0.50304371  -0.00236760  1
  I  I94  1  0.49813796  0.49942516  0.33318931  1
  I  I95  1  0.50361418  0.50189285  0.67038892  1
  I  I96  1  0.49968885  0.83545376  0.00380746  1
  I  I97  1  0.49939778  0.83587166  0.33216607  1
  I  I98  1  0.50044656  0.83111970  0.66341895  1
  I  I99  1  0.83571627  0.16749847  -0.00228335  1
  I  I100  1  0.83221589  0.16725029  0.33342155  1
  I  I101  1  0.83500846  0.16834638  0.66994631  1
  I  I102  1  0.83055319  0.49946619  -0.00284618  1
  I  I103  1  0.83428849  0.49900930  0.33323071  1
  I  I104  1  0.83102454  0.49870761  0.67060314  1
  I  I105  1  0.83444219  0.83320776  0.00304728  1
  I  I106  1  0.83472001  0.83406825  0.33276123  1
  I  I107  1  0.83448173  0.83286824  0.66357235  1
  I  I108  1  0.00317122  0.16512001  0.16799008  1
  I  I109  1  0.00362651  0.16030843  0.49296750  1
  I  I110  1  -0.00282593  0.17248728  0.83600319  1
  I  I111  1  0.00358226  0.49995807  0.16414762  1
  I  I112  1  0.00010867  0.50326566  0.50323083  1
  I  I113  1  -0.00275808  0.49729138  0.83448218  1
  I  I114  1  0.00086236  0.83302402  0.17092721  1
  I  I115  1  0.00068839  0.83658209  0.49425077  1
  I  I116  1  -0.00011830  0.83033554  0.83429139  1
  I  I117  1  0.33211838  0.16150311  0.16835928  1
  I  I118  1  0.32977399  0.16076774  0.49928247  1
  I  I119  1  0.33355280  0.16812767  0.83231516  1
  I  I120  1  0.33043524  0.50505542  0.16353588  1
  I  I121  1  0.33313570  0.50290190  0.50419879  1
  I  I122  1  0.33572500  0.50313721  0.83492581  1
  I  I123  1  0.33285357  0.83308444  0.17142806  1
  I  I124  1  0.33269574  0.83579042  0.49313910  1
  I  I125  1  0.33348309  0.82988657  0.83375779  1
  I  I126  1  0.66410662  0.16001751  0.16234559  1
  I  I127  1  0.66667477  0.16456886  0.50042221  1
  I  I128  1  0.66981344  0.16649416  0.83499069  1
  I  I129  1  0.66683676  0.50115335  0.16520263  1
  I  I130  1  0.66669035  0.50176048  0.49724436  1
  I  I131  1  0.66735410  0.49818666  0.83604217  1
  I  I132  1  0.66610894  0.83784787  0.17153802  1
  I  I133  1  0.66656461  0.83140759  0.49389515  1
  I  I134  1  0.66673768  0.83431022  0.83381689  1
