# generated using pymatgen
data_Cs27Sn13Pb14I81
_symmetry_space_group_name_H-M   'P 1'
_cell_length_a   18.97555895
_cell_length_b   18.97572010
_cell_length_c   18.98056940
_cell_angle_alpha   89.99943688
_cell_angle_beta   90.00031918
_cell_angle_gamma   90.00072765
_symmetry_Int_Tables_number   1
_chemical_formula_structural   Cs27Sn13Pb14I81
_chemical_formula_sum   'Cs27 Sn13 Pb14 I81'
_cell_volume   6834.42654213
_cell_formula_units_Z   1
loop_
 _symmetry_equiv_pos_site_id
 _symmetry_equiv_pos_as_xyz
  1  'x, y, z'
loop_
 _atom_site_type_symbol
 _atom_site_label
 _atom_site_symmetry_multiplicity
 _atom_site_fract_x
 _atom_site_fract_y
 _atom_site_fract_z
 _atom_site_occupancy
  Cs  Cs0  1  0.00381194  0.00074971  0.00310404  1
  Cs  Cs1  1  0.00221927  0.00061404  0.33411460  1
  Cs  Cs2  1  -0.00323221  -0.00323247  0.66481381  1
  Cs  Cs3  1  0.00263139  0.33181264  -0.00032727  1
  Cs  Cs4  1  0.00128731  0.33398844  0.33362341  1
  Cs  Cs5  1  -0.00181050  0.33417414  0.66483659  1
  Cs  Cs6  1  -0.00060161  0.66779498  -0.00093719  1
  Cs  Cs7  1  0.00034108  0.66406331  0.33051657  1
  Cs  Cs8  1  0.00055103  0.66923484  0.66819104  1
  Cs  Cs9  1  0.32607269  0.00218846  0.00184260  1
  Cs  Cs10  1  0.33320686  -0.00040955  0.33385341  1
  Cs  Cs11  1  0.33598290  -0.00184819  0.66551564  1
  Cs  Cs12  1  0.33104809  0.33293433  -0.00997051  1
  Cs  Cs13  1  0.33115247  0.33314197  0.33422946  1
  Cs  Cs14  1  0.33521425  0.33514291  0.67208869  1
  Cs  Cs15  1  0.33455676  0.66460176  0.00021315  1
  Cs  Cs16  1  0.33436145  0.66668086  0.33050549  1
  Cs  Cs17  1  0.33130143  0.66711293  0.66900119  1
  Cs  Cs18  1  0.66738254  -0.00083379  -0.00098472  1
  Cs  Cs19  1  0.66563419  0.00140487  0.33463576  1
  Cs  Cs20  1  0.66737811  -0.00012254  0.66635154  1
  Cs  Cs21  1  0.66484412  0.33258456  -0.00095447  1
  Cs  Cs22  1  0.66688076  0.33528667  0.33473636  1
  Cs  Cs23  1  0.66572574  0.33385745  0.66556102  1
  Cs  Cs24  1  0.66639950  0.66865492  0.00802146  1
  Cs  Cs25  1  0.66555755  0.66026403  0.32576289  1
  Cs  Cs26  1  0.66777813  0.66974613  0.66531110  1
  Sn  Sn27  1  0.16668333  0.49941597  0.49947411  1
  Sn  Sn28  1  0.83207284  0.83364641  0.49985562  1
  Sn  Sn29  1  0.83313263  0.16625727  0.49984712  1
  Sn  Sn30  1  0.83324429  0.16657672  0.83324033  1
  Sn  Sn31  1  0.83278836  0.50022889  0.83310514  1
  Sn  Sn32  1  0.16683652  0.49960440  0.16712679  1
  Sn  Sn33  1  0.50090263  0.83385033  0.83284148  1
  Sn  Sn34  1  0.50009181  0.16631237  0.49942226  1
  Sn  Sn35  1  0.83228593  0.83337064  0.83278935  1
  Sn  Sn36  1  0.50040752  0.16673906  0.16711391  1
  Sn  Sn37  1  0.83251531  0.16659446  0.16710694  1
  Sn  Sn38  1  0.50144071  0.83373334  0.50044546  1
  Sn  Sn39  1  0.16689568  0.16751292  0.50036503  1
  Pb  Pb40  1  0.83492988  0.49699917  0.16415536  1
  Pb  Pb41  1  0.16674966  0.83324525  0.49987394  1
  Pb  Pb42  1  0.16456412  0.50002755  0.83285246  1
  Pb  Pb43  1  0.50201416  0.16465639  0.83303260  1
  Pb  Pb44  1  0.16672773  0.83046014  0.16690610  1
  Pb  Pb45  1  0.16652156  0.83353939  0.83327211  1
  Pb  Pb46  1  0.49770534  0.50033280  0.50009596  1
  Pb  Pb47  1  0.16696141  0.16815011  0.16879874  1
  Pb  Pb48  1  0.50005207  0.83588817  0.16695174  1
  Pb  Pb49  1  0.16385837  0.16635386  0.82989298  1
  Pb  Pb50  1  0.83340840  0.83572715  0.16720016  1
  Pb  Pb51  1  0.50311589  0.50328576  0.83314618  1
  Pb  Pb52  1  0.83485413  0.50048023  0.50128290  1
  Pb  Pb53  1  0.49751363  0.49634814  0.16658656  1
  I  I54  1  0.16641508  0.00064913  0.16679460  1
  I  I55  1  0.16545425  0.00310409  0.50038412  1
  I  I56  1  0.16414795  0.00018688  0.83329003  1
  I  I57  1  0.16502314  0.33571944  0.17018476  1
  I  I58  1  0.16461322  0.33204978  0.49590798  1
  I  I59  1  0.16486897  0.33311891  0.83457865  1
  I  I60  1  0.16533728  0.66242619  0.17431878  1
  I  I61  1  0.16551577  0.66395032  0.49660635  1
  I  I62  1  0.16361185  0.66661901  0.83118673  1
  I  I63  1  0.50404514  0.00388328  0.16912575  1
  I  I64  1  0.49878455  0.00105783  0.50024223  1
  I  I65  1  0.50698787  -0.00310610  0.83091844  1
  I  I66  1  0.50564566  0.32846791  0.17378782  1
  I  I67  1  0.50330316  0.32975512  0.49587195  1
  I  I68  1  0.50098333  0.33301317  0.83357446  1
  I  I69  1  0.49799819  0.66660430  0.16686390  1
  I  I70  1  0.50327663  0.67032695  0.50489560  1
  I  I71  1  0.50408135  0.67129596  0.82606506  1
  I  I72  1  0.83101967  0.00413388  0.16316526  1
  I  I73  1  0.83509513  0.00138451  0.50421765  1
  I  I74  1  0.82954663  0.00001077  0.83131552  1
  I  I75  1  0.83062694  0.32881897  0.16856178  1
  I  I76  1  0.83181871  0.32993233  0.50125014  1
  I  I77  1  0.83597028  0.33202581  0.83292897  1
  I  I78  1  0.83569032  0.66644854  0.16638603  1
  I  I79  1  0.83153358  0.66990658  0.50619278  1
  I  I80  1  0.83165185  0.66798736  0.82704955  1
  I  I81  1  0.16678033  0.16879399  0.00005955  1
  I  I82  1  0.16174173  0.16822935  0.33691089  1
  I  I83  1  0.16787157  0.17308250  0.66170427  1
  I  I84  1  0.16466274  0.49963602  0.00238105  1
  I  I85  1  0.16491968  0.49502786  0.33446319  1
  I  I86  1  0.16533205  0.49601418  0.66366578  1
  I  I87  1  0.16612890  0.83206721  -0.00009324  1
  I  I88  1  0.16591367  0.83559257  0.33394844  1
  I  I89  1  0.16598820  0.83083943  0.66629206  1
  I  I90  1  0.50521471  0.16610378  0.00220817  1
  I  I91  1  0.50435908  0.16152961  0.33513037  1
  I  I92  1  0.50007528  0.16494003  0.66332105  1
  I  I93  1  0.49687251  0.49957508  -0.00011775  1
  I  I94  1  0.50268659  0.50446025  0.33340962  1
  I  I95  1  0.49648724  0.49439628  0.66660295  1
  I  I96  1  0.50589852  0.83326417  -0.00291309  1
  I  I97  1  0.50346371  0.83616727  0.33697598  1
  I  I98  1  0.50399707  0.83952332  0.66540064  1
  I  I99  1  0.82864501  0.16722391  -0.00024312  1
  I  I100  1  0.83356480  0.16233421  0.33480767  1
  I  I101  1  0.83448639  0.16613318  0.66587776  1
  I  I102  1  0.83619393  0.50151863  -0.00377548  1
  I  I103  1  0.83375230  0.50027256  0.33320894  1
  I  I104  1  0.83656957  0.49562586  0.66928017  1
  I  I105  1  0.82958769  0.83353048  -0.00334239  1
  I  I106  1  0.83037005  0.83844841  0.33708175  1
  I  I107  1  0.83076278  0.83809098  0.66640757  1
  I  I108  1  -0.00284243  0.16773766  0.16646452  1
  I  I109  1  -0.00140261  0.16654455  0.50045516  1
  I  I110  1  -0.00498053  0.16419642  0.83500755  1
  I  I111  1  0.00260445  0.49701803  0.17152498  1
  I  I112  1  0.00277304  0.49506108  0.49751970  1
  I  I113  1  -0.00355001  0.50167123  0.83258748  1
  I  I114  1  -0.00033587  0.83681457  0.16641542  1
  I  I115  1  -0.00333416  0.83745524  0.50537340  1
  I  I116  1  -0.00422336  0.83314127  0.82811571  1
  I  I117  1  0.33605763  0.16663199  0.17232994  1
  I  I118  1  0.33424739  0.16552023  0.49382977  1
  I  I119  1  0.33356889  0.16556327  0.83462576  1
  I  I120  1  0.32972076  0.49921649  0.17191589  1
  I  I121  1  0.32958188  0.49567161  0.49678740  1
  I  I122  1  0.33338983  0.50119866  0.83406364  1
  I  I123  1  0.33366705  0.83673549  0.16664215  1
  I  I124  1  0.33662363  0.83710681  0.50418180  1
  I  I125  1  0.33677139  0.83373480  0.82763887  1
  I  I126  1  0.66754411  0.16638470  0.17142080  1
  I  I127  1  0.66739290  0.16201864  0.49966598  1
  I  I128  1  0.67058372  0.16859461  0.82949790  1
  I  I129  1  0.66676511  0.50123339  0.16521165  1
  I  I130  1  0.66678214  0.49726285  0.50200273  1
  I  I131  1  0.67106244  0.49520221  0.83187365  1
  I  I132  1  0.66679824  0.83008047  0.16628128  1
  I  I133  1  0.66723184  0.84298040  0.50608149  1
  I  I134  1  0.66818084  0.83410697  0.82773063  1
