# generated using pymatgen
data_Cs27Sn14Pb13I81
_symmetry_space_group_name_H-M   'P 1'
_cell_length_a   18.97407412
_cell_length_b   18.96944120
_cell_length_c   18.98712528
_cell_angle_alpha   89.99960793
_cell_angle_beta   89.99988223
_cell_angle_gamma   90.00038486
_symmetry_Int_Tables_number   1
_chemical_formula_structural   Cs27Sn14Pb13I81
_chemical_formula_sum   'Cs27 Sn14 Pb13 I81'
_cell_volume   6833.99011575
_cell_formula_units_Z   1
loop_
 _symmetry_equiv_pos_site_id
 _symmetry_equiv_pos_as_xyz
  1  'x, y, z'
loop_
 _atom_site_type_symbol
 _atom_site_label
 _atom_site_symmetry_multiplicity
 _atom_site_fract_x
 _atom_site_fract_y
 _atom_site_fract_z
 _atom_site_occupancy
  Cs  Cs0  1  -0.00321401  0.00574508  0.00010310  1
  Cs  Cs1  1  0.00072077  0.00128910  0.33243423  1
  Cs  Cs2  1  -0.00212771  -0.00100760  0.66873961  1
  Cs  Cs3  1  0.00410122  0.32500311  -0.00036701  1
  Cs  Cs4  1  0.00356134  0.32891493  0.33497207  1
  Cs  Cs5  1  0.00735081  0.33305120  0.66382152  1
  Cs  Cs6  1  0.00148990  0.66657403  0.00136619  1
  Cs  Cs7  1  -0.00072163  0.66733814  0.33248443  1
  Cs  Cs8  1  -0.00109386  0.66729960  0.66751679  1
  Cs  Cs9  1  0.33540461  -0.00144609  -0.00302072  1
  Cs  Cs10  1  0.33408180  -0.00093096  0.33383765  1
  Cs  Cs11  1  0.33544837  0.00034501  0.67042151  1
  Cs  Cs12  1  0.32976535  0.33280159  -0.00281477  1
  Cs  Cs13  1  0.33347496  0.33231269  0.33526508  1
  Cs  Cs14  1  0.32801097  0.33107209  0.66580316  1
  Cs  Cs15  1  0.33163897  0.66704586  0.00266266  1
  Cs  Cs16  1  0.33376569  0.66751457  0.33116225  1
  Cs  Cs17  1  0.33264668  0.66790012  0.66733870  1
  Cs  Cs18  1  0.66830452  0.00395090  -0.00544037  1
  Cs  Cs19  1  0.66605348  0.00199894  0.33436790  1
  Cs  Cs20  1  0.66727753  -0.00477798  0.67224908  1
  Cs  Cs21  1  0.66657819  0.33512625  0.00029322  1
  Cs  Cs22  1  0.66632638  0.33434964  0.33414454  1
  Cs  Cs23  1  0.66598396  0.33621140  0.66315363  1
  Cs  Cs24  1  0.66753391  0.66355183  0.00135741  1
  Cs  Cs25  1  0.66680417  0.66553117  0.33330888  1
  Cs  Cs26  1  0.66801898  0.66728387  0.66586386  1
  Sn  Sn27  1  0.50024156  0.16713547  0.16717939  1
  Sn  Sn28  1  0.16650351  0.83303887  0.83374451  1
  Sn  Sn29  1  0.83285434  0.83306443  0.16687696  1
  Sn  Sn30  1  0.50130437  0.16711898  0.49941636  1
  Sn  Sn31  1  0.50089556  0.83363390  0.16678546  1
  Sn  Sn32  1  0.83206215  0.16728749  0.50000903  1
  Sn  Sn33  1  0.50049480  0.49963456  0.16668199  1
  Sn  Sn34  1  0.83281291  0.49919864  0.49969245  1
  Sn  Sn35  1  0.16675169  0.83309324  0.49990110  1
  Sn  Sn36  1  0.50046644  0.49954545  0.49996383  1
  Sn  Sn37  1  0.83316336  0.49974058  0.83362457  1
  Sn  Sn38  1  0.50038406  0.50012978  0.83321869  1
  Sn  Sn39  1  0.83313453  0.50013790  0.16652360  1
  Sn  Sn40  1  0.16639866  0.83314411  0.16668732  1
  Pb  Pb41  1  0.16638300  0.50129823  0.16681884  1
  Pb  Pb42  1  0.16671976  0.50210930  0.49973546  1
  Pb  Pb43  1  0.49867300  0.83325657  0.49836701  1
  Pb  Pb44  1  0.50030467  0.16960219  0.83276950  1
  Pb  Pb45  1  0.83484938  0.83309805  0.49802460  1
  Pb  Pb46  1  0.83105404  0.16742719  0.16845063  1
  Pb  Pb47  1  0.16718425  0.16388154  0.49988140  1
  Pb  Pb48  1  0.49877072  0.83057278  0.83616292  1
  Pb  Pb49  1  0.16638226  0.50155796  0.83343148  1
  Pb  Pb50  1  0.83291291  0.17018472  0.82992017  1
  Pb  Pb51  1  0.83502180  0.83092436  0.83629036  1
  Pb  Pb52  1  0.16667008  0.16361514  0.83328223  1
  Pb  Pb53  1  0.16998461  0.16371038  0.16680636  1
  I  I54  1  0.16497079  -0.00499132  0.16733284  1
  I  I55  1  0.16680716  -0.00398989  0.49797568  1
  I  I56  1  0.16786518  -0.00474983  0.83415026  1
  I  I57  1  0.16603501  0.33295893  0.16646038  1
  I  I58  1  0.16649627  0.33317934  0.50068959  1
  I  I59  1  0.16691027  0.33347561  0.83286498  1
  I  I60  1  0.17167895  0.67024064  0.16681575  1
  I  I61  1  0.16707161  0.67008100  0.49847461  1
  I  I62  1  0.16741207  0.66969839  0.83465769  1
  I  I63  1  0.49773290  -0.00034246  0.17306558  1
  I  I64  1  0.50170776  0.00273244  0.49373331  1
  I  I65  1  0.49651402  -0.00014273  0.83324360  1
  I  I66  1  0.50608525  0.33469008  0.16753807  1
  I  I67  1  0.50326423  0.33447758  0.49462407  1
  I  I68  1  0.50382113  0.33776256  0.83897378  1
  I  I69  1  0.49913535  0.66607951  0.16692104  1
  I  I70  1  0.50301886  0.66325831  0.49899149  1
  I  I71  1  0.50327182  0.66250392  0.83175942  1
  I  I72  1  0.83418051  -0.00249540  0.16942653  1
  I  I73  1  0.83095499  0.00241230  0.49645583  1
  I  I74  1  0.83628117  0.00000363  0.83318492  1
  I  I75  1  0.82752110  0.33693721  0.16488098  1
  I  I76  1  0.82914239  0.33495401  0.49776585  1
  I  I77  1  0.82885219  0.33829204  0.84093689  1
  I  I78  1  0.82954349  0.66585378  0.16908952  1
  I  I79  1  0.82999925  0.66319135  0.50110868  1
  I  I80  1  0.82928641  0.66291944  0.82768558  1
  I  I81  1  0.16746087  0.16544381  0.00030034  1
  I  I82  1  0.16486580  0.16335893  0.33338562  1
  I  I83  1  0.16894230  0.16392862  0.66626465  1
  I  I84  1  0.16801914  0.50451124  0.00012568  1
  I  I85  1  0.16706210  0.50510793  0.33333155  1
  I  I86  1  0.16717922  0.50511747  0.66653473  1
  I  I87  1  0.16833671  0.83108430  0.00120304  1
  I  I88  1  0.16741484  0.83262803  0.33202150  1
  I  I89  1  0.16690364  0.83189034  0.66665744  1
  I  I90  1  0.49849173  0.16562556  0.00301362  1
  I  I91  1  0.50292961  0.17082056  0.33334248  1
  I  I92  1  0.50222809  0.17086716  0.66299841  1
  I  I93  1  0.50533248  0.50174195  0.00130109  1
  I  I94  1  0.50492036  0.50050650  0.33289244  1
  I  I95  1  0.50546780  0.49622763  0.66571934  1
  I  I96  1  0.49712877  0.83377176  0.00470291  1
  I  I97  1  0.49706155  0.82852626  0.32986490  1
  I  I98  1  0.49582652  0.83345569  0.66680415  1
  I  I99  1  0.83353721  0.16589222  0.00003916  1
  I  I100  1  0.83160803  0.17161247  0.33623042  1
  I  I101  1  0.82689180  0.16944267  0.66191116  1
  I  I102  1  0.82598286  0.50789528  0.00100838  1
  I  I103  1  0.82722060  0.50174988  0.33311253  1
  I  I104  1  0.82715371  0.49656700  0.66593923  1
  I  I105  1  0.83443893  0.82810389  0.00452174  1
  I  I106  1  0.83523662  0.82737804  0.32991967  1
  I  I107  1  0.83730245  0.83284062  0.66669332  1
  I  I108  1  -0.00020600  0.16626227  0.16812831  1
  I  I109  1  -0.00284759  0.17141279  0.50016924  1
  I  I110  1  -0.00037085  0.16921728  0.83226057  1
  I  I111  1  -0.00374310  0.50639487  0.16708682  1
  I  I112  1  -0.00361657  0.49724695  0.50001805  1
  I  I113  1  -0.00338706  0.50308334  0.83265857  1
  I  I114  1  -0.00027892  0.82647295  0.16739269  1
  I  I115  1  0.00288976  0.83242807  0.49659812  1
  I  I116  1  0.00303817  0.82977629  0.83484381  1
  I  I117  1  0.33825000  0.16902153  0.17371393  1
  I  I118  1  0.33695276  0.17082795  0.49579798  1
  I  I119  1  0.33372620  0.16942659  0.83165411  1
  I  I120  1  0.33716402  0.50143096  0.16690083  1
  I  I121  1  0.33701872  0.49712717  0.49928532  1
  I  I122  1  0.33654934  0.50164654  0.83416388  1
  I  I123  1  0.33377552  0.83269262  0.16705738  1
  I  I124  1  0.33059383  0.83240747  0.49652798  1
  I  I125  1  0.33062845  0.83044342  0.83544491  1
  I  I126  1  0.66300409  0.16181520  0.16900018  1
  I  I127  1  0.66573945  0.17127199  0.49440829  1
  I  I128  1  0.66659700  0.16060212  0.83616877  1
  I  I129  1  0.66596434  0.50555392  0.16708968  1
  I  I130  1  0.66633967  0.49738524  0.49934464  1
  I  I131  1  0.66642350  0.50120186  0.83394143  1
  I  I132  1  0.66621879  0.83027550  0.16865741  1
  I  I133  1  0.66670205  0.83336713  0.49800510  1
  I  I134  1  0.66680683  0.83493139  0.83376480  1
