# generated using pymatgen
data_Cs27Sn14Pb13I81
_symmetry_space_group_name_H-M   'P 1'
_cell_length_a   18.98131229
_cell_length_b   18.96764471
_cell_length_c   18.98122412
_cell_angle_alpha   90.00024232
_cell_angle_beta   90.00086662
_cell_angle_gamma   90.00057847
_symmetry_Int_Tables_number   1
_chemical_formula_structural   Cs27Sn14Pb13I81
_chemical_formula_sum   'Cs27 Sn14 Pb13 I81'
_cell_volume   6833.82506845
_cell_formula_units_Z   1
loop_
 _symmetry_equiv_pos_site_id
 _symmetry_equiv_pos_as_xyz
  1  'x, y, z'
loop_
 _atom_site_type_symbol
 _atom_site_label
 _atom_site_symmetry_multiplicity
 _atom_site_fract_x
 _atom_site_fract_y
 _atom_site_fract_z
 _atom_site_occupancy
  Cs  Cs0  1  0.00209738  0.00065300  -0.00222962  1
  Cs  Cs1  1  -0.00070402  -0.00010301  0.33141603  1
  Cs  Cs2  1  0.00107010  -0.00047534  0.66914321  1
  Cs  Cs3  1  -0.00162699  0.33749407  0.00236252  1
  Cs  Cs4  1  0.00094993  0.34055128  0.33408223  1
  Cs  Cs5  1  0.00126309  0.33824061  0.66353397  1
  Cs  Cs6  1  0.00309350  0.65853397  -0.00147700  1
  Cs  Cs7  1  -0.00867381  0.66103025  0.33558076  1
  Cs  Cs8  1  -0.00431162  0.66320473  0.66495264  1
  Cs  Cs9  1  0.33172591  -0.00045357  -0.00115863  1
  Cs  Cs10  1  0.33292043  0.00039862  0.33364565  1
  Cs  Cs11  1  0.33335755  -0.00001249  0.66693205  1
  Cs  Cs12  1  0.33374095  0.33622017  0.00013785  1
  Cs  Cs13  1  0.33094916  0.33254075  0.33641211  1
  Cs  Cs14  1  0.33396344  0.33286768  0.66408198  1
  Cs  Cs15  1  0.33415947  0.66214030  0.00337805  1
  Cs  Cs16  1  0.33506608  0.66788273  0.32936460  1
  Cs  Cs17  1  0.33427830  0.67141226  0.66819189  1
  Cs  Cs18  1  0.66716252  0.00135026  -0.00047224  1
  Cs  Cs19  1  0.66871531  -0.00058242  0.33125921  1
  Cs  Cs20  1  0.66569075  0.00056955  0.66750094  1
  Cs  Cs21  1  0.66819249  0.33557335  0.00093967  1
  Cs  Cs22  1  0.66801044  0.32949144  0.33244537  1
  Cs  Cs23  1  0.66418703  0.33119239  0.66764649  1
  Cs  Cs24  1  0.66392625  0.65927018  0.00721922  1
  Cs  Cs25  1  0.67236621  0.66845389  0.32925172  1
  Cs  Cs26  1  0.66831156  0.66543915  0.66509110  1
  Sn  Sn27  1  0.49977577  0.50060787  0.50009452  1
  Sn  Sn28  1  0.50048971  0.83396951  0.83319550  1
  Sn  Sn29  1  0.83289492  0.83384732  0.83374530  1
  Sn  Sn30  1  0.16688415  0.83370362  0.49988074  1
  Sn  Sn31  1  0.83306807  0.16585667  0.50091584  1
  Sn  Sn32  1  0.49978255  0.16582396  0.83367849  1
  Sn  Sn33  1  0.49953427  0.83333800  0.50031520  1
  Sn  Sn34  1  0.49886080  0.16596719  0.16634774  1
  Sn  Sn35  1  0.50071387  0.16609944  0.49992447  1
  Sn  Sn36  1  0.16674278  0.16652998  0.83400992  1
  Sn  Sn37  1  0.16747950  0.16571595  0.16585042  1
  Sn  Sn38  1  0.16637975  0.83418344  0.16658182  1
  Sn  Sn39  1  0.83359100  0.16591679  0.83222271  1
  Sn  Sn40  1  0.16662568  0.83393544  0.83342890  1
  Pb  Pb41  1  0.49852026  0.83540449  0.16632543  1
  Pb  Pb42  1  0.83670917  0.83375730  0.16286810  1
  Pb  Pb43  1  0.83314445  0.49995531  0.16664641  1
  Pb  Pb44  1  0.83026462  0.49664870  0.50042543  1
  Pb  Pb45  1  0.49974065  0.49654474  0.16981882  1
  Pb  Pb46  1  0.83297400  0.49968273  0.83311553  1
  Pb  Pb47  1  0.49989638  0.50022398  0.83136088  1
  Pb  Pb48  1  0.83291244  0.83553577  0.50187298  1
  Pb  Pb49  1  0.16941670  0.50407874  0.50019325  1
  Pb  Pb50  1  0.16700768  0.49973991  0.16683452  1
  Pb  Pb51  1  0.83411702  0.16644740  0.16616145  1
  Pb  Pb52  1  0.16708700  0.49990137  0.83295627  1
  Pb  Pb53  1  0.16649149  0.16502218  0.50012713  1
  I  I54  1  0.17110163  0.00057766  0.16483976  1
  I  I55  1  0.17298755  -0.00302290  0.50112768  1
  I  I56  1  0.16709713  -0.00007315  0.83399742  1
  I  I57  1  0.17001920  0.32937228  0.16172677  1
  I  I58  1  0.16656324  0.33312819  0.49951283  1
  I  I59  1  0.16686602  0.32908248  0.83816392  1
  I  I60  1  0.16734304  0.67023446  0.16433590  1
  I  I61  1  0.17129645  0.67243595  0.50179652  1
  I  I62  1  0.16695134  0.67105065  0.83413748  1
  I  I63  1  0.49813496  0.00370910  0.17104052  1
  I  I64  1  0.49938410  0.00043946  0.50176285  1
  I  I65  1  0.49922040  0.00074776  0.82861075  1
  I  I66  1  0.49440302  0.32801737  0.16454670  1
  I  I67  1  0.50494375  0.33123509  0.50009831  1
  I  I68  1  0.50034478  0.32928016  0.83265559  1
  I  I69  1  0.49826068  0.66683193  0.16596279  1
  I  I70  1  0.49334821  0.66844215  0.50658887  1
  I  I71  1  0.49880725  0.67063755  0.82843495  1
  I  I72  1  0.83078216  0.00024817  0.17035679  1
  I  I73  1  0.82649435  0.00342723  0.50218013  1
  I  I74  1  0.83352719  0.00103392  0.82918789  1
  I  I75  1  0.83495813  0.33247980  0.16515661  1
  I  I76  1  0.82943038  0.32844120  0.50613616  1
  I  I77  1  0.83249332  0.32898996  0.83039296  1
  I  I78  1  0.83424490  0.66729616  0.16605602  1
  I  I79  1  0.83376006  0.66690193  0.50122052  1
  I  I80  1  0.83513367  0.67025225  0.83289354  1
  I  I81  1  0.16987269  0.15888365  -0.00104070  1
  I  I82  1  0.17070816  0.16175750  0.33114518  1
  I  I83  1  0.16888020  0.16229526  0.66960857  1
  I  I84  1  0.16717724  0.50366895  -0.00007404  1
  I  I85  1  0.16753066  0.49743857  0.33353797  1
  I  I86  1  0.16666299  0.49742738  0.66646321  1
  I  I87  1  0.16641770  0.83872695  -0.00120064  1
  I  I88  1  0.17411969  0.83885657  0.33346963  1
  I  I89  1  0.16878237  0.83785590  0.66771454  1
  I  I90  1  0.49989084  0.16121336  -0.00133108  1
  I  I91  1  0.50008198  0.16717655  0.33434514  1
  I  I92  1  0.50050225  0.16667416  0.66681057  1
  I  I93  1  0.50032354  0.50060041  0.00025122  1
  I  I94  1  0.49894063  0.50149493  0.33764831  1
  I  I95  1  0.49990537  0.49467160  0.66359717  1
  I  I96  1  0.49950389  0.83883917  -0.00341211  1
  I  I97  1  0.49454304  0.83480183  0.33637272  1
  I  I98  1  0.49494854  0.83774378  0.66678984  1
  I  I99  1  0.83064879  0.16252647  -0.00372123  1
  I  I100  1  0.82848774  0.16720989  0.33598514  1
  I  I101  1  0.82931172  0.16301928  0.66776469  1
  I  I102  1  0.83297922  0.49787398  -0.00037905  1
  I  I103  1  0.83351892  0.49847333  0.33394971  1
  I  I104  1  0.83397654  0.50146585  0.66657187  1
  I  I105  1  0.83103134  0.84281083  -0.00525384  1
  I  I106  1  0.83349619  0.83382297  0.33331207  1
  I  I107  1  0.83785335  0.83627743  0.66999406  1
  I  I108  1  0.00358889  0.16201617  0.16335674  1
  I  I109  1  -0.00213948  0.16308635  0.50352891  1
  I  I110  1  0.00040248  0.15982217  0.83332123  1
  I  I111  1  0.00040067  0.49758573  0.16750214  1
  I  I112  1  -0.00017089  0.49939709  0.49899448  1
  I  I113  1  0.00004059  0.49997707  0.83298709  1
  I  I114  1  0.00502461  0.84209480  0.16865636  1
  I  I115  1  0.00251837  0.83708741  0.50109999  1
  I  I116  1  0.00098530  0.84068964  0.83326263  1
  I  I117  1  0.33334908  0.16293502  0.16430560  1
  I  I118  1  0.33647017  0.16828810  0.50192965  1
  I  I119  1  0.33380736  0.16139667  0.83315945  1
  I  I120  1  0.33350328  0.50144207  0.16659024  1
  I  I121  1  0.33697474  0.49145235  0.50076090  1
  I  I122  1  0.33352523  0.49924658  0.83245591  1
  I  I123  1  0.33030289  0.83609168  0.16299026  1
  I  I124  1  0.33445457  0.83596984  0.50516794  1
  I  I125  1  0.33333430  0.83932467  0.83104163  1
  I  I126  1  0.66384186  0.16782603  0.16557236  1
  I  I127  1  0.66464251  0.16568469  0.50276085  1
  I  I128  1  0.66573190  0.16125319  0.83203015  1
  I  I129  1  0.66601623  0.49878730  0.16616512  1
  I  I130  1  0.66259134  0.50515043  0.50133372  1
  I  I131  1  0.66644043  0.49989786  0.83254877  1
  I  I132  1  0.66671164  0.83392691  0.16759050  1
  I  I133  1  0.66308780  0.83226534  0.50490225  1
  I  I134  1  0.66558553  0.84117985  0.82601646  1
