# generated using pymatgen
data_Cs27Sn14Pb13I81
_symmetry_space_group_name_H-M   'P 1'
_cell_length_a   18.97389952
_cell_length_b   18.97380010
_cell_length_c   18.97931154
_cell_angle_alpha   90.00111093
_cell_angle_beta   89.99791526
_cell_angle_gamma   89.99940105
_symmetry_Int_Tables_number   1
_chemical_formula_structural   Cs27Sn14Pb13I81
_chemical_formula_sum   'Cs27 Sn14 Pb13 I81'
_cell_volume   6832.68455825
_cell_formula_units_Z   1
loop_
 _symmetry_equiv_pos_site_id
 _symmetry_equiv_pos_as_xyz
  1  'x, y, z'
loop_
 _atom_site_type_symbol
 _atom_site_label
 _atom_site_symmetry_multiplicity
 _atom_site_fract_x
 _atom_site_fract_y
 _atom_site_fract_z
 _atom_site_occupancy
  Cs  Cs0  1  0.00104765  -0.00005387  -0.00023701  1
  Cs  Cs1  1  0.00031258  0.00407987  0.33350636  1
  Cs  Cs2  1  0.00102683  -0.00173713  0.66618464  1
  Cs  Cs3  1  -0.00285467  0.33083624  0.00033982  1
  Cs  Cs4  1  -0.00028480  0.33115633  0.33687794  1
  Cs  Cs5  1  0.00225475  0.33350196  0.66291426  1
  Cs  Cs6  1  -0.00087668  0.66722305  0.00000281  1
  Cs  Cs7  1  0.00309862  0.66346258  0.32845512  1
  Cs  Cs8  1  0.00122580  0.66815575  0.66898115  1
  Cs  Cs9  1  0.33117613  0.00058835  -0.00185222  1
  Cs  Cs10  1  0.33511272  -0.00260759  0.33259257  1
  Cs  Cs11  1  0.33276207  -0.00133253  0.66897420  1
  Cs  Cs12  1  0.33724047  0.33635418  -0.00395458  1
  Cs  Cs13  1  0.33255458  0.33389959  0.33649621  1
  Cs  Cs14  1  0.33383610  0.33666300  0.66738923  1
  Cs  Cs15  1  0.33352661  0.66146155  0.00602541  1
  Cs  Cs16  1  0.33463923  0.66978507  0.32435206  1
  Cs  Cs17  1  0.33011063  0.66794167  0.66789273  1
  Cs  Cs18  1  0.66874467  0.00370326  -0.00160242  1
  Cs  Cs19  1  0.66482253  -0.00083516  0.33648413  1
  Cs  Cs20  1  0.66641742  -0.00539507  0.66510955  1
  Cs  Cs21  1  0.66638135  0.33206071  -0.00029949  1
  Cs  Cs22  1  0.66807769  0.33323415  0.33374152  1
  Cs  Cs23  1  0.66430126  0.33387512  0.66641721  1
  Cs  Cs24  1  0.66959757  0.66450424  0.00114533  1
  Cs  Cs25  1  0.66301575  0.66669383  0.33583346  1
  Cs  Cs26  1  0.66856742  0.67109863  0.66337893  1
  Sn  Sn27  1  0.50005251  0.16708629  0.49965729  1
  Sn  Sn28  1  0.83284611  0.49982626  0.50012740  1
  Sn  Sn29  1  0.16582009  0.16632391  0.83389426  1
  Sn  Sn30  1  0.16654305  0.83340332  0.50002841  1
  Sn  Sn31  1  0.83343642  0.49885605  0.83285589  1
  Sn  Sn32  1  0.16685738  0.16679595  0.16580607  1
  Sn  Sn33  1  0.49906395  0.83305076  0.83404645  1
  Sn  Sn34  1  0.83310857  0.49972010  0.16691307  1
  Sn  Sn35  1  0.16781528  0.83384278  0.83308418  1
  Sn  Sn36  1  0.50033982  0.49957818  0.50013968  1
  Sn  Sn37  1  0.83332442  0.16652080  0.16630919  1
  Sn  Sn38  1  0.83298381  0.83394760  0.16706229  1
  Sn  Sn39  1  0.49998745  0.16673101  0.16742982  1
  Sn  Sn40  1  0.83416003  0.16731299  0.83325920  1
  Pb  Pb41  1  0.16717646  0.50265771  0.49986762  1
  Pb  Pb42  1  0.83397273  0.83377596  0.83480996  1
  Pb  Pb43  1  0.83155403  0.16807137  0.50052199  1
  Pb  Pb44  1  0.49794172  0.83297547  0.50147015  1
  Pb  Pb45  1  0.16914948  0.16513527  0.50053889  1
  Pb  Pb46  1  0.16447044  0.49965295  0.83346856  1
  Pb  Pb47  1  0.16486703  0.83541905  0.16579352  1
  Pb  Pb48  1  0.50231104  0.83574005  0.16405579  1
  Pb  Pb49  1  0.50012209  0.16561258  0.83322288  1
  Pb  Pb50  1  0.50274466  0.50284064  0.83109586  1
  Pb  Pb51  1  0.83570240  0.83063869  0.49712018  1
  Pb  Pb52  1  0.16445270  0.49641175  0.16645335  1
  Pb  Pb53  1  0.50220123  0.49749697  0.16863892  1
  I  I54  1  0.16282116  0.00353876  0.16562633  1
  I  I55  1  0.16804978  -0.00250605  0.50176507  1
  I  I56  1  0.16382689  0.00068858  0.83340612  1
  I  I57  1  0.16462130  0.32818970  0.16136052  1
  I  I58  1  0.16537912  0.33324683  0.49974561  1
  I  I59  1  0.16423210  0.32976877  0.83792017  1
  I  I60  1  0.16407852  0.66674260  0.16722347  1
  I  I61  1  0.16621931  0.67033374  0.50768421  1
  I  I62  1  0.16801795  0.66968189  0.82771857  1
  I  I63  1  0.50343991  0.00391935  0.17332934  1
  I  I64  1  0.49882645  0.00236070  0.49670837  1
  I  I65  1  0.50172214  -0.00210519  0.83129339  1
  I  I66  1  0.50231824  0.32922675  0.16614313  1
  I  I67  1  0.50400079  0.33304068  0.49647392  1
  I  I68  1  0.49807342  0.33340387  0.83438163  1
  I  I69  1  0.50184985  0.66664981  0.16784713  1
  I  I70  1  0.50535055  0.66406669  0.50319396  1
  I  I71  1  0.49543161  0.67039487  0.83104295  1
  I  I72  1  0.83377390  0.00194456  0.16034895  1
  I  I73  1  0.83164827  -0.00011620  0.50000657  1
  I  I74  1  0.83381640  0.00288147  0.83938793  1
  I  I75  1  0.83332184  0.33240637  0.16560892  1
  I  I76  1  0.83271934  0.33633079  0.49587100  1
  I  I77  1  0.83767481  0.33232869  0.83853463  1
  I  I78  1  0.83412277  0.66585101  0.16554893  1
  I  I79  1  0.82652834  0.66254365  0.50155503  1
  I  I80  1  0.83238283  0.66435595  0.83486833  1
  I  I81  1  0.16590322  0.15999481  -0.00041005  1
  I  I82  1  0.16269871  0.16538064  0.33068642  1
  I  I83  1  0.16232204  0.16405658  0.66978879  1
  I  I84  1  0.16574707  0.50609943  -0.00004884  1
  I  I85  1  0.16290578  0.50079657  0.33324897  1
  I  I86  1  0.16287806  0.49578890  0.66666157  1
  I  I87  1  0.16802386  0.83692333  -0.00302535  1
  I  I88  1  0.16437147  0.83398787  0.33490409  1
  I  I89  1  0.16910679  0.83912745  0.66829246  1
  I  I90  1  0.50158795  0.16363748  0.00247125  1
  I  I91  1  0.50125180  0.16957933  0.33260934  1
  I  I92  1  0.50040537  0.16898101  0.66441811  1
  I  I93  1  0.50117855  0.49963482  -0.00000951  1
  I  I94  1  0.50647569  0.49960309  0.33654558  1
  I  I95  1  0.50670417  0.49199482  0.66338487  1
  I  I96  1  0.49369772  0.83586276  -0.00346919  1
  I  I97  1  0.49908938  0.83209891  0.33310909  1
  I  I98  1  0.50050636  0.83671571  0.66932059  1
  I  I99  1  0.83178863  0.17068147  0.00085403  1
  I  I100  1  0.83607991  0.16754582  0.33023097  1
  I  I101  1  0.83669452  0.17085607  0.66975493  1
  I  I102  1  0.83500251  0.49920228  0.00033112  1
  I  I103  1  0.82977291  0.49974718  0.33287841  1
  I  I104  1  0.82962186  0.49527701  0.66689135  1
  I  I105  1  0.83481903  0.83004993  0.00267351  1
  I  I106  1  0.83460231  0.83646519  0.32934392  1
  I  I107  1  0.83164201  0.83312686  0.66662789  1
  I  I108  1  -0.00117977  0.16651041  0.16169519  1
  I  I109  1  0.00006127  0.16745405  0.49740666  1
  I  I110  1  -0.00041776  0.16446770  0.84127332  1
  I  I111  1  -0.00451182  0.49891610  0.16927498  1
  I  I112  1  -0.00320476  0.50103390  0.49925307  1
  I  I113  1  -0.00417775  0.50120855  0.83172850  1
  I  I114  1  -0.00320261  0.83470503  0.16452821  1
  I  I115  1  0.00299400  0.83386210  0.50812472  1
  I  I116  1  0.00254319  0.83469558  0.83094062  1
  I  I117  1  0.33321335  0.16434264  0.16675955  1
  I  I118  1  0.33696268  0.17239409  0.49610039  1
  I  I119  1  0.33078389  0.16253445  0.83647817  1
  I  I120  1  0.33363225  0.50009753  0.16932786  1
  I  I121  1  0.33642665  0.49535475  0.50132611  1
  I  I122  1  0.33357865  0.49748090  0.83024579  1
  I  I123  1  0.33330873  0.83516795  0.16880962  1
  I  I124  1  0.33030850  0.83293846  0.50199149  1
  I  I125  1  0.33199346  0.84129955  0.82854246  1
  I  I126  1  0.66814717  0.16731357  0.16573333  1
  I  I127  1  0.66365582  0.16733091  0.49632629  1
  I  I128  1  0.66947562  0.16876389  0.83742417  1
  I  I129  1  0.67077364  0.49758599  0.16390877  1
  I  I130  1  0.66763101  0.49616270  0.49943408  1
  I  I131  1  0.67086488  0.49447157  0.83705992  1
  I  I132  1  0.67031869  0.83496067  0.16460823  1
  I  I133  1  0.66667386  0.83467210  0.50155882  1
  I  I134  1  0.66538272  0.83414865  0.83466135  1
