# generated using pymatgen
data_Cs27Sn14Pb13I81
_symmetry_space_group_name_H-M   'P 1'
_cell_length_a   18.97652512
_cell_length_b   18.97708498
_cell_length_c   18.97204281
_cell_angle_alpha   89.99684251
_cell_angle_beta   90.00022309
_cell_angle_gamma   89.99983632
_symmetry_Int_Tables_number   1
_chemical_formula_structural   Cs27Sn14Pb13I81
_chemical_formula_sum   'Cs27 Sn14 Pb13 I81'
_cell_volume   6832.19553634
_cell_formula_units_Z   1
loop_
 _symmetry_equiv_pos_site_id
 _symmetry_equiv_pos_as_xyz
  1  'x, y, z'
loop_
 _atom_site_type_symbol
 _atom_site_label
 _atom_site_symmetry_multiplicity
 _atom_site_fract_x
 _atom_site_fract_y
 _atom_site_fract_z
 _atom_site_occupancy
  Cs  Cs0  1  -0.00967006  0.00106009  0.00010207  1
  Cs  Cs1  1  0.00175703  -0.00019823  0.33406843  1
  Cs  Cs2  1  0.00140045  -0.00010256  0.66709681  1
  Cs  Cs3  1  -0.00374056  0.32958653  -0.00086502  1
  Cs  Cs4  1  -0.00133500  0.34027108  0.33365512  1
  Cs  Cs5  1  0.00210728  0.33636598  0.66572969  1
  Cs  Cs6  1  -0.00046990  0.66771730  0.00430661  1
  Cs  Cs7  1  0.00178581  0.65772731  0.32857583  1
  Cs  Cs8  1  0.00049896  0.66463602  0.66577815  1
  Cs  Cs9  1  0.33145483  -0.00090467  0.00243160  1
  Cs  Cs10  1  0.33380661  0.00025985  0.33376382  1
  Cs  Cs11  1  0.33143341  0.00018628  0.66441262  1
  Cs  Cs12  1  0.33445100  0.33208352  -0.00413955  1
  Cs  Cs13  1  0.33304843  0.33125614  0.33299810  1
  Cs  Cs14  1  0.33493062  0.33053347  0.67123122  1
  Cs  Cs15  1  0.33414543  0.66652520  -0.00021806  1
  Cs  Cs16  1  0.33288692  0.66712876  0.33211410  1
  Cs  Cs17  1  0.33275465  0.66781612  0.66765986  1
  Cs  Cs18  1  0.67816569  -0.00123236  0.00093552  1
  Cs  Cs19  1  0.66506150  0.00139517  0.33626689  1
  Cs  Cs20  1  0.66833867  -0.00012053  0.66332941  1
  Cs  Cs21  1  0.66730361  0.33226651  -0.00149042  1
  Cs  Cs22  1  0.66758841  0.33306232  0.33231469  1
  Cs  Cs23  1  0.66070615  0.33398004  0.66838126  1
  Cs  Cs24  1  0.66544490  0.66767822  -0.00283787  1
  Cs  Cs25  1  0.66462215  0.66475102  0.33494233  1
  Cs  Cs26  1  0.66685055  0.66757920  0.66736407  1
  Sn  Sn27  1  0.49933896  0.83382539  0.83308262  1
  Sn  Sn28  1  0.16561989  0.50105290  0.83337512  1
  Sn  Sn29  1  0.16570540  0.16610752  0.49902350  1
  Sn  Sn30  1  0.83448406  0.50037125  0.83313278  1
  Sn  Sn31  1  0.16714282  0.83269841  0.83301524  1
  Sn  Sn32  1  0.83463667  0.16638959  0.49998999  1
  Sn  Sn33  1  0.16623072  0.83345976  0.50017911  1
  Sn  Sn34  1  0.49988499  0.83367438  0.16661323  1
  Sn  Sn35  1  0.83406791  0.83335765  0.49969755  1
  Sn  Sn36  1  0.16711928  0.16638094  0.16740432  1
  Sn  Sn37  1  0.49975904  0.83256300  0.50020098  1
  Sn  Sn38  1  0.49938728  0.50067815  0.49946132  1
  Sn  Sn39  1  0.49955641  0.49993528  0.16743241  1
  Sn  Sn40  1  0.49925661  0.16632918  0.16650684  1
  Pb  Pb41  1  0.83058979  0.50007385  0.16393407  1
  Pb  Pb42  1  0.49948921  0.16645921  0.49865378  1
  Pb  Pb43  1  0.83338474  0.16918129  0.82977489  1
  Pb  Pb44  1  0.83097309  0.50005699  0.50149198  1
  Pb  Pb45  1  0.83407698  0.83182819  0.83099630  1
  Pb  Pb46  1  0.16904325  0.49725615  0.16379972  1
  Pb  Pb47  1  0.49950382  0.50183696  0.83340866  1
  Pb  Pb48  1  0.50006100  0.16249082  0.83675887  1
  Pb  Pb49  1  0.16921691  0.49995183  0.50153596  1
  Pb  Pb50  1  0.83073679  0.83299853  0.17021128  1
  Pb  Pb51  1  0.16666626  0.16559403  0.83333476  1
  Pb  Pb52  1  0.83367724  0.16669337  0.16950789  1
  Pb  Pb53  1  0.16813689  0.83505989  0.16661896  1
  I  I54  1  0.17435331  0.00290573  0.16741730  1
  I  I55  1  0.16907452  -0.00113749  0.50230482  1
  I  I56  1  0.17323914  -0.00349839  0.83087974  1
  I  I57  1  0.17336030  0.32956270  0.17262902  1
  I  I58  1  0.16370878  0.33058367  0.49765269  1
  I  I59  1  0.16354528  0.33561068  0.83316485  1
  I  I60  1  0.16826738  0.66662454  0.16890050  1
  I  I61  1  0.16561078  0.66983240  0.50309394  1
  I  I62  1  0.16814136  0.66798072  0.82682308  1
  I  I63  1  0.49506235  -0.00055469  0.16803563  1
  I  I64  1  0.50028300  -0.00322417  0.49962822  1
  I  I65  1  0.49282810  -0.00537596  0.82875627  1
  I  I66  1  0.49643084  0.33334806  0.17251036  1
  I  I67  1  0.50098985  0.33545528  0.49613089  1
  I  I68  1  0.50000574  0.33332430  0.83240186  1
  I  I69  1  0.50123059  0.66738889  0.16773470  1
  I  I70  1  0.50067622  0.66858183  0.49577762  1
  I  I71  1  0.49909795  0.66984707  0.83634402  1
  I  I72  1  0.83008601  -0.00010232  0.16232889  1
  I  I73  1  0.83005230  -0.00091728  0.50068805  1
  I  I74  1  0.83271147  -0.00022878  0.83511051  1
  I  I75  1  0.82986613  0.33329646  0.16863077  1
  I  I76  1  0.83647852  0.33085002  0.50104050  1
  I  I77  1  0.83824546  0.33701771  0.83216608  1
  I  I78  1  0.83231955  0.66660847  0.16947135  1
  I  I79  1  0.83341835  0.66952598  0.50250842  1
  I  I80  1  0.83263064  0.66425939  0.82960751  1
  I  I81  1  0.17403500  0.16812784  0.00268767  1
  I  I82  1  0.16832002  0.16013263  0.33462309  1
  I  I83  1  0.16294483  0.16532966  0.66352654  1
  I  I84  1  0.16603466  0.50607542  -0.00393707  1
  I  I85  1  0.16653172  0.50212393  0.33327604  1
  I  I86  1  0.16681296  0.49949891  0.66940081  1
  I  I87  1  0.17340223  0.83030476  -0.00278428  1
  I  I88  1  0.16852639  0.83678899  0.33665194  1
  I  I89  1  0.17234241  0.83537433  0.66558564  1
  I  I90  1  0.49259035  0.17026808  0.00490485  1
  I  I91  1  0.49903327  0.16259346  0.33061502  1
  I  I92  1  0.49987444  0.16881128  0.66660843  1
  I  I93  1  0.49998538  0.50071547  0.00250181  1
  I  I94  1  0.50044806  0.50546164  0.33343666  1
  I  I95  1  0.50074456  0.50463931  0.66444990  1
  I  I96  1  0.49377379  0.83209840  -0.00003067  1
  I  I97  1  0.50040260  0.83284465  0.33407254  1
  I  I98  1  0.49971824  0.82717797  0.66544730  1
  I  I99  1  0.83295312  0.16769815  0.00004332  1
  I  I100  1  0.83293572  0.16251588  0.33724521  1
  I  I101  1  0.83877800  0.16125508  0.66208742  1
  I  I102  1  0.83532952  0.50092669  -0.00385398  1
  I  I103  1  0.83292525  0.49984190  0.33357410  1
  I  I104  1  0.83389062  0.50025431  0.66916364  1
  I  I105  1  0.83228706  0.83238799  -0.00010860  1
  I  I106  1  0.83323634  0.83731064  0.33844599  1
  I  I107  1  0.82716166  0.83653840  0.66304164  1
  I  I108  1  0.00309086  0.16589409  0.16769458  1
  I  I109  1  0.00118307  0.15833665  0.49539942  1
  I  I110  1  0.00016612  0.16264142  0.83926664  1
  I  I111  1  0.00034444  0.49808320  0.16776166  1
  I  I112  1  0.00024879  0.50189802  0.50059254  1
  I  I113  1  0.00104791  0.50558897  0.83041256  1
  I  I114  1  0.00008564  0.83629242  0.16509701  1
  I  I115  1  0.00110974  0.83987654  0.50721210  1
  I  I116  1  0.00323933  0.83164399  0.82779409  1
  I  I117  1  0.33402812  0.16593772  0.17366361  1
  I  I118  1  0.33067896  0.16337463  0.49812216  1
  I  I119  1  0.33338769  0.17310348  0.82827575  1
  I  I120  1  0.33721030  0.50325584  0.16851799  1
  I  I121  1  0.33711857  0.50433906  0.49860026  1
  I  I122  1  0.33119127  0.50217512  0.83322796  1
  I  I123  1  0.33689636  0.83174699  0.17095784  1
  I  I124  1  0.33365746  0.83393107  0.50087542  1
  I  I125  1  0.33331952  0.82706440  0.82844666  1
  I  I126  1  0.66351428  0.16651739  0.16783725  1
  I  I127  1  0.66821548  0.16350433  0.49919341  1
  I  I128  1  0.66654105  0.16861121  0.83285847  1
  I  I129  1  0.66200518  0.49793224  0.16896202  1
  I  I130  1  0.66299716  0.50376922  0.49931670  1
  I  I131  1  0.66789943  0.50123911  0.83282552  1
  I  I132  1  0.66161049  0.83605761  0.16457131  1
  I  I133  1  0.66542285  0.83391170  0.49985132  1
  I  I134  1  0.66398425  0.83100064  0.83320380  1
