# generated using pymatgen
data_Cs27Sn13Pb14I81
_symmetry_space_group_name_H-M   'P 1'
_cell_length_a   18.99704932
_cell_length_b   18.98068709
_cell_length_c   18.99731905
_cell_angle_alpha   90.00174314
_cell_angle_beta   89.99962015
_cell_angle_gamma   90.00058506
_symmetry_Int_Tables_number   1
_chemical_formula_structural   Cs27Sn13Pb14I81
_chemical_formula_sum   'Cs27 Sn13 Pb14 I81'
_cell_volume   6849.99723694
_cell_formula_units_Z   1
loop_
 _symmetry_equiv_pos_site_id
 _symmetry_equiv_pos_as_xyz
  1  'x, y, z'
loop_
 _atom_site_type_symbol
 _atom_site_label
 _atom_site_symmetry_multiplicity
 _atom_site_fract_x
 _atom_site_fract_y
 _atom_site_fract_z
 _atom_site_occupancy
  Cs  Cs0  1  0.00046554  0.00432882  0.00116310  1
  Cs  Cs1  1  0.00141200  -0.00312082  0.33281452  1
  Cs  Cs2  1  0.00352543  0.00135638  0.66578551  1
  Cs  Cs3  1  0.00053306  0.32981882  -0.00188779  1
  Cs  Cs4  1  0.00034083  0.33259286  0.33602883  1
  Cs  Cs5  1  0.00237515  0.33381945  0.66660041  1
  Cs  Cs6  1  -0.00572282  0.66950233  0.00597771  1
  Cs  Cs7  1  -0.00387028  0.67783642  0.32765026  1
  Cs  Cs8  1  -0.00587472  0.66572254  0.66505935  1
  Cs  Cs9  1  0.33518758  0.00091563  -0.00187966  1
  Cs  Cs10  1  0.33462599  -0.00166949  0.33573621  1
  Cs  Cs11  1  0.33569787  -0.00457176  0.66581299  1
  Cs  Cs12  1  0.33349357  0.33474893  -0.00178276  1
  Cs  Cs13  1  0.33440658  0.33535416  0.33532221  1
  Cs  Cs14  1  0.33215942  0.33447597  0.66658054  1
  Cs  Cs15  1  0.33325011  0.66403020  0.00051783  1
  Cs  Cs16  1  0.32794710  0.66392981  0.33022638  1
  Cs  Cs17  1  0.33355189  0.66526764  0.66801578  1
  Cs  Cs18  1  0.66430020  -0.00013166  -0.00033572  1
  Cs  Cs19  1  0.66280970  0.00296542  0.33466787  1
  Cs  Cs20  1  0.66097857  -0.00593528  0.66628172  1
  Cs  Cs21  1  0.66476626  0.33316188  0.00044943  1
  Cs  Cs22  1  0.66561323  0.33179907  0.33349441  1
  Cs  Cs23  1  0.66555173  0.33411897  0.66539554  1
  Cs  Cs24  1  0.67317297  0.66896324  -0.00187805  1
  Cs  Cs25  1  0.67875710  0.66307191  0.33109518  1
  Cs  Cs26  1  0.67364897  0.67256780  0.66882580  1
  Sn  Sn27  1  0.49945825  0.16597682  0.16590776  1
  Sn  Sn28  1  0.16641638  0.16725872  0.49918769  1
  Sn  Sn29  1  0.49962309  0.83344945  0.16702643  1
  Sn  Sn30  1  0.16743338  0.16708878  0.16798697  1
  Sn  Sn31  1  0.83177512  0.16696312  0.83264657  1
  Sn  Sn32  1  0.49964403  0.49949078  0.83221788  1
  Sn  Sn33  1  0.83403951  0.16692808  0.50038793  1
  Sn  Sn34  1  0.83312484  0.16686368  0.16687293  1
  Sn  Sn35  1  0.49961837  0.50032271  0.50089448  1
  Sn  Sn36  1  0.16665109  0.83150983  0.83339846  1
  Sn  Sn37  1  0.16707755  0.49968026  0.50049454  1
  Sn  Sn38  1  0.16697393  0.50145959  0.83283289  1
  Sn  Sn39  1  0.50061557  0.16742760  0.83362197  1
  Pb  Pb40  1  0.83643183  0.83676268  0.83336645  1
  Pb  Pb41  1  0.83347349  0.49776002  0.83333272  1
  Pb  Pb42  1  0.83324353  0.83691014  0.50006168  1
  Pb  Pb43  1  0.16645265  0.49802714  0.16671395  1
  Pb  Pb44  1  0.49969540  0.82875071  0.49686737  1
  Pb  Pb45  1  0.16879088  0.83617902  0.16421934  1
  Pb  Pb46  1  0.50008409  0.50000160  0.16637903  1
  Pb  Pb47  1  0.83050896  0.83676276  0.16649404  1
  Pb  Pb48  1  0.83405426  0.49802928  0.50004759  1
  Pb  Pb49  1  0.16738066  0.16725570  0.83279321  1
  Pb  Pb50  1  0.16693168  0.83262279  0.50200469  1
  Pb  Pb51  1  0.83359854  0.49716518  0.16662699  1
  Pb  Pb52  1  0.49955393  0.16782505  0.50027960  1
  Pb  Pb53  1  0.49847950  0.83257303  0.83488246  1
  I  I54  1  0.16362761  0.00476745  0.16989716  1
  I  I55  1  0.16139903  0.00322199  0.49776385  1
  I  I56  1  0.16586312  -0.00102825  0.83492063  1
  I  I57  1  0.16943580  0.32904520  0.16474877  1
  I  I58  1  0.16653199  0.33252896  0.50254111  1
  I  I59  1  0.16783746  0.33550257  0.83257182  1
  I  I60  1  0.16947433  0.66688068  0.16893033  1
  I  I61  1  0.17353746  0.66288318  0.50314747  1
  I  I62  1  0.17533800  0.66478870  0.82744941  1
  I  I63  1  0.50053157  0.00308856  0.16031000  1
  I  I64  1  0.50061074  -0.00001953  0.50248735  1
  I  I65  1  0.50191969  0.00299735  0.83610834  1
  I  I66  1  0.50106036  0.32979905  0.16505325  1
  I  I67  1  0.49848643  0.33564667  0.49948894  1
  I  I68  1  0.49749985  0.33247867  0.83631322  1
  I  I69  1  0.49703975  0.66909971  0.16654501  1
  I  I70  1  0.49109996  0.66110659  0.50660088  1
  I  I71  1  0.49573543  0.66325247  0.83144368  1
  I  I72  1  0.83689031  0.00507556  0.16596651  1
  I  I73  1  0.83980222  0.00574750  0.49932715  1
  I  I74  1  0.82881828  0.00521433  0.83432366  1
  I  I75  1  0.82929202  0.32794348  0.16626198  1
  I  I76  1  0.83495955  0.32934860  0.49912208  1
  I  I77  1  0.83488320  0.32911648  0.83470632  1
  I  I78  1  0.83166124  0.66738204  0.16696921  1
  I  I79  1  0.83306733  0.66643753  0.49957144  1
  I  I80  1  0.83021269  0.66675713  0.83347548  1
  I  I81  1  0.16424433  0.16618874  0.00182304  1
  I  I82  1  0.16379702  0.17196802  0.33367921  1
  I  I83  1  0.16263175  0.16771581  0.66426151  1
  I  I84  1  0.17272992  0.50055241  -0.00333745  1
  I  I85  1  0.17318127  0.49439238  0.33671013  1
  I  I86  1  0.17166159  0.49526064  0.66676693  1
  I  I87  1  0.16800161  0.82928226  -0.00330343  1
  I  I88  1  0.16687931  0.83156024  0.33307188  1
  I  I89  1  0.16926013  0.83793268  0.66975963  1
  I  I90  1  0.50220760  0.16859480  -0.00013691  1
  I  I91  1  0.50243351  0.16505441  0.33080863  1
  I  I92  1  0.50256937  0.16934063  0.66945445  1
  I  I93  1  0.49450861  0.49650467  -0.00320931  1
  I  I94  1  0.49467860  0.49787851  0.33612236  1
  I  I95  1  0.49446961  0.49099422  0.66776986  1
  I  I96  1  0.49805549  0.83662226  0.00253225  1
  I  I97  1  0.49886687  0.84433834  0.32954003  1
  I  I98  1  0.49865709  0.83784238  0.66668863  1
  I  I99  1  0.83407766  0.16697055  0.00012075  1
  I  I100  1  0.83342921  0.16766952  0.33310922  1
  I  I101  1  0.83535187  0.16834377  0.66672862  1
  I  I102  1  0.83273408  0.49649156  -0.00035707  1
  I  I103  1  0.83075206  0.49620522  0.33365109  1
  I  I104  1  0.83297545  0.49502383  0.66672251  1
  I  I105  1  0.83389463  0.83522971  -0.00008500  1
  I  I106  1  0.83412875  0.83368878  0.33302930  1
  I  I107  1  0.83191715  0.83638103  0.66699272  1
  I  I108  1  0.00007633  0.16919535  0.16528070  1
  I  I109  1  0.00079076  0.17231789  0.49791784  1
  I  I110  1  -0.00167413  0.16611174  0.83653391  1
  I  I111  1  0.00033155  0.49744622  0.16553687  1
  I  I112  1  0.00366134  0.49450489  0.50652095  1
  I  I113  1  0.00345641  0.50065470  0.82818052  1
  I  I114  1  -0.00002539  0.83376881  0.16606879  1
  I  I115  1  0.00019525  0.82990934  0.49989961  1
  I  I116  1  0.00404457  0.82877383  0.83319560  1
  I  I117  1  0.33386720  0.16342163  0.16522419  1
  I  I118  1  0.33057513  0.16923490  0.49692225  1
  I  I119  1  0.33595850  0.16759054  0.83775970  1
  I  I120  1  0.33338813  0.49572439  0.16676216  1
  I  I121  1  0.33251857  0.49148908  0.50415070  1
  I  I122  1  0.33358808  0.49595732  0.82991494  1
  I  I123  1  0.33615067  0.84177651  0.16575439  1
  I  I124  1  0.33336571  0.84177322  0.49996011  1
  I  I125  1  0.33081442  0.83695464  0.83447827  1
  I  I126  1  0.66618557  0.16305188  0.16600368  1
  I  I127  1  0.66864637  0.16902152  0.49701818  1
  I  I128  1  0.66563093  0.17220166  0.83730688  1
  I  I129  1  0.66631402  0.49798557  0.16766808  1
  I  I130  1  0.66386887  0.49742130  0.50309286  1
  I  I131  1  0.66331596  0.49586443  0.83008950  1
  I  I132  1  0.66297130  0.83903795  0.16447445  1
  I  I133  1  0.66630549  0.83421900  0.50127730  1
  I  I134  1  0.66673495  0.83153791  0.83476568  1
