# generated using pymatgen
data_Cs27Sn14Pb13I81
_symmetry_space_group_name_H-M   'P 1'
_cell_length_a   18.98136649
_cell_length_b   18.96177182
_cell_length_c   18.98466773
_cell_angle_alpha   90.00057131
_cell_angle_beta   90.00060510
_cell_angle_gamma   90.00018258
_symmetry_Int_Tables_number   1
_chemical_formula_structural   Cs27Sn14Pb13I81
_chemical_formula_sum   'Cs27 Sn14 Pb13 I81'
_cell_volume   6832.96806549
_cell_formula_units_Z   1
loop_
 _symmetry_equiv_pos_site_id
 _symmetry_equiv_pos_as_xyz
  1  'x, y, z'
loop_
 _atom_site_type_symbol
 _atom_site_label
 _atom_site_symmetry_multiplicity
 _atom_site_fract_x
 _atom_site_fract_y
 _atom_site_fract_z
 _atom_site_occupancy
  Cs  Cs0  1  0.00863048  -0.00465543  0.00810826  1
  Cs  Cs1  1  -0.00763425  -0.00651762  0.32680572  1
  Cs  Cs2  1  0.00051198  -0.01147600  0.66579460  1
  Cs  Cs3  1  0.00096629  0.33304148  -0.00066580  1
  Cs  Cs4  1  -0.00117858  0.33323455  0.33228357  1
  Cs  Cs5  1  -0.00026789  0.33526961  0.66817050  1
  Cs  Cs6  1  -0.00277367  0.66600390  -0.00054395  1
  Cs  Cs7  1  0.00213404  0.66772255  0.33489775  1
  Cs  Cs8  1  -0.00004470  0.66687963  0.66575180  1
  Cs  Cs9  1  0.32591406  -0.00391230  0.00027227  1
  Cs  Cs10  1  0.33150595  0.00042597  0.33461163  1
  Cs  Cs11  1  0.33338582  0.00117945  0.66754049  1
  Cs  Cs12  1  0.33281659  0.33220127  -0.00082604  1
  Cs  Cs13  1  0.33583168  0.33445056  0.33592941  1
  Cs  Cs14  1  0.33436797  0.33320566  0.66582617  1
  Cs  Cs15  1  0.33801721  0.67081912  0.00363751  1
  Cs  Cs16  1  0.33415387  0.66707702  0.33296195  1
  Cs  Cs17  1  0.33339534  0.66626495  0.66464874  1
  Cs  Cs18  1  0.66699152  -0.00768736  -0.00026110  1
  Cs  Cs19  1  0.67481771  0.00401273  0.33361158  1
  Cs  Cs20  1  0.66658647  0.00109841  0.66602996  1
  Cs  Cs21  1  0.66604745  0.33475601  -0.00355601  1
  Cs  Cs22  1  0.66576118  0.33256997  0.33393331  1
  Cs  Cs23  1  0.66612706  0.33308956  0.66738795  1
  Cs  Cs24  1  0.66444833  0.67196860  0.00119120  1
  Cs  Cs25  1  0.66337908  0.66528070  0.32969668  1
  Cs  Cs26  1  0.66655699  0.66521512  0.66845970  1
  Sn  Sn27  1  0.83303170  0.49917331  0.83350338  1
  Sn  Sn28  1  0.16711330  0.49956189  0.83349451  1
  Sn  Sn29  1  0.83318478  0.49943574  0.49990592  1
  Sn  Sn30  1  0.83340931  0.16686680  0.83329276  1
  Sn  Sn31  1  0.16619400  0.16739109  0.50012694  1
  Sn  Sn32  1  0.83391403  0.49916963  0.16643631  1
  Sn  Sn33  1  0.50029259  0.83369976  0.50007487  1
  Sn  Sn34  1  0.50004127  0.16686761  0.16601100  1
  Sn  Sn35  1  0.49940780  0.16666852  0.49998297  1
  Sn  Sn36  1  0.16672898  0.49877538  0.50004573  1
  Sn  Sn37  1  0.16611399  0.49925177  0.16674627  1
  Sn  Sn38  1  0.49977298  0.49926055  0.83273199  1
  Sn  Sn39  1  0.50013922  0.49991382  0.50080280  1
  Sn  Sn40  1  0.50070493  0.16735815  0.83388435  1
  Pb  Pb41  1  0.49997516  0.49856279  0.16628737  1
  Pb  Pb42  1  0.16690095  0.82994681  0.83308971  1
  Pb  Pb43  1  0.83132689  0.16897668  0.16346741  1
  Pb  Pb44  1  0.83400397  0.16844378  0.50210277  1
  Pb  Pb45  1  0.49990916  0.83381341  0.83126370  1
  Pb  Pb46  1  0.16868722  0.83343936  0.49996503  1
  Pb  Pb47  1  0.83329732  0.83379649  0.83330303  1
  Pb  Pb48  1  0.16848017  0.16905020  0.16958636  1
  Pb  Pb49  1  0.50001460  0.83739658  0.16979698  1
  Pb  Pb50  1  0.16632958  0.16823364  0.83108264  1
  Pb  Pb51  1  0.16692732  0.83014778  0.16709741  1
  Pb  Pb52  1  0.83044919  0.83015624  0.50014062  1
  Pb  Pb53  1  0.83311201  0.83028574  0.16663671  1
  I  I54  1  0.16835686  0.00048216  0.16785312  1
  I  I55  1  0.17399866  0.00333218  0.50216040  1
  I  I56  1  0.16702384  0.00039491  0.83075560  1
  I  I57  1  0.16303547  0.33741953  0.16493499  1
  I  I58  1  0.17308762  0.33560654  0.50014924  1
  I  I59  1  0.16693140  0.33736790  0.83428273  1
  I  I60  1  0.16446033  0.66122793  0.16967559  1
  I  I61  1  0.16709281  0.66238623  0.50026056  1
  I  I62  1  0.16625060  0.66042372  0.82922493  1
  I  I63  1  0.50003835  0.00519355  0.16485156  1
  I  I64  1  0.49391107  0.00173946  0.50069179  1
  I  I65  1  0.50578710  0.00395060  0.83146907  1
  I  I66  1  0.49982796  0.33105315  0.17199660  1
  I  I67  1  0.49894948  0.33396646  0.50075080  1
  I  I68  1  0.50087152  0.33437884  0.82816689  1
  I  I69  1  0.50004041  0.66656541  0.16677251  1
  I  I70  1  0.50009493  0.66424363  0.50464001  1
  I  I71  1  0.50048270  0.66294233  0.82928470  1
  I  I72  1  0.83157568  0.00051732  0.16622336  1
  I  I73  1  0.83322382  0.00018137  0.50222738  1
  I  I74  1  0.82469934  0.00363735  0.83060383  1
  I  I75  1  0.83694737  0.33739662  0.16939145  1
  I  I76  1  0.82876327  0.33745835  0.49866470  1
  I  I77  1  0.83105676  0.33572730  0.83266765  1
  I  I78  1  0.83540048  0.66124890  0.16430927  1
  I  I79  1  0.83523084  0.66099327  0.50329500  1
  I  I80  1  0.83290328  0.66204408  0.83310933  1
  I  I81  1  0.16870744  0.16876532  -0.00012467  1
  I  I82  1  0.17432780  0.17475988  0.33756104  1
  I  I83  1  0.17436916  0.17486352  0.66325036  1
  I  I84  1  0.16380874  0.50018033  -0.00058910  1
  I  I85  1  0.16480509  0.49692364  0.33449997  1
  I  I86  1  0.16548762  0.49688673  0.66609489  1
  I  I87  1  0.16800575  0.83373895  0.00013289  1
  I  I88  1  0.16863876  0.83002714  0.33371115  1
  I  I89  1  0.16671114  0.83068276  0.66628844  1
  I  I90  1  0.50491713  0.17564119  -0.00143661  1
  I  I91  1  0.49518610  0.16852604  0.33513613  1
  I  I92  1  0.50000285  0.16827322  0.66619275  1
  I  I93  1  0.49968926  0.49511845  -0.00299780  1
  I  I94  1  0.50019568  0.49905161  0.33631442  1
  I  I95  1  0.50013510  0.49695585  0.66595318  1
  I  I96  1  0.50046903  0.83121412  0.00011466  1
  I  I97  1  0.49872817  0.82726562  0.33755070  1
  I  I98  1  0.49943824  0.83463666  0.66339506  1
  I  I99  1  0.82705988  0.17582643  -0.00433465  1
  I  I100  1  0.83111072  0.16914221  0.33342175  1
  I  I101  1  0.82604053  0.17559342  0.66975864  1
  I  I102  1  0.83641717  0.49615400  -0.00097023  1
  I  I103  1  0.83503192  0.50090302  0.33400916  1
  I  I104  1  0.83438750  0.49719677  0.66691393  1
  I  I105  1  0.83104170  0.82999307  -0.00007763  1
  I  I106  1  0.83229593  0.83287966  0.33356222  1
  I  I107  1  0.83354838  0.82998161  0.66656628  1
  I  I108  1  -0.00004627  0.16622642  0.16688225  1
  I  I109  1  0.00267314  0.17526789  0.50244405  1
  I  I110  1  -0.00256748  0.17484236  0.83069540  1
  I  I111  1  -0.00001945  0.49964785  0.16706848  1
  I  I112  1  0.00052663  0.49543834  0.50228934  1
  I  I113  1  -0.00042894  0.49679738  0.83079411  1
  I  I114  1  0.00001774  0.83661873  0.16772248  1
  I  I115  1  -0.00012649  0.83315193  0.50012789  1
  I  I116  1  -0.00002018  0.83319421  0.83165265  1
  I  I117  1  0.33651948  0.17091212  0.16291185  1
  I  I118  1  0.33527766  0.17211266  0.50154967  1
  I  I119  1  0.33660639  0.17174306  0.83335425  1
  I  I120  1  0.33098361  0.49803392  0.16742734  1
  I  I121  1  0.33405578  0.49975773  0.50204348  1
  I  I122  1  0.33412947  0.49608406  0.82972314  1
  I  I123  1  0.33371545  0.82904126  0.16668661  1
  I  I124  1  0.33662987  0.82775804  0.50061334  1
  I  I125  1  0.33364811  0.83270230  0.83254914  1
  I  I126  1  0.66340412  0.17076491  0.17386420  1
  I  I127  1  0.66327779  0.16789893  0.49842260  1
  I  I128  1  0.66506364  0.17647737  0.83020811  1
  I  I129  1  0.66896590  0.49806388  0.16781218  1
  I  I130  1  0.66568920  0.50015445  0.50214022  1
  I  I131  1  0.66622788  0.49640900  0.82984757  1
  I  I132  1  0.66629955  0.82891269  0.16689565  1
  I  I133  1  0.66248907  0.83448322  0.50089470  1
  I  I134  1  0.66649914  0.82728343  0.83251197  1
