# generated using pymatgen
data_Cs27Sn14Pb13I81
_symmetry_space_group_name_H-M   'P 1'
_cell_length_a   18.98514790
_cell_length_b   18.97733640
_cell_length_c   18.96527364
_cell_angle_alpha   90.00125178
_cell_angle_beta   90.00064376
_cell_angle_gamma   89.99989391
_symmetry_Int_Tables_number   1
_chemical_formula_structural   Cs27Sn14Pb13I81
_chemical_formula_sum   'Cs27 Sn14 Pb13 I81'
_cell_volume   6832.95174995
_cell_formula_units_Z   1
loop_
 _symmetry_equiv_pos_site_id
 _symmetry_equiv_pos_as_xyz
  1  'x, y, z'
loop_
 _atom_site_type_symbol
 _atom_site_label
 _atom_site_symmetry_multiplicity
 _atom_site_fract_x
 _atom_site_fract_y
 _atom_site_fract_z
 _atom_site_occupancy
  Cs  Cs0  1  0.00138492  0.00017578  -0.00057639  1
  Cs  Cs1  1  -0.00018426  0.00682616  0.33228869  1
  Cs  Cs2  1  -0.00528150  -0.00710903  0.66823464  1
  Cs  Cs3  1  -0.00083237  0.33315813  0.00192528  1
  Cs  Cs4  1  -0.00527781  0.32546191  0.33668648  1
  Cs  Cs5  1  0.00376187  0.33471901  0.66592811  1
  Cs  Cs6  1  0.00198628  0.66673250  -0.00027562  1
  Cs  Cs7  1  -0.00121110  0.66490101  0.33303901  1
  Cs  Cs8  1  -0.00125721  0.67200668  0.66500327  1
  Cs  Cs9  1  0.33504150  0.00035535  0.00045581  1
  Cs  Cs10  1  0.33218034  -0.00158304  0.33206160  1
  Cs  Cs11  1  0.33363039  -0.00071519  0.66735416  1
  Cs  Cs12  1  0.33375136  0.33460231  -0.00107359  1
  Cs  Cs13  1  0.33066979  0.33196968  0.34250088  1
  Cs  Cs14  1  0.33433404  0.33433859  0.66421151  1
  Cs  Cs15  1  0.33313065  0.66551703  0.00175077  1
  Cs  Cs16  1  0.33306532  0.66872601  0.33137779  1
  Cs  Cs17  1  0.33198721  0.66611086  0.66608684  1
  Cs  Cs18  1  0.66159684  0.00076147  -0.00011984  1
  Cs  Cs19  1  0.66789421  -0.00107057  0.33574717  1
  Cs  Cs20  1  0.66888901  -0.00031662  0.66515518  1
  Cs  Cs21  1  0.66714718  0.33436295  -0.00161841  1
  Cs  Cs22  1  0.67405311  0.33358957  0.34010712  1
  Cs  Cs23  1  0.66244473  0.33208681  0.66832800  1
  Cs  Cs24  1  0.66366336  0.66410334  0.00206820  1
  Cs  Cs25  1  0.67072214  0.66610399  0.33197529  1
  Cs  Cs26  1  0.66877369  0.66768087  0.66474844  1
  Sn  Sn27  1  0.49912748  0.83294926  0.50081000  1
  Sn  Sn28  1  0.16682559  0.16744412  0.83360192  1
  Sn  Sn29  1  0.49969520  0.16687405  0.83408810  1
  Sn  Sn30  1  0.49981347  0.83294702  0.83240652  1
  Sn  Sn31  1  0.16747831  0.83326766  0.49871404  1
  Sn  Sn32  1  0.83470424  0.83342061  0.16590903  1
  Sn  Sn33  1  0.49978812  0.50017008  0.83386904  1
  Sn  Sn34  1  0.49967996  0.16884447  0.16643781  1
  Sn  Sn35  1  0.16734027  0.49989787  0.16649240  1
  Sn  Sn36  1  0.16556952  0.83285886  0.16739217  1
  Sn  Sn37  1  0.16670707  0.49926416  0.83423918  1
  Sn  Sn38  1  0.83337616  0.16755168  0.83390176  1
  Sn  Sn39  1  0.49904460  0.49805455  0.16648202  1
  Sn  Sn40  1  0.83346692  0.49942040  0.83369569  1
  Pb  Pb41  1  0.16664023  0.50196947  0.49955031  1
  Pb  Pb42  1  0.16674628  0.16361784  0.50352277  1
  Pb  Pb43  1  0.16874876  0.16748522  0.16488006  1
  Pb  Pb44  1  0.49994480  0.50235623  0.49946191  1
  Pb  Pb45  1  0.16861946  0.83296564  0.83392400  1
  Pb  Pb46  1  0.49987544  0.16437666  0.50001092  1
  Pb  Pb47  1  0.83040183  0.83307186  0.83549052  1
  Pb  Pb48  1  0.49943078  0.83298144  0.16668292  1
  Pb  Pb49  1  0.83349668  0.49995613  0.50341512  1
  Pb  Pb50  1  0.83354402  0.83330809  0.49700588  1
  Pb  Pb51  1  0.83330868  0.16671193  0.50351453  1
  Pb  Pb52  1  0.83037396  0.16470359  0.16421922  1
  Pb  Pb53  1  0.83361413  0.50104679  0.16482768  1
  I  I54  1  0.16567311  -0.00248759  0.16835045  1
  I  I55  1  0.17210314  -0.00430488  0.49460887  1
  I  I56  1  0.16775149  0.00210731  0.83295583  1
  I  I57  1  0.16978279  0.33659434  0.16135804  1
  I  I58  1  0.16591162  0.33321317  0.49848754  1
  I  I59  1  0.17014454  0.33438275  0.83862206  1
  I  I60  1  0.16971328  0.66647203  0.16332081  1
  I  I61  1  0.17158759  0.67004793  0.50212674  1
  I  I62  1  0.16725999  0.66381902  0.83394912  1
  I  I63  1  0.50035807  0.00162150  0.16184185  1
  I  I64  1  0.49627604  -0.00373017  0.50405240  1
  I  I65  1  0.49968667  0.00067285  0.83465868  1
  I  I66  1  0.49483344  0.33436318  0.15486435  1
  I  I67  1  0.50057713  0.33337435  0.50268186  1
  I  I68  1  0.50077740  0.33353104  0.83811767  1
  I  I69  1  0.49927021  0.66427702  0.16217759  1
  I  I70  1  0.49587438  0.67033896  0.50498243  1
  I  I71  1  0.49966705  0.66570981  0.83443638  1
  I  I72  1  0.83729279  -0.00317903  0.16409902  1
  I  I73  1  0.83240149  -0.00039575  0.50333591  1
  I  I74  1  0.83325607  0.00246582  0.83469550  1
  I  I75  1  0.83550821  0.33319282  0.16749142  1
  I  I76  1  0.83344589  0.33326210  0.49473928  1
  I  I77  1  0.82833300  0.33351826  0.83457326  1
  I  I78  1  0.83104904  0.66907446  0.16340827  1
  I  I79  1  0.83227202  0.66712863  0.50379681  1
  I  I80  1  0.83339473  0.66393902  0.83501464  1
  I  I81  1  0.16598311  0.16421209  -0.00366407  1
  I  I82  1  0.16916761  0.16821161  0.33326421  1
  I  I83  1  0.17074962  0.17240801  0.67198267  1
  I  I84  1  0.16837737  0.50378594  -0.00092908  1
  I  I85  1  0.17390276  0.50473426  0.32959133  1
  I  I86  1  0.16788062  0.49718270  0.67040903  1
  I  I87  1  0.16506520  0.83204439  0.00260022  1
  I  I88  1  0.17043633  0.82743238  0.33212933  1
  I  I89  1  0.17015657  0.83415191  0.66525166  1
  I  I90  1  0.50006580  0.16335197  -0.00202731  1
  I  I91  1  0.49874172  0.16810533  0.33017774  1
  I  I92  1  0.50056363  0.16897612  0.67070419  1
  I  I93  1  0.49948808  0.50276879  -0.00150663  1
  I  I94  1  0.49406689  0.49837589  0.32954769  1
  I  I95  1  0.49958303  0.49739286  0.67046632  1
  I  I96  1  0.50009553  0.83393373  -0.00256157  1
  I  I97  1  0.49910576  0.83379069  0.33522413  1
  I  I98  1  0.49485155  0.83368222  0.66799437  1
  I  I99  1  0.83429540  0.17004516  -0.00398925  1
  I  I100  1  0.83137531  0.16436108  0.33289253  1
  I  I101  1  0.82925705  0.16821155  0.67213904  1
  I  I102  1  0.83205426  0.49721294  -0.00367350  1
  I  I103  1  0.83184220  0.50354061  0.33286293  1
  I  I104  1  0.83213971  0.49796793  0.67239565  1
  I  I105  1  0.83859577  0.83314760  0.00276986  1
  I  I106  1  0.82995261  0.83190169  0.32932035  1
  I  I107  1  0.83525883  0.83361149  0.66702584  1
  I  I108  1  0.00001392  0.16677980  0.16458265  1
  I  I109  1  0.00017166  0.16356160  0.50006123  1
  I  I110  1  0.00026428  0.17284549  0.83271858  1
  I  I111  1  0.00311628  0.50552891  0.16052784  1
  I  I112  1  0.00024363  0.50474097  0.50108112  1
  I  I113  1  0.00094435  0.49347552  0.83727075  1
  I  I114  1  0.00183935  0.82745473  0.17067060  1
  I  I115  1  0.00305921  0.83254653  0.50016583  1
  I  I116  1  0.00004092  0.83408008  0.83063134  1
  I  I117  1  0.33658371  0.16324184  0.15849739  1
  I  I118  1  0.33335885  0.16702633  0.50335853  1
  I  I119  1  0.33428660  0.16770365  0.83679800  1
  I  I120  1  0.33341707  0.50494605  0.15654943  1
  I  I121  1  0.33333701  0.49969754  0.50563601  1
  I  I122  1  0.33373007  0.49857507  0.83693807  1
  I  I123  1  0.33103906  0.83210431  0.16713000  1
  I  I124  1  0.33348465  0.83307759  0.49839813  1
  I  I125  1  0.33668429  0.83401870  0.83465431  1
  I  I126  1  0.66243613  0.16887808  0.15906817  1
  I  I127  1  0.66635942  0.16270030  0.50125279  1
  I  I128  1  0.66551466  0.16850896  0.83699631  1
  I  I129  1  0.66364983  0.50030933  0.16110748  1
  I  I130  1  0.66644339  0.50420499  0.49899680  1
  I  I131  1  0.66537883  0.49842877  0.83702085  1
  I  I132  1  0.66769769  0.83359289  0.16460381  1
  I  I133  1  0.66390231  0.83377725  0.50372569  1
  I  I134  1  0.66232367  0.83363362  0.83049790  1
