# generated using pymatgen
data_Cs27Sn14Pb13I81
_symmetry_space_group_name_H-M   'P 1'
_cell_length_a   18.97665631
_cell_length_b   18.97568405
_cell_length_c   18.97516421
_cell_angle_alpha   89.99899160
_cell_angle_beta   89.99944052
_cell_angle_gamma   90.00024036
_symmetry_Int_Tables_number   1
_chemical_formula_structural   Cs27Sn14Pb13I81
_chemical_formula_sum   'Cs27 Sn14 Pb13 I81'
_cell_volume   6832.86240901
_cell_formula_units_Z   1
loop_
 _symmetry_equiv_pos_site_id
 _symmetry_equiv_pos_as_xyz
  1  'x, y, z'
loop_
 _atom_site_type_symbol
 _atom_site_label
 _atom_site_symmetry_multiplicity
 _atom_site_fract_x
 _atom_site_fract_y
 _atom_site_fract_z
 _atom_site_occupancy
  Cs  Cs0  1  -0.00207054  0.00164912  0.00244073  1
  Cs  Cs1  1  -0.00204299  0.00130002  0.33193365  1
  Cs  Cs2  1  0.00409215  -0.00058049  0.66674541  1
  Cs  Cs3  1  0.00374115  0.33485994  0.00046501  1
  Cs  Cs4  1  -0.00183529  0.33279147  0.33172956  1
  Cs  Cs5  1  0.00365767  0.33355695  0.67007454  1
  Cs  Cs6  1  0.00435474  0.66334581  0.00106064  1
  Cs  Cs7  1  0.00034763  0.66618517  0.33327524  1
  Cs  Cs8  1  -0.00992405  0.66940946  0.66599508  1
  Cs  Cs9  1  0.33461308  -0.00433447  0.00162527  1
  Cs  Cs10  1  0.33363020  -0.00189620  0.33520900  1
  Cs  Cs11  1  0.32935555  0.00155745  0.66397590  1
  Cs  Cs12  1  0.33151104  0.33588410  -0.00162912  1
  Cs  Cs13  1  0.33634698  0.33394426  0.33538024  1
  Cs  Cs14  1  0.33202005  0.33168212  0.66667045  1
  Cs  Cs15  1  0.33152675  0.66825599  -0.00012333  1
  Cs  Cs16  1  0.33180408  0.66704771  0.33201012  1
  Cs  Cs17  1  0.33494731  0.66767118  0.66497244  1
  Cs  Cs18  1  0.66674831  0.00095957  -0.00036034  1
  Cs  Cs19  1  0.66618773  0.00248057  0.33255507  1
  Cs  Cs20  1  0.66733539  -0.00050385  0.66739326  1
  Cs  Cs21  1  0.66659857  0.33007016  0.00316736  1
  Cs  Cs22  1  0.66582949  0.33274945  0.33238381  1
  Cs  Cs23  1  0.66557088  0.33441852  0.66653084  1
  Cs  Cs24  1  0.66472654  0.66907677  -0.00807778  1
  Cs  Cs25  1  0.66810745  0.66363486  0.33517661  1
  Cs  Cs26  1  0.67533284  0.66716680  0.67288618  1
  Sn  Sn27  1  0.83274004  0.83163904  0.16682085  1
  Sn  Sn28  1  0.49853715  0.16725888  0.16664779  1
  Sn  Sn29  1  0.50086833  0.16665784  0.50024875  1
  Sn  Sn30  1  0.49952160  0.50045625  0.49959741  1
  Sn  Sn31  1  0.83197220  0.50154071  0.16664980  1
  Sn  Sn32  1  0.50003605  0.83287888  0.49997414  1
  Sn  Sn33  1  0.83264305  0.16675138  0.50142252  1
  Sn  Sn34  1  0.16682061  0.83314834  0.83259222  1
  Sn  Sn35  1  0.50080106  0.49974688  0.16708289  1
  Sn  Sn36  1  0.83282164  0.16682175  0.83185447  1
  Sn  Sn37  1  0.16716355  0.50100846  0.50003656  1
  Sn  Sn38  1  0.50041057  0.16664713  0.83313059  1
  Sn  Sn39  1  0.16718114  0.83199585  0.50068923  1
  Sn  Sn40  1  0.16844012  0.16665608  0.16691584  1
  Pb  Pb41  1  0.83325294  0.83554225  0.49854290  1
  Pb  Pb42  1  0.83248233  0.16722608  0.16655961  1
  Pb  Pb43  1  0.83318251  0.49710588  0.83657874  1
  Pb  Pb44  1  0.83547682  0.83572858  0.83590639  1
  Pb  Pb45  1  0.16716863  0.16510194  0.83586276  1
  Pb  Pb46  1  0.16757014  0.49813357  0.16879018  1
  Pb  Pb47  1  0.83296548  0.49750681  0.49860817  1
  Pb  Pb48  1  0.16499865  0.83504666  0.16751239  1
  Pb  Pb49  1  0.50186590  0.83278754  0.16870386  1
  Pb  Pb50  1  0.16687185  0.50297411  0.82980434  1
  Pb  Pb51  1  0.16694625  0.16663920  0.49846701  1
  Pb  Pb52  1  0.49992387  0.49791654  0.83309294  1
  Pb  Pb53  1  0.49828595  0.83585025  0.83035002  1
  I  I54  1  0.16979460  0.00303542  0.16918468  1
  I  I55  1  0.16955920  -0.00228292  0.50171711  1
  I  I56  1  0.16686401  -0.00236246  0.82543793  1
  I  I57  1  0.16448537  0.33018538  0.16813660  1
  I  I58  1  0.16951788  0.33528537  0.49597881  1
  I  I59  1  0.16563007  0.33317667  0.83341685  1
  I  I60  1  0.16736297  0.66658395  0.16474541  1
  I  I61  1  0.17537581  0.66720944  0.50163699  1
  I  I62  1  0.16705409  0.67078517  0.83513826  1
  I  I63  1  0.49873385  0.00309138  0.16810135  1
  I  I64  1  0.49933736  0.00104756  0.49938779  1
  I  I65  1  0.50381499  0.00418562  0.83544076  1
  I  I66  1  0.50269140  0.33235853  0.17191681  1
  I  I67  1  0.49982474  0.33277943  0.49837759  1
  I  I68  1  0.50297012  0.32926088  0.82953624  1
  I  I69  1  0.50226208  0.66357246  0.17290617  1
  I  I70  1  0.49317410  0.66606598  0.49269387  1
  I  I71  1  0.49813317  0.66695901  0.83452866  1
  I  I72  1  0.83502624  -0.00106751  0.16719239  1
  I  I73  1  0.82956956  0.00354837  0.49882626  1
  I  I74  1  0.82910572  0.00355537  0.83313169  1
  I  I75  1  0.83219000  0.33529574  0.16750168  1
  I  I76  1  0.82955084  0.32951864  0.49926643  1
  I  I77  1  0.83011420  0.32898665  0.83124907  1
  I  I78  1  0.82971235  0.66592705  0.16977034  1
  I  I79  1  0.83153393  0.66656353  0.49920607  1
  I  I80  1  0.83470023  0.66680099  0.83265495  1
  I  I81  1  0.16830751  0.16475315  0.00360003  1
  I  I82  1  0.16872555  0.16460540  0.33073167  1
  I  I83  1  0.16758107  0.16795342  0.66654540  1
  I  I84  1  0.16596949  0.49990132  0.00018775  1
  I  I85  1  0.16841784  0.50586264  0.33654058  1
  I  I86  1  0.17394596  0.49689094  0.66175761  1
  I  I87  1  0.16370018  0.83858615  -0.00156926  1
  I  I88  1  0.16990470  0.83154102  0.33656010  1
  I  I89  1  0.17079251  0.83257715  0.66486618  1
  I  I90  1  0.50104675  0.17108247  0.00090212  1
  I  I91  1  0.50068159  0.16726286  0.33388592  1
  I  I92  1  0.50506299  0.16634338  0.66535820  1
  I  I93  1  0.50466382  0.49396534  0.00338628  1
  I  I94  1  0.50027710  0.49387228  0.33392890  1
  I  I95  1  0.49465309  0.49780842  0.66285664  1
  I  I96  1  0.49909101  0.83439453  -0.00004866  1
  I  I97  1  0.49354567  0.83939596  0.33686953  1
  I  I98  1  0.49897431  0.83344318  0.66196343  1
  I  I99  1  0.83059213  0.16576236  -0.00177756  1
  I  I100  1  0.83071222  0.16627215  0.33517992  1
  I  I101  1  0.82536837  0.16570193  0.66599874  1
  I  I102  1  0.82764435  0.50101909  0.00478421  1
  I  I103  1  0.83205456  0.49919558  0.33059207  1
  I  I104  1  0.83353109  0.50022841  0.66660316  1
  I  I105  1  0.83459206  0.83357906  0.00358190  1
  I  I106  1  0.83586298  0.83455644  0.33084860  1
  I  I107  1  0.83218326  0.83363051  0.66663106  1
  I  I108  1  0.00120169  0.16567699  0.16765373  1
  I  I109  1  -0.00210220  0.16618167  0.50058028  1
  I  I110  1  -0.00231203  0.16467082  0.83101616  1
  I  I111  1  -0.00195247  0.50017331  0.16835026  1
  I  I112  1  0.00223497  0.50288535  0.49763827  1
  I  I113  1  0.00005722  0.49556112  0.83440631  1
  I  I114  1  -0.00287653  0.83210771  0.16880906  1
  I  I115  1  0.00274354  0.83095408  0.50193761  1
  I  I116  1  0.00304879  0.83690665  0.82567445  1
  I  I117  1  0.33559136  0.17090288  0.16775125  1
  I  I118  1  0.33659045  0.16663854  0.50148794  1
  I  I119  1  0.33646644  0.16562864  0.83010716  1
  I  I120  1  0.33664011  0.49581600  0.16963179  1
  I  I121  1  0.33495440  0.49794101  0.49394337  1
  I  I122  1  0.33335158  0.49643251  0.83890560  1
  I  I123  1  0.33350588  0.83293548  0.16498849  1
  I  I124  1  0.33366258  0.83643143  0.50227383  1
  I  I125  1  0.33052000  0.83688300  0.83333706  1
  I  I126  1  0.66357876  0.16756148  0.16760335  1
  I  I127  1  0.66471651  0.16625647  0.49707922  1
  I  I128  1  0.66582507  0.16593389  0.83531373  1
  I  I129  1  0.66532245  0.49547269  0.17406348  1
  I  I130  1  0.66329768  0.50055908  0.49667392  1
  I  I131  1  0.66656421  0.50324895  0.82832245  1
  I  I132  1  0.66947811  0.83693696  0.16950836  1
  I  I133  1  0.66379561  0.83292415  0.49626499  1
  I  I134  1  0.66666370  0.83297893  0.83292436  1
