# generated using pymatgen
data_Cs27Sn14Pb13I81
_symmetry_space_group_name_H-M   'P 1'
_cell_length_a   18.96813477
_cell_length_b   18.98592243
_cell_length_c   18.97401154
_cell_angle_alpha   90.00016253
_cell_angle_beta   89.99922728
_cell_angle_gamma   90.00028493
_symmetry_Int_Tables_number   1
_chemical_formula_structural   Cs27Sn14Pb13I81
_chemical_formula_sum   'Cs27 Sn14 Pb13 I81'
_cell_volume   6833.06401020
_cell_formula_units_Z   1
loop_
 _symmetry_equiv_pos_site_id
 _symmetry_equiv_pos_as_xyz
  1  'x, y, z'
loop_
 _atom_site_type_symbol
 _atom_site_label
 _atom_site_symmetry_multiplicity
 _atom_site_fract_x
 _atom_site_fract_y
 _atom_site_fract_z
 _atom_site_occupancy
  Cs  Cs0  1  -0.00020825  0.00037259  -0.00007059  1
  Cs  Cs1  1  -0.00111785  -0.00025780  0.33423414  1
  Cs  Cs2  1  0.00198796  0.00226184  0.66564497  1
  Cs  Cs3  1  0.00117052  0.33318970  -0.00027138  1
  Cs  Cs4  1  0.00078655  0.34089992  0.33418943  1
  Cs  Cs5  1  -0.00275426  0.33355196  0.66567927  1
  Cs  Cs6  1  -0.00317350  0.66803145  0.00610059  1
  Cs  Cs7  1  -0.00195046  0.65676966  0.33115805  1
  Cs  Cs8  1  0.00154720  0.66151858  0.66115482  1
  Cs  Cs9  1  0.33248755  0.00070946  0.00163415  1
  Cs  Cs10  1  0.33465637  -0.00047721  0.33290684  1
  Cs  Cs11  1  0.33117760  -0.00040928  0.66600493  1
  Cs  Cs12  1  0.33229386  0.33178449  0.00090415  1
  Cs  Cs13  1  0.33598321  0.33429568  0.33167384  1
  Cs  Cs14  1  0.33282879  0.33117404  0.66814891  1
  Cs  Cs15  1  0.33288449  0.66714867  -0.00239001  1
  Cs  Cs16  1  0.33381355  0.66731947  0.33268159  1
  Cs  Cs17  1  0.33580570  0.66924229  0.66976607  1
  Cs  Cs18  1  0.67209945  -0.00117658  0.00001117  1
  Cs  Cs19  1  0.66546581  0.00037477  0.33323784  1
  Cs  Cs20  1  0.66767025  -0.00002524  0.66512808  1
  Cs  Cs21  1  0.66704877  0.33110265  -0.00478110  1
  Cs  Cs22  1  0.66273150  0.33076861  0.33474722  1
  Cs  Cs23  1  0.66879920  0.33407912  0.66698719  1
  Cs  Cs24  1  0.67293245  0.66864116  -0.00621368  1
  Cs  Cs25  1  0.66700546  0.66849749  0.33377311  1
  Cs  Cs26  1  0.66422573  0.66500996  0.67121361  1
  Sn  Sn27  1  0.49935744  0.16600394  0.83237734  1
  Sn  Sn28  1  0.49981814  0.50020668  0.49946022  1
  Sn  Sn29  1  0.16562920  0.16597832  0.16652870  1
  Sn  Sn30  1  0.16671519  0.50000095  0.83349842  1
  Sn  Sn31  1  0.49966666  0.83210835  0.16682528  1
  Sn  Sn32  1  0.50071923  0.83331041  0.49939336  1
  Sn  Sn33  1  0.83269673  0.83404050  0.49985783  1
  Sn  Sn34  1  0.83262873  0.16566370  0.49864877  1
  Sn  Sn35  1  0.50043571  0.16642670  0.50112894  1
  Sn  Sn36  1  0.16729453  0.83409955  0.16634776  1
  Sn  Sn37  1  0.50020384  0.50163571  0.16652601  1
  Sn  Sn38  1  0.16751930  0.16645032  0.83410527  1
  Sn  Sn39  1  0.16655382  0.83339510  0.83416422  1
  Sn  Sn40  1  0.83467050  0.16676656  0.16789846  1
  Pb  Pb41  1  0.16650117  0.83331502  0.49895770  1
  Pb  Pb42  1  0.49853363  0.83574389  0.83366729  1
  Pb  Pb43  1  0.83033098  0.49982605  0.49988909  1
  Pb  Pb44  1  0.83345208  0.83501289  0.16877125  1
  Pb  Pb45  1  0.83659553  0.50014832  0.83349185  1
  Pb  Pb46  1  0.83380461  0.16649154  0.83291589  1
  Pb  Pb47  1  0.49859057  0.49779460  0.83366578  1
  Pb  Pb48  1  0.16991906  0.49998319  0.50237182  1
  Pb  Pb49  1  0.82970646  0.49679428  0.16667178  1
  Pb  Pb50  1  0.16649209  0.16672963  0.49927876  1
  Pb  Pb51  1  0.49988976  0.16603959  0.16663850  1
  Pb  Pb52  1  0.16873722  0.50013230  0.16495454  1
  Pb  Pb53  1  0.83696017  0.83342145  0.82994042  1
  I  I54  1  0.16972079  0.00014512  0.15855121  1
  I  I55  1  0.17108415  0.00004395  0.50495733  1
  I  I56  1  0.17088834  0.00077854  0.83732272  1
  I  I57  1  0.16517416  0.33043719  0.16255930  1
  I  I58  1  0.16687016  0.33312461  0.50020130  1
  I  I59  1  0.17171303  0.33174019  0.83689345  1
  I  I60  1  0.16968125  0.66963505  0.16283026  1
  I  I61  1  0.16518863  0.66685784  0.50124394  1
  I  I62  1  0.16781002  0.66742663  0.83607975  1
  I  I63  1  0.49804223  -0.00241843  0.17018034  1
  I  I64  1  0.50369519  0.00005393  0.49940063  1
  I  I65  1  0.49352661  0.00363469  0.82962366  1
  I  I66  1  0.49965988  0.33459625  0.17000959  1
  I  I67  1  0.50265661  0.33240292  0.49946821  1
  I  I68  1  0.49418100  0.32977541  0.83062783  1
  I  I69  1  0.49257889  0.66797880  0.17593889  1
  I  I70  1  0.50257611  0.66759206  0.49512487  1
  I  I71  1  0.49684357  0.66687043  0.82994162  1
  I  I72  1  0.83193704  0.00311164  0.16859807  1
  I  I73  1  0.82449588  0.00107362  0.49676732  1
  I  I74  1  0.83473813  0.00012692  0.83497812  1
  I  I75  1  0.83899754  0.32865185  0.17291817  1
  I  I76  1  0.82974235  0.32998039  0.49754057  1
  I  I77  1  0.83429454  0.33281689  0.83125941  1
  I  I78  1  0.83690712  0.66675101  0.16866125  1
  I  I79  1  0.83092275  0.66958938  0.50103575  1
  I  I80  1  0.83246312  0.66703625  0.83151861  1
  I  I81  1  0.16798236  0.16628419  -0.00027406  1
  I  I82  1  0.16728037  0.16030071  0.33001963  1
  I  I83  1  0.16839007  0.16566521  0.66951496  1
  I  I84  1  0.17161707  0.49817199  -0.00285669  1
  I  I85  1  0.16541866  0.49989925  0.33306880  1
  I  I86  1  0.16838931  0.49918385  0.67050895  1
  I  I87  1  0.17354863  0.83499158  0.00071126  1
  I  I88  1  0.16945946  0.84050302  0.32989104  1
  I  I89  1  0.16707878  0.83507026  0.66923081  1
  I  I90  1  0.49818123  0.16786723  -0.00187850  1
  I  I91  1  0.50062475  0.16692165  0.33588939  1
  I  I92  1  0.49935022  0.16712456  0.66544010  1
  I  I93  1  0.49720535  0.50192634  0.00260079  1
  I  I94  1  0.49869069  0.49694587  0.33394210  1
  I  I95  1  0.49837360  0.50199848  0.66383866  1
  I  I96  1  0.49624857  0.83066448  0.00299661  1
  I  I97  1  0.49709925  0.83554701  0.33371535  1
  I  I98  1  0.50180559  0.83142088  0.66370513  1
  I  I99  1  0.83310642  0.16697723  0.00255197  1
  I  I100  1  0.83160278  0.16221653  0.33419137  1
  I  I101  1  0.83200306  0.16346067  0.66345660  1
  I  I102  1  0.82876056  0.49806024  0.00033209  1
  I  I103  1  0.83874109  0.50105056  0.33335103  1
  I  I104  1  0.83213753  0.49734722  0.66635163  1
  I  I105  1  0.83034490  0.83486063  0.00019527  1
  I  I106  1  0.83282330  0.83740821  0.33665186  1
  I  I107  1  0.82664648  0.84113070  0.66210307  1
  I  I108  1  0.00132676  0.16038314  0.16518464  1
  I  I109  1  -0.00292468  0.16058238  0.50032042  1
  I  I110  1  0.00358171  0.16661263  0.83405016  1
  I  I111  1  0.00007619  0.50210459  0.16480350  1
  I  I112  1  -0.00012981  0.50005021  0.50227161  1
  I  I113  1  0.00500919  0.49554246  0.83346623  1
  I  I114  1  0.00300484  0.83688328  0.16275406  1
  I  I115  1  -0.00271189  0.84111268  0.50252761  1
  I  I116  1  0.00514802  0.83760933  0.83923284  1
  I  I117  1  0.33107526  0.16599428  0.16498360  1
  I  I118  1  0.33662368  0.16552676  0.50119151  1
  I  I119  1  0.33233222  0.16695470  0.83307538  1
  I  I120  1  0.33658884  0.49762483  0.17108812  1
  I  I121  1  0.33803116  0.49918354  0.49572088  1
  I  I122  1  0.33058199  0.50068038  0.83255140  1
  I  I123  1  0.33348629  0.83647544  0.16906496  1
  I  I124  1  0.33663618  0.83472858  0.49951644  1
  I  I125  1  0.33023276  0.83284835  0.83172957  1
  I  I126  1  0.66838564  0.16713761  0.16786822  1
  I  I127  1  0.66542641  0.16636214  0.49937652  1
  I  I128  1  0.66403431  0.16775084  0.83315548  1
  I  I129  1  0.66173350  0.50452753  0.17162416  1
  I  I130  1  0.66227601  0.49859489  0.49678687  1
  I  I131  1  0.66619647  0.49714383  0.83288556  1
  I  I132  1  0.66364909  0.83211543  0.17013596  1
  I  I133  1  0.66475773  0.83526323  0.49360782  1
  I  I134  1  0.66665294  0.83547826  0.83631671  1
