# generated using pymatgen
data_Cs27Sn14Pb13I81
_symmetry_space_group_name_H-M   'P 1'
_cell_length_a   18.97807178
_cell_length_b   18.98208436
_cell_length_c   18.96734128
_cell_angle_alpha   89.99919859
_cell_angle_beta   89.99740385
_cell_angle_gamma   90.00026155
_symmetry_Int_Tables_number   1
_chemical_formula_structural   Cs27Sn14Pb13I81
_chemical_formula_sum   'Cs27 Sn14 Pb13 I81'
_cell_volume   6832.85873663
_cell_formula_units_Z   1
loop_
 _symmetry_equiv_pos_site_id
 _symmetry_equiv_pos_as_xyz
  1  'x, y, z'
loop_
 _atom_site_type_symbol
 _atom_site_label
 _atom_site_symmetry_multiplicity
 _atom_site_fract_x
 _atom_site_fract_y
 _atom_site_fract_z
 _atom_site_occupancy
  Cs  Cs0  1  -0.00247506  0.00074049  0.00001125  1
  Cs  Cs1  1  0.00198942  0.00015788  0.33203526  1
  Cs  Cs2  1  0.00005823  -0.00635353  0.66798901  1
  Cs  Cs3  1  -0.00430324  0.33370966  -0.00134684  1
  Cs  Cs4  1  0.00126327  0.33297553  0.33363301  1
  Cs  Cs5  1  0.00153079  0.33638853  0.66670390  1
  Cs  Cs6  1  0.00251036  0.66609660  -0.00357715  1
  Cs  Cs7  1  -0.00083937  0.66639798  0.33328283  1
  Cs  Cs8  1  -0.00037559  0.66845286  0.67366584  1
  Cs  Cs9  1  0.33639198  0.00238080  -0.00053702  1
  Cs  Cs10  1  0.32892874  -0.00116363  0.33302251  1
  Cs  Cs11  1  0.33360224  0.00039694  0.66608626  1
  Cs  Cs12  1  0.33693727  0.32906146  -0.00045187  1
  Cs  Cs13  1  0.32912459  0.33458483  0.33484814  1
  Cs  Cs14  1  0.33380486  0.33296952  0.66482808  1
  Cs  Cs15  1  0.33205763  0.66793310  0.00138504  1
  Cs  Cs16  1  0.33345230  0.66659906  0.33269865  1
  Cs  Cs17  1  0.33345250  0.66683257  0.66701435  1
  Cs  Cs18  1  0.66435983  0.01330998  0.00036143  1
  Cs  Cs19  1  0.66870465  -0.00309254  0.33409478  1
  Cs  Cs20  1  0.66712614  -0.00136645  0.66674968  1
  Cs  Cs21  1  0.66665419  0.32230566  -0.00192952  1
  Cs  Cs22  1  0.66887129  0.33755970  0.33543166  1
  Cs  Cs23  1  0.66487270  0.33368522  0.66622690  1
  Cs  Cs24  1  0.66423998  0.66540313  0.00558137  1
  Cs  Cs25  1  0.66771406  0.66624733  0.33290380  1
  Cs  Cs26  1  0.66669705  0.66731066  0.66465034  1
  Sn  Sn27  1  0.50012886  0.50105422  0.83288325  1
  Sn  Sn28  1  0.16724699  0.83207750  0.49951526  1
  Sn  Sn29  1  0.16582293  0.50077021  0.16721295  1
  Sn  Sn30  1  0.49991356  0.50024014  0.50068308  1
  Sn  Sn31  1  0.83301645  0.16731526  0.50003955  1
  Sn  Sn32  1  0.49914276  0.83320324  0.50060357  1
  Sn  Sn33  1  0.50069509  0.16656221  0.49984931  1
  Sn  Sn34  1  0.83371012  0.49954627  0.49972320  1
  Sn  Sn35  1  0.16637006  0.50134542  0.49968190  1
  Sn  Sn36  1  0.16627894  0.16680913  0.83297868  1
  Sn  Sn37  1  0.16568181  0.83229028  0.16734674  1
  Sn  Sn38  1  0.50036530  0.83224998  0.83280358  1
  Sn  Sn39  1  0.83402300  0.83243896  0.16643039  1
  Sn  Sn40  1  0.83422306  0.50098500  0.16718931  1
  Pb  Pb41  1  0.16889894  0.49857700  0.83370242  1
  Pb  Pb42  1  0.83041753  0.50025568  0.83371253  1
  Pb  Pb43  1  0.16863437  0.83479437  0.83371998  1
  Pb  Pb44  1  0.50003226  0.49977493  0.16684936  1
  Pb  Pb45  1  0.82977391  0.83311396  0.83729229  1
  Pb  Pb46  1  0.49977060  0.16683696  0.17074103  1
  Pb  Pb47  1  0.49867216  0.16666999  0.83060625  1
  Pb  Pb48  1  0.83607535  0.16674573  0.82967004  1
  Pb  Pb49  1  0.83358744  0.16726104  0.16936020  1
  Pb  Pb50  1  0.16642800  0.16699837  0.16424774  1
  Pb  Pb51  1  0.83361119  0.83269610  0.49884104  1
  Pb  Pb52  1  0.49983809  0.83340553  0.16687217  1
  Pb  Pb53  1  0.16629538  0.16650627  0.50124363  1
  I  I54  1  0.16382975  -0.00339820  0.17143293  1
  I  I55  1  0.17005766  -0.00287833  0.49752986  1
  I  I56  1  0.17030103  0.00217286  0.83102323  1
  I  I57  1  0.16344531  0.33704764  0.17194693  1
  I  I58  1  0.16935396  0.33642376  0.49735730  1
  I  I59  1  0.17048036  0.33122711  0.83115297  1
  I  I60  1  0.16317277  0.66646810  0.17087896  1
  I  I61  1  0.17075396  0.66617712  0.49647341  1
  I  I62  1  0.16707028  0.66664167  0.83316507  1
  I  I63  1  0.50003628  -0.00028832  0.16496656  1
  I  I64  1  0.49974544  -0.00095266  0.50356687  1
  I  I65  1  0.49774956  -0.00247143  0.82962297  1
  I  I66  1  0.49937862  0.33370330  0.16378363  1
  I  I67  1  0.50017870  0.33464634  0.50359840  1
  I  I68  1  0.49807908  0.33576516  0.82942839  1
  I  I69  1  0.50085445  0.66660428  0.16963438  1
  I  I70  1  0.49942520  0.66631505  0.50409762  1
  I  I71  1  0.49875678  0.66654704  0.82389479  1
  I  I72  1  0.83714408  -0.00272014  0.16844996  1
  I  I73  1  0.82974702  0.00166701  0.49855667  1
  I  I74  1  0.83132763  -0.00009482  0.83299608  1
  I  I75  1  0.83766616  0.33692475  0.16936483  1
  I  I76  1  0.83016165  0.33512345  0.49474777  1
  I  I77  1  0.83063874  0.33349970  0.83856151  1
  I  I78  1  0.83622986  0.66562220  0.17409678  1
  I  I79  1  0.82981467  0.66354047  0.49703887  1
  I  I80  1  0.83617758  0.66669287  0.82737558  1
  I  I81  1  0.16950833  0.16654638  -0.00320837  1
  I  I82  1  0.16768043  0.16618916  0.33357301  1
  I  I83  1  0.16815968  0.16706081  0.66849092  1
  I  I84  1  0.16353159  0.50315009  0.00322557  1
  I  I85  1  0.16906645  0.50235311  0.33474358  1
  I  I86  1  0.16477187  0.50233168  0.66318423  1
  I  I87  1  0.16455412  0.82988451  0.00315458  1
  I  I88  1  0.16994972  0.83111132  0.33422635  1
  I  I89  1  0.16896469  0.83085330  0.66359116  1
  I  I90  1  0.49872044  0.16644222  -0.00049242  1
  I  I91  1  0.50190692  0.16717942  0.33902135  1
  I  I92  1  0.50265056  0.16726878  0.66267130  1
  I  I93  1  0.49839817  0.50587254  -0.00266797  1
  I  I94  1  0.50021701  0.50084709  0.33706465  1
  I  I95  1  0.49947517  0.49996582  0.66421411  1
  I  I96  1  0.49918947  0.82749541  -0.00263775  1
  I  I97  1  0.49900711  0.83221848  0.33686859  1
  I  I98  1  0.49416502  0.83289717  0.66446987  1
  I  I99  1  0.83333998  0.16675206  -0.00000102  1
  I  I100  1  0.82967955  0.16867345  0.33719094  1
  I  I101  1  0.82817065  0.17296549  0.66187915  1
  I  I102  1  0.83806709  0.50519446  0.00355998  1
  I  I103  1  0.83116660  0.49964539  0.33462654  1
  I  I104  1  0.83551498  0.49537180  0.66310319  1
  I  I105  1  0.84033862  0.82592878  0.00514971  1
  I  I106  1  0.83205505  0.83219012  0.33093783  1
  I  I107  1  0.83603219  0.83409826  0.66663762  1
  I  I108  1  0.00004237  0.16562575  0.16905140  1
  I  I109  1  -0.00236213  0.17067731  0.50109895  1
  I  I110  1  0.00337737  0.16685138  0.83176004  1
  I  I111  1  0.00029588  0.50349451  0.17563876  1
  I  I112  1  0.00027212  0.49787710  0.49472199  1
  I  I113  1  0.00012964  0.49757670  0.83032799  1
  I  I114  1  0.00110084  0.83027797  0.17374401  1
  I  I115  1  0.00289110  0.83237379  0.49748821  1
  I  I116  1  0.00007352  0.83589053  0.83013066  1
  I  I117  1  0.33294438  0.16652066  0.16766174  1
  I  I118  1  0.33569976  0.16895407  0.50261017  1
  I  I119  1  0.33137240  0.16687858  0.83068392  1
  I  I120  1  0.33022754  0.50471876  0.17039625  1
  I  I121  1  0.33334092  0.49951905  0.49969136  1
  I  I122  1  0.33663198  0.50255763  0.82798457  1
  I  I123  1  0.33027165  0.82853509  0.16844511  1
  I  I124  1  0.33337183  0.83144640  0.49789995  1
  I  I125  1  0.33646051  0.83035391  0.83252909  1
  I  I126  1  0.66684338  0.16576233  0.16215322  1
  I  I127  1  0.66596368  0.16993936  0.50019055  1
  I  I128  1  0.66651091  0.16661049  0.83559237  1
  I  I129  1  0.66967935  0.50527204  0.17143894  1
  I  I130  1  0.66636996  0.49891709  0.49955697  1
  I  I131  1  0.66243407  0.50296851  0.82780309  1
  I  I132  1  0.66925394  0.82779780  0.16841223  1
  I  I133  1  0.66399673  0.83193577  0.50174286  1
  I  I134  1  0.66194328  0.83012724  0.82476544  1
