# generated using pymatgen
data_Cs27Sn14Pb13I81
_symmetry_space_group_name_H-M   'P 1'
_cell_length_a   18.97049596
_cell_length_b   18.98327751
_cell_length_c   18.97290078
_cell_angle_alpha   89.99955067
_cell_angle_beta   89.99902900
_cell_angle_gamma   90.00103037
_symmetry_Int_Tables_number   1
_chemical_formula_structural   Cs27Sn14Pb13I81
_chemical_formula_sum   'Cs27 Sn14 Pb13 I81'
_cell_volume   6832.56256534
_cell_formula_units_Z   1
loop_
 _symmetry_equiv_pos_site_id
 _symmetry_equiv_pos_as_xyz
  1  'x, y, z'
loop_
 _atom_site_type_symbol
 _atom_site_label
 _atom_site_symmetry_multiplicity
 _atom_site_fract_x
 _atom_site_fract_y
 _atom_site_fract_z
 _atom_site_occupancy
  Cs  Cs0  1  0.00622582  -0.00649826  0.00962017  1
  Cs  Cs1  1  -0.00184003  0.00142745  0.32543993  1
  Cs  Cs2  1  0.00257224  0.00027417  0.66787388  1
  Cs  Cs3  1  0.00904700  0.33335456  -0.00032180  1
  Cs  Cs4  1  -0.00363987  0.33091915  0.33186663  1
  Cs  Cs5  1  -0.00044324  0.33519843  0.66863452  1
  Cs  Cs6  1  0.00642425  0.67347221  -0.00793928  1
  Cs  Cs7  1  -0.00028380  0.66734214  0.33655952  1
  Cs  Cs8  1  -0.00134549  0.66558044  0.66763187  1
  Cs  Cs9  1  0.33278511  -0.00080514  -0.00234321  1
  Cs  Cs10  1  0.33392931  0.00164910  0.33612963  1
  Cs  Cs11  1  0.33454602  0.00315329  0.66619544  1
  Cs  Cs12  1  0.32928502  0.33674701  0.00224608  1
  Cs  Cs13  1  0.33094404  0.33382945  0.33310742  1
  Cs  Cs14  1  0.33351173  0.32851818  0.66542636  1
  Cs  Cs15  1  0.33101793  0.66416452  0.00458424  1
  Cs  Cs16  1  0.33417182  0.66540112  0.33330576  1
  Cs  Cs17  1  0.33548101  0.66806514  0.66439540  1
  Cs  Cs18  1  0.66697729  0.00142207  0.00123531  1
  Cs  Cs19  1  0.66702706  0.00068712  0.33194575  1
  Cs  Cs20  1  0.66447916  0.00157408  0.66672957  1
  Cs  Cs21  1  0.66521036  0.33140225  -0.00086838  1
  Cs  Cs22  1  0.66797382  0.33486809  0.33321026  1
  Cs  Cs23  1  0.66681702  0.33245737  0.66750543  1
  Cs  Cs24  1  0.66615587  0.66711452  -0.00282083  1
  Cs  Cs25  1  0.66565747  0.66445517  0.33529730  1
  Cs  Cs26  1  0.66701098  0.66617801  0.66623892  1
  Sn  Sn27  1  0.16674905  0.83285872  0.50003315  1
  Sn  Sn28  1  0.83296823  0.16651314  0.50100733  1
  Sn  Sn29  1  0.16670834  0.50042973  0.50008558  1
  Sn  Sn30  1  0.50078569  0.16686885  0.83448768  1
  Sn  Sn31  1  0.83340574  0.49991100  0.49933142  1
  Sn  Sn32  1  0.50036101  0.83320125  0.83334435  1
  Sn  Sn33  1  0.49978406  0.50032924  0.50076370  1
  Sn  Sn34  1  0.83322390  0.16634701  0.83335000  1
  Sn  Sn35  1  0.50018548  0.83274893  0.50003158  1
  Sn  Sn36  1  0.83331470  0.83370096  0.50019455  1
  Sn  Sn37  1  0.50028888  0.49979241  0.83247429  1
  Sn  Sn38  1  0.83349119  0.50052170  0.16603242  1
  Sn  Sn39  1  0.50037692  0.16625874  0.16583310  1
  Sn  Sn40  1  0.50053787  0.83414662  0.16696736  1
  Pb  Pb41  1  0.83112383  0.83065036  0.16850542  1
  Pb  Pb42  1  0.16961153  0.83310327  0.16962160  1
  Pb  Pb43  1  0.83168708  0.16848871  0.16582408  1
  Pb  Pb44  1  0.83150636  0.83596386  0.83134037  1
  Pb  Pb45  1  0.17013992  0.16669996  0.16684925  1
  Pb  Pb46  1  0.16296607  0.16649567  0.50004181  1
  Pb  Pb47  1  0.50135711  0.50004537  0.16682503  1
  Pb  Pb48  1  0.16982839  0.50008314  0.83039006  1
  Pb  Pb49  1  0.16640546  0.16642027  0.83324674  1
  Pb  Pb50  1  0.50161894  0.16689229  0.49993253  1
  Pb  Pb51  1  0.16292238  0.50039257  0.16935695  1
  Pb  Pb52  1  0.16954723  0.83335720  0.83058068  1
  Pb  Pb53  1  0.83174182  0.49822536  0.83339842  1
  I  I54  1  0.16312228  -0.00025247  0.17023112  1
  I  I55  1  0.17028635  -0.00324755  0.50085290  1
  I  I56  1  0.17015437  -0.00018703  0.82856910  1
  I  I57  1  0.16970548  0.33370675  0.16963865  1
  I  I58  1  0.16912009  0.33649533  0.50018534  1
  I  I59  1  0.16982196  0.33339509  0.83005821  1
  I  I60  1  0.17096599  0.66667739  0.16572993  1
  I  I61  1  0.16425092  0.66657696  0.49983165  1
  I  I62  1  0.16656387  0.66666261  0.83463119  1
  I  I63  1  0.50151638  -0.00050168  0.16539998  1
  I  I64  1  0.49983965  -0.00291462  0.50171959  1
  I  I65  1  0.50346600  -0.00002635  0.83247865  1
  I  I66  1  0.50279907  0.33128886  0.16401004  1
  I  I67  1  0.50038546  0.33620769  0.50228852  1
  I  I68  1  0.50449971  0.33314235  0.83226108  1
  I  I69  1  0.50151555  0.66919850  0.16611426  1
  I  I70  1  0.50355255  0.66700725  0.50220893  1
  I  I71  1  0.50001220  0.66680736  0.83101592  1
  I  I72  1  0.83297221  -0.00014094  0.16906014  1
  I  I73  1  0.83073594  -0.00045973  0.50498022  1
  I  I74  1  0.82475230  0.00384162  0.82615875  1
  I  I75  1  0.82800913  0.33593896  0.17612121  1
  I  I76  1  0.83178454  0.33418766  0.49959606  1
  I  I77  1  0.82401835  0.33038648  0.82537671  1
  I  I78  1  0.82856696  0.66319450  0.17496631  1
  I  I79  1  0.83201970  0.66639011  0.49515415  1
  I  I80  1  0.83073356  0.66675302  0.83239467  1
  I  I81  1  0.16190195  0.16724552  -0.00000763  1
  I  I82  1  0.16783157  0.16689395  0.33382727  1
  I  I83  1  0.17288342  0.16633882  0.66630967  1
  I  I84  1  0.16691373  0.49830115  -0.00007075  1
  I  I85  1  0.17411025  0.50411387  0.33791867  1
  I  I86  1  0.16087801  0.50431044  0.66211258  1
  I  I87  1  0.16719427  0.83441383  0.00007975  1
  I  I88  1  0.16900953  0.82874864  0.33792393  1
  I  I89  1  0.16849511  0.82901859  0.66219811  1
  I  I90  1  0.50663270  0.16374132  -0.00121731  1
  I  I91  1  0.50211613  0.16344604  0.33150516  1
  I  I92  1  0.50195008  0.16497324  0.66905647  1
  I  I93  1  0.50402370  0.50203389  -0.00249089  1
  I  I94  1  0.49911483  0.50298767  0.33674509  1
  I  I95  1  0.50223107  0.50281180  0.66517213  1
  I  I96  1  0.50150580  0.83395669  -0.00045743  1
  I  I97  1  0.50007083  0.83314784  0.33494397  1
  I  I98  1  0.50006354  0.83281037  0.66547303  1
  I  I99  1  0.82703187  0.17024558  -0.00293108  1
  I  I100  1  0.83166707  0.16576738  0.33610537  1
  I  I101  1  0.82589206  0.16854925  0.66563290  1
  I  I102  1  0.82636890  0.49639356  0.00207800  1
  I  I103  1  0.82988291  0.49787316  0.33663311  1
  I  I104  1  0.83412103  0.50174889  0.66291279  1
  I  I105  1  0.83052766  0.83281882  -0.00003342  1
  I  I106  1  0.83030999  0.83781126  0.33772614  1
  I  I107  1  0.83031314  0.82749906  0.66228334  1
  I  I108  1  -0.00036656  0.16835489  0.16733741  1
  I  I109  1  -0.00522819  0.16777306  0.50572416  1
  I  I110  1  -0.00346794  0.16951006  0.82526055  1
  I  I111  1  -0.00477529  0.49700015  0.17437948  1
  I  I112  1  -0.00100846  0.50262687  0.49479684  1
  I  I113  1  -0.00003323  0.49658248  0.83284545  1
  I  I114  1  -0.00013599  0.83321733  0.16832819  1
  I  I115  1  -0.00073982  0.82949814  0.50045870  1
  I  I116  1  -0.00007487  0.83510304  0.83170880  1
  I  I117  1  0.33866957  0.16420571  0.16186390  1
  I  I118  1  0.33345090  0.16703559  0.49974813  1
  I  I119  1  0.33748606  0.16612720  0.83635864  1
  I  I120  1  0.33342487  0.49916101  0.16713136  1
  I  I121  1  0.33462394  0.50709109  0.50455395  1
  I  I122  1  0.33862272  0.49754336  0.82947423  1
  I  I123  1  0.33820446  0.83581970  0.16839413  1
  I  I124  1  0.33504089  0.82635690  0.49972969  1
  I  I125  1  0.33855327  0.83639100  0.83052971  1
  I  I126  1  0.66357701  0.16309203  0.16593757  1
  I  I127  1  0.66956177  0.16731492  0.50080053  1
  I  I128  1  0.66497894  0.16679710  0.83171522  1
  I  I129  1  0.66863335  0.49982359  0.17569623  1
  I  I130  1  0.66646173  0.50276558  0.49988297  1
  I  I131  1  0.66305291  0.50192950  0.82645695  1
  I  I132  1  0.66272307  0.83681096  0.16997587  1
  I  I133  1  0.66565511  0.83029564  0.50016715  1
  I  I134  1  0.66256297  0.83124634  0.82954660  1
