# generated using pymatgen
data_Cs27Sn13Pb14I81
_symmetry_space_group_name_H-M   'P 1'
_cell_length_a   18.98261817
_cell_length_b   18.97188239
_cell_length_c   18.97303336
_cell_angle_alpha   90.00192186
_cell_angle_beta   89.99978413
_cell_angle_gamma   89.99868890
_symmetry_Int_Tables_number   1
_chemical_formula_structural   Cs27Sn13Pb14I81
_chemical_formula_sum   'Cs27 Sn13 Pb14 I81'
_cell_volume   6832.87232799
_cell_formula_units_Z   1
loop_
 _symmetry_equiv_pos_site_id
 _symmetry_equiv_pos_as_xyz
  1  'x, y, z'
loop_
 _atom_site_type_symbol
 _atom_site_label
 _atom_site_symmetry_multiplicity
 _atom_site_fract_x
 _atom_site_fract_y
 _atom_site_fract_z
 _atom_site_occupancy
  Cs  Cs0  1  0.00031632  -0.00137300  0.00004042  1
  Cs  Cs1  1  -0.00045410  0.00060967  0.33220771  1
  Cs  Cs2  1  0.00111789  -0.00034939  0.66717516  1
  Cs  Cs3  1  0.00591023  0.33970151  -0.00395941  1
  Cs  Cs4  1  0.00197946  0.33150056  0.33431536  1
  Cs  Cs5  1  -0.00182342  0.33468932  0.66646172  1
  Cs  Cs6  1  -0.00079911  0.66605809  0.00133355  1
  Cs  Cs7  1  -0.00745716  0.66856869  0.33300096  1
  Cs  Cs8  1  0.00084676  0.66602382  0.66633087  1
  Cs  Cs9  1  0.33227384  0.00023907  0.00085985  1
  Cs  Cs10  1  0.33341482  0.00045556  0.33373917  1
  Cs  Cs11  1  0.33353272  -0.00336957  0.66619376  1
  Cs  Cs12  1  0.33088113  0.34351447  0.00152453  1
  Cs  Cs13  1  0.33412653  0.33149479  0.33265468  1
  Cs  Cs14  1  0.33224567  0.33264150  0.66467469  1
  Cs  Cs15  1  0.33451951  0.65961379  -0.00126441  1
  Cs  Cs16  1  0.33495071  0.66855249  0.33637802  1
  Cs  Cs17  1  0.33438395  0.67103945  0.66587574  1
  Cs  Cs18  1  0.66733681  0.00034649  -0.00051545  1
  Cs  Cs19  1  0.66710073  0.00159413  0.33164185  1
  Cs  Cs20  1  0.66538301  0.00068009  0.66959481  1
  Cs  Cs21  1  0.66452585  0.33606779  -0.00990886  1
  Cs  Cs22  1  0.66411664  0.33180764  0.33611861  1
  Cs  Cs23  1  0.67034376  0.33160582  0.66910252  1
  Cs  Cs24  1  0.66450489  0.66105594  0.00562170  1
  Cs  Cs25  1  0.67138991  0.66388662  0.32943576  1
  Cs  Cs26  1  0.66563273  0.66767409  0.66768963  1
  Sn  Sn27  1  0.83382489  0.83361325  0.83273965  1
  Sn  Sn28  1  0.83254791  0.16682655  0.16661950  1
  Sn  Sn29  1  0.50088112  0.16596925  0.16682392  1
  Sn  Sn30  1  0.50000607  0.16701153  0.49964692  1
  Sn  Sn31  1  0.16708724  0.16588666  0.83278730  1
  Sn  Sn32  1  0.16675076  0.16704080  0.50085161  1
  Sn  Sn33  1  0.16770007  0.83360812  0.16590405  1
  Sn  Sn34  1  0.16742789  0.49939502  0.49967143  1
  Sn  Sn35  1  0.83324351  0.16551474  0.49938890  1
  Sn  Sn36  1  0.49924011  0.49918763  0.49981431  1
  Sn  Sn37  1  0.16600405  0.83429849  0.83442222  1
  Sn  Sn38  1  0.49890281  0.83423313  0.16678479  1
  Sn  Sn39  1  0.83314319  0.83448866  0.50103921  1
  Pb  Pb40  1  0.49695789  0.16656674  0.83367435  1
  Pb  Pb41  1  0.49988525  0.49990346  0.82963696  1
  Pb  Pb42  1  0.49992895  0.83347989  0.83640078  1
  Pb  Pb43  1  0.83353746  0.50368124  0.83325618  1
  Pb  Pb44  1  0.50289563  0.83365278  0.49793154  1
  Pb  Pb45  1  0.83315643  0.83490686  0.16626429  1
  Pb  Pb46  1  0.16695362  0.16553107  0.16660986  1
  Pb  Pb47  1  0.50006275  0.49900452  0.16907663  1
  Pb  Pb48  1  0.83324523  0.49516881  0.16681640  1
  Pb  Pb49  1  0.83560057  0.16514824  0.83353628  1
  Pb  Pb50  1  0.16651227  0.50361360  0.17011238  1
  Pb  Pb51  1  0.83311512  0.49928071  0.49995302  1
  Pb  Pb52  1  0.16497250  0.83357447  0.49990174  1
  Pb  Pb53  1  0.16668552  0.50072080  0.83054928  1
  I  I54  1  0.16742978  -0.00252340  0.16820154  1
  I  I55  1  0.16867869  0.00291541  0.50065436  1
  I  I56  1  0.16328673  -0.00049988  0.83026044  1
  I  I57  1  0.16648255  0.33324605  0.16376436  1
  I  I58  1  0.16514013  0.33119976  0.50474526  1
  I  I59  1  0.16672166  0.33053557  0.83148593  1
  I  I60  1  0.17163806  0.67173646  0.16125038  1
  I  I61  1  0.17012399  0.66471414  0.49960834  1
  I  I62  1  0.16235480  0.67029090  0.83604851  1
  I  I63  1  0.49968021  0.00099968  0.17325971  1
  I  I64  1  0.49702307  0.00329664  0.49761682  1
  I  I65  1  0.50043185  0.00002530  0.82797954  1
  I  I66  1  0.50378822  0.32952055  0.17015703  1
  I  I67  1  0.49994426  0.33131256  0.49418009  1
  I  I68  1  0.49838590  0.33292333  0.83865540  1
  I  I69  1  0.49626135  0.66930341  0.16732021  1
  I  I70  1  0.49562351  0.66462266  0.49932056  1
  I  I71  1  0.49857467  0.66697569  0.83275233  1
  I  I72  1  0.83231302  0.00276147  0.17008855  1
  I  I73  1  0.83446425  0.00133430  0.49956507  1
  I  I74  1  0.83655389  -0.00285743  0.83110553  1
  I  I75  1  0.82847490  0.32726369  0.17595908  1
  I  I76  1  0.83376389  0.32948013  0.49539319  1
  I  I77  1  0.83462834  0.33302684  0.83323682  1
  I  I78  1  0.83325190  0.66700142  0.16753928  1
  I  I79  1  0.83465031  0.66942420  0.50354477  1
  I  I80  1  0.84063028  0.67207176  0.82646930  1
  I  I81  1  0.16543980  0.16196008  -0.00226737  1
  I  I82  1  0.16630209  0.16823948  0.33636117  1
  I  I83  1  0.16633277  0.16446612  0.66507530  1
  I  I84  1  0.16632570  0.49675923  -0.00004226  1
  I  I85  1  0.17024583  0.49312614  0.33784361  1
  I  I86  1  0.17046920  0.50012753  0.66265046  1
  I  I87  1  0.16395024  0.84080824  -0.00073890  1
  I  I88  1  0.16855254  0.83397276  0.33127406  1
  I  I89  1  0.16352322  0.83423141  0.66882974  1
  I  I90  1  0.50462238  0.16045309  0.00347033  1
  I  I91  1  0.49877313  0.16632830  0.33450361  1
  I  I92  1  0.50274605  0.17086286  0.66312910  1
  I  I93  1  0.50063357  0.50014042  0.00025165  1
  I  I94  1  0.49577500  0.49813297  0.33701875  1
  I  I95  1  0.49591390  0.49452306  0.66145045  1
  I  I96  1  0.50099276  0.84084620  0.00434854  1
  I  I97  1  0.49445767  0.83557646  0.33024659  1
  I  I98  1  0.49819510  0.83279661  0.66638650  1
  I  I99  1  0.82944528  0.16299753  0.00262640  1
  I  I100  1  0.83495437  0.16017256  0.33515537  1
  I  I101  1  0.83113746  0.16496282  0.66343372  1
  I  I102  1  0.83334927  0.50078824  0.00005731  1
  I  I103  1  0.83446070  0.50802292  0.33381457  1
  I  I104  1  0.83299372  0.49619786  0.66620692  1
  I  I105  1  0.83588748  0.83600994  -0.00225401  1
  I  I106  1  0.83452547  0.83509405  0.33548403  1
  I  I107  1  0.83898826  0.83871288  0.66602888  1
  I  I108  1  -0.00200550  0.16294743  0.17171349  1
  I  I109  1  0.00007281  0.16637439  0.49920543  1
  I  I110  1  0.00346184  0.16368555  0.82906702  1
  I  I111  1  0.00010821  0.50115315  0.16965600  1
  I  I112  1  0.00265127  0.49689940  0.50088959  1
  I  I113  1  0.00039183  0.49714019  0.83001314  1
  I  I114  1  0.00197611  0.83549707  0.16638523  1
  I  I115  1  -0.00278712  0.83706070  0.49834242  1
  I  I116  1  0.00098209  0.83811072  0.83470450  1
  I  I117  1  0.33597381  0.16299167  0.17123314  1
  I  I118  1  0.33326866  0.17112947  0.49926163  1
  I  I119  1  0.32901515  0.15935489  0.82821652  1
  I  I120  1  0.33322690  0.49625072  0.16581878  1
  I  I121  1  0.33315715  0.49219549  0.49937463  1
  I  I122  1  0.33298513  0.50179390  0.83506312  1
  I  I123  1  0.33317400  0.83996595  0.16363576  1
  I  I124  1  0.33344289  0.83466320  0.50148611  1
  I  I125  1  0.32996385  0.83704576  0.83406484  1
  I  I126  1  0.66606775  0.15899423  0.17693470  1
  I  I127  1  0.66658906  0.16666847  0.49479421  1
  I  I128  1  0.66678288  0.16521233  0.83110950  1
  I  I129  1  0.66648317  0.50812068  0.17058510  1
  I  I130  1  0.66381163  0.49705988  0.49883335  1
  I  I131  1  0.66671240  0.50059631  0.83135791  1
  I  I132  1  0.66447760  0.83582764  0.16844783  1
  I  I133  1  0.67059217  0.83698589  0.50400881  1
  I  I134  1  0.66956216  0.83422747  0.82875393  1
