# generated using pymatgen
data_Cs27Sn13Pb14I81
_symmetry_space_group_name_H-M   'P 1'
_cell_length_a   19.00511058
_cell_length_b   18.97781319
_cell_length_c   18.99605797
_cell_angle_alpha   89.99889127
_cell_angle_beta   90.00047470
_cell_angle_gamma   89.99797761
_symmetry_Int_Tables_number   1
_chemical_formula_structural   Cs27Sn13Pb14I81
_chemical_formula_sum   'Cs27 Sn13 Pb14 I81'
_cell_volume   6851.41153133
_cell_formula_units_Z   1
loop_
 _symmetry_equiv_pos_site_id
 _symmetry_equiv_pos_as_xyz
  1  'x, y, z'
loop_
 _atom_site_type_symbol
 _atom_site_label
 _atom_site_symmetry_multiplicity
 _atom_site_fract_x
 _atom_site_fract_y
 _atom_site_fract_z
 _atom_site_occupancy
  Cs  Cs0  1  0.00090522  -0.00057093  -0.00106958  1
  Cs  Cs1  1  -0.00089532  0.00173447  0.32941569  1
  Cs  Cs2  1  0.00203717  0.00025038  0.67085434  1
  Cs  Cs3  1  0.00154590  0.33693843  0.00916500  1
  Cs  Cs4  1  -0.00663921  0.33691113  0.32656821  1
  Cs  Cs5  1  0.00035305  0.33981375  0.66474096  1
  Cs  Cs6  1  -0.00120772  0.66912121  -0.00209337  1
  Cs  Cs7  1  0.00197818  0.66359731  0.33969677  1
  Cs  Cs8  1  0.00146373  0.66086362  0.66323596  1
  Cs  Cs9  1  0.33345653  0.00003411  -0.00183852  1
  Cs  Cs10  1  0.33489085  -0.00066589  0.33548877  1
  Cs  Cs11  1  0.33312842  0.00112029  0.66602387  1
  Cs  Cs12  1  0.33409699  0.33790377  0.00253072  1
  Cs  Cs13  1  0.33206293  0.33490832  0.32865748  1
  Cs  Cs14  1  0.33297119  0.33102102  0.66793152  1
  Cs  Cs15  1  0.33634070  0.66391632  0.00032658  1
  Cs  Cs16  1  0.33184602  0.66504617  0.33839797  1
  Cs  Cs17  1  0.33033295  0.66402158  0.66159561  1
  Cs  Cs18  1  0.66557411  -0.00202818  -0.00224139  1
  Cs  Cs19  1  0.66545972  0.00164749  0.33565378  1
  Cs  Cs20  1  0.66532910  0.00092976  0.66768469  1
  Cs  Cs21  1  0.66382446  0.34157997  0.00094339  1
  Cs  Cs22  1  0.67475258  0.33364062  0.33710151  1
  Cs  Cs23  1  0.66882095  0.33401267  0.66258663  1
  Cs  Cs24  1  0.66460426  0.66610228  0.00075227  1
  Cs  Cs25  1  0.66530344  0.66720242  0.33116027  1
  Cs  Cs26  1  0.66753019  0.66592371  0.66770944  1
  Sn  Sn27  1  0.50003140  0.49975525  0.50021064  1
  Sn  Sn28  1  0.16628988  0.16639902  0.50011804  1
  Sn  Sn29  1  0.16701557  0.83371713  0.83394952  1
  Sn  Sn30  1  0.16633547  0.16624592  0.83282498  1
  Sn  Sn31  1  0.49961798  0.83449458  0.16599992  1
  Sn  Sn32  1  0.83353487  0.16639664  0.83370296  1
  Sn  Sn33  1  0.83334239  0.83433084  0.50039832  1
  Sn  Sn34  1  0.50026394  0.16558650  0.16584215  1
  Sn  Sn35  1  0.83325498  0.83391167  0.16667718  1
  Sn  Sn36  1  0.83337777  0.83401904  0.83307738  1
  Sn  Sn37  1  0.50018270  0.16596522  0.83432930  1
  Sn  Sn38  1  0.16711579  0.83382077  0.16591643  1
  Sn  Sn39  1  0.49960212  0.83392642  0.83360772  1
  Pb  Pb40  1  0.49853557  0.16830936  0.50007751  1
  Pb  Pb41  1  0.16675620  0.49976974  0.83356441  1
  Pb  Pb42  1  0.83319963  0.50328784  0.16638216  1
  Pb  Pb43  1  0.83335101  0.49974127  0.83355400  1
  Pb  Pb44  1  0.49991734  0.49993494  0.83148769  1
  Pb  Pb45  1  0.16442027  0.83517092  0.50034870  1
  Pb  Pb46  1  0.83133307  0.50256887  0.50014638  1
  Pb  Pb47  1  0.50009966  0.50020664  0.16883989  1
  Pb  Pb48  1  0.16865228  0.16463767  0.16582948  1
  Pb  Pb49  1  0.83056654  0.16435240  0.16366574  1
  Pb  Pb50  1  0.83601464  0.16447409  0.50241837  1
  Pb  Pb51  1  0.16844150  0.49621585  0.49999663  1
  Pb  Pb52  1  0.50171407  0.83235612  0.50036054  1
  Pb  Pb53  1  0.16679738  0.50371253  0.16644263  1
  I  I54  1  0.16411090  -0.00376175  0.16491042  1
  I  I55  1  0.16945498  0.00251178  0.50354025  1
  I  I56  1  0.16678316  -0.00079025  0.83310222  1
  I  I57  1  0.16962804  0.33291410  0.16650576  1
  I  I58  1  0.16799801  0.32863117  0.50964899  1
  I  I59  1  0.16786063  0.32929515  0.82759325  1
  I  I60  1  0.16943794  0.67256042  0.16067938  1
  I  I61  1  0.16578187  0.66679793  0.49954075  1
  I  I62  1  0.16637368  0.67093198  0.83773092  1
  I  I63  1  0.50007473  -0.00162220  0.16324922  1
  I  I64  1  0.50018437  0.00009351  0.49948801  1
  I  I65  1  0.50026247  -0.00073178  0.83605153  1
  I  I66  1  0.49787803  0.33017331  0.16117080  1
  I  I67  1  0.49832767  0.33583174  0.50105818  1
  I  I68  1  0.49948280  0.32949618  0.83705660  1
  I  I69  1  0.50122935  0.67063883  0.16242118  1
  I  I70  1  0.50111169  0.66468670  0.50007224  1
  I  I71  1  0.50115343  0.67050488  0.83734552  1
  I  I72  1  0.83568673  -0.00422718  0.16846779  1
  I  I73  1  0.83044451  -0.00359528  0.49781958  1
  I  I74  1  0.83294886  -0.00163319  0.83336768  1
  I  I75  1  0.83164401  0.33276996  0.16603945  1
  I  I76  1  0.83309796  0.33303573  0.50203924  1
  I  I77  1  0.83187850  0.32956330  0.83129266  1
  I  I78  1  0.82935790  0.67247907  0.16252232  1
  I  I79  1  0.83483074  0.67096538  0.50274792  1
  I  I80  1  0.83283575  0.67134709  0.83413236  1
  I  I81  1  0.16478436  0.16321654  -0.00365328  1
  I  I82  1  0.17112563  0.16363273  0.33485764  1
  I  I83  1  0.16999612  0.15968792  0.66904716  1
  I  I84  1  0.16799633  0.49487681  0.00002254  1
  I  I85  1  0.16882148  0.50076630  0.33343319  1
  I  I86  1  0.16744165  0.50602376  0.66658846  1
  I  I87  1  0.16282711  0.83896170  -0.00117597  1
  I  I88  1  0.16721832  0.83503814  0.33068385  1
  I  I89  1  0.16752124  0.83552399  0.67011835  1
  I  I90  1  0.49776286  0.16139466  -0.00135478  1
  I  I91  1  0.49670247  0.16187787  0.33051043  1
  I  I92  1  0.50118539  0.16266059  0.67032534  1
  I  I93  1  0.50014030  0.50037642  0.00012137  1
  I  I94  1  0.49929699  0.50178323  0.33607319  1
  I  I95  1  0.50030175  0.50117206  0.66414515  1
  I  I96  1  0.50365983  0.83611181  -0.00053469  1
  I  I97  1  0.50057770  0.83587835  0.33020863  1
  I  I98  1  0.50036099  0.83687110  0.67021839  1
  I  I99  1  0.83937098  0.15932589  -0.00427399  1
  I  I100  1  0.83295101  0.16476245  0.33304017  1
  I  I101  1  0.82673493  0.15893134  0.67056148  1
  I  I102  1  0.83199989  0.50191716  -0.00003828  1
  I  I103  1  0.83203511  0.50108928  0.33339522  1
  I  I104  1  0.83195624  0.50376184  0.66670467  1
  I  I105  1  0.83349834  0.83678113  -0.00074799  1
  I  I106  1  0.83232155  0.83159678  0.33256005  1
  I  I107  1  0.83203955  0.83680989  0.66836593  1
  I  I108  1  -0.00010648  0.16576409  0.16710503  1
  I  I109  1  0.00352597  0.16371348  0.50605186  1
  I  I110  1  0.00023414  0.15717655  0.82672958  1
  I  I111  1  -0.00000095  0.49835541  0.16836704  1
  I  I112  1  -0.00006214  0.50117665  0.50037193  1
  I  I113  1  0.00003084  0.50201627  0.83082221  1
  I  I114  1  -0.00007359  0.83263298  0.16266920  1
  I  I115  1  -0.00325360  0.83423565  0.50021331  1
  I  I116  1  -0.00004902  0.83920584  0.83685841  1
  I  I117  1  0.33642742  0.16041678  0.16239969  1
  I  I118  1  0.33103403  0.16532591  0.50692142  1
  I  I119  1  0.33353830  0.15995609  0.83187763  1
  I  I120  1  0.33370652  0.50218113  0.16775099  1
  I  I121  1  0.33583949  0.50452161  0.50034784  1
  I  I122  1  0.33346140  0.50141359  0.83192008  1
  I  I123  1  0.33398826  0.83701575  0.15972026  1
  I  I124  1  0.33319962  0.83166246  0.49952727  1
  I  I125  1  0.33350316  0.83937345  0.84024311  1
  I  I126  1  0.66277348  0.16008076  0.16328230  1
  I  I127  1  0.66685924  0.16813257  0.50036427  1
  I  I128  1  0.66615754  0.15872046  0.83710975  1
  I  I129  1  0.66638548  0.50247639  0.16715031  1
  I  I130  1  0.66395955  0.49832221  0.50040693  1
  I  I131  1  0.66652147  0.50130030  0.83228190  1
  I  I132  1  0.66620034  0.83606954  0.16382769  1
  I  I133  1  0.66950106  0.83245094  0.50082783  1
  I  I134  1  0.66658127  0.83832373  0.83530848  1
