# generated using pymatgen
data_Cs27Sn14Pb13I81
_symmetry_space_group_name_H-M   'P 1'
_cell_length_a   18.97327282
_cell_length_b   18.98099797
_cell_length_c   18.97327288
_cell_angle_alpha   90.00061031
_cell_angle_beta   90.00033869
_cell_angle_gamma   90.00061039
_symmetry_Int_Tables_number   1
_chemical_formula_structural   Cs27Sn14Pb13I81
_chemical_formula_sum   'Cs27 Sn14 Pb13 I81'
_cell_volume   6832.87612188
_cell_formula_units_Z   1
loop_
 _symmetry_equiv_pos_site_id
 _symmetry_equiv_pos_as_xyz
  1  'x, y, z'
loop_
 _atom_site_type_symbol
 _atom_site_label
 _atom_site_symmetry_multiplicity
 _atom_site_fract_x
 _atom_site_fract_y
 _atom_site_fract_z
 _atom_site_occupancy
  Cs  Cs0  1  -0.00052741  -0.00772705  -0.00254513  1
  Cs  Cs1  1  -0.00212684  0.00708869  0.33349524  1
  Cs  Cs2  1  0.00284239  -0.00481887  0.66950891  1
  Cs  Cs3  1  0.00087804  0.33460979  0.00052197  1
  Cs  Cs4  1  -0.00038119  0.33229686  0.33454764  1
  Cs  Cs5  1  -0.00093761  0.33362290  0.66572900  1
  Cs  Cs6  1  0.00100132  0.66918136  -0.00051879  1
  Cs  Cs7  1  -0.00123270  0.66423545  0.33104623  1
  Cs  Cs8  1  0.00319807  0.67017549  0.66986475  1
  Cs  Cs9  1  0.33534802  0.00591592  0.00201470  1
  Cs  Cs10  1  0.33401591  0.00073535  0.33134100  1
  Cs  Cs11  1  0.33078820  -0.00772686  0.66613906  1
  Cs  Cs12  1  0.33309631  0.33255715  -0.00023693  1
  Cs  Cs13  1  0.32941640  0.33307073  0.33201942  1
  Cs  Cs14  1  0.33385532  0.33460985  0.66754469  1
  Cs  Cs15  1  0.33142347  0.66454869  -0.00190995  1
  Cs  Cs16  1  0.33491195  0.66652528  0.33480231  1
  Cs  Cs17  1  0.33281452  0.66918128  0.66766805  1
  Cs  Cs18  1  0.66467415  0.00073535  0.00068244  1
  Cs  Cs19  1  0.66714321  -0.00370575  0.33380975  1
  Cs  Cs20  1  0.66682865  0.00708877  0.66453998  1
  Cs  Cs21  1  0.66535285  0.33307074  -0.00391695  1
  Cs  Cs22  1  0.67009699  0.33471195  0.33676365  1
  Cs  Cs23  1  0.66788094  0.33229690  0.66628559  1
  Cs  Cs24  1  0.66813552  0.66652526  0.00157867  1
  Cs  Cs25  1  0.66684472  0.66798822  0.33351144  1
  Cs  Cs26  1  0.66437953  0.66423554  0.66543394  1
  Sn  Sn27  1  0.83307066  0.16758793  0.16656825  1
  Sn  Sn28  1  0.16652552  0.16777218  0.83319221  1
  Sn  Sn29  1  0.50017200  0.49974579  0.16683868  1
  Sn  Sn30  1  0.50069684  0.83265536  0.83359052  1
  Sn  Sn31  1  0.49990165  0.16758795  0.49973725  1
  Sn  Sn32  1  0.83353678  0.83293052  0.50020345  1
  Sn  Sn33  1  0.83285771  0.50033672  0.49952433  1
  Sn  Sn34  1  0.16664320  0.50081052  0.16598254  1
  Sn  Sn35  1  0.83316557  0.49908323  0.16714418  1
  Sn  Sn36  1  0.50047757  0.49908324  0.49983220  1
  Sn  Sn37  1  0.16732319  0.49888984  0.83398987  1
  Sn  Sn38  1  0.16692390  0.83265534  0.16736349  1
  Sn  Sn39  1  0.49931585  0.50081045  0.83330994  1
  Sn  Sn40  1  0.83261715  0.16685013  0.49928392  1
  Pb  Pb41  1  0.83481621  0.83304912  0.16836452  1
  Pb  Pb42  1  0.50169789  0.83304915  0.50148289  1
  Pb  Pb43  1  0.83559126  0.16677251  0.83336234  1
  Pb  Pb44  1  0.83333591  0.50010308  0.83340587  1
  Pb  Pb45  1  0.16431339  0.16728148  0.16485006  1
  Pb  Pb46  1  0.49818347  0.16728147  0.83098012  1
  Pb  Pb47  1  0.16876631  0.83273146  0.83543298  1
  Pb  Pb48  1  0.16669567  0.16677251  0.50225786  1
  Pb  Pb49  1  0.49801678  0.83098232  0.16468345  1
  Pb  Pb50  1  0.83018232  0.83320644  0.83085536  1
  Pb  Pb51  1  0.50254745  0.16930937  0.16921415  1
  Pb  Pb52  1  0.16673923  0.50010303  0.50000260  1
  Pb  Pb53  1  0.16418867  0.83320649  0.49684901  1
  I  I54  1  0.16365815  -0.00177685  0.16473896  1
  I  I55  1  0.16708546  0.00004437  0.50143117  1
  I  I56  1  0.16697950  0.00175322  0.83364615  1
  I  I57  1  0.16827138  0.33687210  0.16437289  1
  I  I58  1  0.16259601  0.33358359  0.49666009  1
  I  I59  1  0.17204119  0.33552496  0.83870772  1
  I  I60  1  0.16372169  0.66384275  0.16058504  1
  I  I61  1  0.16626042  0.66642004  0.50502987  1
  I  I62  1  0.16859509  0.66346993  0.83526186  1
  I  I63  1  0.49914835  0.00022624  0.16581489  1
  I  I64  1  0.50479919  0.00251291  0.50335973  1
  I  I65  1  0.49807241  -0.00177689  0.83032529  1
  I  I66  1  0.49426321  0.33783811  0.16092977  1
  I  I67  1  0.50838533  0.33508499  0.50244482  1
  I  I68  1  0.49770605  0.33687210  0.83493782  1
  I  I69  1  0.50529243  0.66209701  0.17195920  1
  I  I70  1  0.50434824  0.66306877  0.49842316  1
  I  I71  1  0.49391846  0.66384282  0.83038830  1
  I  I72  1  0.83669342  0.00251292  0.17146594  1
  I  I73  1  0.82925816  0.00131253  0.49592508  1
  I  I74  1  0.83476423  0.00004440  0.83375181  1
  I  I75  1  0.83577778  0.33508497  0.17505215  1
  I  I76  1  0.82887814  0.33385178  0.49554454  1
  I  I77  1  0.82999356  0.33358359  0.82926266  1
  I  I78  1  0.83175665  0.66306880  0.17101473  1
  I  I79  1  0.82911427  0.66492019  0.49578090  1
  I  I80  1  0.83836327  0.66642000  0.83292733  1
  I  I81  1  0.16651383  0.16929999  -0.00285196  1
  I  I82  1  0.16754421  0.16659775  0.33318685  1
  I  I83  1  0.16507054  0.17355435  0.67005378  1
  I  I84  1  0.16937879  0.49974062  0.00047872  1
  I  I85  1  0.16847038  0.50380148  0.33009131  1
  I  I86  1  0.16942033  0.49636983  0.66958806  1
  I  I87  1  0.16452731  0.83030169  0.00290768  1
  I  I88  1  0.16784542  0.82522092  0.32919503  1
  I  I89  1  0.16590039  0.83348751  0.66692131  1
  I  I90  1  0.50099794  0.16635469  0.00004033  1
  I  I91  1  0.50065688  0.17104714  0.33728256  1
  I  I92  1  0.50769721  0.17314359  0.66324289  1
  I  I93  1  0.49947800  0.50502913  0.00000693  1
  I  I94  1  0.50053108  0.49564892  0.33349734  1
  I  I95  1  0.50044840  0.50007866  0.66642431  1
  I  I96  1  0.49946011  0.82793319  -0.00325592  1
  I  I97  1  0.49939781  0.83292780  0.33330564  1
  I  I98  1  0.49886590  0.82645811  0.66929340  1
  I  I99  1  0.83553615  0.17306742  0.00303632  1
  I  I100  1  0.83160417  0.16805039  0.33437054  1
  I  I101  1  0.82987707  0.16852433  0.66300253  1
  I  I102  1  0.83129101  0.49519550  0.00338448  1
  I  I103  1  0.83109816  0.49960794  0.33343770  1
  I  I104  1  0.82996723  0.49820374  0.66328504  1
  I  I105  1  0.83447303  0.83382463  0.00025807  1
  I  I106  1  0.83254989  0.83265714  0.33639560  1
  I  I107  1  0.83448681  0.83288535  0.66256843  1
  I  I108  1  -0.00342375  0.17314410  0.17436392  1
  I  I109  1  -0.00366410  0.16852409  0.49654408  1
  I  I110  1  0.00338712  0.17355427  0.83173689  1
  I  I111  1  -0.00024235  0.50007849  0.16711503  1
  I  I112  1  -0.00338163  0.49820368  0.49663369  1
  I  I113  1  0.00292140  0.49636979  0.83608737  1
  I  I114  1  0.00262672  0.82645802  0.16553257  1
  I  I115  1  -0.00409822  0.83288568  0.50115360  1
  I  I116  1  0.00025465  0.83348764  0.83256700  1
  I  I117  1  0.33337367  0.16635461  0.16766436  1
  I  I118  1  0.33636959  0.17306734  0.50220299  1
  I  I119  1  0.33048132  0.16929991  0.83318082  1
  I  I120  1  0.33334029  0.50502909  0.16614463  1
  I  I121  1  0.33671782  0.49519571  0.49795789  1
  I  I122  1  0.33381206  0.49974085  0.83604517  1
  I  I123  1  0.33007738  0.82793364  0.16612664  1
  I  I124  1  0.33359138  0.83382436  0.50113971  1
  I  I125  1  0.33624104  0.83030157  0.83119407  1
  I  I126  1  0.67061589  0.17104682  0.16732392  1
  I  I127  1  0.66770387  0.16805060  0.49827062  1
  I  I128  1  0.66652020  0.16659798  0.83421083  1
  I  I129  1  0.66683067  0.49564915  0.16719792  1
  I  I130  1  0.66677100  0.49960778  0.49776486  1
  I  I131  1  0.66342466  0.50380128  0.83513693  1
  I  I132  1  0.66663900  0.83292785  0.16606462  1
  I  I133  1  0.66972895  0.83265701  0.49921630  1
  I  I134  1  0.66252839  0.82522091  0.83451203  1
