# generated using pymatgen
data_Cs27Sn13Pb14I81
_symmetry_space_group_name_H-M   'P 1'
_cell_length_a   18.97787282
_cell_length_b   18.97996594
_cell_length_c   18.97390158
_cell_angle_alpha   90.00049261
_cell_angle_beta   89.99921755
_cell_angle_gamma   90.00000290
_symmetry_Int_Tables_number   1
_chemical_formula_structural   Cs27Sn13Pb14I81
_chemical_formula_sum   'Cs27 Sn13 Pb14 I81'
_cell_volume   6834.38758101
_cell_formula_units_Z   1
loop_
 _symmetry_equiv_pos_site_id
 _symmetry_equiv_pos_as_xyz
  1  'x, y, z'
loop_
 _atom_site_type_symbol
 _atom_site_label
 _atom_site_symmetry_multiplicity
 _atom_site_fract_x
 _atom_site_fract_y
 _atom_site_fract_z
 _atom_site_occupancy
  Cs  Cs0  1  -0.00044951  0.00428441  0.00548541  1
  Cs  Cs1  1  0.00133693  -0.00543642  0.32751356  1
  Cs  Cs2  1  0.00036047  -0.00129384  0.66607821  1
  Cs  Cs3  1  -0.00630479  0.33160350  -0.00049840  1
  Cs  Cs4  1  0.00147141  0.33217730  0.33247021  1
  Cs  Cs5  1  -0.00027916  0.33546890  0.66784176  1
  Cs  Cs6  1  -0.00160545  0.66180597  -0.00411471  1
  Cs  Cs7  1  -0.00542231  0.67443372  0.33695490  1
  Cs  Cs8  1  -0.00208126  0.66516150  0.66451509  1
  Cs  Cs9  1  0.33293354  0.00059574  -0.00041257  1
  Cs  Cs10  1  0.32954098  0.00047244  0.33167579  1
  Cs  Cs11  1  0.33499313  0.00060875  0.66672679  1
  Cs  Cs12  1  0.33224967  0.33403708  0.00050397  1
  Cs  Cs13  1  0.33271515  0.33315191  0.33536483  1
  Cs  Cs14  1  0.33329439  0.33320267  0.66495299  1
  Cs  Cs15  1  0.33581053  0.66542976  -0.00087484  1
  Cs  Cs16  1  0.33276309  0.66580529  0.33097977  1
  Cs  Cs17  1  0.33262358  0.66634405  0.66809707  1
  Cs  Cs18  1  0.66839259  0.00033954  -0.00159047  1
  Cs  Cs19  1  0.66703491  -0.00088558  0.33315484  1
  Cs  Cs20  1  0.66337655  0.00132114  0.66859218  1
  Cs  Cs21  1  0.67259129  0.33303368  0.00247160  1
  Cs  Cs22  1  0.66666356  0.33652230  0.33429117  1
  Cs  Cs23  1  0.66717668  0.33130688  0.66488022  1
  Cs  Cs24  1  0.66320231  0.66695107  0.00859320  1
  Cs  Cs25  1  0.67275394  0.66547937  0.32587076  1
  Cs  Cs26  1  0.66581910  0.66812797  0.66588672  1
  Sn  Sn27  1  0.83331055  0.83338245  0.83308394  1
  Sn  Sn28  1  0.16672930  0.50007582  0.16787320  1
  Sn  Sn29  1  0.16741971  0.49963265  0.49896779  1
  Sn  Sn30  1  0.49965705  0.83189278  0.50031826  1
  Sn  Sn31  1  0.49962095  0.16679384  0.16553661  1
  Sn  Sn32  1  0.49928981  0.50151254  0.50071441  1
  Sn  Sn33  1  0.49995204  0.49965074  0.83262595  1
  Sn  Sn34  1  0.16651138  0.83425294  0.83304972  1
  Sn  Sn35  1  0.49932494  0.16716015  0.83454077  1
  Sn  Sn36  1  0.16550992  0.16699660  0.50077583  1
  Sn  Sn37  1  0.49981356  0.83317443  0.83255455  1
  Sn  Sn38  1  0.83496687  0.16648727  0.50023201  1
  Sn  Sn39  1  0.16731441  0.16611282  0.83251502  1
  Pb  Pb40  1  0.16857562  0.83325002  0.50184467  1
  Pb  Pb41  1  0.83703318  0.49985322  0.16692485  1
  Pb  Pb42  1  0.83061306  0.16661012  0.16985291  1
  Pb  Pb43  1  0.16687594  0.83034784  0.16329553  1
  Pb  Pb44  1  0.49922786  0.16674541  0.50037764  1
  Pb  Pb45  1  0.83343742  0.83352617  0.16346538  1
  Pb  Pb46  1  0.49871370  0.49793611  0.16705470  1
  Pb  Pb47  1  0.83353107  0.16498279  0.83171012  1
  Pb  Pb48  1  0.83047795  0.83567124  0.50189921  1
  Pb  Pb49  1  0.49969340  0.83564101  0.16661204  1
  Pb  Pb50  1  0.82948330  0.50274192  0.83303712  1
  Pb  Pb51  1  0.16817040  0.49949624  0.83269854  1
  Pb  Pb52  1  0.83334635  0.49827812  0.50016861  1
  Pb  Pb53  1  0.16813167  0.16825344  0.16648068  1
  I  I54  1  0.16767484  0.00009893  0.16872126  1
  I  I55  1  0.16625649  0.00281843  0.50338713  1
  I  I56  1  0.17256498  0.00088644  0.82766586  1
  I  I57  1  0.17037200  0.33589930  0.16635273  1
  I  I58  1  0.16983294  0.33299694  0.50248326  1
  I  I59  1  0.17271874  0.33045751  0.83186757  1
  I  I60  1  0.16964615  0.66265758  0.17188270  1
  I  I61  1  0.17050595  0.66386131  0.49852849  1
  I  I62  1  0.16858122  0.66901931  0.83401601  1
  I  I63  1  0.49859078  0.00350389  0.16347238  1
  I  I64  1  0.50078872  -0.00180816  0.50432844  1
  I  I65  1  0.49945487  -0.00018077  0.83220558  1
  I  I66  1  0.49821897  0.33030177  0.16287255  1
  I  I67  1  0.49896907  0.33560607  0.50321431  1
  I  I68  1  0.49358155  0.33266721  0.83206903  1
  I  I69  1  0.49891333  0.66644055  0.16375029  1
  I  I70  1  0.49406237  0.66589943  0.50973909  1
  I  I71  1  0.49878496  0.66719932  0.82803706  1
  I  I72  1  0.83351193  0.00029943  0.16756438  1
  I  I73  1  0.83676542  0.00336816  0.50169329  1
  I  I74  1  0.82741254  -0.00273210  0.83054442  1
  I  I75  1  0.83161843  0.33301486  0.16461197  1
  I  I76  1  0.83093964  0.33025930  0.50208352  1
  I  I77  1  0.83343724  0.33321264  0.83311590  1
  I  I78  1  0.83126015  0.66666958  0.16687023  1
  I  I79  1  0.83537110  0.66701167  0.50123474  1
  I  I80  1  0.83670890  0.67071903  0.83142593  1
  I  I81  1  0.17027006  0.16402072  -0.00331172  1
  I  I82  1  0.16656744  0.16972549  0.33635410  1
  I  I83  1  0.16995167  0.16868055  0.66700305  1
  I  I84  1  0.16990244  0.50112787  0.00123826  1
  I  I85  1  0.17457640  0.49242481  0.33543131  1
  I  I86  1  0.16986535  0.49820450  0.66391532  1
  I  I87  1  0.17074401  0.83850553  -0.00522277  1
  I  I88  1  0.16920981  0.83631976  0.33354520  1
  I  I89  1  0.16721873  0.83305668  0.67028270  1
  I  I90  1  0.49426724  0.16599277  -0.00281296  1
  I  I91  1  0.50018730  0.16715421  0.33198499  1
  I  I92  1  0.49905937  0.16575586  0.66955595  1
  I  I93  1  0.49749079  0.50317241  -0.00292626  1
  I  I94  1  0.49749308  0.50123413  0.33666047  1
  I  I95  1  0.49381674  0.49877277  0.66663237  1
  I  I96  1  0.50010098  0.83055698  -0.00402393  1
  I  I97  1  0.49940631  0.83146825  0.33647374  1
  I  I98  1  0.49968266  0.83515558  0.66835380  1
  I  I99  1  0.83508810  0.16528463  -0.00012751  1
  I  I100  1  0.83689711  0.16680730  0.33768511  1
  I  I101  1  0.83148011  0.16618329  0.66401273  1
  I  I102  1  0.83406990  0.49962317  -0.00027667  1
  I  I103  1  0.82649091  0.49912547  0.33368047  1
  I  I104  1  0.83812290  0.49932756  0.66673427  1
  I  I105  1  0.82910754  0.83511641  -0.00489626  1
  I  I106  1  0.83127669  0.83415163  0.33367933  1
  I  I107  1  0.83397412  0.83424260  0.66986607  1
  I  I108  1  0.00014642  0.16878963  0.16370892  1
  I  I109  1  0.00217938  0.17283992  0.50690814  1
  I  I110  1  0.00328956  0.16274823  0.83092195  1
  I  I111  1  0.00501091  0.49780356  0.17077692  1
  I  I112  1  0.00357204  0.49716672  0.49677696  1
  I  I113  1  0.00007981  0.50064747  0.83407369  1
  I  I114  1  0.00028869  0.83396715  0.16679219  1
  I  I115  1  0.00010449  0.83098993  0.50283832  1
  I  I116  1  0.00090567  0.83845074  0.83376389  1
  I  I117  1  0.33605112  0.16716948  0.16649486  1
  I  I118  1  0.33080054  0.16823843  0.50179207  1
  I  I119  1  0.33385986  0.16217523  0.83085227  1
  I  I120  1  0.33103663  0.49847103  0.16791562  1
  I  I121  1  0.33359740  0.49662296  0.50102209  1
  I  I122  1  0.33643014  0.50367915  0.83193943  1
  I  I123  1  0.33338577  0.83417667  0.16411568  1
  I  I124  1  0.33658846  0.83509379  0.50748719  1
  I  I125  1  0.33443795  0.83457169  0.82975383  1
  I  I126  1  0.66258980  0.16727399  0.16085024  1
  I  I127  1  0.66768342  0.16583926  0.50057432  1
  I  I128  1  0.66339558  0.16550188  0.83416135  1
  I  I129  1  0.66649137  0.49914937  0.16630820  1
  I  I130  1  0.66307850  0.50070381  0.50535204  1
  I  I131  1  0.66104172  0.49735879  0.82698687  1
  I  I132  1  0.66624682  0.83333002  0.16552057  1
  I  I133  1  0.66238022  0.83105771  0.50697126  1
  I  I134  1  0.66477392  0.83433704  0.82849176  1
