# generated using pymatgen
data_Cs27Sn14Pb13I81
_symmetry_space_group_name_H-M   'P 1'
_cell_length_a   18.97786027
_cell_length_b   18.97908291
_cell_length_c   18.96971805
_cell_angle_alpha   90.00144064
_cell_angle_beta   89.99895386
_cell_angle_gamma   89.99963020
_symmetry_Int_Tables_number   1
_chemical_formula_structural   Cs27Sn14Pb13I81
_chemical_formula_sum   'Cs27 Sn14 Pb13 I81'
_cell_volume   6832.55825673
_cell_formula_units_Z   1
loop_
 _symmetry_equiv_pos_site_id
 _symmetry_equiv_pos_as_xyz
  1  'x, y, z'
loop_
 _atom_site_type_symbol
 _atom_site_label
 _atom_site_symmetry_multiplicity
 _atom_site_fract_x
 _atom_site_fract_y
 _atom_site_fract_z
 _atom_site_occupancy
  Cs  Cs0  1  -0.00008409  -0.00077413  -0.00197931  1
  Cs  Cs1  1  0.00066119  -0.00005562  0.33413391  1
  Cs  Cs2  1  -0.00041427  0.00195995  0.66829098  1
  Cs  Cs3  1  -0.00237503  0.33559867  0.00218052  1
  Cs  Cs4  1  0.00281759  0.33640093  0.33150147  1
  Cs  Cs5  1  -0.00067442  0.33517414  0.66628457  1
  Cs  Cs6  1  -0.00224636  0.66508727  -0.00085869  1
  Cs  Cs7  1  0.00083278  0.66351748  0.33403311  1
  Cs  Cs8  1  0.00026038  0.66676273  0.66692853  1
  Cs  Cs9  1  0.33107655  -0.00173681  0.00044340  1
  Cs  Cs10  1  0.33335390  -0.00092454  0.33117634  1
  Cs  Cs11  1  0.32799647  0.00430510  0.67185360  1
  Cs  Cs12  1  0.33686120  0.33283817  0.00088043  1
  Cs  Cs13  1  0.33038388  0.33258150  0.33241498  1
  Cs  Cs14  1  0.34115932  0.33568101  0.66779234  1
  Cs  Cs15  1  0.33505244  0.66903782  -0.00117672  1
  Cs  Cs16  1  0.33376282  0.66889936  0.33333221  1
  Cs  Cs17  1  0.33278807  0.66296119  0.66791609  1
  Cs  Cs18  1  0.66797131  -0.00296009  0.00186283  1
  Cs  Cs19  1  0.66592027  -0.00295645  0.33718364  1
  Cs  Cs20  1  0.66979155  0.00671384  0.65821240  1
  Cs  Cs21  1  0.66550940  0.33300993  -0.00001772  1
  Cs  Cs22  1  0.66496226  0.33197457  0.33169533  1
  Cs  Cs23  1  0.65889924  0.32854155  0.66729398  1
  Cs  Cs24  1  0.66836778  0.66890350  -0.00142741  1
  Cs  Cs25  1  0.66390999  0.67199666  0.33568915  1
  Cs  Cs26  1  0.66678796  0.66540541  0.66728509  1
  Sn  Sn27  1  0.49993082  0.16724345  0.16663416  1
  Sn  Sn28  1  0.16543667  0.83383340  0.16730212  1
  Sn  Sn29  1  0.50004823  0.49997051  0.16689984  1
  Sn  Sn30  1  0.83452039  0.83403521  0.16636927  1
  Sn  Sn31  1  0.83371775  0.16565431  0.16666986  1
  Sn  Sn32  1  0.83349848  0.49985788  0.50099916  1
  Sn  Sn33  1  0.83387986  0.50033624  0.83211037  1
  Sn  Sn34  1  0.16643630  0.16691365  0.49947918  1
  Sn  Sn35  1  0.16622954  0.16588068  0.16708388  1
  Sn  Sn36  1  0.16603757  0.49980837  0.83290014  1
  Sn  Sn37  1  0.16600460  0.49983721  0.50111520  1
  Sn  Sn38  1  0.50147665  0.83381454  0.83264078  1
  Sn  Sn39  1  0.16646491  0.83334261  0.49942969  1
  Sn  Sn40  1  0.83223507  0.83297601  0.83341103  1
  Pb  Pb41  1  0.50071447  0.50139973  0.83523976  1
  Pb  Pb42  1  0.50018528  0.16338961  0.83579370  1
  Pb  Pb43  1  0.83342111  0.16678932  0.83522018  1
  Pb  Pb44  1  0.49682146  0.83347251  0.50363356  1
  Pb  Pb45  1  0.50004507  0.83393009  0.16568929  1
  Pb  Pb46  1  0.49708076  0.16641044  0.49740120  1
  Pb  Pb47  1  0.49999241  0.50014883  0.49761186  1
  Pb  Pb48  1  0.16824841  0.50032850  0.16667811  1
  Pb  Pb49  1  0.83538519  0.83161790  0.50019880  1
  Pb  Pb50  1  0.16649738  0.17003147  0.83380233  1
  Pb  Pb51  1  0.83128822  0.50062734  0.16683677  1
  Pb  Pb52  1  0.83569596  0.16952716  0.49726206  1
  Pb  Pb53  1  0.16572733  0.83154990  0.83352904  1
  I  I54  1  0.16864785  0.00000727  0.17341705  1
  I  I55  1  0.16828818  -0.00004867  0.49362164  1
  I  I56  1  0.16735475  -0.00004307  0.83093584  1
  I  I57  1  0.16487950  0.33080130  0.16926668  1
  I  I58  1  0.16219474  0.33369081  0.49739797  1
  I  I59  1  0.16086424  0.33797390  0.83115901  1
  I  I60  1  0.16392489  0.66934183  0.16895364  1
  I  I61  1  0.16303115  0.66626704  0.49910001  1
  I  I62  1  0.16582614  0.66376794  0.83045785  1
  I  I63  1  0.49852051  0.00269747  0.16436083  1
  I  I64  1  0.50057616  -0.00009647  0.49734893  1
  I  I65  1  0.50373257  -0.00438441  0.83672742  1
  I  I66  1  0.49915519  0.33238218  0.16598579  1
  I  I67  1  0.49799398  0.33337897  0.50170870  1
  I  I68  1  0.49919526  0.33323885  0.83373562  1
  I  I69  1  0.49916612  0.66525089  0.16486998  1
  I  I70  1  0.49626596  0.66670849  0.49429589  1
  I  I71  1  0.49997730  0.66903497  0.83901125  1
  I  I72  1  0.83285464  -0.00079687  0.16076929  1
  I  I73  1  0.83463034  0.00010515  0.50249450  1
  I  I74  1  0.83006355  -0.00331819  0.83731386  1
  I  I75  1  0.83610038  0.33114159  0.16732518  1
  I  I76  1  0.84003782  0.33735639  0.50365567  1
  I  I77  1  0.83903275  0.33676162  0.83215606  1
  I  I78  1  0.83709237  0.66948229  0.16518292  1
  I  I79  1  0.84056947  0.66373948  0.49778946  1
  I  I80  1  0.83417517  0.66672546  0.83728077  1
  I  I81  1  0.16744604  0.16221953  0.00381727  1
  I  I82  1  0.16673919  0.16871505  0.33224522  1
  I  I83  1  0.16584218  0.16237796  0.66363574  1
  I  I84  1  0.16342473  0.50124366  -0.00209908  1
  I  I85  1  0.16325987  0.49990557  0.33599945  1
  I  I86  1  0.16314438  0.50171257  0.66580267  1
  I  I87  1  0.16677052  0.83679238  0.00278644  1
  I  I88  1  0.16199386  0.83149327  0.33227828  1
  I  I89  1  0.16766399  0.83503985  0.66411950  1
  I  I90  1  0.49606608  0.17151744  0.00427818  1
  I  I91  1  0.50205159  0.16973116  0.32893589  1
  I  I92  1  0.49807433  0.16647830  0.66659598  1
  I  I93  1  0.49862940  0.49616143  0.00297057  1
  I  I94  1  0.49942835  0.49687818  0.32970799  1
  I  I95  1  0.49860602  0.50194308  0.66673920  1
  I  I96  1  0.49845417  0.83240405  -0.00201872  1
  I  I97  1  0.50181522  0.83289664  0.33331763  1
  I  I98  1  0.50552695  0.82910625  0.67120709  1
  I  I99  1  0.83685534  0.16822302  0.00404470  1
  I  I100  1  0.83108501  0.16177095  0.32894586  1
  I  I101  1  0.83564949  0.16377008  0.66627263  1
  I  I102  1  0.83712574  0.50122903  -0.00236706  1
  I  I103  1  0.83880800  0.49908043  0.33542297  1
  I  I104  1  0.83912945  0.50727654  0.66750843  1
  I  I105  1  0.83562724  0.83087963  0.00064021  1
  I  I106  1  0.83536228  0.83536849  0.33042692  1
  I  I107  1  0.83132417  0.82903341  0.66951618  1
  I  I108  1  0.00073654  0.16232530  0.17020310  1
  I  I109  1  0.00383374  0.16481121  0.49339194  1
  I  I110  1  0.00014835  0.16189201  0.83695610  1
  I  I111  1  -0.00006756  0.49776982  0.16611782  1
  I  I112  1  0.00139410  0.50030030  0.50272214  1
  I  I113  1  -0.00053404  0.50618428  0.83122473  1
  I  I114  1  0.00019053  0.84011593  0.16412143  1
  I  I115  1  0.00370465  0.83453541  0.49972475  1
  I  I116  1  -0.00279451  0.83025238  0.83586066  1
  I  I117  1  0.33224265  0.16693797  0.17078534  1
  I  I118  1  0.32864729  0.16940364  0.49418925  1
  I  I119  1  0.33313297  0.16586535  0.83583390  1
  I  I120  1  0.33574727  0.49662595  0.16607279  1
  I  I121  1  0.32958589  0.49962099  0.50334767  1
  I  I122  1  0.33102603  0.50187649  0.83016208  1
  I  I123  1  0.33058084  0.83532515  0.16831377  1
  I  I124  1  0.32836612  0.83013727  0.49301118  1
  I  I125  1  0.33445496  0.83113633  0.83481324  1
  I  I126  1  0.66697238  0.16791380  0.16359382  1
  I  I127  1  0.66692912  0.16877017  0.49879126  1
  I  I128  1  0.66678518  0.17228667  0.83595327  1
  I  I129  1  0.66395879  0.49574690  0.16577825  1
  I  I130  1  0.66970936  0.50142774  0.50279752  1
  I  I131  1  0.66997859  0.50314120  0.83131083  1
  I  I132  1  0.66938552  0.83486480  0.16352037  1
  I  I133  1  0.66695622  0.83011978  0.49628651  1
  I  I134  1  0.66852237  0.82552900  0.84319795  1
