# generated using pymatgen
data_Cs27Sn14Pb13I81
_symmetry_space_group_name_H-M   'P 1'
_cell_length_a   18.97129613
_cell_length_b   18.98568098
_cell_length_c   18.97211882
_cell_angle_alpha   90.00079927
_cell_angle_beta   89.99963285
_cell_angle_gamma   89.99970339
_symmetry_Int_Tables_number   1
_chemical_formula_structural   Cs27Sn14Pb13I81
_chemical_formula_sum   'Cs27 Sn14 Pb13 I81'
_cell_volume   6833.43421962
_cell_formula_units_Z   1
loop_
 _symmetry_equiv_pos_site_id
 _symmetry_equiv_pos_as_xyz
  1  'x, y, z'
loop_
 _atom_site_type_symbol
 _atom_site_label
 _atom_site_symmetry_multiplicity
 _atom_site_fract_x
 _atom_site_fract_y
 _atom_site_fract_z
 _atom_site_occupancy
  Cs  Cs0  1  0.00164569  -0.00219327  -0.00109315  1
  Cs  Cs1  1  -0.00063880  0.00058686  0.33482198  1
  Cs  Cs2  1  -0.00095988  -0.00154577  0.66422239  1
  Cs  Cs3  1  0.00121973  0.33473373  0.00172108  1
  Cs  Cs4  1  -0.00001289  0.33302176  0.33242715  1
  Cs  Cs5  1  0.00141631  0.33414610  0.66694017  1
  Cs  Cs6  1  0.00402315  0.66762011  -0.00557782  1
  Cs  Cs7  1  -0.00175764  0.66661942  0.33294853  1
  Cs  Cs8  1  0.00071864  0.66714891  0.66988633  1
  Cs  Cs9  1  0.33453519  -0.00224984  0.00355061  1
  Cs  Cs10  1  0.33998441  -0.00144593  0.33292745  1
  Cs  Cs11  1  0.33516093  0.00738846  0.66177727  1
  Cs  Cs12  1  0.33247891  0.33407287  0.00024173  1
  Cs  Cs13  1  0.33052922  0.33314380  0.33559082  1
  Cs  Cs14  1  0.33292394  0.32957392  0.66231402  1
  Cs  Cs15  1  0.33139287  0.66856783  -0.00164667  1
  Cs  Cs16  1  0.33489559  0.66801590  0.33319603  1
  Cs  Cs17  1  0.33555956  0.66607875  0.66814336  1
  Cs  Cs18  1  0.66408467  0.00485195  -0.00301266  1
  Cs  Cs19  1  0.66772580  -0.00308160  0.33122701  1
  Cs  Cs20  1  0.66563731  0.00097515  0.67273593  1
  Cs  Cs21  1  0.66589617  0.33147694  -0.00108830  1
  Cs  Cs22  1  0.67054656  0.33740048  0.33098363  1
  Cs  Cs23  1  0.66410809  0.33175616  0.67069139  1
  Cs  Cs24  1  0.66613500  0.66462765  -0.00190838  1
  Cs  Cs25  1  0.66841172  0.66596008  0.33544084  1
  Cs  Cs26  1  0.66430065  0.66716435  0.66617506  1
  Sn  Sn27  1  0.49976050  0.83281441  0.83348817  1
  Sn  Sn28  1  0.16628180  0.83225572  0.49955735  1
  Sn  Sn29  1  0.83441539  0.49996500  0.49969651  1
  Sn  Sn30  1  0.16609373  0.16674139  0.83459973  1
  Sn  Sn31  1  0.49971847  0.50057408  0.83410637  1
  Sn  Sn32  1  0.16649595  0.49978177  0.16738310  1
  Sn  Sn33  1  0.16592214  0.16699961  0.16602726  1
  Sn  Sn34  1  0.16562604  0.50131380  0.49911653  1
  Sn  Sn35  1  0.83341888  0.16692924  0.49928127  1
  Sn  Sn36  1  0.83441524  0.16662081  0.16740287  1
  Sn  Sn37  1  0.83382490  0.50042616  0.16683550  1
  Sn  Sn38  1  0.83363014  0.83305735  0.16663746  1
  Sn  Sn39  1  0.83417278  0.83301032  0.49939922  1
  Sn  Sn40  1  0.49978583  0.50007226  0.16597481  1
  Pb  Pb41  1  0.50003828  0.49990269  0.49956271  1
  Pb  Pb42  1  0.83150763  0.49997678  0.83323853  1
  Pb  Pb43  1  0.83577463  0.16681511  0.83396154  1
  Pb  Pb44  1  0.83178701  0.83321286  0.83323860  1
  Pb  Pb45  1  0.16888597  0.83585398  0.83026698  1
  Pb  Pb46  1  0.50053171  0.83324613  0.50180239  1
  Pb  Pb47  1  0.50292075  0.83062779  0.16489357  1
  Pb  Pb48  1  0.49718590  0.16716286  0.83370731  1
  Pb  Pb49  1  0.50427459  0.16682652  0.49927946  1
  Pb  Pb50  1  0.16492292  0.16678480  0.49866914  1
  Pb  Pb51  1  0.50012749  0.16921112  0.16703432  1
  Pb  Pb52  1  0.16878459  0.49863881  0.83299605  1
  Pb  Pb53  1  0.16481427  0.83331280  0.16863729  1
  I  I54  1  0.16138383  0.00266256  0.16383604  1
  I  I55  1  0.16203530  -0.00195792  0.50208238  1
  I  I56  1  0.16798407  0.00338613  0.83912160  1
  I  I57  1  0.16265741  0.33447502  0.16795912  1
  I  I58  1  0.16367333  0.33604923  0.49966017  1
  I  I59  1  0.16863025  0.33088119  0.83256781  1
  I  I60  1  0.16617816  0.66340126  0.16894576  1
  I  I61  1  0.15909375  0.66537371  0.49541201  1
  I  I62  1  0.16659251  0.66671341  0.83498850  1
  I  I63  1  0.49992961  -0.00022389  0.16452579  1
  I  I64  1  0.49698608  -0.00014521  0.50394656  1
  I  I65  1  0.50082694  -0.00221127  0.83083302  1
  I  I66  1  0.50502747  0.33746174  0.16012207  1
  I  I67  1  0.49771215  0.33372743  0.50447285  1
  I  I68  1  0.50062490  0.33624212  0.83730368  1
  I  I69  1  0.49917248  0.66248800  0.16550896  1
  I  I70  1  0.50403672  0.66643133  0.49915390  1
  I  I71  1  0.50038569  0.66558584  0.83692740  1
  I  I72  1  0.83799678  0.00056360  0.17317677  1
  I  I73  1  0.83767927  -0.00042119  0.49400921  1
  I  I74  1  0.82944827  0.00005113  0.83280210  1
  I  I75  1  0.83338046  0.33394366  0.17220890  1
  I  I76  1  0.83701417  0.33420790  0.49378518  1
  I  I77  1  0.82944896  0.33338580  0.83152531  1
  I  I78  1  0.83169677  0.66561196  0.17320093  1
  I  I79  1  0.83642269  0.66624286  0.49334603  1
  I  I80  1  0.83477593  0.66654028  0.83391942  1
  I  I81  1  0.16135668  0.17294642  0.00209358  1
  I  I82  1  0.16362296  0.16962863  0.33019513  1
  I  I83  1  0.16689399  0.16663411  0.66767853  1
  I  I84  1  0.16363649  0.49727916  0.00321813  1
  I  I85  1  0.16795438  0.49693807  0.33252312  1
  I  I86  1  0.16311327  0.50123098  0.66351249  1
  I  I87  1  0.16549136  0.83148338  0.00012506  1
  I  I88  1  0.16496168  0.83369622  0.33670082  1
  I  I89  1  0.15920080  0.82845002  0.66248054  1
  I  I90  1  0.50544838  0.16523821  0.00023264  1
  I  I91  1  0.49238910  0.16751928  0.33296503  1
  I  I92  1  0.49854263  0.16925760  0.66683632  1
  I  I93  1  0.50105272  0.50352412  0.00114727  1
  I  I94  1  0.50116830  0.49848969  0.33017399  1
  I  I95  1  0.50056048  0.50363980  0.66902947  1
  I  I96  1  0.50117119  0.83126693  -0.00281421  1
  I  I97  1  0.49869664  0.83299252  0.33319311  1
  I  I98  1  0.50184261  0.82562776  0.66958812  1
  I  I99  1  0.83388258  0.16751815  0.00388684  1
  I  I100  1  0.83940711  0.16753109  0.33236433  1
  I  I101  1  0.83454814  0.16630806  0.66360524  1
  I  I102  1  0.83556048  0.49938714  0.00385145  1
  I  I103  1  0.83128034  0.49956918  0.33262407  1
  I  I104  1  0.83663975  0.50023127  0.66295626  1
  I  I105  1  0.83144826  0.83309191  0.00330483  1
  I  I106  1  0.83596195  0.83327936  0.33376313  1
  I  I107  1  0.83561002  0.83348961  0.66296565  1
  I  I108  1  -0.00072097  0.17248471  0.16652757  1
  I  I109  1  -0.00324690  0.16656076  0.49871561  1
  I  I110  1  0.00332348  0.16764188  0.83486461  1
  I  I111  1  -0.00032986  0.49784751  0.17210557  1
  I  I112  1  -0.00057548  0.50001040  0.49254114  1
  I  I113  1  0.00036700  0.49854268  0.83517586  1
  I  I114  1  -0.00357844  0.82946669  0.16814377  1
  I  I115  1  -0.00133760  0.83274786  0.49709799  1
  I  I116  1  0.00030149  0.83465786  0.83417030  1
  I  I117  1  0.32994555  0.17133123  0.16212172  1
  I  I118  1  0.33289602  0.16666596  0.50144306  1
  I  I119  1  0.32954329  0.16726827  0.83837800  1
  I  I120  1  0.33211937  0.49453306  0.16695239  1
  I  I121  1  0.33004470  0.50408566  0.49709518  1
  I  I122  1  0.33655854  0.50326638  0.83791213  1
  I  I123  1  0.33332301  0.83405563  0.16784656  1
  I  I124  1  0.33043979  0.82827589  0.50176491  1
  I  I125  1  0.33641582  0.82766725  0.83312286  1
  I  I126  1  0.67044277  0.16714503  0.17140933  1
  I  I127  1  0.67267801  0.16754232  0.49431384  1
  I  I128  1  0.66653998  0.16628838  0.83191656  1
  I  I129  1  0.66818067  0.49987280  0.16718791  1
  I  I130  1  0.67020268  0.50059680  0.49663206  1
  I  I131  1  0.66342822  0.50251137  0.83671081  1
  I  I132  1  0.67120238  0.83410578  0.17378505  1
  I  I133  1  0.67063116  0.83214953  0.49674383  1
  I  I134  1  0.66389068  0.82941402  0.83134913  1
