# generated using pymatgen
data_Cs27Sn14Pb13I81
_symmetry_space_group_name_H-M   'P 1'
_cell_length_a   18.96566128
_cell_length_b   18.97186995
_cell_length_c   18.99007329
_cell_angle_alpha   89.99909100
_cell_angle_beta   89.99935657
_cell_angle_gamma   90.00197652
_symmetry_Int_Tables_number   1
_chemical_formula_structural   Cs27Sn14Pb13I81
_chemical_formula_sum   'Cs27 Sn14 Pb13 I81'
_cell_volume   6832.89535142
_cell_formula_units_Z   1
loop_
 _symmetry_equiv_pos_site_id
 _symmetry_equiv_pos_as_xyz
  1  'x, y, z'
loop_
 _atom_site_type_symbol
 _atom_site_label
 _atom_site_symmetry_multiplicity
 _atom_site_fract_x
 _atom_site_fract_y
 _atom_site_fract_z
 _atom_site_occupancy
  Cs  Cs0  1  -0.00208902  0.00330564  -0.00015750  1
  Cs  Cs1  1  -0.00202742  0.00142111  0.33404528  1
  Cs  Cs2  1  -0.00092557  0.00246952  0.66584940  1
  Cs  Cs3  1  0.00009538  0.33262341  -0.00231802  1
  Cs  Cs4  1  0.00005246  0.33080062  0.33506088  1
  Cs  Cs5  1  0.00075615  0.33162753  0.66692961  1
  Cs  Cs6  1  0.00109496  0.66162835  0.00351059  1
  Cs  Cs7  1  0.00222676  0.66576332  0.33314383  1
  Cs  Cs8  1  0.00010452  0.66476952  0.66478885  1
  Cs  Cs9  1  0.33598505  -0.00162687  -0.00440847  1
  Cs  Cs10  1  0.33430671  -0.00091589  0.33273288  1
  Cs  Cs11  1  0.33346043  -0.00226386  0.67181673  1
  Cs  Cs12  1  0.33693399  0.33272455  0.00250444  1
  Cs  Cs13  1  0.34015146  0.33457970  0.33361494  1
  Cs  Cs14  1  0.33290165  0.33281047  0.66446740  1
  Cs  Cs15  1  0.33035763  0.66956902  0.00026845  1
  Cs  Cs16  1  0.33085111  0.66723034  0.32998293  1
  Cs  Cs17  1  0.33295429  0.66904370  0.67012287  1
  Cs  Cs18  1  0.66766685  -0.00060352  0.00238563  1
  Cs  Cs19  1  0.66866255  -0.00197036  0.33257547  1
  Cs  Cs20  1  0.66905589  -0.00057075  0.66600571  1
  Cs  Cs21  1  0.66109554  0.34220686  -0.00010723  1
  Cs  Cs22  1  0.65810324  0.33463207  0.33406570  1
  Cs  Cs23  1  0.66067007  0.33722951  0.66568858  1
  Cs  Cs24  1  0.66768688  0.66148030  -0.00210698  1
  Cs  Cs25  1  0.66789265  0.67080435  0.33453736  1
  Cs  Cs26  1  0.66604519  0.66554266  0.66713024  1
  Sn  Sn27  1  0.83360617  0.16666105  0.16659722  1
  Sn  Sn28  1  0.83300745  0.83377985  0.16648234  1
  Sn  Sn29  1  0.83296816  0.83320709  0.50008508  1
  Sn  Sn30  1  0.83305982  0.16648596  0.83338045  1
  Sn  Sn31  1  0.16570776  0.49901361  0.50075234  1
  Sn  Sn32  1  0.83400723  0.49947211  0.49966409  1
  Sn  Sn33  1  0.50054470  0.83375368  0.49936075  1
  Sn  Sn34  1  0.16614209  0.49894735  0.83251582  1
  Sn  Sn35  1  0.16606706  0.16643301  0.16687665  1
  Sn  Sn36  1  0.83350915  0.16735961  0.49998910  1
  Sn  Sn37  1  0.50105754  0.83367916  0.16740769  1
  Sn  Sn38  1  0.83393054  0.83362704  0.83346460  1
  Sn  Sn39  1  0.16620383  0.16729859  0.49983486  1
  Sn  Sn40  1  0.16589492  0.16754611  0.83319702  1
  Pb  Pb41  1  0.50080093  0.16452059  0.16665393  1
  Pb  Pb42  1  0.83344771  0.49925501  0.16960975  1
  Pb  Pb43  1  0.83500250  0.49925957  0.83101584  1
  Pb  Pb44  1  0.50325881  0.83351104  0.83353214  1
  Pb  Pb45  1  0.16635047  0.83361025  0.50001945  1
  Pb  Pb46  1  0.16352977  0.83358880  0.83339702  1
  Pb  Pb47  1  0.50002474  0.50378014  0.16684302  1
  Pb  Pb48  1  0.50070278  0.16667047  0.83326064  1
  Pb  Pb49  1  0.49919912  0.50301797  0.50001650  1
  Pb  Pb50  1  0.16634493  0.49672965  0.16721870  1
  Pb  Pb51  1  0.16586905  0.83608153  0.16660386  1
  Pb  Pb52  1  0.50001174  0.16403529  0.50017627  1
  Pb  Pb53  1  0.49600269  0.50004394  0.83300386  1
  I  I54  1  0.16454430  0.00427819  0.16765737  1
  I  I55  1  0.16323424  0.00354880  0.50078912  1
  I  I56  1  0.16542759  0.00368827  0.83179452  1
  I  I57  1  0.15843206  0.32864454  0.16645288  1
  I  I58  1  0.15828951  0.33225180  0.50095164  1
  I  I59  1  0.15968848  0.33166608  0.83235288  1
  I  I60  1  0.16803771  0.66664053  0.16649828  1
  I  I61  1  0.16330911  0.66386555  0.50506504  1
  I  I62  1  0.16600663  0.66390581  0.82706101  1
  I  I63  1  0.50219721  -0.00334982  0.17165132  1
  I  I64  1  0.50491839  -0.00372550  0.49590210  1
  I  I65  1  0.49275858  -0.00022413  0.83251297  1
  I  I66  1  0.50003498  0.33318483  0.16593402  1
  I  I67  1  0.50280152  0.33336399  0.50050482  1
  I  I68  1  0.50643299  0.33336801  0.83357968  1
  I  I69  1  0.50656729  0.67187202  0.17186682  1
  I  I70  1  0.50534766  0.67077862  0.49578119  1
  I  I71  1  0.50009476  0.66703752  0.83324611  1
  I  I72  1  0.83370347  0.00009262  0.17050956  1
  I  I73  1  0.83349260  0.00031486  0.49995145  1
  I  I74  1  0.83848088  0.00075646  0.82935591  1
  I  I75  1  0.83991268  0.32947174  0.16568003  1
  I  I76  1  0.83952933  0.33225964  0.50029318  1
  I  I77  1  0.83654698  0.32985794  0.83404784  1
  I  I78  1  0.82827266  0.66986903  0.16629683  1
  I  I79  1  0.83338988  0.66742630  0.50024026  1
  I  I80  1  0.83388422  0.66909912  0.83301650  1
  I  I81  1  0.15990399  0.16910706  -0.00051614  1
  I  I82  1  0.15981023  0.16867031  0.33415456  1
  I  I83  1  0.16004658  0.17059867  0.66638405  1
  I  I84  1  0.16654344  0.49710436  -0.00273006  1
  I  I85  1  0.16281434  0.49761322  0.33687625  1
  I  I86  1  0.16220833  0.49214929  0.66563553  1
  I  I87  1  0.16814774  0.83203366  -0.00001928  1
  I  I88  1  0.16367402  0.83280357  0.33345529  1
  I  I89  1  0.16796941  0.83716123  0.66656488  1
  I  I90  1  0.49835586  0.16270083  0.00006347  1
  I  I91  1  0.49818208  0.16769945  0.33346864  1
  I  I92  1  0.49999570  0.16286419  0.66650790  1
  I  I93  1  0.49975667  0.50186597  -0.00008642  1
  I  I94  1  0.49743157  0.49748282  0.33372955  1
  I  I95  1  0.50313430  0.50357770  0.66622969  1
  I  I96  1  0.50331444  0.83471904  0.00306424  1
  I  I97  1  0.50902922  0.83426694  0.33364076  1
  I  I98  1  0.50387909  0.83315306  0.66386226  1
  I  I99  1  0.84087970  0.15685764  -0.00002583  1
  I  I100  1  0.84030785  0.16241922  0.33384323  1
  I  I101  1  0.83970708  0.16179165  0.66614995  1
  I  I102  1  0.83468429  0.50164269  -0.00016733  1
  I  I103  1  0.84026101  0.50141624  0.33788173  1
  I  I104  1  0.83544976  0.50181605  0.66294083  1
  I  I105  1  0.83036348  0.84146673  0.00049744  1
  I  I106  1  0.82908776  0.83618624  0.33377116  1
  I  I107  1  0.83051854  0.83642506  0.66574247  1
  I  I108  1  -0.00106523  0.16044318  0.16732857  1
  I  I109  1  -0.00097476  0.16460599  0.49996702  1
  I  I110  1  -0.00040370  0.16577255  0.83301622  1
  I  I111  1  -0.00006550  0.50816186  0.16576440  1
  I  I112  1  -0.00013915  0.50198958  0.50327883  1
  I  I113  1  0.00300027  0.49855018  0.83076982  1
  I  I114  1  -0.00391804  0.83503482  0.16870205  1
  I  I115  1  -0.00374969  0.83371588  0.49894644  1
  I  I116  1  -0.00450904  0.83599798  0.83165001  1
  I  I117  1  0.33031972  0.16620127  0.16668687  1
  I  I118  1  0.32978030  0.17032061  0.50001942  1
  I  I119  1  0.32950466  0.17053394  0.83292544  1
  I  I120  1  0.33296214  0.49990809  0.16843268  1
  I  I121  1  0.32962480  0.49560182  0.50369096  1
  I  I122  1  0.32782381  0.49409674  0.82576185  1
  I  I123  1  0.33592055  0.83393340  0.17280914  1
  I  I124  1  0.33584408  0.83339440  0.49436412  1
  I  I125  1  0.33322651  0.83294802  0.83318921  1
  I  I126  1  0.67065758  0.16346822  0.16805790  1
  I  I127  1  0.67068092  0.16877969  0.49958152  1
  I  I128  1  0.67118094  0.16028123  0.83255290  1
  I  I129  1  0.66699696  0.49395565  0.16784112  1
  I  I130  1  0.66970418  0.49704357  0.49935862  1
  I  I131  1  0.66695480  0.50019320  0.83236397  1
  I  I132  1  0.66876173  0.84001451  0.16855915  1
  I  I133  1  0.66928715  0.83370063  0.49927980  1
  I  I134  1  0.67148075  0.84013759  0.83210119  1
