# generated using pymatgen
data_Cs27Sn13Pb14I81
_symmetry_space_group_name_H-M   'P 1'
_cell_length_a   18.97501044
_cell_length_b   18.97430321
_cell_length_c   18.97927770
_cell_angle_alpha   90.00018855
_cell_angle_beta   89.99816648
_cell_angle_gamma   89.99961994
_symmetry_Int_Tables_number   1
_chemical_formula_structural   Cs27Sn13Pb14I81
_chemical_formula_sum   'Cs27 Sn13 Pb14 I81'
_cell_volume   6833.25362086
_cell_formula_units_Z   1
loop_
 _symmetry_equiv_pos_site_id
 _symmetry_equiv_pos_as_xyz
  1  'x, y, z'
loop_
 _atom_site_type_symbol
 _atom_site_label
 _atom_site_symmetry_multiplicity
 _atom_site_fract_x
 _atom_site_fract_y
 _atom_site_fract_z
 _atom_site_occupancy
  Cs  Cs0  1  0.00202716  -0.00356588  -0.00044309  1
  Cs  Cs1  1  0.00120008  -0.00161276  0.33026410  1
  Cs  Cs2  1  -0.00099956  -0.00127339  0.66971573  1
  Cs  Cs3  1  -0.00266381  0.33364456  0.00258546  1
  Cs  Cs4  1  -0.00219065  0.33420634  0.33465818  1
  Cs  Cs5  1  -0.00041037  0.33182638  0.66255395  1
  Cs  Cs6  1  0.00159995  0.66950331  0.00012246  1
  Cs  Cs7  1  0.00021750  0.66668047  0.33457356  1
  Cs  Cs8  1  -0.00282275  0.67023953  0.66460360  1
  Cs  Cs9  1  0.33295380  0.00248556  -0.00098557  1
  Cs  Cs10  1  0.33856167  -0.00216581  0.33432568  1
  Cs  Cs11  1  0.33153297  0.01083184  0.66658737  1
  Cs  Cs12  1  0.33447128  0.33732109  -0.00178507  1
  Cs  Cs13  1  0.33020414  0.33392596  0.33752210  1
  Cs  Cs14  1  0.33220531  0.32917962  0.66466659  1
  Cs  Cs15  1  0.33348233  0.66501964  0.00040771  1
  Cs  Cs16  1  0.33262530  0.66781618  0.33184499  1
  Cs  Cs17  1  0.33482538  0.66362581  0.66915375  1
  Cs  Cs18  1  0.66474594  0.00360483  0.00396969  1
  Cs  Cs19  1  0.65827105  -0.00066148  0.33314228  1
  Cs  Cs20  1  0.66858187  -0.00103640  0.66213169  1
  Cs  Cs21  1  0.66866467  0.33210283  0.00000083  1
  Cs  Cs22  1  0.67267364  0.33187903  0.32954398  1
  Cs  Cs23  1  0.66663964  0.33284961  0.66937085  1
  Cs  Cs24  1  0.66354139  0.66400088  -0.00233832  1
  Cs  Cs25  1  0.66736178  0.66879573  0.33758703  1
  Cs  Cs26  1  0.66734124  0.66852845  0.66692278  1
  Sn  Sn27  1  0.49986738  0.50061795  0.83312682  1
  Sn  Sn28  1  0.16625120  0.83336951  0.16744661  1
  Sn  Sn29  1  0.16691911  0.16690667  0.16658125  1
  Sn  Sn30  1  0.83379326  0.49963492  0.83331327  1
  Sn  Sn31  1  0.50020106  0.49993269  0.49994335  1
  Sn  Sn32  1  0.83359275  0.16703047  0.83275198  1
  Sn  Sn33  1  0.49958460  0.50014761  0.16714624  1
  Sn  Sn34  1  0.16694736  0.83322024  0.50006831  1
  Sn  Sn35  1  0.49967151  0.83338862  0.83318904  1
  Sn  Sn36  1  0.83313753  0.83296698  0.16656510  1
  Sn  Sn37  1  0.16621234  0.50011556  0.83349895  1
  Sn  Sn38  1  0.16715231  0.49977799  0.16610352  1
  Sn  Sn39  1  0.83341408  0.16646962  0.50018722  1
  Pb  Pb40  1  0.16880125  0.83155030  0.83357900  1
  Pb  Pb41  1  0.50234787  0.16940035  0.49984425  1
  Pb  Pb42  1  0.83106791  0.49866984  0.50263595  1
  Pb  Pb43  1  0.49927000  0.83122502  0.16499447  1
  Pb  Pb44  1  0.83364177  0.50199818  0.16484818  1
  Pb  Pb45  1  0.83510601  0.16437961  0.16636750  1
  Pb  Pb46  1  0.16807049  0.50151693  0.49996272  1
  Pb  Pb47  1  0.83127224  0.83344326  0.83517649  1
  Pb  Pb48  1  0.49703010  0.16993628  0.16665438  1
  Pb  Pb49  1  0.83496345  0.83554157  0.49763508  1
  Pb  Pb50  1  0.49744970  0.83154440  0.50271217  1
  Pb  Pb51  1  0.16415280  0.16956492  0.83534034  1
  Pb  Pb52  1  0.16475157  0.16420273  0.49766730  1
  Pb  Pb53  1  0.50220868  0.16711820  0.83334618  1
  I  I54  1  0.16023659  -0.00100273  0.17047829  1
  I  I55  1  0.16666194  -0.00359478  0.49493529  1
  I  I56  1  0.16727233  0.00007243  0.83456287  1
  I  I57  1  0.17101753  0.33482104  0.16124435  1
  I  I58  1  0.16722070  0.33334052  0.49905405  1
  I  I59  1  0.17239933  0.33786289  0.83796881  1
  I  I60  1  0.16705699  0.66614643  0.16601083  1
  I  I61  1  0.16644527  0.66920328  0.49365920  1
  I  I62  1  0.16367203  0.66304056  0.83902064  1
  I  I63  1  0.50014348  -0.00018510  0.16421215  1
  I  I64  1  0.50009271  -0.00010477  0.50167058  1
  I  I65  1  0.50096586  -0.00249220  0.83480949  1
  I  I66  1  0.49693642  0.33836015  0.16228595  1
  I  I67  1  0.49735593  0.33763941  0.50381245  1
  I  I68  1  0.49846361  0.33735710  0.83401923  1
  I  I69  1  0.49447297  0.66297072  0.16610529  1
  I  I70  1  0.50032347  0.66332781  0.49873023  1
  I  I71  1  0.50207632  0.66399800  0.83421997  1
  I  I72  1  0.83984301  -0.00323628  0.16374335  1
  I  I73  1  0.83472246  0.00314695  0.50814077  1
  I  I74  1  0.83179185  0.00246211  0.83120420  1
  I  I75  1  0.83395266  0.33345399  0.16754994  1
  I  I76  1  0.83389492  0.33076995  0.50012142  1
  I  I77  1  0.83105424  0.33462254  0.83163316  1
  I  I78  1  0.83948429  0.66949031  0.16449926  1
  I  I79  1  0.83313312  0.66680394  0.50050846  1
  I  I80  1  0.83373359  0.66372604  0.83623443  1
  I  I81  1  0.16411214  0.16167410  0.00326098  1
  I  I82  1  0.16296241  0.17306003  0.32975614  1
  I  I83  1  0.16738100  0.16626643  0.66674312  1
  I  I84  1  0.17117166  0.50190870  0.00069482  1
  I  I85  1  0.17161022  0.49910237  0.32999016  1
  I  I86  1  0.16809632  0.50255741  0.66953578  1
  I  I87  1  0.16379617  0.83383706  0.00313521  1
  I  I88  1  0.16266890  0.83055688  0.33122955  1
  I  I89  1  0.16807917  0.82988019  0.66475412  1
  I  I90  1  0.50323930  0.16819307  0.00002177  1
  I  I91  1  0.50376106  0.16743592  0.33315679  1
  I  I92  1  0.49712761  0.16892091  0.66675057  1
  I  I93  1  0.49843226  0.50376530  -0.00067808  1
  I  I94  1  0.49366145  0.49948727  0.33241977  1
  I  I95  1  0.50038407  0.50418454  0.66818984  1
  I  I96  1  0.49890198  0.82561690  -0.00266968  1
  I  I97  1  0.50192709  0.83112898  0.33327916  1
  I  I98  1  0.50047724  0.82484703  0.67022459  1
  I  I99  1  0.83375742  0.17068414  -0.00252554  1
  I  I100  1  0.83534246  0.16588602  0.33525380  1
  I  I101  1  0.83343161  0.17151608  0.66769739  1
  I  I102  1  0.82906251  0.49446441  -0.00333019  1
  I  I103  1  0.83248561  0.49847311  0.33327685  1
  I  I104  1  0.83400498  0.49970408  0.67105039  1
  I  I105  1  0.84094403  0.83438493  0.00275840  1
  I  I106  1  0.83524386  0.83366092  0.32976777  1
  I  I107  1  0.83437722  0.83195539  0.66678769  1
  I  I108  1  0.00301287  0.17173696  0.16613637  1
  I  I109  1  -0.00288423  0.16836916  0.50448295  1
  I  I110  1  -0.00361102  0.17139043  0.83050608  1
  I  I111  1  0.00331277  0.49918653  0.16167144  1
  I  I112  1  -0.00013231  0.49993194  0.50026505  1
  I  I113  1  0.00030707  0.49591903  0.83962690  1
  I  I114  1  0.00182727  0.83110559  0.16847044  1
  I  I115  1  0.00298093  0.83133696  0.49858040  1
  I  I116  1  0.00017737  0.83157904  0.83268666  1
  I  I117  1  0.32902421  0.16085137  0.16650398  1
  I  I118  1  0.33310804  0.16636354  0.49907001  1
  I  I119  1  0.33302558  0.16700610  0.83453649  1
  I  I120  1  0.33240857  0.50181514  0.16128241  1
  I  I121  1  0.33611466  0.50100201  0.50422503  1
  I  I122  1  0.33374398  0.50549768  0.83562462  1
  I  I123  1  0.32998459  0.83380038  0.16922263  1
  I  I124  1  0.32995118  0.83247088  0.49118827  1
  I  I125  1  0.33638381  0.82496464  0.83580726  1
  I  I126  1  0.66683342  0.16608594  0.16656395  1
  I  I127  1  0.67019894  0.16632304  0.50375252  1
  I  I128  1  0.67014370  0.17281803  0.83199813  1
  I  I129  1  0.66414514  0.50238240  0.16478422  1
  I  I130  1  0.66296103  0.50023680  0.49901689  1
  I  I131  1  0.66595597  0.49983716  0.83396866  1
  I  I132  1  0.66844859  0.83215185  0.16356138  1
  I  I133  1  0.66645847  0.83355339  0.49866098  1
  I  I134  1  0.66373669  0.82570916  0.83545251  1
