# generated using pymatgen
data_Cs27Sn14Pb13I81
_symmetry_space_group_name_H-M   'P 1'
_cell_length_a   18.97507556
_cell_length_b   18.97405057
_cell_length_c   18.97807640
_cell_angle_alpha   89.99859000
_cell_angle_beta   90.00055460
_cell_angle_gamma   90.00123187
_symmetry_Int_Tables_number   1
_chemical_formula_structural   Cs27Sn14Pb13I81
_chemical_formula_sum   'Cs27 Sn14 Pb13 I81'
_cell_volume   6832.75357004
_cell_formula_units_Z   1
loop_
 _symmetry_equiv_pos_site_id
 _symmetry_equiv_pos_as_xyz
  1  'x, y, z'
loop_
 _atom_site_type_symbol
 _atom_site_label
 _atom_site_symmetry_multiplicity
 _atom_site_fract_x
 _atom_site_fract_y
 _atom_site_fract_z
 _atom_site_occupancy
  Cs  Cs0  1  0.00072203  -0.00075570  0.00446541  1
  Cs  Cs1  1  0.00211484  0.00174611  0.32801097  1
  Cs  Cs2  1  0.00007219  -0.00151616  0.66629161  1
  Cs  Cs3  1  -0.00167956  0.33516558  0.00039728  1
  Cs  Cs4  1  0.00145479  0.33224410  0.33580116  1
  Cs  Cs5  1  0.00188625  0.33584895  0.66176528  1
  Cs  Cs6  1  0.00145253  0.66624859  -0.00131919  1
  Cs  Cs7  1  0.00165750  0.66585551  0.33288983  1
  Cs  Cs8  1  -0.00506449  0.66585984  0.66749627  1
  Cs  Cs9  1  0.33221042  -0.00148544  -0.00203848  1
  Cs  Cs10  1  0.33112662  -0.00158118  0.33193612  1
  Cs  Cs11  1  0.33365382  -0.00051655  0.67000797  1
  Cs  Cs12  1  0.33499121  0.33610765  -0.00444281  1
  Cs  Cs13  1  0.33387369  0.33708328  0.33754370  1
  Cs  Cs14  1  0.32775747  0.33183674  0.67028162  1
  Cs  Cs15  1  0.33262576  0.66660438  -0.00042878  1
  Cs  Cs16  1  0.33742428  0.66464553  0.33650257  1
  Cs  Cs17  1  0.33307796  0.66901769  0.66758991  1
  Cs  Cs18  1  0.66655540  0.00086770  0.00046863  1
  Cs  Cs19  1  0.66692187  0.00137371  0.33416285  1
  Cs  Cs20  1  0.66645320  -0.00033304  0.66347911  1
  Cs  Cs21  1  0.66643128  0.33223368  0.00229869  1
  Cs  Cs22  1  0.66532467  0.33081218  0.32984409  1
  Cs  Cs23  1  0.67029901  0.32969120  0.66743897  1
  Cs  Cs24  1  0.66611926  0.66599946  -0.00046106  1
  Cs  Cs25  1  0.66141141  0.66685027  0.33810363  1
  Cs  Cs26  1  0.67368073  0.66910626  0.66129952  1
  Sn  Sn27  1  0.16704047  0.83253916  0.83259034  1
  Sn  Sn28  1  0.50004747  0.83220226  0.83390017  1
  Sn  Sn29  1  0.83278754  0.16646627  0.49951708  1
  Sn  Sn30  1  0.83389532  0.50018810  0.16659656  1
  Sn  Sn31  1  0.50084187  0.83413027  0.16586056  1
  Sn  Sn32  1  0.16726659  0.50115815  0.83431138  1
  Sn  Sn33  1  0.83268092  0.16665706  0.16660944  1
  Sn  Sn34  1  0.16667802  0.83328485  0.50100885  1
  Sn  Sn35  1  0.83215674  0.83299112  0.16649590  1
  Sn  Sn36  1  0.83380964  0.16646046  0.83363628  1
  Sn  Sn37  1  0.50003715  0.16585595  0.16725098  1
  Sn  Sn38  1  0.16626752  0.49988540  0.16604063  1
  Sn  Sn39  1  0.50015051  0.50116846  0.83306993  1
  Sn  Sn40  1  0.50001019  0.16671091  0.49915909  1
  Pb  Pb41  1  0.50011299  0.50001185  0.16532317  1
  Pb  Pb42  1  0.16738640  0.83125460  0.16605144  1
  Pb  Pb43  1  0.83550245  0.83558494  0.49680765  1
  Pb  Pb44  1  0.83336025  0.49817703  0.83499894  1
  Pb  Pb45  1  0.50162879  0.16625513  0.83363308  1
  Pb  Pb46  1  0.16674441  0.50256318  0.50065277  1
  Pb  Pb47  1  0.83303488  0.49755579  0.49666643  1
  Pb  Pb48  1  0.16761811  0.16963348  0.16648106  1
  Pb  Pb49  1  0.16703296  0.16439461  0.49990698  1
  Pb  Pb50  1  0.50000984  0.49697057  0.50400429  1
  Pb  Pb51  1  0.83315310  0.83519464  0.83527951  1
  Pb  Pb52  1  0.49857610  0.83528712  0.50012540  1
  Pb  Pb53  1  0.16379127  0.16663258  0.83361488  1
  I  I54  1  0.16358970  -0.00025672  0.16633519  1
  I  I55  1  0.16639218  -0.00326310  0.50588356  1
  I  I56  1  0.17098622  -0.00325109  0.82971086  1
  I  I57  1  0.16237165  0.33747546  0.16054893  1
  I  I58  1  0.16589938  0.33337971  0.50038999  1
  I  I59  1  0.17088879  0.33652834  0.83784309  1
  I  I60  1  0.16163085  0.66365828  0.16480016  1
  I  I61  1  0.16789033  0.67023753  0.50011278  1
  I  I62  1  0.17065707  0.66684712  0.83434251  1
  I  I63  1  0.50760265  -0.00011929  0.16453159  1
  I  I64  1  0.50437763  0.00318426  0.50047382  1
  I  I65  1  0.49613875  -0.00278277  0.83497498  1
  I  I66  1  0.50375130  0.33071201  0.16823170  1
  I  I67  1  0.50410841  0.32898350  0.49265598  1
  I  I68  1  0.49637317  0.33531637  0.83398918  1
  I  I69  1  0.50273145  0.66937345  0.16368851  1
  I  I70  1  0.49748029  0.66687885  0.49628600  1
  I  I71  1  0.49521721  0.66772080  0.84128219  1
  I  I72  1  0.82933745  0.00083959  0.16646706  1
  I  I73  1  0.82954979  0.00368575  0.49816721  1
  I  I74  1  0.83258006  0.00318748  0.83657752  1
  I  I75  1  0.83313678  0.33209603  0.16613675  1
  I  I76  1  0.83085023  0.32905973  0.49909872  1
  I  I77  1  0.83200385  0.33013142  0.83642565  1
  I  I78  1  0.83425281  0.66687762  0.16401161  1
  I  I79  1  0.83491843  0.66699071  0.49933771  1
  I  I80  1  0.83341977  0.66675858  0.83602138  1
  I  I81  1  0.16594805  0.16173057  0.00005428  1
  I  I82  1  0.16222719  0.16537864  0.33309326  1
  I  I83  1  0.16610374  0.17076457  0.66683370  1
  I  I84  1  0.16611130  0.50562705  -0.00080232  1
  I  I85  1  0.16148538  0.50037796  0.33064963  1
  I  I86  1  0.17147210  0.50033826  0.67029998  1
  I  I87  1  0.16768974  0.83103028  -0.00264133  1
  I  I88  1  0.16543208  0.83374867  0.33456431  1
  I  I89  1  0.17226730  0.82964521  0.66862232  1
  I  I90  1  0.50545984  0.16602868  0.00271121  1
  I  I91  1  0.50871922  0.16151721  0.33181208  1
  I  I92  1  0.50556795  0.16702700  0.66478105  1
  I  I93  1  0.49846234  0.49832982  -0.00254721  1
  I  I94  1  0.49946084  0.50195464  0.33324455  1
  I  I95  1  0.49252830  0.50443043  0.67189598  1
  I  I96  1  0.49759459  0.83638458  0.00027093  1
  I  I97  1  0.50225579  0.83565868  0.33029962  1
  I  I98  1  0.49632080  0.83195602  0.66968571  1
  I  I99  1  0.82946200  0.16712500  0.00192938  1
  I  I100  1  0.82904802  0.16682261  0.33199289  1
  I  I101  1  0.82863388  0.16648411  0.66626178  1
  I  I102  1  0.83461700  0.49625911  0.00326976  1
  I  I103  1  0.83964596  0.49827278  0.32818023  1
  I  I104  1  0.83438776  0.49679943  0.66674218  1
  I  I105  1  0.83478399  0.83701670  0.00349186  1
  I  I106  1  0.82941774  0.83522611  0.32864603  1
  I  I107  1  0.83184258  0.83633438  0.66664099  1
  I  I108  1  -0.00333964  0.16340780  0.16739895  1
  I  I109  1  -0.00312680  0.16583013  0.49828515  1
  I  I110  1  -0.00426683  0.16655940  0.83499667  1
  I  I111  1  -0.00056313  0.49990024  0.16049090  1
  I  I112  1  -0.00007392  0.49710933  0.50347706  1
  I  I113  1  0.00281719  0.50321992  0.83634592  1
  I  I114  1  -0.00229867  0.83703473  0.16706159  1
  I  I115  1  0.00312344  0.83496192  0.50567762  1
  I  I116  1  0.00268220  0.83029847  0.83120877  1
  I  I117  1  0.33704570  0.16183532  0.17118734  1
  I  I118  1  0.33645505  0.16567213  0.49460208  1
  I  I119  1  0.33340925  0.16733911  0.83295788  1
  I  I120  1  0.33117241  0.50045911  0.16380357  1
  I  I121  1  0.33332777  0.49639693  0.49282497  1
  I  I122  1  0.33266779  0.50201582  0.84048649  1
  I  I123  1  0.33630575  0.83751404  0.16565833  1
  I  I124  1  0.33074885  0.83626038  0.49877405  1
  I  I125  1  0.33366846  0.83103310  0.83586339  1
  I  I126  1  0.66768265  0.16838372  0.16700140  1
  I  I127  1  0.66723906  0.16559722  0.49872895  1
  I  I128  1  0.66950901  0.16739405  0.83477411  1
  I  I129  1  0.66918886  0.49793712  0.16419538  1
  I  I130  1  0.66654349  0.50401557  0.50066727  1
  I  I131  1  0.66416500  0.50220879  0.83605380  1
  I  I132  1  0.66618799  0.83341092  0.16067873  1
  I  I133  1  0.66675782  0.83281737  0.50256554  1
  I  I134  1  0.66371395  0.83064495  0.83694892  1
