# generated using pymatgen
data_Cs27Sn14Pb13I81
_symmetry_space_group_name_H-M   'P 1'
_cell_length_a   18.97057104
_cell_length_b   18.97911431
_cell_length_c   18.97605770
_cell_angle_alpha   89.99935724
_cell_angle_beta   89.99910783
_cell_angle_gamma   90.00040520
_symmetry_Int_Tables_number   1
_chemical_formula_structural   Cs27Sn14Pb13I81
_chemical_formula_sum   'Cs27 Sn14 Pb13 I81'
_cell_volume   6832.22778882
_cell_formula_units_Z   1
loop_
 _symmetry_equiv_pos_site_id
 _symmetry_equiv_pos_as_xyz
  1  'x, y, z'
loop_
 _atom_site_type_symbol
 _atom_site_label
 _atom_site_symmetry_multiplicity
 _atom_site_fract_x
 _atom_site_fract_y
 _atom_site_fract_z
 _atom_site_occupancy
  Cs  Cs0  1  -0.00031541  -0.00107241  -0.00096739  1
  Cs  Cs1  1  -0.00127940  -0.00047467  0.33380733  1
  Cs  Cs2  1  0.00036751  -0.00025812  0.66678739  1
  Cs  Cs3  1  -0.00079776  0.33334931  -0.00221517  1
  Cs  Cs4  1  -0.00909945  0.33341654  0.33426545  1
  Cs  Cs5  1  0.00124804  0.33373527  0.66722522  1
  Cs  Cs6  1  0.00191092  0.66714354  -0.00108058  1
  Cs  Cs7  1  0.00104289  0.66824059  0.33081748  1
  Cs  Cs8  1  0.00043824  0.66692371  0.66909979  1
  Cs  Cs9  1  0.33361983  0.00301594  0.00362003  1
  Cs  Cs10  1  0.33369477  0.00016024  0.33245081  1
  Cs  Cs11  1  0.33287305  0.00182484  0.66413445  1
  Cs  Cs12  1  0.33606252  0.33193898  -0.00058793  1
  Cs  Cs13  1  0.33288837  0.32928493  0.33272824  1
  Cs  Cs14  1  0.33041939  0.33083037  0.66872762  1
  Cs  Cs15  1  0.33104452  0.66060866  0.00628685  1
  Cs  Cs16  1  0.33478370  0.66546735  0.33105703  1
  Cs  Cs17  1  0.33580759  0.66668791  0.66397770  1
  Cs  Cs18  1  0.66632845  -0.00198670  -0.00016912  1
  Cs  Cs19  1  0.66690533  0.00064647  0.33162869  1
  Cs  Cs20  1  0.66384864  -0.00516894  0.66973506  1
  Cs  Cs21  1  0.66500596  0.33568329  0.00015615  1
  Cs  Cs22  1  0.67709003  0.33860913  0.33376394  1
  Cs  Cs23  1  0.66705308  0.33702818  0.66632828  1
  Cs  Cs24  1  0.66444861  0.66875896  -0.00230268  1
  Cs  Cs25  1  0.66457048  0.66170000  0.33610446  1
  Cs  Cs26  1  0.65789547  0.67017481  0.66509718  1
  Sn  Sn27  1  0.16582188  0.16640085  0.83348202  1
  Sn  Sn28  1  0.16600389  0.83318973  0.50065237  1
  Sn  Sn29  1  0.16690811  0.83348750  0.83274784  1
  Sn  Sn30  1  0.50098267  0.83403985  0.16682460  1
  Sn  Sn31  1  0.16612164  0.49991165  0.83232878  1
  Sn  Sn32  1  0.83242740  0.83347445  0.16759443  1
  Sn  Sn33  1  0.16686640  0.16683435  0.49948932  1
  Sn  Sn34  1  0.16646039  0.49985440  0.50032167  1
  Sn  Sn35  1  0.83380757  0.16724736  0.83314776  1
  Sn  Sn36  1  0.83400521  0.49951577  0.83295872  1
  Sn  Sn37  1  0.16650540  0.16671254  0.16697315  1
  Sn  Sn38  1  0.83392380  0.83352228  0.49936347  1
  Sn  Sn39  1  0.50000432  0.16668664  0.49894183  1
  Sn  Sn40  1  0.49986724  0.16614608  0.16821268  1
  Pb  Pb41  1  0.49932721  0.83533530  0.49797517  1
  Pb  Pb42  1  0.49580988  0.83343487  0.83632762  1
  Pb  Pb43  1  0.49999775  0.16661467  0.83325839  1
  Pb  Pb44  1  0.83496140  0.83307854  0.83304651  1
  Pb  Pb45  1  0.83579512  0.50310135  0.50263055  1
  Pb  Pb46  1  0.49710372  0.49645478  0.49992089  1
  Pb  Pb47  1  0.83326075  0.16477952  0.50244668  1
  Pb  Pb48  1  0.83359762  0.50335967  0.16381991  1
  Pb  Pb49  1  0.49937088  0.50000693  0.83312487  1
  Pb  Pb50  1  0.16673949  0.83519827  0.16709162  1
  Pb  Pb51  1  0.83299417  0.16512683  0.16445252  1
  Pb  Pb52  1  0.50006614  0.49897100  0.16697217  1
  Pb  Pb53  1  0.16639018  0.49635165  0.16692133  1
  I  I54  1  0.16784674  0.00323693  0.16544947  1
  I  I55  1  0.16689716  0.00041417  0.50304830  1
  I  I56  1  0.16247449  0.00088598  0.83106074  1
  I  I57  1  0.17372299  0.32817313  0.16532118  1
  I  I58  1  0.17256149  0.33232837  0.50362640  1
  I  I59  1  0.16315470  0.33255756  0.83079481  1
  I  I60  1  0.16742173  0.66673950  0.16542099  1
  I  I61  1  0.16131988  0.66740866  0.50766725  1
  I  I62  1  0.16207200  0.66649466  0.82731609  1
  I  I63  1  0.49867093  0.00101260  0.16969898  1
  I  I64  1  0.49278702  0.00310968  0.49891169  1
  I  I65  1  0.50168171  0.00007775  0.83182423  1
  I  I66  1  0.49309962  0.32921953  0.16812949  1
  I  I67  1  0.49467083  0.32838637  0.49473319  1
  I  I68  1  0.49628002  0.33302572  0.83606306  1
  I  I69  1  0.50313132  0.66968975  0.16508238  1
  I  I70  1  0.49952801  0.66678335  0.49887546  1
  I  I71  1  0.50156440  0.66694495  0.83509729  1
  I  I72  1  0.83342205  -0.00275934  0.16695449  1
  I  I73  1  0.84026660  -0.00290799  0.49927375  1
  I  I74  1  0.83864294  0.00201510  0.83368156  1
  I  I75  1  0.83312235  0.33324389  0.16726917  1
  I  I76  1  0.83301640  0.33337886  0.49907486  1
  I  I77  1  0.84222612  0.33271905  0.83343363  1
  I  I78  1  0.82891450  0.67141133  0.16876610  1
  I  I79  1  0.83910305  0.67089352  0.49758721  1
  I  I80  1  0.84004719  0.66451062  0.83481906  1
  I  I81  1  0.16706155  0.16537067  -0.00075604  1
  I  I82  1  0.17257976  0.16486151  0.33410609  1
  I  I83  1  0.16721676  0.16638542  0.66653671  1
  I  I84  1  0.16338466  0.50187816  -0.00338507  1
  I  I85  1  0.16875610  0.50215170  0.33664109  1
  I  I86  1  0.16307406  0.49593124  0.66730417  1
  I  I87  1  0.16600635  0.83385749  -0.00238213  1
  I  I88  1  0.16572286  0.83380875  0.33627112  1
  I  I89  1  0.16047272  0.83780797  0.66595495  1
  I  I90  1  0.49554408  0.16259296  0.00298744  1
  I  I91  1  0.48850739  0.16134760  0.33299400  1
  I  I92  1  0.49480547  0.16667616  0.66395540  1
  I  I93  1  0.49702401  0.49851161  -0.00000278  1
  I  I94  1  0.49706591  0.50273441  0.33358519  1
  I  I95  1  0.50230715  0.49938650  0.66642695  1
  I  I96  1  0.50615403  0.84107329  0.00401518  1
  I  I97  1  0.49822233  0.83706617  0.33017268  1
  I  I98  1  0.50333871  0.83472414  0.66646143  1
  I  I99  1  0.83901377  0.16705209  -0.00337998  1
  I  I100  1  0.83623105  0.16620713  0.33346461  1
  I  I101  1  0.83910713  0.16735093  0.67017949  1
  I  I102  1  0.84151152  0.49719107  -0.00405447  1
  I  I103  1  0.83436144  0.49888960  0.33369377  1
  I  I104  1  0.83737096  0.49643525  0.67034757  1
  I  I105  1  0.83117854  0.83418061  0.00190155  1
  I  I106  1  0.83749017  0.83587946  0.33373515  1
  I  I107  1  0.83756392  0.83459041  0.66440114  1
  I  I108  1  0.00275347  0.16471296  0.16844576  1
  I  I109  1  0.00360921  0.16769244  0.49803626  1
  I  I110  1  0.00234689  0.16690785  0.83366158  1
  I  I111  1  0.00018787  0.50061654  0.16817240  1
  I  I112  1  0.00407360  0.49357116  0.50218499  1
  I  I113  1  0.00186290  0.49853032  0.83003162  1
  I  I114  1  -0.00174498  0.83514812  0.16705361  1
  I  I115  1  0.00175964  0.83638203  0.49783881  1
  I  I116  1  0.00328584  0.83446519  0.83466413  1
  I  I117  1  0.33261751  0.16065074  0.16512919  1
  I  I118  1  0.33089369  0.16450037  0.50175565  1
  I  I119  1  0.32962775  0.16719823  0.83341650  1
  I  I120  1  0.33292152  0.50594828  0.16352975  1
  I  I121  1  0.32861117  0.50586545  0.50726657  1
  I  I122  1  0.32895527  0.49853278  0.83018134  1
  I  I123  1  0.33530646  0.83674239  0.16531296  1
  I  I124  1  0.32972027  0.83230050  0.50332204  1
  I  I125  1  0.32777045  0.83532161  0.82685998  1
  I  I126  1  0.66384753  0.16334253  0.16928994  1
  I  I127  1  0.66432180  0.16311164  0.49659193  1
  I  I128  1  0.66961678  0.17089400  0.83375586  1
  I  I129  1  0.66693380  0.49516849  0.16426026  1
  I  I130  1  0.66692729  0.50037438  0.50156430  1
  I  I131  1  0.66981752  0.49415359  0.83557970  1
  I  I132  1  0.66676936  0.84039528  0.17034783  1
  I  I133  1  0.66889901  0.83609803  0.49899746  1
  I  I134  1  0.66661415  0.83333411  0.83109040  1
