# generated using pymatgen
data_Cs27Sn14Pb13I81
_symmetry_space_group_name_H-M   'P 1'
_cell_length_a   18.97940540
_cell_length_b   18.97310659
_cell_length_c   18.97445524
_cell_angle_alpha   90.00320790
_cell_angle_beta   90.00175571
_cell_angle_gamma   90.00058331
_symmetry_Int_Tables_number   1
_chemical_formula_structural   Cs27Sn14Pb13I81
_chemical_formula_sum   'Cs27 Sn14 Pb13 I81'
_cell_volume   6832.66871142
_cell_formula_units_Z   1
loop_
 _symmetry_equiv_pos_site_id
 _symmetry_equiv_pos_as_xyz
  1  'x, y, z'
loop_
 _atom_site_type_symbol
 _atom_site_label
 _atom_site_symmetry_multiplicity
 _atom_site_fract_x
 _atom_site_fract_y
 _atom_site_fract_z
 _atom_site_occupancy
  Cs  Cs0  1  -0.00146806  0.00298136  -0.00130620  1
  Cs  Cs1  1  0.00052474  -0.00319589  0.33385750  1
  Cs  Cs2  1  0.01273776  0.00412444  0.66763542  1
  Cs  Cs3  1  -0.00146419  0.33275957  0.00082923  1
  Cs  Cs4  1  0.00292190  0.33538429  0.33504772  1
  Cs  Cs5  1  -0.00167411  0.32968471  0.66483652  1
  Cs  Cs6  1  0.00170670  0.66488382  0.00039233  1
  Cs  Cs7  1  -0.00516280  0.66684089  0.33319750  1
  Cs  Cs8  1  -0.00341497  0.66834936  0.66577671  1
  Cs  Cs9  1  0.33237608  -0.00150408  0.00195275  1
  Cs  Cs10  1  0.33407032  -0.00278406  0.33372432  1
  Cs  Cs11  1  0.32598758  -0.00041918  0.66452803  1
  Cs  Cs12  1  0.33518002  0.33763104  0.00268417  1
  Cs  Cs13  1  0.33212260  0.33370832  0.33315221  1
  Cs  Cs14  1  0.33635799  0.33304101  0.66527610  1
  Cs  Cs15  1  0.33130102  0.66342318  -0.00125742  1
  Cs  Cs16  1  0.33378220  0.66634150  0.33195493  1
  Cs  Cs17  1  0.33506677  0.66786113  0.66868984  1
  Cs  Cs18  1  0.66949878  0.00152620  0.00652763  1
  Cs  Cs19  1  0.66780178  -0.00632975  0.32533405  1
  Cs  Cs20  1  0.66517074  0.00253595  0.66757469  1
  Cs  Cs21  1  0.66664826  0.33159597  -0.00079055  1
  Cs  Cs22  1  0.66611850  0.33238110  0.33710735  1
  Cs  Cs23  1  0.66584589  0.33443232  0.66617079  1
  Cs  Cs24  1  0.66684706  0.66658939  -0.00305088  1
  Cs  Cs25  1  0.67053317  0.67370161  0.33570345  1
  Cs  Cs26  1  0.66700814  0.66523521  0.66762172  1
  Sn  Sn27  1  0.50120852  0.16699581  0.50038836  1
  Sn  Sn28  1  0.16748998  0.50017591  0.50135103  1
  Sn  Sn29  1  0.16630201  0.49964321  0.83185522  1
  Sn  Sn30  1  0.83281196  0.83327532  0.83283851  1
  Sn  Sn31  1  0.49932359  0.49966680  0.49985870  1
  Sn  Sn32  1  0.16670281  0.83438455  0.16638799  1
  Sn  Sn33  1  0.83327540  0.50037822  0.83406064  1
  Sn  Sn34  1  0.50078121  0.83382073  0.83328188  1
  Sn  Sn35  1  0.49991233  0.16638775  0.83293945  1
  Sn  Sn36  1  0.16683153  0.16551388  0.16650200  1
  Sn  Sn37  1  0.50171310  0.50008331  0.16721572  1
  Sn  Sn38  1  0.50024960  0.49982950  0.83314204  1
  Sn  Sn39  1  0.83214769  0.16615084  0.50001013  1
  Sn  Sn40  1  0.83177242  0.49961199  0.16608913  1
  Pb  Pb41  1  0.16654106  0.83114528  0.83472343  1
  Pb  Pb42  1  0.83269514  0.49907861  0.50054072  1
  Pb  Pb43  1  0.49873744  0.16854772  0.16717007  1
  Pb  Pb44  1  0.16652122  0.50012859  0.16681478  1
  Pb  Pb45  1  0.49853342  0.83038373  0.16393044  1
  Pb  Pb46  1  0.83321610  0.83706975  0.50350538  1
  Pb  Pb47  1  0.16677537  0.82989059  0.49757758  1
  Pb  Pb48  1  0.83520785  0.16908588  0.16907542  1
  Pb  Pb49  1  0.50014521  0.83353638  0.50248245  1
  Pb  Pb50  1  0.83125132  0.16669815  0.83174673  1
  Pb  Pb51  1  0.16765981  0.16861551  0.49814253  1
  Pb  Pb52  1  0.16963236  0.16958356  0.83538475  1
  Pb  Pb53  1  0.83527072  0.83093172  0.16402951  1
  I  I54  1  0.16792997  0.00018834  0.16598832  1
  I  I55  1  0.16643497  0.00011121  0.50021971  1
  I  I56  1  0.16646590  0.00020804  0.83353204  1
  I  I57  1  0.16727818  0.33219380  0.16704072  1
  I  I58  1  0.16831239  0.33664215  0.50034738  1
  I  I59  1  0.16598420  0.33784521  0.83319351  1
  I  I60  1  0.16724111  0.66798264  0.16541741  1
  I  I61  1  0.17280493  0.66172218  0.50167303  1
  I  I62  1  0.17193356  0.66279051  0.83406966  1
  I  I63  1  0.49875595  -0.00016546  0.16618074  1
  I  I64  1  0.50309617  0.00350344  0.50495748  1
  I  I65  1  0.50453443  0.00019093  0.82872592  1
  I  I66  1  0.49909102  0.33703726  0.16120842  1
  I  I67  1  0.49972990  0.33466499  0.50514437  1
  I  I68  1  0.49952745  0.33512093  0.83278744  1
  I  I69  1  0.49947722  0.66191466  0.16687044  1
  I  I70  1  0.49533659  0.66306799  0.50058617  1
  I  I71  1  0.49982462  0.66465726  0.83402885  1
  I  I72  1  0.83381628  -0.00005278  0.16610665  1
  I  I73  1  0.82620944  0.00464114  0.49973537  1
  I  I74  1  0.82802900  -0.00248397  0.83170049  1
  I  I75  1  0.83294962  0.33713671  0.15878172  1
  I  I76  1  0.83211967  0.33145778  0.50214677  1
  I  I77  1  0.83276671  0.33664901  0.83591372  1
  I  I78  1  0.83284690  0.66271943  0.16661729  1
  I  I79  1  0.83448325  0.66667224  0.49748913  1
  I  I80  1  0.82890524  0.66463928  0.83659910  1
  I  I81  1  0.16763941  0.16671530  0.00288939  1
  I  I82  1  0.16850674  0.16802266  0.33054187  1
  I  I83  1  0.16464731  0.16624329  0.66672334  1
  I  I84  1  0.16984702  0.50033165  -0.00227098  1
  I  I85  1  0.17020578  0.49882288  0.33534569  1
  I  I86  1  0.17031085  0.49961930  0.66738542  1
  I  I87  1  0.16772906  0.83286422  0.00244407  1
  I  I88  1  0.16716486  0.83451911  0.32969911  1
  I  I89  1  0.16647937  0.83403480  0.66694118  1
  I  I90  1  0.49759143  0.16947459  -0.00276760  1
  I  I91  1  0.50082462  0.17429428  0.33637569  1
  I  I92  1  0.50349596  0.17344276  0.66683098  1
  I  I93  1  0.49857129  0.49978937  -0.00146622  1
  I  I94  1  0.49702243  0.49350958  0.33399517  1
  I  I95  1  0.49905007  0.49934942  0.66778166  1
  I  I96  1  0.50295694  0.83283066  -0.00419665  1
  I  I97  1  0.49796432  0.83266395  0.33307713  1
  I  I98  1  0.50250573  0.82659577  0.67073869  1
  I  I99  1  0.83331127  0.16594642  -0.00011315  1
  I  I100  1  0.82671089  0.17098550  0.33673000  1
  I  I101  1  0.83192000  0.17087287  0.66399857  1
  I  I102  1  0.83163350  0.50266189  -0.00130779  1
  I  I103  1  0.83292668  0.49699965  0.33130520  1
  I  I104  1  0.83146784  0.50233845  0.66984821  1
  I  I105  1  0.82874463  0.83132962  -0.00374384  1
  I  I106  1  0.83538945  0.83147623  0.33322476  1
  I  I107  1  0.82933951  0.82242935  0.67113537  1
  I  I108  1  0.00310104  0.16725288  0.16775353  1
  I  I109  1  -0.00151779  0.16995534  0.49847832  1
  I  I110  1  0.00016358  0.16696947  0.83198288  1
  I  I111  1  -0.00194055  0.50001779  0.16320463  1
  I  I112  1  0.00189623  0.49748027  0.50128684  1
  I  I113  1  -0.00055733  0.50535924  0.83530651  1
  I  I114  1  0.00296214  0.83318198  0.16418498  1
  I  I115  1  -0.00001825  0.83274261  0.50214617  1
  I  I116  1  -0.00256933  0.82655547  0.83540494  1
  I  I117  1  0.33083312  0.16777461  0.16755332  1
  I  I118  1  0.33663351  0.17043702  0.50335756  1
  I  I119  1  0.33764113  0.16689881  0.82656446  1
  I  I120  1  0.33558565  0.49975202  0.16364356  1
  I  I121  1  0.33479336  0.49427393  0.50201245  1
  I  I122  1  0.33482723  0.50007900  0.83435746  1
  I  I123  1  0.33077047  0.83355325  0.16403212  1
  I  I124  1  0.33341635  0.83706777  0.50256544  1
  I  I125  1  0.33612716  0.83080706  0.83498260  1
  I  I126  1  0.66657124  0.16715258  0.16509284  1
  I  I127  1  0.66486825  0.17589699  0.50470520  1
  I  I128  1  0.66310433  0.17279530  0.83224628  1
  I  I129  1  0.66596703  0.49865424  0.16226569  1
  I  I130  1  0.66349625  0.49701133  0.50255161  1
  I  I131  1  0.66553157  0.50062713  0.83391281  1
  I  I132  1  0.66674289  0.83372558  0.16766333  1
  I  I133  1  0.66667275  0.82746465  0.49732503  1
  I  I134  1  0.66592330  0.82590246  0.83299780  1
