# generated using pymatgen
data_Cs27Sn13Pb14I81
_symmetry_space_group_name_H-M   'P 1'
_cell_length_a   18.98141165
_cell_length_b   18.97183586
_cell_length_c   18.97590609
_cell_angle_alpha   89.99998660
_cell_angle_beta   90.00300794
_cell_angle_gamma   90.00021780
_symmetry_Int_Tables_number   1
_chemical_formula_structural   Cs27Sn13Pb14I81
_chemical_formula_sum   'Cs27 Sn13 Pb14 I81'
_cell_volume   6833.45578003
_cell_formula_units_Z   1
loop_
 _symmetry_equiv_pos_site_id
 _symmetry_equiv_pos_as_xyz
  1  'x, y, z'
loop_
 _atom_site_type_symbol
 _atom_site_label
 _atom_site_symmetry_multiplicity
 _atom_site_fract_x
 _atom_site_fract_y
 _atom_site_fract_z
 _atom_site_occupancy
  Cs  Cs0  1  -0.00255203  -0.00292730  -0.00322583  1
  Cs  Cs1  1  0.00457595  -0.00040733  0.33726933  1
  Cs  Cs2  1  0.00027751  0.00032567  0.66715480  1
  Cs  Cs3  1  -0.00072093  0.33436469  0.00808123  1
  Cs  Cs4  1  0.00292075  0.33693013  0.32661672  1
  Cs  Cs5  1  -0.00022859  0.33224573  0.66599057  1
  Cs  Cs6  1  0.00151082  0.66799651  0.00000949  1
  Cs  Cs7  1  -0.00232386  0.66452395  0.33238421  1
  Cs  Cs8  1  -0.00106123  0.66774411  0.66697114  1
  Cs  Cs9  1  0.33581389  -0.00084207  -0.00017614  1
  Cs  Cs10  1  0.33406517  0.00119509  0.33466532  1
  Cs  Cs11  1  0.33185655  0.00048619  0.66521986  1
  Cs  Cs12  1  0.33123756  0.33863271  0.00106808  1
  Cs  Cs13  1  0.32737575  0.32825532  0.32876951  1
  Cs  Cs14  1  0.33506836  0.33490136  0.66807287  1
  Cs  Cs15  1  0.33169090  0.66354153  -0.00187852  1
  Cs  Cs16  1  0.33876762  0.67066585  0.33757305  1
  Cs  Cs17  1  0.33545227  0.66289559  0.66574520  1
  Cs  Cs18  1  0.66652240  0.00130080  -0.00009790  1
  Cs  Cs19  1  0.66232878  -0.00052491  0.33202136  1
  Cs  Cs20  1  0.66815627  0.00204286  0.66889554  1
  Cs  Cs21  1  0.66898345  0.32886919  0.00297431  1
  Cs  Cs22  1  0.66898006  0.33700786  0.33303082  1
  Cs  Cs23  1  0.66523117  0.33248204  0.66497367  1
  Cs  Cs24  1  0.66562526  0.66902536  -0.00139245  1
  Cs  Cs25  1  0.66475183  0.66381320  0.33563189  1
  Cs  Cs26  1  0.66664342  0.66332345  0.66549284  1
  Sn  Sn27  1  0.83307126  0.83418631  0.50001083  1
  Sn  Sn28  1  0.50070247  0.16652308  0.50054146  1
  Sn  Sn29  1  0.16656602  0.50017879  0.50035032  1
  Sn  Sn30  1  0.83316694  0.83237512  0.83319038  1
  Sn  Sn31  1  0.49986142  0.83375514  0.83295907  1
  Sn  Sn32  1  0.83279195  0.16606634  0.49981567  1
  Sn  Sn33  1  0.16697928  0.83392698  0.83376642  1
  Sn  Sn34  1  0.16632747  0.83342640  0.16620994  1
  Sn  Sn35  1  0.83344865  0.50018494  0.83335886  1
  Sn  Sn36  1  0.50015634  0.50011747  0.16643682  1
  Sn  Sn37  1  0.49890441  0.16590957  0.83262373  1
  Sn  Sn38  1  0.16733788  0.16628309  0.83346683  1
  Sn  Sn39  1  0.83383654  0.83354588  0.16683358  1
  Pb  Pb40  1  0.16646886  0.16834359  0.50203202  1
  Pb  Pb41  1  0.16473833  0.83185559  0.50050761  1
  Pb  Pb42  1  0.83346097  0.16358763  0.17021458  1
  Pb  Pb43  1  0.16454740  0.50011840  0.83232020  1
  Pb  Pb44  1  0.16659464  0.16363703  0.16333234  1
  Pb  Pb45  1  0.83170568  0.50263453  0.16422361  1
  Pb  Pb46  1  0.50255397  0.83530431  0.50275723  1
  Pb  Pb47  1  0.49789585  0.49680410  0.49793220  1
  Pb  Pb48  1  0.49990747  0.83204545  0.16441423  1
  Pb  Pb49  1  0.83338501  0.16647512  0.83219983  1
  Pb  Pb50  1  0.50213800  0.49931469  0.83459868  1
  Pb  Pb51  1  0.83472308  0.49979731  0.50157522  1
  Pb  Pb52  1  0.50000286  0.16867151  0.16616006  1
  Pb  Pb53  1  0.16853374  0.50324793  0.16894466  1
  I  I54  1  0.16360853  -0.00440849  0.16695458  1
  I  I55  1  0.16744560  -0.00007706  0.49830891  1
  I  I56  1  0.16485712  -0.00144284  0.83542491  1
  I  I57  1  0.16788452  0.33354628  0.16645631  1
  I  I58  1  0.16506246  0.33579015  0.50290340  1
  I  I59  1  0.17029256  0.33079500  0.82875729  1
  I  I60  1  0.16208529  0.67074593  0.15860371  1
  I  I61  1  0.16429623  0.66440574  0.50218112  1
  I  I62  1  0.16790349  0.67012263  0.83580410  1
  I  I63  1  0.50007489  -0.00017343  0.16782137  1
  I  I64  1  0.50007232  0.00323882  0.50084585  1
  I  I65  1  0.50173040  -0.00045907  0.83103001  1
  I  I66  1  0.50018857  0.33626870  0.16463343  1
  I  I67  1  0.50729992  0.32928224  0.50833809  1
  I  I68  1  0.49722359  0.33005673  0.83052321  1
  I  I69  1  0.50032705  0.66453991  0.16456523  1
  I  I70  1  0.50037315  0.66664876  0.50050553  1
  I  I71  1  0.49850619  0.66946109  0.83608720  1
  I  I72  1  0.83493035  -0.00463029  0.15873421  1
  I  I73  1  0.83117570  -0.00094566  0.50332388  1
  I  I74  1  0.83355753  -0.00333223  0.83455207  1
  I  I75  1  0.83193241  0.33352907  0.16532465  1
  I  I76  1  0.83018324  0.33066027  0.50526552  1
  I  I77  1  0.83266735  0.33510348  0.82952250  1
  I  I78  1  0.83666207  0.67081486  0.17027880  1
  I  I79  1  0.83614504  0.66969614  0.49980967  1
  I  I80  1  0.83343322  0.66955334  0.83107136  1
  I  I81  1  0.17235537  0.16663468  -0.00485058  1
  I  I82  1  0.16729469  0.16684117  0.33340018  1
  I  I83  1  0.16714303  0.15954560  0.66995778  1
  I  I84  1  0.16656216  0.49815864  0.00007300  1
  I  I85  1  0.16505734  0.49941598  0.33632913  1
  I  I86  1  0.16603839  0.50215880  0.66473558  1
  I  I87  1  0.16143322  0.83635082  -0.00166044  1
  I  I88  1  0.16132821  0.82985983  0.33107297  1
  I  I89  1  0.16495352  0.83608497  0.67011532  1
  I  I90  1  0.49706163  0.16318728  -0.00369364  1
  I  I91  1  0.50473589  0.16845410  0.33624352  1
  I  I92  1  0.50061150  0.16302175  0.66776849  1
  I  I93  1  0.50000515  0.49992233  0.00205860  1
  I  I94  1  0.50093699  0.50174350  0.33060444  1
  I  I95  1  0.50007451  0.50165254  0.66671722  1
  I  I96  1  0.50484502  0.83888212  -0.00389249  1
  I  I97  1  0.49984368  0.83342793  0.33349396  1
  I  I98  1  0.49880627  0.83361242  0.67109174  1
  I  I99  1  0.83261828  0.16709358  -0.00005280  1
  I  I100  1  0.82699208  0.16289819  0.33830416  1
  I  I101  1  0.83265721  0.16092743  0.66435272  1
  I  I102  1  0.83406335  0.50469211  -0.00367015  1
  I  I103  1  0.83337795  0.50075924  0.33322823  1
  I  I104  1  0.83322041  0.50706284  0.66937869  1
  I  I105  1  0.83435616  0.82830891  -0.00132751  1
  I  I106  1  0.83890512  0.83820271  0.33341813  1
  I  I107  1  0.83389015  0.83352909  0.66773670  1
  I  I108  1  0.00001680  0.17064983  0.16656080  1
  I  I109  1  -0.00258513  0.16271551  0.50325984  1
  I  I110  1  0.00213191  0.16257785  0.83056022  1
  I  I111  1  0.00000398  0.49892642  0.16695546  1
  I  I112  1  0.00221450  0.49886111  0.50158404  1
  I  I113  1  -0.00309965  0.50496972  0.83170665  1
  I  I114  1  -0.00059744  0.83288110  0.16085098  1
  I  I115  1  -0.00348022  0.83877503  0.50492868  1
  I  I116  1  -0.00036004  0.83375957  0.83389525  1
  I  I117  1  0.33330030  0.16444341  0.17214015  1
  I  I118  1  0.33578660  0.16927685  0.50287107  1
  I  I119  1  0.33401828  0.15871151  0.82744327  1
  I  I120  1  0.33586606  0.50145218  0.16474125  1
  I  I121  1  0.33053595  0.50084090  0.50206030  1
  I  I122  1  0.33335841  0.50245318  0.83325141  1
  I  I123  1  0.33074815  0.83110660  0.16121008  1
  I  I124  1  0.33346682  0.83321007  0.49917359  1
  I  I125  1  0.33286897  0.83798961  0.83854880  1
  I  I126  1  0.66674227  0.16451350  0.16143931  1
  I  I127  1  0.66668142  0.16292025  0.50724213  1
  I  I128  1  0.66418005  0.16360812  0.83107936  1
  I  I129  1  0.66427849  0.50192681  0.16658412  1
  I  I130  1  0.66664671  0.50139187  0.49974227  1
  I  I131  1  0.66977706  0.50591179  0.83269812  1
  I  I132  1  0.66946446  0.83179609  0.16517982  1
  I  I133  1  0.67077720  0.83348027  0.49950473  1
  I  I134  1  0.66741639  0.83344828  0.83361108  1
