# generated using pymatgen
data_Cs27Sn13Pb14I81
_symmetry_space_group_name_H-M   'P 1'
_cell_length_a   18.98098002
_cell_length_b   18.98199347
_cell_length_c   18.97056766
_cell_angle_alpha   89.99986193
_cell_angle_beta   89.99953080
_cell_angle_gamma   89.99915262
_symmetry_Int_Tables_number   1
_chemical_formula_structural   Cs27Sn13Pb14I81
_chemical_formula_sum   'Cs27 Sn13 Pb14 I81'
_cell_volume   6835.03555891
_cell_formula_units_Z   1
loop_
 _symmetry_equiv_pos_site_id
 _symmetry_equiv_pos_as_xyz
  1  'x, y, z'
loop_
 _atom_site_type_symbol
 _atom_site_label
 _atom_site_symmetry_multiplicity
 _atom_site_fract_x
 _atom_site_fract_y
 _atom_site_fract_z
 _atom_site_occupancy
  Cs  Cs0  1  -0.00620250  0.00442340  -0.00052372  1
  Cs  Cs1  1  0.00182707  -0.00108789  0.33299119  1
  Cs  Cs2  1  0.00027394  -0.00189317  0.66622435  1
  Cs  Cs3  1  -0.00887771  0.33255519  -0.00026438  1
  Cs  Cs4  1  0.00193923  0.33291105  0.33303276  1
  Cs  Cs5  1  0.00140139  0.33332041  0.66637837  1
  Cs  Cs6  1  -0.00344101  0.66489015  -0.00910694  1
  Cs  Cs7  1  0.00099681  0.66805865  0.33357232  1
  Cs  Cs8  1  0.00102541  0.66893461  0.67208023  1
  Cs  Cs9  1  0.34176286  -0.00017975  0.00160299  1
  Cs  Cs10  1  0.33136526  -0.00038894  0.33230460  1
  Cs  Cs11  1  0.33279655  0.00012379  0.66679421  1
  Cs  Cs12  1  0.33407254  0.33241021  0.00286801  1
  Cs  Cs13  1  0.33240686  0.33458026  0.33475524  1
  Cs  Cs14  1  0.33338132  0.33429584  0.66506710  1
  Cs  Cs15  1  0.33278958  0.66818662  -0.00172367  1
  Cs  Cs16  1  0.33276180  0.66531113  0.33407492  1
  Cs  Cs17  1  0.33217414  0.66551863  0.66745050  1
  Cs  Cs18  1  0.66410293  0.00038974  -0.00125699  1
  Cs  Cs19  1  0.66769626  -0.00623568  0.32950068  1
  Cs  Cs20  1  0.66881460  0.00017725  0.67095376  1
  Cs  Cs21  1  0.67486867  0.32797831  -0.00232167  1
  Cs  Cs22  1  0.66613224  0.33593691  0.33555355  1
  Cs  Cs23  1  0.66502534  0.33219292  0.66547580  1
  Cs  Cs24  1  0.67233166  0.67180459  0.00380477  1
  Cs  Cs25  1  0.66792740  0.66737675  0.33223728  1
  Cs  Cs26  1  0.66685976  0.66814542  0.66512272  1
  Sn  Sn27  1  0.50001638  0.50014986  0.49993004  1
  Sn  Sn28  1  0.83380309  0.49943390  0.49991823  1
  Sn  Sn29  1  0.50020713  0.16612501  0.49975493  1
  Sn  Sn30  1  0.50007681  0.50007086  0.83402893  1
  Sn  Sn31  1  0.16650666  0.83226008  0.16688368  1
  Sn  Sn32  1  0.16627930  0.50035217  0.49962672  1
  Sn  Sn33  1  0.16728333  0.50109379  0.16706304  1
  Sn  Sn34  1  0.16773800  0.83298523  0.49950602  1
  Sn  Sn35  1  0.49896452  0.83326451  0.50002557  1
  Sn  Sn36  1  0.83335212  0.16730026  0.49969844  1
  Sn  Sn37  1  0.16673799  0.16669770  0.50080181  1
  Sn  Sn38  1  0.16720875  0.16692216  0.83298921  1
  Sn  Sn39  1  0.49942008  0.49971220  0.16625322  1
  Pb  Pb40  1  0.16669537  0.16689209  0.16668249  1
  Pb  Pb41  1  0.49808755  0.16878208  0.83128842  1
  Pb  Pb42  1  0.50005809  0.16919478  0.16909614  1
  Pb  Pb43  1  0.49972494  0.83086169  0.83103432  1
  Pb  Pb44  1  0.83375347  0.50008239  0.16898843  1
  Pb  Pb45  1  0.83553062  0.16676647  0.83044827  1
  Pb  Pb46  1  0.49792132  0.83088560  0.16884802  1
  Pb  Pb47  1  0.16823816  0.49809639  0.83396470  1
  Pb  Pb48  1  0.83306439  0.16661738  0.16974545  1
  Pb  Pb49  1  0.83317864  0.83351601  0.83327246  1
  Pb  Pb50  1  0.83009610  0.50000990  0.83023735  1
  Pb  Pb51  1  0.16687381  0.83598626  0.83398550  1
  Pb  Pb52  1  0.83364763  0.83335667  0.50005994  1
  Pb  Pb53  1  0.83673449  0.83308867  0.16694424  1
  I  I54  1  0.16576403  -0.00258496  0.17287874  1
  I  I55  1  0.16897720  0.00015511  0.49987663  1
  I  I56  1  0.16656450  0.00350325  0.82525672  1
  I  I57  1  0.17096585  0.33672255  0.17231143  1
  I  I58  1  0.16855839  0.33384187  0.49993968  1
  I  I59  1  0.16856110  0.33067362  0.82533377  1
  I  I60  1  0.17149284  0.66547162  0.17762598  1
  I  I61  1  0.16961634  0.66591958  0.49579028  1
  I  I62  1  0.16745644  0.66647491  0.82999777  1
  I  I63  1  0.49784474  -0.00030554  0.16893031  1
  I  I64  1  0.49603592  0.00027926  0.50029429  1
  I  I65  1  0.49889155  0.00017868  0.83114455  1
  I  I66  1  0.49193489  0.33785298  0.17125422  1
  I  I67  1  0.49796101  0.33440048  0.50005560  1
  I  I68  1  0.49769370  0.33678274  0.82845417  1
  I  I69  1  0.49768069  0.66260217  0.17110253  1
  I  I70  1  0.49763415  0.66525263  0.50029531  1
  I  I71  1  0.49687965  0.66258134  0.82820487  1
  I  I72  1  0.83625012  -0.00017815  0.17050737  1
  I  I73  1  0.83425643  0.00310964  0.50056370  1
  I  I74  1  0.83473409  0.00054303  0.82920179  1
  I  I75  1  0.83653204  0.33366952  0.16623673  1
  I  I76  1  0.83325453  0.33387655  0.49990564  1
  I  I77  1  0.83417816  0.33346397  0.83419106  1
  I  I78  1  0.83050278  0.66629532  0.17110743  1
  I  I79  1  0.83198254  0.66356676  0.49926735  1
  I  I80  1  0.83529563  0.66614391  0.82964179  1
  I  I81  1  0.16736260  0.16784370  -0.00260308  1
  I  I82  1  0.16676161  0.16722141  0.33731264  1
  I  I83  1  0.16677206  0.16753743  0.66310989  1
  I  I84  1  0.17284659  0.50308187  0.00326410  1
  I  I85  1  0.17071071  0.49826564  0.33560395  1
  I  I86  1  0.16772957  0.50168268  0.66299424  1
  I  I87  1  0.16600435  0.82769260  0.00335451  1
  I  I88  1  0.17033905  0.83437626  0.33568856  1
  I  I89  1  0.16948366  0.83060338  0.66298846  1
  I  I90  1  0.49660429  0.16875494  -0.00011784  1
  I  I91  1  0.49547398  0.16980844  0.33848633  1
  I  I92  1  0.50095516  0.17000703  0.66192371  1
  I  I93  1  0.49081209  0.49995240  0.00074157  1
  I  I94  1  0.49899785  0.49931518  0.33551116  1
  I  I95  1  0.49957471  0.49944509  0.66384853  1
  I  I96  1  0.49789425  0.83169903  0.00038568  1
  I  I97  1  0.49809533  0.83189404  0.33765084  1
  I  I98  1  0.49339167  0.83072005  0.66178623  1
  I  I99  1  0.83652712  0.16701376  -0.00037750  1
  I  I100  1  0.83756293  0.17185206  0.33860495  1
  I  I101  1  0.83106988  0.17147756  0.66188365  1
  I  I102  1  0.83412187  0.50028335  -0.00002782  1
  I  I103  1  0.82936888  0.49588867  0.33763919  1
  I  I104  1  0.83477960  0.49615176  0.66166355  1
  I  I105  1  0.83528282  0.83223557  0.00034326  1
  I  I106  1  0.83125418  0.83364260  0.33406548  1
  I  I107  1  0.83574901  0.83241148  0.66562133  1
  I  I108  1  0.00044657  0.16877557  0.16894314  1
  I  I109  1  0.00117572  0.16994594  0.50327416  1
  I  I110  1  0.00359797  0.16803588  0.82702957  1
  I  I111  1  0.00372813  0.50262989  0.17306352  1
  I  I112  1  0.00132403  0.49663861  0.49513044  1
  I  I113  1  -0.00005210  0.49910007  0.83300410  1
  I  I114  1  0.00526336  0.82713819  0.17734968  1
  I  I115  1  0.00370169  0.83367095  0.49649360  1
  I  I116  1  0.00067173  0.83193947  0.82981239  1
  I  I117  1  0.33314333  0.16591956  0.16952731  1
  I  I118  1  0.33283181  0.16955333  0.50327222  1
  I  I119  1  0.33033092  0.16752829  0.82485191  1
  I  I120  1  0.33275962  0.50231270  0.17350013  1
  I  I121  1  0.33347193  0.49801687  0.49965964  1
  I  I122  1  0.33598559  0.49887990  0.82587361  1
  I  I123  1  0.32984129  0.83181497  0.17073278  1
  I  I124  1  0.33243724  0.83285901  0.49733313  1
  I  I125  1  0.33321307  0.83344999  0.83271025  1
  I  I126  1  0.66642818  0.16906352  0.16853020  1
  I  I127  1  0.66593889  0.17221268  0.49867418  1
  I  I128  1  0.66653652  0.16833686  0.83112531  1
  I  I129  1  0.66353716  0.49891052  0.17024317  1
  I  I130  1  0.66520600  0.49703519  0.50030036  1
  I  I131  1  0.66205808  0.49864910  0.83127697  1
  I  I132  1  0.66627632  0.83127670  0.16940632  1
  I  I133  1  0.66356247  0.83187535  0.50094382  1
  I  I134  1  0.66614827  0.83303961  0.82949930  1
