# generated using pymatgen
data_Cs27Sn13Pb14I81
_symmetry_space_group_name_H-M   'P 1'
_cell_length_a   18.99435279
_cell_length_b   18.98430227
_cell_length_c   18.99341520
_cell_angle_alpha   89.99882139
_cell_angle_beta   89.99870462
_cell_angle_gamma   90.00255148
_symmetry_Int_Tables_number   1
_chemical_formula_structural   Cs27Sn13Pb14I81
_chemical_formula_sum   'Cs27 Sn13 Pb14 I81'
_cell_volume   6848.92170757
_cell_formula_units_Z   1
loop_
 _symmetry_equiv_pos_site_id
 _symmetry_equiv_pos_as_xyz
  1  'x, y, z'
loop_
 _atom_site_type_symbol
 _atom_site_label
 _atom_site_symmetry_multiplicity
 _atom_site_fract_x
 _atom_site_fract_y
 _atom_site_fract_z
 _atom_site_occupancy
  Cs  Cs0  1  0.00578092  -0.00140005  -0.00693484  1
  Cs  Cs1  1  -0.00292159  0.00243672  0.33159507  1
  Cs  Cs2  1  -0.00323445  -0.00355742  0.67836568  1
  Cs  Cs3  1  -0.00076693  0.33446579  -0.00013229  1
  Cs  Cs4  1  -0.00127959  0.33427977  0.33235422  1
  Cs  Cs5  1  0.00015127  0.33603250  0.66634301  1
  Cs  Cs6  1  0.00227455  0.66476709  -0.00213355  1
  Cs  Cs7  1  -0.00116915  0.66330210  0.33691225  1
  Cs  Cs8  1  0.00018091  0.66653572  0.66514740  1
  Cs  Cs9  1  0.32182909  -0.00508928  0.00379040  1
  Cs  Cs10  1  0.33186823  0.00243152  0.33102399  1
  Cs  Cs11  1  0.33534185  0.00637687  0.66668102  1
  Cs  Cs12  1  0.33586494  0.33356197  -0.00485458  1
  Cs  Cs13  1  0.32890553  0.32871054  0.33833396  1
  Cs  Cs14  1  0.33713964  0.32898769  0.66564992  1
  Cs  Cs15  1  0.33739984  0.66992993  0.00166871  1
  Cs  Cs16  1  0.33432847  0.66811931  0.33495608  1
  Cs  Cs17  1  0.33438781  0.66517615  0.66477077  1
  Cs  Cs18  1  0.66883302  0.00248995  0.00229164  1
  Cs  Cs19  1  0.66808880  0.00121282  0.33213944  1
  Cs  Cs20  1  0.66863539  -0.00114319  0.67013971  1
  Cs  Cs21  1  0.66435757  0.33372937  0.00004649  1
  Cs  Cs22  1  0.66968004  0.33117431  0.33131336  1
  Cs  Cs23  1  0.66408864  0.33146339  0.66864057  1
  Cs  Cs24  1  0.65981086  0.66296692  0.00652314  1
  Cs  Cs25  1  0.66645790  0.66801591  0.33227402  1
  Cs  Cs26  1  0.66566642  0.66904406  0.66470883  1
  Sn  Sn27  1  0.16717267  0.50008899  0.16681700  1
  Sn  Sn28  1  0.50024717  0.50026443  0.49960270  1
  Sn  Sn29  1  0.83369327  0.16707872  0.49998797  1
  Sn  Sn30  1  0.50011444  0.83359336  0.83270455  1
  Sn  Sn31  1  0.83290139  0.16560251  0.16715122  1
  Sn  Sn32  1  0.83319985  0.50042333  0.83237748  1
  Sn  Sn33  1  0.83380022  0.83392832  0.16663878  1
  Sn  Sn34  1  0.16717895  0.83336991  0.49990025  1
  Sn  Sn35  1  0.16695298  0.50058357  0.50023447  1
  Sn  Sn36  1  0.83280992  0.49914617  0.50079904  1
  Sn  Sn37  1  0.50009991  0.16662087  0.16670487  1
  Sn  Sn38  1  0.49912662  0.83318951  0.50069904  1
  Sn  Sn39  1  0.16646976  0.50032834  0.83279626  1
  Pb  Pb40  1  0.50137859  0.83537666  0.16754923  1
  Pb  Pb41  1  0.83332376  0.83334862  0.49904792  1
  Pb  Pb42  1  0.83323816  0.16914361  0.83368708  1
  Pb  Pb43  1  0.16406673  0.83095730  0.16932376  1
  Pb  Pb44  1  0.49714263  0.49771829  0.16979775  1
  Pb  Pb45  1  0.49998008  0.50143711  0.83100985  1
  Pb  Pb46  1  0.50236769  0.16601404  0.49862974  1
  Pb  Pb47  1  0.83462932  0.49960568  0.16669324  1
  Pb  Pb48  1  0.16669314  0.16950034  0.83302292  1
  Pb  Pb49  1  0.49998377  0.16327788  0.83641345  1
  Pb  Pb50  1  0.16886731  0.83065483  0.83043718  1
  Pb  Pb51  1  0.83114119  0.82998204  0.83631608  1
  Pb  Pb52  1  0.16341960  0.16606623  0.50032075  1
  Pb  Pb53  1  0.16580563  0.16899333  0.16669560  1
  I  I54  1  0.16842019  -0.00018176  0.16877953  1
  I  I55  1  0.17225282  -0.00318271  0.49763473  1
  I  I56  1  0.16720730  -0.00080287  0.83266558  1
  I  I57  1  0.16364831  0.33713973  0.17097492  1
  I  I58  1  0.16905450  0.33705759  0.49981930  1
  I  I59  1  0.16322273  0.33844951  0.83049161  1
  I  I60  1  0.16419523  0.66304824  0.16566145  1
  I  I61  1  0.16484581  0.66458356  0.49961209  1
  I  I62  1  0.16158925  0.66265383  0.83476372  1
  I  I63  1  0.50348683  0.00295591  0.16952063  1
  I  I64  1  0.49625855  -0.00317345  0.50210756  1
  I  I65  1  0.50159739  -0.00417403  0.82312505  1
  I  I66  1  0.50873706  0.33051954  0.16795070  1
  I  I67  1  0.49685073  0.33612654  0.49827214  1
  I  I68  1  0.49945423  0.33347581  0.83309699  1
  I  I69  1  0.50169162  0.66665147  0.16509367  1
  I  I70  1  0.50133421  0.66609573  0.50267828  1
  I  I71  1  0.50051409  0.66913948  0.83248781  1
  I  I72  1  0.82852445  0.00104518  0.17515953  1
  I  I73  1  0.83248849  0.00228187  0.49470212  1
  I  I74  1  0.83215195  -0.00030711  0.83050220  1
  I  I75  1  0.83137202  0.33096719  0.16864368  1
  I  I76  1  0.83380131  0.33506210  0.49679526  1
  I  I77  1  0.83708400  0.33731619  0.83362048  1
  I  I78  1  0.83473431  0.66814207  0.16770132  1
  I  I79  1  0.83423140  0.66359389  0.50122888  1
  I  I80  1  0.83837635  0.66251433  0.82676997  1
  I  I81  1  0.16524526  0.16826410  0.00016520  1
  I  I82  1  0.16794084  0.17060028  0.33355079  1
  I  I83  1  0.16601017  0.16883552  0.66626941  1
  I  I84  1  0.15889218  0.49767035  -0.00049097  1
  I  I85  1  0.16542796  0.50299703  0.33510782  1
  I  I86  1  0.16414820  0.50437243  0.66541480  1
  I  I87  1  0.16805022  0.83164144  -0.00007424  1
  I  I88  1  0.17351771  0.82555974  0.33692294  1
  I  I89  1  0.16512250  0.82617797  0.66270977  1
  I  I90  1  0.50897728  0.16831419  0.00395690  1
  I  I91  1  0.50320555  0.16588150  0.33095854  1
  I  I92  1  0.50086801  0.16886635  0.66653766  1
  I  I93  1  0.50014574  0.50124058  0.00012555  1
  I  I94  1  0.50222267  0.50720298  0.33778178  1
  I  I95  1  0.49647712  0.50070728  0.66280529  1
  I  I96  1  0.50341810  0.83322062  -0.00170174  1
  I  I97  1  0.49763338  0.82925864  0.33660821  1
  I  I98  1  0.49754779  0.82764569  0.66479737  1
  I  I99  1  0.82900996  0.16503302  0.00333604  1
  I  I100  1  0.82996627  0.16974946  0.33326664  1
  I  I101  1  0.83395418  0.16979316  0.66380827  1
  I  I102  1  0.83926587  0.50098719  -0.00210974  1
  I  I103  1  0.83497698  0.49929808  0.33626343  1
  I  I104  1  0.83838283  0.49535660  0.66478457  1
  I  I105  1  0.83152789  0.83853294  0.00375262  1
  I  I106  1  0.83120348  0.83182294  0.33130577  1
  I  I107  1  0.83505923  0.83603348  0.66672102  1
  I  I108  1  -0.00350272  0.16535630  0.17210760  1
  I  I109  1  -0.00427572  0.17255289  0.49152195  1
  I  I110  1  -0.00033849  0.16328322  0.83536807  1
  I  I111  1  0.00239303  0.49878893  0.17179648  1
  I  I112  1  0.00024993  0.50031296  0.49990352  1
  I  I113  1  0.00013488  0.49991426  0.82852760  1
  I  I114  1  -0.00346091  0.83965287  0.16915247  1
  I  I115  1  0.00212830  0.82800209  0.49610374  1
  I  I116  1  0.00007925  0.83465551  0.83304592  1
  I  I117  1  0.33556904  0.16833314  0.16754383  1
  I  I118  1  0.33336585  0.17006281  0.49745657  1
  I  I119  1  0.33364439  0.17041822  0.83446989  1
  I  I120  1  0.32949805  0.49944006  0.16548678  1
  I  I121  1  0.33279731  0.50518749  0.49911876  1
  I  I122  1  0.33060343  0.50140939  0.83312619  1
  I  I123  1  0.33315024  0.83471013  0.16464774  1
  I  I124  1  0.33373432  0.82302866  0.50237411  1
  I  I125  1  0.33645989  0.83019126  0.83374516  1
  I  I126  1  0.66815985  0.16389335  0.17171425  1
  I  I127  1  0.67005365  0.17191274  0.49667866  1
  I  I128  1  0.66666305  0.17035734  0.83157209  1
  I  I129  1  0.66647825  0.50179545  0.16644442  1
  I  I130  1  0.66723629  0.50065044  0.50441389  1
  I  I131  1  0.66910841  0.50105330  0.82875032  1
  I  I132  1  0.66925126  0.83278798  0.16951445  1
  I  I133  1  0.66412907  0.82908286  0.50143263  1
  I  I134  1  0.66386293  0.83079047  0.82457745  1
