# generated using pymatgen
data_Cs27Sn14Pb13I81
_symmetry_space_group_name_H-M   'P 1'
_cell_length_a   18.98660696
_cell_length_b   18.97309638
_cell_length_c   18.96915521
_cell_angle_alpha   90.00280737
_cell_angle_beta   89.99919962
_cell_angle_gamma   90.00045402
_symmetry_Int_Tables_number   1
_chemical_formula_structural   Cs27Sn14Pb13I81
_chemical_formula_sum   'Cs27 Sn14 Pb13 I81'
_cell_volume   6833.34838298
_cell_formula_units_Z   1
loop_
 _symmetry_equiv_pos_site_id
 _symmetry_equiv_pos_as_xyz
  1  'x, y, z'
loop_
 _atom_site_type_symbol
 _atom_site_label
 _atom_site_symmetry_multiplicity
 _atom_site_fract_x
 _atom_site_fract_y
 _atom_site_fract_z
 _atom_site_occupancy
  Cs  Cs0  1  0.00145808  -0.00024710  -0.00059276  1
  Cs  Cs1  1  -0.00117586  0.00200539  0.33355410  1
  Cs  Cs2  1  0.00372179  0.00061983  0.66792464  1
  Cs  Cs3  1  -0.00085012  0.33369876  -0.00011188  1
  Cs  Cs4  1  0.00005425  0.33181671  0.33433765  1
  Cs  Cs5  1  -0.00120925  0.33280114  0.66564903  1
  Cs  Cs6  1  0.00060621  0.66716831  0.00268799  1
  Cs  Cs7  1  -0.00616116  0.66623050  0.32919911  1
  Cs  Cs8  1  0.00201266  0.66687273  0.66718338  1
  Cs  Cs9  1  0.33354712  -0.00132173  0.00041588  1
  Cs  Cs10  1  0.33269369  0.00059516  0.33335822  1
  Cs  Cs11  1  0.32908020  -0.00314705  0.66547017  1
  Cs  Cs12  1  0.33911655  0.33352889  0.00420195  1
  Cs  Cs13  1  0.33546623  0.33380039  0.33281375  1
  Cs  Cs14  1  0.33277066  0.33498969  0.66431976  1
  Cs  Cs15  1  0.33162580  0.66935706  -0.00064361  1
  Cs  Cs16  1  0.33420173  0.66555967  0.33259697  1
  Cs  Cs17  1  0.33312693  0.66808340  0.66688508  1
  Cs  Cs18  1  0.66399645  0.00212426  -0.00079929  1
  Cs  Cs19  1  0.66897529  -0.00035460  0.33321563  1
  Cs  Cs20  1  0.66689927  0.00019639  0.66747334  1
  Cs  Cs21  1  0.65905252  0.33655818  -0.00701097  1
  Cs  Cs22  1  0.66406280  0.33118655  0.33517539  1
  Cs  Cs23  1  0.66791593  0.33359769  0.66865112  1
  Cs  Cs24  1  0.66914555  0.66296791  0.00068675  1
  Cs  Cs25  1  0.67330186  0.66966482  0.33492338  1
  Cs  Cs26  1  0.66483817  0.66586937  0.66467166  1
  Sn  Sn27  1  0.83352265  0.49910262  0.50015761  1
  Sn  Sn28  1  0.16676252  0.49974418  0.83298578  1
  Sn  Sn29  1  0.49949624  0.83327825  0.16609861  1
  Sn  Sn30  1  0.16644903  0.50019189  0.50024943  1
  Sn  Sn31  1  0.16590929  0.16602955  0.16577801  1
  Sn  Sn32  1  0.50011167  0.83330415  0.83423026  1
  Sn  Sn33  1  0.16730258  0.83431718  0.16623433  1
  Sn  Sn34  1  0.50069118  0.16688901  0.50029869  1
  Sn  Sn35  1  0.16661420  0.83329814  0.83414989  1
  Sn  Sn36  1  0.16687163  0.16713809  0.83440627  1
  Sn  Sn37  1  0.83343242  0.83335445  0.83326226  1
  Sn  Sn38  1  0.83347302  0.16711114  0.16634618  1
  Sn  Sn39  1  0.83256619  0.16726616  0.49956350  1
  Sn  Sn40  1  0.50002327  0.49933228  0.50000597  1
  Pb  Pb41  1  0.49989703  0.83355244  0.49964338  1
  Pb  Pb42  1  0.49988816  0.16481409  0.16846693  1
  Pb  Pb43  1  0.83559631  0.50202109  0.83126377  1
  Pb  Pb44  1  0.83358415  0.83408043  0.50226900  1
  Pb  Pb45  1  0.16643004  0.83062941  0.49899097  1
  Pb  Pb46  1  0.49757480  0.50231529  0.83130159  1
  Pb  Pb47  1  0.16664371  0.49979515  0.16635158  1
  Pb  Pb48  1  0.83313456  0.49644069  0.16854482  1
  Pb  Pb49  1  0.83509412  0.16532674  0.83331195  1
  Pb  Pb50  1  0.50016489  0.50312484  0.16919764  1
  Pb  Pb51  1  0.83351802  0.83557536  0.16429920  1
  Pb  Pb52  1  0.16648273  0.16847323  0.49959345  1
  Pb  Pb53  1  0.49710031  0.16460392  0.83072382  1
  I  I54  1  0.16679083  -0.00017218  0.15926077  1
  I  I55  1  0.16709504  0.00016153  0.50321527  1
  I  I56  1  0.16642560  -0.00084313  0.83700380  1
  I  I57  1  0.16200007  0.33012834  0.16437005  1
  I  I58  1  0.16673482  0.33639941  0.50450076  1
  I  I59  1  0.16488641  0.33315080  0.83140427  1
  I  I60  1  0.17100502  0.66970168  0.16395969  1
  I  I61  1  0.16794936  0.66245262  0.50519367  1
  I  I62  1  0.16704806  0.66779833  0.83169515  1
  I  I63  1  0.49763934  -0.00310137  0.16517538  1
  I  I64  1  0.50516840  0.00259377  0.50020093  1
  I  I65  1  0.49724110  -0.00355884  0.83400971  1
  I  I66  1  0.49889052  0.33310098  0.16723991  1
  I  I67  1  0.49983665  0.33353739  0.49939206  1
  I  I68  1  0.49867392  0.33331634  0.83377892  1
  I  I69  1  0.49177182  0.67119541  0.16416312  1
  I  I70  1  0.49983857  0.66392624  0.50086334  1
  I  I71  1  0.49706182  0.67051098  0.83383562  1
  I  I72  1  0.83568939  0.00311301  0.17470367  1
  I  I73  1  0.82812158  0.00352090  0.49702616  1
  I  I74  1  0.83669089  -0.00285149  0.83053350  1
  I  I75  1  0.84228128  0.32845585  0.16853407  1
  I  I76  1  0.83347347  0.33302902  0.49659670  1
  I  I77  1  0.83622487  0.33331053  0.83430867  1
  I  I78  1  0.83400947  0.66692711  0.16844589  1
  I  I79  1  0.83246236  0.66383952  0.50239004  1
  I  I80  1  0.83564361  0.67022484  0.83171258  1
  I  I81  1  0.16042206  0.16629124  0.00018375  1
  I  I82  1  0.16592666  0.16262914  0.33074837  1
  I  I83  1  0.16697243  0.16288445  0.66903190  1
  I  I84  1  0.16628051  0.50182377  -0.00314145  1
  I  I85  1  0.16690721  0.49966319  0.33633704  1
  I  I86  1  0.16671964  0.50055657  0.66682744  1
  I  I87  1  0.16733269  0.83190097  -0.00116187  1
  I  I88  1  0.17210355  0.83759963  0.32971288  1
  I  I89  1  0.16799220  0.83622237  0.66993004  1
  I  I90  1  0.50280311  0.16715902  -0.00015032  1
  I  I91  1  0.49839822  0.16803903  0.33654570  1
  I  I92  1  0.50504667  0.16860770  0.66284478  1
  I  I93  1  0.49812049  0.49844659  -0.00025315  1
  I  I94  1  0.49543424  0.49782501  0.33781290  1
  I  I95  1  0.50146803  0.49891402  0.66300585  1
  I  I96  1  0.49722799  0.83489801  -0.00062020  1
  I  I97  1  0.49372331  0.83329388  0.33059883  1
  I  I98  1  0.49764057  0.83303035  0.66943861  1
  I  I99  1  0.83786935  0.16162534  0.00242461  1
  I  I100  1  0.83663709  0.16892496  0.33413572  1
  I  I101  1  0.83127749  0.16939786  0.66371349  1
  I  I102  1  0.83580746  0.50044570  -0.00032431  1
  I  I103  1  0.83726506  0.50176335  0.33757915  1
  I  I104  1  0.83171074  0.49349260  0.66284570  1
  I  I105  1  0.83518412  0.83538294  -0.00347339  1
  I  I106  1  0.83318446  0.83097845  0.33312704  1
  I  I107  1  0.83459391  0.83484046  0.67024084  1
  I  I108  1  0.00117769  0.16052551  0.16995575  1
  I  I109  1  -0.00222609  0.17062498  0.49924686  1
  I  I110  1  0.00347272  0.16325597  0.83108598  1
  I  I111  1  0.00011451  0.50555739  0.16992434  1
  I  I112  1  0.00002118  0.49625527  0.50464204  1
  I  I113  1  0.00387358  0.50258112  0.82695856  1
  I  I114  1  0.00293841  0.83461396  0.16255821  1
  I  I115  1  0.00008577  0.83331627  0.50121020  1
  I  I116  1  0.00196771  0.83316736  0.83551378  1
  I  I117  1  0.33036745  0.16421632  0.16442280  1
  I  I118  1  0.33507296  0.17045681  0.50057817  1
  I  I119  1  0.32893207  0.16444116  0.83725659  1
  I  I120  1  0.33316377  0.49568139  0.17091526  1
  I  I121  1  0.33316420  0.49675141  0.50408928  1
  I  I122  1  0.32943567  0.50229549  0.82649545  1
  I  I123  1  0.33194644  0.83864503  0.15919798  1
  I  I124  1  0.33319936  0.83381023  0.50427374  1
  I  I125  1  0.33203080  0.83296415  0.83667157  1
  I  I126  1  0.66897944  0.16363423  0.17206920  1
  I  I127  1  0.66747877  0.17362500  0.49469683  1
  I  I128  1  0.66644494  0.16313893  0.83462968  1
  I  I129  1  0.66668371  0.50206390  0.16837066  1
  I  I130  1  0.66679362  0.49626736  0.49855109  1
  I  I131  1  0.66652960  0.50264156  0.83163923  1
  I  I132  1  0.66433871  0.83425069  0.16351209  1
  I  I133  1  0.66664338  0.82881865  0.50066312  1
  I  I134  1  0.66605799  0.83456356  0.83543656  1
