# generated using pymatgen
data_Cs27Sn13Pb14I81
_symmetry_space_group_name_H-M   'P 1'
_cell_length_a   18.98219812
_cell_length_b   18.99301700
_cell_length_c   18.99893236
_cell_angle_alpha   89.99968470
_cell_angle_beta   90.00063185
_cell_angle_gamma   90.00115008
_symmetry_Int_Tables_number   1
_chemical_formula_structural   Cs27Sn13Pb14I81
_chemical_formula_sum   'Cs27 Sn13 Pb14 I81'
_cell_volume   6849.67010409
_cell_formula_units_Z   1
loop_
 _symmetry_equiv_pos_site_id
 _symmetry_equiv_pos_as_xyz
  1  'x, y, z'
loop_
 _atom_site_type_symbol
 _atom_site_label
 _atom_site_symmetry_multiplicity
 _atom_site_fract_x
 _atom_site_fract_y
 _atom_site_fract_z
 _atom_site_occupancy
  Cs  Cs0  1  -0.00957558  0.00319818  -0.00760652  1
  Cs  Cs1  1  -0.00084543  0.00669903  0.33320408  1
  Cs  Cs2  1  -0.00248533  0.00556728  0.67304078  1
  Cs  Cs3  1  0.00985551  0.32914742  0.01301029  1
  Cs  Cs4  1  0.00867843  0.32447237  0.32602727  1
  Cs  Cs5  1  0.00764319  0.32821409  0.66359535  1
  Cs  Cs6  1  -0.00299333  0.66711160  -0.00193143  1
  Cs  Cs7  1  -0.00123156  0.66534223  0.33172610  1
  Cs  Cs8  1  0.00058553  0.66720451  0.66913363  1
  Cs  Cs9  1  0.33394914  0.00026118  -0.00083943  1
  Cs  Cs10  1  0.33567916  -0.00451562  0.33317981  1
  Cs  Cs11  1  0.33419469  -0.00133270  0.66954783  1
  Cs  Cs12  1  0.32981186  0.33024476  -0.00121260  1
  Cs  Cs13  1  0.33078907  0.33265960  0.33322031  1
  Cs  Cs14  1  0.32833146  0.33281182  0.66815309  1
  Cs  Cs15  1  0.33377424  0.66746643  -0.00090436  1
  Cs  Cs16  1  0.33556531  0.66986356  0.33462778  1
  Cs  Cs17  1  0.33307768  0.66698741  0.66556446  1
  Cs  Cs18  1  0.67178703  0.00141104  -0.00343508  1
  Cs  Cs19  1  0.66574696  -0.00110648  0.33455609  1
  Cs  Cs20  1  0.66714425  0.00310192  0.66654305  1
  Cs  Cs21  1  0.66642137  0.33527304  -0.00305654  1
  Cs  Cs22  1  0.66653791  0.33458708  0.33420593  1
  Cs  Cs23  1  0.66675276  0.33666642  0.66785359  1
  Cs  Cs24  1  0.66793887  0.66510009  -0.00034397  1
  Cs  Cs25  1  0.66542074  0.66630111  0.33484959  1
  Cs  Cs26  1  0.66634295  0.66374020  0.66492898  1
  Sn  Sn27  1  0.50021487  0.50110779  0.83305982  1
  Sn  Sn28  1  0.50005857  0.49994084  0.16678890  1
  Sn  Sn29  1  0.16686241  0.83329338  0.16707423  1
  Sn  Sn30  1  0.83322761  0.50033252  0.50061967  1
  Sn  Sn31  1  0.49983898  0.83340043  0.16622050  1
  Sn  Sn32  1  0.50039333  0.16645466  0.16754901  1
  Sn  Sn33  1  0.50035824  0.83233806  0.83328627  1
  Sn  Sn34  1  0.50019480  0.16700877  0.49932212  1
  Sn  Sn35  1  0.83363544  0.83260855  0.49983671  1
  Sn  Sn36  1  0.16591303  0.83308906  0.49919261  1
  Sn  Sn37  1  0.83320760  0.49950804  0.83242642  1
  Sn  Sn38  1  0.50027844  0.83339262  0.50029250  1
  Sn  Sn39  1  0.50025040  0.49962437  0.50008237  1
  Pb  Pb40  1  0.50008929  0.16723072  0.83324482  1
  Pb  Pb41  1  0.83311355  0.83332476  0.16909131  1
  Pb  Pb42  1  0.83109045  0.16769394  0.49999146  1
  Pb  Pb43  1  0.83051734  0.83131870  0.83043015  1
  Pb  Pb44  1  0.16677689  0.16643924  0.83348811  1
  Pb  Pb45  1  0.83156991  0.50001386  0.16739054  1
  Pb  Pb46  1  0.16614483  0.50024772  0.83330503  1
  Pb  Pb47  1  0.16857536  0.83320999  0.83359427  1
  Pb  Pb48  1  0.16611342  0.50222121  0.49991142  1
  Pb  Pb49  1  0.16991043  0.16307688  0.50002371  1
  Pb  Pb50  1  0.16977632  0.16255639  0.16672606  1
  Pb  Pb51  1  0.83293443  0.17139828  0.83309186  1
  Pb  Pb52  1  0.16964127  0.50320674  0.16686770  1
  Pb  Pb53  1  0.83021428  0.16668843  0.16682808  1
  I  I54  1  0.17599669  -0.00475627  0.17332839  1
  I  I55  1  0.16789711  -0.00500003  0.49505675  1
  I  I56  1  0.17065311  -0.00068328  0.83225781  1
  I  I57  1  0.16686320  0.33295386  0.16552894  1
  I  I58  1  0.16713219  0.33308507  0.50135430  1
  I  I59  1  0.17080170  0.33359391  0.83238607  1
  I  I60  1  0.17464650  0.67073958  0.17118084  1
  I  I61  1  0.17420848  0.67031108  0.49686365  1
  I  I62  1  0.16714750  0.66693544  0.83348116  1
  I  I63  1  0.49554172  -0.00115876  0.17086122  1
  I  I64  1  0.49963890  -0.00167047  0.49725589  1
  I  I65  1  0.49784296  -0.00296054  0.83242423  1
  I  I66  1  0.50310923  0.33392484  0.16994824  1
  I  I67  1  0.50567988  0.33447648  0.49725701  1
  I  I68  1  0.50427742  0.33708771  0.83333412  1
  I  I69  1  0.49667723  0.66712501  0.16906070  1
  I  I70  1  0.49999585  0.66726218  0.49822673  1
  I  I71  1  0.50225905  0.66650216  0.83318142  1
  I  I72  1  0.83026311  -0.00031732  0.16870731  1
  I  I73  1  0.83081122  -0.00291643  0.49782156  1
  I  I74  1  0.83262466  0.00007794  0.83290581  1
  I  I75  1  0.83077012  0.33357286  0.16810094  1
  I  I76  1  0.82434740  0.33728320  0.50534573  1
  I  I77  1  0.81965092  0.33898736  0.82440120  1
  I  I78  1  0.83059511  0.66669991  0.16519627  1
  I  I79  1  0.82636563  0.66677105  0.50257062  1
  I  I80  1  0.82947908  0.66354115  0.83188672  1
  I  I81  1  0.17066422  0.16624009  0.00061309  1
  I  I82  1  0.16497348  0.16961190  0.33338158  1
  I  I83  1  0.17003117  0.16493058  0.66615215  1
  I  I84  1  0.16717046  0.50217561  0.00016085  1
  I  I85  1  0.16698887  0.49934466  0.33340378  1
  I  I86  1  0.17340301  0.50299331  0.66642219  1
  I  I87  1  0.17580398  0.83258894  0.00315145  1
  I  I88  1  0.17518491  0.83187336  0.33411799  1
  I  I89  1  0.17013459  0.83225340  0.66345798  1
  I  I90  1  0.49894639  0.16593354  0.00307817  1
  I  I91  1  0.50035420  0.16575703  0.33380330  1
  I  I92  1  0.50049224  0.16458143  0.66357406  1
  I  I93  1  0.50374266  0.50378437  -0.00017130  1
  I  I94  1  0.50336144  0.50281022  0.33408577  1
  I  I95  1  0.50370035  0.50371569  0.66594062  1
  I  I96  1  0.49414634  0.83069895  0.00064941  1
  I  I97  1  0.49945470  0.83165658  0.33413678  1
  I  I98  1  0.49934972  0.83143197  0.66525616  1
  I  I99  1  0.83029663  0.16552118  -0.00024004  1
  I  I100  1  0.83368362  0.16847043  0.33372400  1
  I  I101  1  0.82948134  0.16208505  0.66638748  1
  I  I102  1  0.82574884  0.50092563  -0.00275708  1
  I  I103  1  0.82592065  0.50586440  0.33711219  1
  I  I104  1  0.82083837  0.50637405  0.66557680  1
  I  I105  1  0.83323268  0.83229520  -0.00029784  1
  I  I106  1  0.82632543  0.82655390  0.33734632  1
  I  I107  1  0.83258364  0.83166488  0.66243298  1
  I  I108  1  0.00062254  0.16684349  0.16608186  1
  I  I109  1  0.00015774  0.16700670  0.50089971  1
  I  I110  1  -0.00045910  0.16541581  0.83223634  1
  I  I111  1  0.00016223  0.50125570  0.16573155  1
  I  I112  1  -0.00365527  0.50711424  0.50720708  1
  I  I113  1  -0.00378445  0.50140871  0.82516761  1
  I  I114  1  0.00296566  0.83181738  0.17302379  1
  I  I115  1  -0.00028098  0.82579754  0.49405101  1
  I  I116  1  -0.00049823  0.83190461  0.83392102  1
  I  I117  1  0.33792045  0.17002354  0.17104570  1
  I  I118  1  0.33830083  0.16855565  0.49616236  1
  I  I119  1  0.33435436  0.16852604  0.83268666  1
  I  I120  1  0.33877343  0.49782899  0.16725987  1
  I  I121  1  0.33730413  0.50088086  0.50044714  1
  I  I122  1  0.33748199  0.50374703  0.83229966  1
  I  I123  1  0.33627687  0.83258933  0.17209813  1
  I  I124  1  0.33574981  0.83333427  0.49918095  1
  I  I125  1  0.33772025  0.82744369  0.82862511  1
  I  I126  1  0.66143340  0.16268478  0.17137172  1
  I  I127  1  0.66249311  0.16091116  0.49583345  1
  I  I128  1  0.66606383  0.16252045  0.83424717  1
  I  I129  1  0.66205997  0.50404243  0.16725049  1
  I  I130  1  0.66434079  0.50502218  0.50013639  1
  I  I131  1  0.66430894  0.50470235  0.83239625  1
  I  I132  1  0.66238101  0.83301334  0.16783405  1
  I  I133  1  0.66456923  0.83275793  0.49958785  1
  I  I134  1  0.66214924  0.83204424  0.83542091  1
