# generated using pymatgen
data_Cs27Sn13Pb14I81
_symmetry_space_group_name_H-M   'P 1'
_cell_length_a   18.97606696
_cell_length_b   18.98311120
_cell_length_c   18.97455001
_cell_angle_alpha   89.99886627
_cell_angle_beta   89.99867876
_cell_angle_gamma   89.99862354
_symmetry_Int_Tables_number   1
_chemical_formula_structural   Cs27Sn13Pb14I81
_chemical_formula_sum   'Cs27 Sn13 Pb14 I81'
_cell_volume   6835.10327022
_cell_formula_units_Z   1
loop_
 _symmetry_equiv_pos_site_id
 _symmetry_equiv_pos_as_xyz
  1  'x, y, z'
loop_
 _atom_site_type_symbol
 _atom_site_label
 _atom_site_symmetry_multiplicity
 _atom_site_fract_x
 _atom_site_fract_y
 _atom_site_fract_z
 _atom_site_occupancy
  Cs  Cs0  1  -0.00138741  -0.00066490  -0.00010390  1
  Cs  Cs1  1  0.00575350  -0.00528314  0.33256074  1
  Cs  Cs2  1  -0.00081780  -0.00185192  0.66502823  1
  Cs  Cs3  1  -0.00250017  0.33496876  -0.00342555  1
  Cs  Cs4  1  -0.00008705  0.33175500  0.33478822  1
  Cs  Cs5  1  0.00037835  0.33310109  0.66796901  1
  Cs  Cs6  1  -0.00441005  0.66474845  0.00225812  1
  Cs  Cs7  1  -0.00079444  0.67380434  0.33316122  1
  Cs  Cs8  1  0.00008521  0.66669710  0.66566135  1
  Cs  Cs9  1  0.33437986  -0.00144387  0.00409787  1
  Cs  Cs10  1  0.32572952  0.00170435  0.32671484  1
  Cs  Cs11  1  0.33416798  0.00078482  0.66706000  1
  Cs  Cs12  1  0.33284070  0.33321848  -0.00088148  1
  Cs  Cs13  1  0.33414500  0.33200597  0.33228375  1
  Cs  Cs14  1  0.33414834  0.33430866  0.66684997  1
  Cs  Cs15  1  0.33439630  0.66766719  -0.00240301  1
  Cs  Cs16  1  0.33344089  0.66527835  0.33216106  1
  Cs  Cs17  1  0.33478443  0.66421489  0.66863590  1
  Cs  Cs18  1  0.66552564  -0.00751382  -0.00162940  1
  Cs  Cs19  1  0.66741879  0.00267464  0.33336643  1
  Cs  Cs20  1  0.66644739  0.00001630  0.66778347  1
  Cs  Cs21  1  0.67109809  0.33404964  0.00378260  1
  Cs  Cs22  1  0.66590527  0.33270180  0.33387515  1
  Cs  Cs23  1  0.66526552  0.33201546  0.66448101  1
  Cs  Cs24  1  0.67286114  0.67379168  0.00849889  1
  Cs  Cs25  1  0.66910995  0.66683627  0.32953105  1
  Cs  Cs26  1  0.66399269  0.66962085  0.66605606  1
  Sn  Sn27  1  0.83304416  0.16742917  0.49907264  1
  Sn  Sn28  1  0.16666984  0.49966163  0.49980223  1
  Sn  Sn29  1  0.49931348  0.16781463  0.83280941  1
  Sn  Sn30  1  0.16663350  0.83315558  0.83290845  1
  Sn  Sn31  1  0.16739415  0.49991469  0.83340764  1
  Sn  Sn32  1  0.16692888  0.49949534  0.16658319  1
  Sn  Sn33  1  0.50018806  0.49937264  0.83324100  1
  Sn  Sn34  1  0.50021507  0.50002107  0.50069365  1
  Sn  Sn35  1  0.16758613  0.16658559  0.83288332  1
  Sn  Sn36  1  0.49941405  0.83372116  0.49966788  1
  Sn  Sn37  1  0.50015004  0.16649115  0.50047589  1
  Sn  Sn38  1  0.83308362  0.49930362  0.50049449  1
  Sn  Sn39  1  0.83334025  0.16684247  0.16769944  1
  Pb  Pb40  1  0.16683324  0.83049703  0.16376243  1
  Pb  Pb41  1  0.83105446  0.83375356  0.50015679  1
  Pb  Pb42  1  0.16447162  0.16883596  0.16363090  1
  Pb  Pb43  1  0.83221636  0.50010074  0.83111210  1
  Pb  Pb44  1  0.83354055  0.83668520  0.16712929  1
  Pb  Pb45  1  0.49967046  0.83336333  0.17003383  1
  Pb  Pb46  1  0.50181805  0.16690337  0.16618352  1
  Pb  Pb47  1  0.83244822  0.16682016  0.83262948  1
  Pb  Pb48  1  0.83608567  0.83309725  0.83289946  1
  Pb  Pb49  1  0.83585519  0.49830608  0.16976359  1
  Pb  Pb50  1  0.49839524  0.83308639  0.83186714  1
  Pb  Pb51  1  0.49835388  0.49987093  0.16621226  1
  Pb  Pb52  1  0.16682406  0.16830342  0.50168963  1
  Pb  Pb53  1  0.16924179  0.83063268  0.50189940  1
  I  I54  1  0.16509778  0.00018385  0.16562367  1
  I  I55  1  0.16618612  0.00003050  0.50247432  1
  I  I56  1  0.17021291  0.00094241  0.83221542  1
  I  I57  1  0.16687957  0.33664905  0.16555138  1
  I  I58  1  0.16987567  0.33696039  0.50277484  1
  I  I59  1  0.17008622  0.33440619  0.83289793  1
  I  I60  1  0.16634778  0.66237694  0.16668661  1
  I  I61  1  0.16571384  0.66191571  0.50239680  1
  I  I62  1  0.17097413  0.66466234  0.83238756  1
  I  I63  1  0.50041167  0.00028626  0.16555825  1
  I  I64  1  0.50641767  0.00164646  0.50558430  1
  I  I65  1  0.49647290  0.00298705  0.82850332  1
  I  I66  1  0.49961334  0.33338963  0.17075240  1
  I  I67  1  0.50097766  0.33371732  0.50400509  1
  I  I68  1  0.49069912  0.33361577  0.82417256  1
  I  I69  1  0.49981062  0.66640556  0.16599546  1
  I  I70  1  0.49888736  0.66470723  0.50476814  1
  I  I71  1  0.49343509  0.66337909  0.82654111  1
  I  I72  1  0.83422888  0.00450801  0.17372500  1
  I  I73  1  0.82864737  0.00368546  0.49759513  1
  I  I74  1  0.83371125  0.00036614  0.83162655  1
  I  I75  1  0.83341832  0.33063145  0.16831154  1
  I  I76  1  0.82900864  0.33340644  0.49721247  1
  I  I77  1  0.83928800  0.33335048  0.83497491  1
  I  I78  1  0.83420109  0.66649061  0.16689511  1
  I  I79  1  0.83386629  0.66334756  0.50192005  1
  I  I80  1  0.83338200  0.66629530  0.83124488  1
  I  I81  1  0.17104170  0.16928850  -0.00455404  1
  I  I82  1  0.16903650  0.16899014  0.33340897  1
  I  I83  1  0.16560383  0.16991011  0.66998231  1
  I  I84  1  0.17153052  0.49958686  -0.00185561  1
  I  I85  1  0.16733209  0.49896513  0.33467808  1
  I  I86  1  0.16745429  0.49985390  0.66702097  1
  I  I87  1  0.16861779  0.83248870  -0.00430117  1
  I  I88  1  0.16726742  0.83199855  0.33343821  1
  I  I89  1  0.16717247  0.83120814  0.66979083  1
  I  I90  1  0.49659461  0.17201533  -0.00388063  1
  I  I91  1  0.50268983  0.16864051  0.33696762  1
  I  I92  1  0.50188533  0.16811296  0.66579686  1
  I  I93  1  0.49301357  0.49408556  -0.00387947  1
  I  I94  1  0.49874737  0.49903706  0.33719939  1
  I  I95  1  0.49506283  0.49892306  0.66562618  1
  I  I96  1  0.49933546  0.83366008  -0.00037073  1
  I  I97  1  0.50011514  0.83139720  0.33844442  1
  I  I98  1  0.49918368  0.83231243  0.66382344  1
  I  I99  1  0.83565219  0.16683835  0.00194479  1
  I  I100  1  0.82701198  0.17217900  0.33549584  1
  I  I101  1  0.83204173  0.17088453  0.66334243  1
  I  I102  1  0.83447186  0.49810976  0.00025720  1
  I  I103  1  0.83127461  0.49780858  0.33797724  1
  I  I104  1  0.83782798  0.49292766  0.66271872  1
  I  I105  1  0.83221761  0.83469580  0.00013628  1
  I  I106  1  0.83365696  0.83006502  0.33383270  1
  I  I107  1  0.83409369  0.83598244  0.66619232  1
  I  I108  1  -0.00307002  0.16843192  0.17310138  1
  I  I109  1  -0.00242990  0.17242429  0.49908786  1
  I  I110  1  0.00281710  0.16825336  0.83339138  1
  I  I111  1  0.00372152  0.49842242  0.16330120  1
  I  I112  1  0.00046159  0.49446920  0.50118862  1
  I  I113  1  0.00340277  0.49893787  0.83224278  1
  I  I114  1  0.00033285  0.83274567  0.16697211  1
  I  I115  1  0.00036816  0.83300883  0.50110464  1
  I  I116  1  0.00472446  0.83299678  0.83208099  1
  I  I117  1  0.33307921  0.16681949  0.16923854  1
  I  I118  1  0.33653836  0.16826154  0.50334158  1
  I  I119  1  0.33370414  0.16854153  0.82717322  1
  I  I120  1  0.33018168  0.49893086  0.17075638  1
  I  I121  1  0.33370867  0.50007370  0.50141451  1
  I  I122  1  0.33244271  0.49921355  0.82833441  1
  I  I123  1  0.33294601  0.83478463  0.16728469  1
  I  I124  1  0.33699157  0.83399835  0.50207026  1
  I  I125  1  0.33042290  0.83164681  0.83114952  1
  I  I126  1  0.66963951  0.16914287  0.16772545  1
  I  I127  1  0.66559310  0.17138521  0.50171956  1
  I  I128  1  0.66293207  0.17235887  0.83116274  1
  I  I129  1  0.66705496  0.49945711  0.16602928  1
  I  I130  1  0.66546031  0.49885713  0.50513668  1
  I  I131  1  0.66262890  0.49309231  0.82694634  1
  I  I132  1  0.66673968  0.83140986  0.16448746  1
  I  I133  1  0.66307537  0.82856798  0.50253013  1
  I  I134  1  0.66610040  0.83418807  0.83252968  1
