# generated using pymatgen
data_Cs27Sn13Pb14I81
_symmetry_space_group_name_H-M   'P 1'
_cell_length_a   18.97181567
_cell_length_b   18.98274670
_cell_length_c   18.98208664
_cell_angle_alpha   90.00017431
_cell_angle_beta   90.00070193
_cell_angle_gamma   89.99907493
_symmetry_Int_Tables_number   1
_chemical_formula_structural   Cs27Sn13Pb14I81
_chemical_formula_sum   'Cs27 Sn13 Pb14 I81'
_cell_volume   6836.15498824
_cell_formula_units_Z   1
loop_
 _symmetry_equiv_pos_site_id
 _symmetry_equiv_pos_as_xyz
  1  'x, y, z'
loop_
 _atom_site_type_symbol
 _atom_site_label
 _atom_site_symmetry_multiplicity
 _atom_site_fract_x
 _atom_site_fract_y
 _atom_site_fract_z
 _atom_site_occupancy
  Cs  Cs0  1  -0.00668005  0.00617686  0.00260631  1
  Cs  Cs1  1  -0.00133790  0.00025528  0.33245865  1
  Cs  Cs2  1  0.00150693  0.00015250  0.66732827  1
  Cs  Cs3  1  -0.00316827  0.32712698  0.00448392  1
  Cs  Cs4  1  0.00076445  0.33314704  0.33014537  1
  Cs  Cs5  1  -0.00130261  0.33418740  0.66730598  1
  Cs  Cs6  1  -0.00084230  0.66658618  -0.00068419  1
  Cs  Cs7  1  0.00123830  0.66616676  0.33348862  1
  Cs  Cs8  1  -0.00133455  0.66567481  0.66644028  1
  Cs  Cs9  1  0.33288985  0.00023440  -0.00344696  1
  Cs  Cs10  1  0.33406925  -0.00100094  0.33539047  1
  Cs  Cs11  1  0.33251615  0.00015713  0.66760121  1
  Cs  Cs12  1  0.33245913  0.33412762  0.00078374  1
  Cs  Cs13  1  0.33361105  0.33523320  0.33110201  1
  Cs  Cs14  1  0.33367668  0.33268663  0.66759653  1
  Cs  Cs15  1  0.33376070  0.66576245  -0.00096077  1
  Cs  Cs16  1  0.33685469  0.66539582  0.33020158  1
  Cs  Cs17  1  0.33188027  0.66744124  0.66912831  1
  Cs  Cs18  1  0.67186856  -0.00101838  0.00323876  1
  Cs  Cs19  1  0.66732813  -0.00470501  0.33113919  1
  Cs  Cs20  1  0.66598170  -0.00084830  0.66580835  1
  Cs  Cs21  1  0.66814839  0.33295927  -0.00088877  1
  Cs  Cs22  1  0.66525197  0.33506665  0.33500637  1
  Cs  Cs23  1  0.66731562  0.33559096  0.66577131  1
  Cs  Cs24  1  0.66974184  0.66906615  0.00113800  1
  Cs  Cs25  1  0.66291294  0.67041094  0.33633455  1
  Cs  Cs26  1  0.67470075  0.66440872  0.66124394  1
  Sn  Sn27  1  0.83330278  0.16662765  0.50025500  1
  Sn  Sn28  1  0.16723567  0.49995618  0.50059286  1
  Sn  Sn29  1  0.16699386  0.83293072  0.83376647  1
  Sn  Sn30  1  0.83311469  0.50038252  0.16693781  1
  Sn  Sn31  1  0.50007438  0.16667075  0.49982527  1
  Sn  Sn32  1  0.16715621  0.83301409  0.49994695  1
  Sn  Sn33  1  0.49972601  0.16658806  0.83358318  1
  Sn  Sn34  1  0.16660655  0.16695033  0.50011508  1
  Sn  Sn35  1  0.49941864  0.16665234  0.16658192  1
  Sn  Sn36  1  0.49966302  0.83300824  0.83290966  1
  Sn  Sn37  1  0.16692421  0.83355922  0.16602245  1
  Sn  Sn38  1  0.49959460  0.50039640  0.83300416  1
  Sn  Sn39  1  0.16724657  0.50020025  0.83287950  1
  Pb  Pb40  1  0.83588499  0.49812601  0.49806157  1
  Pb  Pb41  1  0.83600767  0.83553612  0.50003529  1
  Pb  Pb42  1  0.50185408  0.49847709  0.16414105  1
  Pb  Pb43  1  0.16800537  0.16683853  0.83176965  1
  Pb  Pb44  1  0.16863351  0.16444737  0.16921249  1
  Pb  Pb45  1  0.83390630  0.83332268  0.83319491  1
  Pb  Pb46  1  0.83570504  0.83101958  0.16684905  1
  Pb  Pb47  1  0.49790464  0.83508569  0.50232902  1
  Pb  Pb48  1  0.49791440  0.83527880  0.16418778  1
  Pb  Pb49  1  0.16561394  0.50176746  0.16599011  1
  Pb  Pb50  1  0.83059131  0.16822640  0.16929593  1
  Pb  Pb51  1  0.83012463  0.16673123  0.83089847  1
  Pb  Pb52  1  0.49782168  0.49827334  0.50210988  1
  Pb  Pb53  1  0.83401935  0.49989837  0.83496947  1
  I  I54  1  0.16765741  -0.00342355  0.16505140  1
  I  I55  1  0.16737075  0.00014362  0.50045103  1
  I  I56  1  0.17159146  -0.00280323  0.83133964  1
  I  I57  1  0.16601297  0.33323788  0.16702109  1
  I  I58  1  0.16720232  0.33308646  0.50506452  1
  I  I59  1  0.17133521  0.33608302  0.82799655  1
  I  I60  1  0.16617863  0.66964484  0.17114223  1
  I  I61  1  0.16585855  0.66681143  0.50143681  1
  I  I62  1  0.17468403  0.66690478  0.82852221  1
  I  I63  1  0.49938171  0.00345707  0.16620826  1
  I  I64  1  0.49718779  0.00386361  0.50261174  1
  I  I65  1  0.49453618  0.00014958  0.83188145  1
  I  I66  1  0.49915995  0.33013312  0.16569091  1
  I  I67  1  0.49710778  0.32951432  0.50261267  1
  I  I68  1  0.49585307  0.33311364  0.83257172  1
  I  I69  1  0.50047096  0.66684011  0.16549095  1
  I  I70  1  0.49897039  0.66665785  0.50032048  1
  I  I71  1  0.49306490  0.66669001  0.83492610  1
  I  I72  1  0.83349441  0.00013813  0.16712347  1
  I  I73  1  0.83411891  0.00384584  0.49928590  1
  I  I74  1  0.83472277  0.00014268  0.83413074  1
  I  I75  1  0.83606913  0.33559923  0.16605211  1
  I  I76  1  0.83463801  0.33005589  0.49984960  1
  I  I77  1  0.83401993  0.33329284  0.83376435  1
  I  I78  1  0.83370495  0.66357735  0.16570361  1
  I  I79  1  0.83467474  0.66649461  0.49948169  1
  I  I80  1  0.82884880  0.66652939  0.83345917  1
  I  I81  1  0.16869883  0.16691308  0.00006284  1
  I  I82  1  0.16914367  0.16753781  0.33772924  1
  I  I83  1  0.16920498  0.16280359  0.66320808  1
  I  I84  1  0.16990452  0.50524892  -0.00338850  1
  I  I85  1  0.16381201  0.49963258  0.33605250  1
  I  I86  1  0.17002926  0.50352916  0.66679318  1
  I  I87  1  0.17176903  0.82700620  -0.00146868  1
  I  I88  1  0.16466857  0.83495610  0.33432543  1
  I  I89  1  0.17085336  0.83367865  0.66683891  1
  I  I90  1  0.49863052  0.16695888  -0.00109679  1
  I  I91  1  0.49891123  0.16712854  0.33446366  1
  I  I92  1  0.49896215  0.16641218  0.66663335  1
  I  I93  1  0.49275855  0.49696971  -0.00413556  1
  I  I94  1  0.49901576  0.49671465  0.33343457  1
  I  I95  1  0.49828612  0.49718794  0.67042330  1
  I  I96  1  0.49308435  0.83562204  -0.00395223  1
  I  I97  1  0.49786169  0.83626697  0.33343398  1
  I  I98  1  0.49313126  0.83637949  0.67045637  1
  I  I99  1  0.83260853  0.16750779  0.00031008  1
  I  I100  1  0.83355036  0.16778529  0.33693406  1
  I  I101  1  0.83353506  0.16764293  0.66291674  1
  I  I102  1  0.83527602  0.49864511  0.00248635  1
  I  I103  1  0.83609312  0.49758853  0.33072598  1
  I  I104  1  0.83193867  0.49870716  0.66650356  1
  I  I105  1  0.83575469  0.83424176  0.00005609  1
  I  I106  1  0.83535507  0.83392786  0.33344491  1
  I  I107  1  0.83480104  0.83338787  0.66654405  1
  I  I108  1  0.00000272  0.16638246  0.16793256  1
  I  I109  1  0.00137935  0.16601609  0.49981153  1
  I  I110  1  0.00003891  0.16675783  0.83179311  1
  I  I111  1  -0.00198303  0.49960261  0.16593385  1
  I  I112  1  0.00437739  0.49833953  0.50637444  1
  I  I113  1  0.00388302  0.50608082  0.82938641  1
  I  I114  1  0.00420003  0.83435452  0.16479319  1
  I  I115  1  0.00498872  0.83571624  0.50336365  1
  I  I116  1  0.00446134  0.82744138  0.83164613  1
  I  I117  1  0.33655557  0.16768142  0.16794003  1
  I  I118  1  0.33323447  0.16582575  0.50099617  1
  I  I119  1  0.33658304  0.16643493  0.83036317  1
  I  I120  1  0.33331973  0.49943198  0.16829615  1
  I  I121  1  0.32931304  0.49782112  0.50030945  1
  I  I122  1  0.33282701  0.50021259  0.83007200  1
  I  I123  1  0.32981282  0.83254020  0.16973601  1
  I  I124  1  0.32923815  0.83642521  0.49890782  1
  I  I125  1  0.33241934  0.83353924  0.83253008  1
  I  I126  1  0.66274109  0.16679694  0.16676378  1
  I  I127  1  0.66545513  0.16788661  0.50126193  1
  I  I128  1  0.66137448  0.16701353  0.83144449  1
  I  I129  1  0.66940117  0.49731641  0.16503215  1
  I  I130  1  0.66655308  0.49689389  0.50132875  1
  I  I131  1  0.66349307  0.49853852  0.83561986  1
  I  I132  1  0.66637571  0.83434548  0.16466459  1
  I  I133  1  0.66639527  0.83546272  0.50143043  1
  I  I134  1  0.66314950  0.83457290  0.83411645  1
