# generated using pymatgen
data_Cs27Sn14Pb13I81
_symmetry_space_group_name_H-M   'P 1'
_cell_length_a   18.96075316
_cell_length_b   18.98373069
_cell_length_c   18.98274165
_cell_angle_alpha   89.99870575
_cell_angle_beta   90.00075853
_cell_angle_gamma   90.00060324
_symmetry_Int_Tables_number   1
_chemical_formula_structural   Cs27Sn14Pb13I81
_chemical_formula_sum   'Cs27 Sn14 Pb13 I81'
_cell_volume   6832.75873101
_cell_formula_units_Z   1
loop_
 _symmetry_equiv_pos_site_id
 _symmetry_equiv_pos_as_xyz
  1  'x, y, z'
loop_
 _atom_site_type_symbol
 _atom_site_label
 _atom_site_symmetry_multiplicity
 _atom_site_fract_x
 _atom_site_fract_y
 _atom_site_fract_z
 _atom_site_occupancy
  Cs  Cs0  1  -0.00186795  0.00101760  0.00366332  1
  Cs  Cs1  1  0.00079161  -0.00028958  0.33155131  1
  Cs  Cs2  1  0.00248463  0.00136304  0.66569001  1
  Cs  Cs3  1  -0.00087247  0.33225527  0.00098692  1
  Cs  Cs4  1  -0.00173021  0.33360116  0.33320457  1
  Cs  Cs5  1  -0.00131607  0.33394686  0.66657109  1
  Cs  Cs6  1  0.00290997  0.66598860  0.00279232  1
  Cs  Cs7  1  0.00087468  0.66703326  0.33331180  1
  Cs  Cs8  1  -0.00145426  0.66528902  0.66387805  1
  Cs  Cs9  1  0.33382743  -0.00097630  -0.01093481  1
  Cs  Cs10  1  0.33185044  0.00164298  0.33624961  1
  Cs  Cs11  1  0.32448791  0.00784426  0.67364822  1
  Cs  Cs12  1  0.34044998  0.34073586  -0.00417221  1
  Cs  Cs13  1  0.33993951  0.33185382  0.33203669  1
  Cs  Cs14  1  0.33097905  0.32515107  0.67155235  1
  Cs  Cs15  1  0.32656220  0.65976078  -0.00668091  1
  Cs  Cs16  1  0.33149290  0.66640328  0.33176588  1
  Cs  Cs17  1  0.33436554  0.66806702  0.67225681  1
  Cs  Cs18  1  0.66752002  -0.00161398  0.00159782  1
  Cs  Cs19  1  0.66651226  -0.00235420  0.33209160  1
  Cs  Cs20  1  0.66707991  -0.00288121  0.66664609  1
  Cs  Cs21  1  0.66426375  0.33326375  0.00254631  1
  Cs  Cs22  1  0.66565962  0.33334479  0.33344478  1
  Cs  Cs23  1  0.66872522  0.33469864  0.66385199  1
  Cs  Cs24  1  0.66651285  0.66901031  -0.00041595  1
  Cs  Cs25  1  0.66733180  0.66859221  0.33581207  1
  Cs  Cs26  1  0.66751516  0.66775647  0.66387878  1
  Sn  Sn27  1  0.16738605  0.50000471  0.49981804  1
  Sn  Sn28  1  0.83334132  0.83322515  0.83327655  1
  Sn  Sn29  1  0.83316158  0.83356841  0.49991849  1
  Sn  Sn30  1  0.83316437  0.16661121  0.83347102  1
  Sn  Sn31  1  0.83316378  0.50018033  0.83356762  1
  Sn  Sn32  1  0.83325756  0.50010248  0.49966408  1
  Sn  Sn33  1  0.83318298  0.16627743  0.49971226  1
  Sn  Sn34  1  0.50032903  0.83296284  0.49932754  1
  Sn  Sn35  1  0.49959846  0.50085400  0.50014759  1
  Sn  Sn36  1  0.16682621  0.16692704  0.16645651  1
  Sn  Sn37  1  0.50004786  0.83316101  0.16717590  1
  Sn  Sn38  1  0.83361293  0.16667455  0.16686990  1
  Sn  Sn39  1  0.83317798  0.50024041  0.16683485  1
  Sn  Sn40  1  0.83287811  0.83313229  0.16685726  1
  Pb  Pb41  1  0.16749374  0.83527221  0.16679838  1
  Pb  Pb42  1  0.16414726  0.16913281  0.49788467  1
  Pb  Pb43  1  0.16735715  0.83141398  0.49988263  1
  Pb  Pb44  1  0.50005375  0.16385867  0.16660038  1
  Pb  Pb45  1  0.16399454  0.49981991  0.83069867  1
  Pb  Pb46  1  0.50192501  0.83324284  0.83278357  1
  Pb  Pb47  1  0.16487011  0.49765101  0.16868858  1
  Pb  Pb48  1  0.50204862  0.16577913  0.50004658  1
  Pb  Pb49  1  0.50300955  0.16670859  0.83340913  1
  Pb  Pb50  1  0.50273365  0.50010050  0.83015758  1
  Pb  Pb51  1  0.16337817  0.83320822  0.83334240  1
  Pb  Pb52  1  0.50220595  0.50279426  0.16863249  1
  Pb  Pb53  1  0.16382641  0.16711583  0.83661082  1
  I  I54  1  0.15619702  0.00283274  0.16892378  1
  I  I55  1  0.16553154  0.00032602  0.49938468  1
  I  I56  1  0.16480284  0.00036342  0.83187135  1
  I  I57  1  0.15628769  0.33013236  0.16861433  1
  I  I58  1  0.16381066  0.33698115  0.49921254  1
  I  I59  1  0.16255703  0.33338432  0.83185922  1
  I  I60  1  0.16408309  0.66641886  0.16778653  1
  I  I61  1  0.15796570  0.66352985  0.49847696  1
  I  I62  1  0.16371420  0.66634521  0.83442912  1
  I  I63  1  0.50972253  -0.00382794  0.17494075  1
  I  I64  1  0.50842366  -0.00377764  0.49487099  1
  I  I65  1  0.50328321  -0.00032419  0.83169553  1
  I  I66  1  0.50185699  0.33346981  0.16844967  1
  I  I67  1  0.50359094  0.33613469  0.49998264  1
  I  I68  1  0.50333889  0.33363940  0.83228827  1
  I  I69  1  0.50864849  0.67051840  0.16952749  1
  I  I70  1  0.50818785  0.66686243  0.49601282  1
  I  I71  1  0.50363097  0.66669691  0.83520646  1
  I  I72  1  0.83363831  -0.00024274  0.16666757  1
  I  I73  1  0.82899423  -0.00067793  0.50008421  1
  I  I74  1  0.83280666  -0.00015944  0.83324690  1
  I  I75  1  0.83805997  0.33326116  0.16755320  1
  I  I76  1  0.83354288  0.33422402  0.50026669  1
  I  I77  1  0.83387357  0.33346131  0.83172964  1
  I  I78  1  0.82933191  0.66701222  0.16728885  1
  I  I79  1  0.83340939  0.66626168  0.50037452  1
  I  I80  1  0.83283236  0.66670485  0.83198748  1
  I  I81  1  0.15693288  0.16528208  0.00389109  1
  I  I82  1  0.15708388  0.16622450  0.33054991  1
  I  I83  1  0.16580841  0.16696312  0.66676376  1
  I  I84  1  0.16442834  0.49983304  0.00003892  1
  I  I85  1  0.16073144  0.50030978  0.33662768  1
  I  I86  1  0.16198528  0.50027978  0.66258342  1
  I  I87  1  0.16583133  0.83330325  0.00017533  1
  I  I88  1  0.15997798  0.83341980  0.33340771  1
  I  I89  1  0.16541010  0.83375048  0.66644636  1
  I  I90  1  0.50314698  0.16458394  0.00031820  1
  I  I91  1  0.50358812  0.16928897  0.33338159  1
  I  I92  1  0.50216351  0.16507988  0.66640231  1
  I  I93  1  0.50174262  0.50021751  -0.00000324  1
  I  I94  1  0.50477358  0.50065341  0.33686961  1
  I  I95  1  0.50451765  0.50731852  0.66189295  1
  I  I96  1  0.50760517  0.83677178  0.00272857  1
  I  I97  1  0.51124058  0.82958671  0.33417484  1
  I  I98  1  0.50778447  0.82733343  0.66297700  1
  I  I99  1  0.83717808  0.16635921  0.00062522  1
  I  I100  1  0.83658079  0.16752500  0.33319890  1
  I  I101  1  0.83140625  0.16750822  0.66615345  1
  I  I102  1  0.83392154  0.49980882  0.00040505  1
  I  I103  1  0.83356160  0.49930803  0.33425532  1
  I  I104  1  0.83338921  0.49957538  0.66541615  1
  I  I105  1  0.82999505  0.83393194  0.00080514  1
  I  I106  1  0.83050801  0.83321420  0.33353859  1
  I  I107  1  0.83002641  0.83284950  0.66567602  1
  I  I108  1  -0.00383725  0.16464237  0.16687028  1
  I  I109  1  -0.00502286  0.16610687  0.50225479  1
  I  I110  1  -0.00512338  0.16666574  0.83006203  1
  I  I111  1  -0.00476577  0.50491417  0.16925559  1
  I  I112  1  -0.00294710  0.49966002  0.50055245  1
  I  I113  1  -0.00515998  0.49999097  0.83063047  1
  I  I114  1  -0.00408032  0.83179611  0.16732924  1
  I  I115  1  -0.00396737  0.83251840  0.49944907  1
  I  I116  1  -0.00594567  0.83337925  0.83296376  1
  I  I117  1  0.33070792  0.16491729  0.17044118  1
  I  I118  1  0.33314758  0.16706955  0.49748456  1
  I  I119  1  0.33288138  0.16574546  0.83396296  1
  I  I120  1  0.33357710  0.49910006  0.16941427  1
  I  I121  1  0.33405482  0.50667916  0.49705154  1
  I  I122  1  0.33342556  0.50009436  0.83298449  1
  I  I123  1  0.33683627  0.83607769  0.17556417  1
  I  I124  1  0.33713766  0.82736814  0.49248879  1
  I  I125  1  0.33359580  0.83400711  0.83351081  1
  I  I126  1  0.67097953  0.16864267  0.16659855  1
  I  I127  1  0.67145075  0.17166684  0.49727017  1
  I  I128  1  0.67232099  0.16647601  0.83600017  1
  I  I129  1  0.67142823  0.49402678  0.16837167  1
  I  I130  1  0.66885421  0.50048828  0.50052900  1
  I  I131  1  0.67173444  0.49994468  0.83118825  1
  I  I132  1  0.66973559  0.83524644  0.16775628  1
  I  I133  1  0.66916798  0.82895556  0.49947930  1
  I  I134  1  0.67130451  0.83346423  0.83304611  1
