# generated using pymatgen
data_Cs27Sn14Pb13I81
_symmetry_space_group_name_H-M   'P 1'
_cell_length_a   18.96545084
_cell_length_b   18.95826936
_cell_length_c   18.96140767
_cell_angle_alpha   89.99949476
_cell_angle_beta   90.00297063
_cell_angle_gamma   90.00015744
_symmetry_Int_Tables_number   1
_chemical_formula_structural   Cs27Sn14Pb13I81
_chemical_formula_sum   'Cs27 Sn14 Pb13 I81'
_cell_volume   6817.61442264
_cell_formula_units_Z   1
loop_
 _symmetry_equiv_pos_site_id
 _symmetry_equiv_pos_as_xyz
  1  'x, y, z'
loop_
 _atom_site_type_symbol
 _atom_site_label
 _atom_site_symmetry_multiplicity
 _atom_site_fract_x
 _atom_site_fract_y
 _atom_site_fract_z
 _atom_site_occupancy
  Cs  Cs0  1  -0.00063181  0.00216767  -0.00287016  1
  Cs  Cs1  1  0.00046388  0.00058531  0.33545482  1
  Cs  Cs2  1  -0.00015443  -0.00058794  0.66714051  1
  Cs  Cs3  1  0.00082207  0.33427842  0.00304289  1
  Cs  Cs4  1  -0.00119388  0.33865932  0.33033183  1
  Cs  Cs5  1  0.00161227  0.33280737  0.66664053  1
  Cs  Cs6  1  -0.00079097  0.66143435  0.00128044  1
  Cs  Cs7  1  -0.00292089  0.65959050  0.33301060  1
  Cs  Cs8  1  0.00226316  0.66843796  0.66515239  1
  Cs  Cs9  1  0.33344936  0.00016650  0.00174632  1
  Cs  Cs10  1  0.33231857  -0.00088484  0.33295591  1
  Cs  Cs11  1  0.33225350  0.00045452  0.66572514  1
  Cs  Cs12  1  0.33318250  0.33310747  -0.00201232  1
  Cs  Cs13  1  0.33468747  0.33182284  0.33588297  1
  Cs  Cs14  1  0.33608655  0.33819470  0.66733271  1
  Cs  Cs15  1  0.33391138  0.66742156  -0.00100313  1
  Cs  Cs16  1  0.32982978  0.67274568  0.33082484  1
  Cs  Cs17  1  0.33251464  0.66339378  0.66901262  1
  Cs  Cs18  1  0.66766137  0.00075714  -0.00130854  1
  Cs  Cs19  1  0.66601804  0.00025436  0.33388825  1
  Cs  Cs20  1  0.66823782  0.00010458  0.66708841  1
  Cs  Cs21  1  0.66651666  0.33253091  0.00045831  1
  Cs  Cs22  1  0.66678764  0.33356362  0.33373568  1
  Cs  Cs23  1  0.66184036  0.33442625  0.66535656  1
  Cs  Cs24  1  0.66590491  0.66616763  0.00058583  1
  Cs  Cs25  1  0.67030302  0.66721928  0.33115073  1
  Cs  Cs26  1  0.66571800  0.66650719  0.66769953  1
  Sn  Sn27  1  0.16773034  0.16572040  0.83236732  1
  Sn  Sn28  1  0.49931573  0.83434672  0.83246850  1
  Sn  Sn29  1  0.50000706  0.83362651  0.50093689  1
  Sn  Sn30  1  0.49919959  0.16567868  0.83394581  1
  Sn  Sn31  1  0.83325732  0.49978511  0.83274856  1
  Sn  Sn32  1  0.83344046  0.83427174  0.49906892  1
  Sn  Sn33  1  0.50067579  0.16741453  0.16600656  1
  Sn  Sn34  1  0.49976296  0.49910338  0.16697225  1
  Sn  Sn35  1  0.83410477  0.16602793  0.49916045  1
  Sn  Sn36  1  0.16647267  0.83431755  0.50087987  1
  Sn  Sn37  1  0.83358888  0.83449757  0.16716116  1
  Sn  Sn38  1  0.16749998  0.83442295  0.83284585  1
  Sn  Sn39  1  0.16578720  0.16605046  0.50087447  1
  Sn  Sn40  1  0.83261949  0.16552308  0.16758167  1
  Pb  Pb41  1  0.83319814  0.49962223  0.50226163  1
  Pb  Pb42  1  0.50144026  0.50007665  0.83473712  1
  Pb  Pb43  1  0.49986882  0.16502436  0.50007006  1
  Pb  Pb44  1  0.83360557  0.83190130  0.83301175  1
  Pb  Pb45  1  0.16665308  0.16657440  0.16695002  1
  Pb  Pb46  1  0.17021989  0.49993988  0.16661701  1
  Pb  Pb47  1  0.49998011  0.50372624  0.49703000  1
  Pb  Pb48  1  0.83337396  0.16839514  0.83293665  1
  Pb  Pb49  1  0.83183052  0.49936973  0.16503795  1
  Pb  Pb50  1  0.16464305  0.49985968  0.83320099  1
  Pb  Pb51  1  0.50169796  0.83419178  0.16632347  1
  Pb  Pb52  1  0.16334172  0.83350018  0.16649163  1
  Pb  Pb53  1  0.16682943  0.49988692  0.50002807  1
  I  I54  1  0.17178265  0.00001467  0.16595154  1
  I  I55  1  0.16511041  -0.00055781  0.50437170  1
  I  I56  1  0.16959566  0.00002049  0.82928545  1
  I  I57  1  0.16081015  0.33282862  0.16607874  1
  I  I58  1  0.16198472  0.32930959  0.50361501  1
  I  I59  1  0.16993676  0.32963158  0.82940376  1
  I  I60  1  0.16615215  0.66714496  0.16648708  1
  I  I61  1  0.16615878  0.67082962  0.50412929  1
  I  I62  1  0.16972966  0.67021121  0.82900732  1
  I  I63  1  0.50290293  0.00287335  0.16491036  1
  I  I64  1  0.50090833  -0.00326300  0.49895963  1
  I  I65  1  0.49775892  0.00006164  0.83600856  1
  I  I66  1  0.50618657  0.33113073  0.16077617  1
  I  I67  1  0.50053083  0.33306042  0.50236659  1
  I  I68  1  0.49770431  0.33017979  0.83558117  1
  I  I69  1  0.50282136  0.66547500  0.16683149  1
  I  I70  1  0.50061599  0.67217579  0.50525178  1
  I  I71  1  0.49768106  0.66987575  0.83141241  1
  I  I72  1  0.82684939  0.00086334  0.16948730  1
  I  I73  1  0.83400346  -0.00049741  0.49655244  1
  I  I74  1  0.83263637  0.00010062  0.83452518  1
  I  I75  1  0.83145501  0.32992726  0.16947809  1
  I  I76  1  0.83788407  0.32957811  0.49656873  1
  I  I77  1  0.83269872  0.33548853  0.83455534  1
  I  I78  1  0.83198972  0.66910793  0.16957166  1
  I  I79  1  0.83400092  0.67030168  0.49656282  1
  I  I80  1  0.83225694  0.66468809  0.83461409  1
  I  I81  1  0.16708480  0.16265914  -0.00310160  1
  I  I82  1  0.16655767  0.16129006  0.33659556  1
  I  I83  1  0.16525573  0.16199282  0.66668734  1
  I  I84  1  0.16398029  0.50057097  -0.00038031  1
  I  I85  1  0.16494812  0.50074294  0.33342102  1
  I  I86  1  0.16657383  0.49996975  0.66676750  1
  I  I87  1  0.17091185  0.83716359  -0.00346875  1
  I  I88  1  0.17081044  0.83797469  0.33690495  1
  I  I89  1  0.16482411  0.83731999  0.66631395  1
  I  I90  1  0.50075959  0.16456165  -0.00050964  1
  I  I91  1  0.50136871  0.16870676  0.33098148  1
  I  I92  1  0.50046975  0.16395829  0.66929813  1
  I  I93  1  0.50287902  0.50070757  0.00255867  1
  I  I94  1  0.50276765  0.49279755  0.32937411  1
  I  I95  1  0.50146954  0.49788256  0.66670672  1
  I  I96  1  0.49741660  0.83377514  -0.00280633  1
  I  I97  1  0.49814071  0.83319106  0.33585650  1
  I  I98  1  0.50244681  0.83880871  0.66724798  1
  I  I99  1  0.83191991  0.16403780  0.00240591  1
  I  I100  1  0.83249139  0.16281299  0.33338803  1
  I  I101  1  0.83405090  0.16246246  0.66385172  1
  I  I102  1  0.83259021  0.50113319  -0.00239491  1
  I  I103  1  0.83226430  0.50101441  0.33328990  1
  I  I104  1  0.83199636  0.50065811  0.66968747  1
  I  I105  1  0.83166165  0.83578163  0.00212888  1
  I  I106  1  0.83173467  0.83625300  0.33440935  1
  I  I107  1  0.83298982  0.83662634  0.66357101  1
  I  I108  1  -0.00314295  0.16216071  0.16659449  1
  I  I109  1  -0.00020466  0.15888316  0.50120689  1
  I  I110  1  0.00259626  0.16319274  0.83250404  1
  I  I111  1  -0.00033287  0.50036155  0.16506404  1
  I  I112  1  -0.00017123  0.50406018  0.50013682  1
  I  I113  1  -0.00293678  0.50069439  0.83492801  1
  I  I114  1  -0.00468969  0.83925604  0.16906696  1
  I  I115  1  -0.00000728  0.83763884  0.50130661  1
  I  I116  1  0.00273319  0.83661412  0.83064959  1
  I  I117  1  0.33638828  0.17086314  0.16538831  1
  I  I118  1  0.33087818  0.16211629  0.49996097  1
  I  I119  1  0.33373149  0.16334608  0.83412651  1
  I  I120  1  0.33815837  0.49457245  0.16473493  1
  I  I121  1  0.33353227  0.49828414  0.49991619  1
  I  I122  1  0.33341647  0.50039997  0.83547784  1
  I  I123  1  0.33340869  0.83217367  0.16939737  1
  I  I124  1  0.33288537  0.83705418  0.50354657  1
  I  I125  1  0.33369417  0.83589070  0.82686210  1
  I  I126  1  0.66678531  0.16634943  0.16616376  1
  I  I127  1  0.66909249  0.16214499  0.49941925  1
  I  I128  1  0.66403542  0.16363354  0.83461627  1
  I  I129  1  0.66420163  0.49898331  0.16458820  1
  I  I130  1  0.66665038  0.49974338  0.50160905  1
  I  I131  1  0.66894170  0.50062897  0.83430672  1
  I  I132  1  0.66962743  0.83429965  0.17010624  1
  I  I133  1  0.66724778  0.83704529  0.50013120  1
  I  I134  1  0.66413465  0.83601409  0.83104443  1
