# generated using pymatgen
data_Cs27Sn13Pb14I81
_symmetry_space_group_name_H-M   'P 1'
_cell_length_a   18.98166350
_cell_length_b   18.97095384
_cell_length_c   18.97668700
_cell_angle_alpha   90.00227375
_cell_angle_beta   90.00171711
_cell_angle_gamma   90.00111041
_symmetry_Int_Tables_number   1
_chemical_formula_structural   Cs27Sn13Pb14I81
_chemical_formula_sum   'Cs27 Sn13 Pb14 I81'
_cell_volume   6833.50995244
_cell_formula_units_Z   1
loop_
 _symmetry_equiv_pos_site_id
 _symmetry_equiv_pos_as_xyz
  1  'x, y, z'
loop_
 _atom_site_type_symbol
 _atom_site_label
 _atom_site_symmetry_multiplicity
 _atom_site_fract_x
 _atom_site_fract_y
 _atom_site_fract_z
 _atom_site_occupancy
  Cs  Cs0  1  -0.00551629  -0.00155651  -0.00367398  1
  Cs  Cs1  1  0.00036992  -0.00151162  0.33552958  1
  Cs  Cs2  1  -0.00118722  0.00125045  0.66542410  1
  Cs  Cs3  1  -0.00035894  0.34226012  -0.00279155  1
  Cs  Cs4  1  0.00533088  0.33539683  0.33180871  1
  Cs  Cs5  1  -0.00428327  0.33091126  0.66926862  1
  Cs  Cs6  1  0.00283608  0.65910434  0.00442545  1
  Cs  Cs7  1  -0.00151461  0.66759801  0.33131731  1
  Cs  Cs8  1  0.00327370  0.66741577  0.66610629  1
  Cs  Cs9  1  0.33513820  -0.00018658  -0.00068330  1
  Cs  Cs10  1  0.33402203  0.00136831  0.33396657  1
  Cs  Cs11  1  0.33257110  -0.00086675  0.66682351  1
  Cs  Cs12  1  0.33008431  0.33299810  0.00623053  1
  Cs  Cs13  1  0.33102713  0.33008551  0.32979088  1
  Cs  Cs14  1  0.33476375  0.33301995  0.66542771  1
  Cs  Cs15  1  0.33228434  0.66646388  -0.00742379  1
  Cs  Cs16  1  0.33434805  0.66795259  0.33502724  1
  Cs  Cs17  1  0.33449837  0.66608976  0.67230036  1
  Cs  Cs18  1  0.66785653  0.00153888  0.00062896  1
  Cs  Cs19  1  0.66592432  -0.00144759  0.33267172  1
  Cs  Cs20  1  0.66793125  0.00026398  0.66651873  1
  Cs  Cs21  1  0.66954601  0.32885703  -0.00414341  1
  Cs  Cs22  1  0.66445240  0.33459057  0.33534948  1
  Cs  Cs23  1  0.66805062  0.33788220  0.66760927  1
  Cs  Cs24  1  0.66559311  0.66592875  0.00326268  1
  Cs  Cs25  1  0.66762658  0.66612110  0.33336449  1
  Cs  Cs26  1  0.66218281  0.66042882  0.66509324  1
  Sn  Sn27  1  0.83243028  0.16602354  0.49858580  1
  Sn  Sn28  1  0.16757321  0.83405163  0.16698195  1
  Sn  Sn29  1  0.83288655  0.83384000  0.50130148  1
  Sn  Sn30  1  0.50086684  0.16587156  0.50088595  1
  Sn  Sn31  1  0.83318762  0.83288104  0.83227478  1
  Sn  Sn32  1  0.16684350  0.50091850  0.50013720  1
  Sn  Sn33  1  0.50007824  0.50101303  0.16687995  1
  Sn  Sn34  1  0.16751156  0.16630222  0.83341191  1
  Sn  Sn35  1  0.49881693  0.16613938  0.83223744  1
  Sn  Sn36  1  0.49891019  0.83244854  0.16727248  1
  Sn  Sn37  1  0.83381423  0.16671549  0.16808232  1
  Sn  Sn38  1  0.50002069  0.83395723  0.49953462  1
  Sn  Sn39  1  0.16702421  0.83236735  0.49942132  1
  Pb  Pb40  1  0.49986119  0.49671558  0.83629007  1
  Pb  Pb41  1  0.16688760  0.49716081  0.83059803  1
  Pb  Pb42  1  0.16473109  0.83476917  0.83323947  1
  Pb  Pb43  1  0.50127958  0.16599951  0.16716124  1
  Pb  Pb44  1  0.83315767  0.50409902  0.83307251  1
  Pb  Pb45  1  0.83558978  0.50011007  0.49987756  1
  Pb  Pb46  1  0.50197390  0.83494737  0.83319901  1
  Pb  Pb47  1  0.16660168  0.16605878  0.50113525  1
  Pb  Pb48  1  0.83307266  0.16569478  0.83259067  1
  Pb  Pb49  1  0.83315072  0.83432415  0.16720930  1
  Pb  Pb50  1  0.16891563  0.50283656  0.16868918  1
  Pb  Pb51  1  0.83080382  0.49680774  0.16712592  1
  Pb  Pb52  1  0.49799467  0.49989131  0.49852566  1
  Pb  Pb53  1  0.16380173  0.16405221  0.16414985  1
  I  I54  1  0.17350248  -0.00373331  0.17467276  1
  I  I55  1  0.16631618  -0.00320371  0.49792207  1
  I  I56  1  0.16955668  0.00251786  0.83042459  1
  I  I57  1  0.16772735  0.33329149  0.16781487  1
  I  I58  1  0.16708544  0.33480078  0.50252303  1
  I  I59  1  0.16898891  0.32919407  0.83196220  1
  I  I60  1  0.16543729  0.67096899  0.16769474  1
  I  I61  1  0.16588446  0.66925919  0.49624389  1
  I  I62  1  0.16412958  0.66683787  0.83512701  1
  I  I63  1  0.49807091  -0.00293108  0.16841921  1
  I  I64  1  0.49880637  -0.00080664  0.49759012  1
  I  I65  1  0.49765453  0.00298104  0.83390044  1
  I  I66  1  0.50274358  0.33473231  0.16668947  1
  I  I67  1  0.50300867  0.33010000  0.50193720  1
  I  I68  1  0.49864132  0.32850590  0.82779509  1
  I  I69  1  0.49796102  0.66893240  0.17304158  1
  I  I70  1  0.50302051  0.67013647  0.49712691  1
  I  I71  1  0.50197070  0.66683773  0.83119811  1
  I  I72  1  0.83041021  0.00218977  0.16791253  1
  I  I73  1  0.83469196  -0.00063153  0.49999597  1
  I  I74  1  0.83373911  -0.00210934  0.83161596  1
  I  I75  1  0.83135083  0.32870772  0.17145791  1
  I  I76  1  0.82990242  0.32979503  0.49695332  1
  I  I77  1  0.83377602  0.33315297  0.83404704  1
  I  I78  1  0.83501608  0.66676860  0.16570151  1
  I  I79  1  0.83059228  0.67055145  0.50373605  1
  I  I80  1  0.83368993  0.67200966  0.82702194  1
  I  I81  1  0.17229475  0.16374959  -0.00332358  1
  I  I82  1  0.16839897  0.16837188  0.33338797  1
  I  I83  1  0.16589346  0.16424427  0.66880465  1
  I  I84  1  0.16678816  0.50019981  0.00018840  1
  I  I85  1  0.16676073  0.49973503  0.33646765  1
  I  I86  1  0.16804908  0.50839373  0.66286687  1
  I  I87  1  0.16974980  0.83706929  0.00258318  1
  I  I88  1  0.16507229  0.83116725  0.33476308  1
  I  I89  1  0.16849922  0.83156449  0.66323548  1
  I  I90  1  0.49920350  0.16642944  -0.00182994  1
  I  I91  1  0.50256953  0.16498840  0.33631390  1
  I  I92  1  0.50160044  0.16062713  0.66506584  1
  I  I93  1  0.49940792  0.50663676  0.00402387  1
  I  I94  1  0.49929447  0.49953754  0.33080023  1
  I  I95  1  0.49900008  0.50164227  0.66650566  1
  I  I96  1  0.49756835  0.83198396  0.00284509  1
  I  I97  1  0.50124546  0.83605718  0.33451865  1
  I  I98  1  0.49761097  0.83661864  0.66322250  1
  I  I99  1  0.83166047  0.16291021  0.00141674  1
  I  I100  1  0.82757562  0.15977281  0.33525315  1
  I  I101  1  0.83310923  0.16333614  0.66352952  1
  I  I102  1  0.83395599  0.49867901  0.00020297  1
  I  I103  1  0.83358782  0.50384106  0.33350263  1
  I  I104  1  0.83297042  0.49394158  0.66627786  1
  I  I105  1  0.83267398  0.83831799  -0.00146694  1
  I  I106  1  0.83364745  0.83633588  0.33665451  1
  I  I107  1  0.83466088  0.84133913  0.66417765  1
  I  I108  1  -0.00364203  0.16270338  0.17251520  1
  I  I109  1  -0.00260171  0.16298336  0.49900191  1
  I  I110  1  0.00152052  0.16366378  0.83224908  1
  I  I111  1  0.00032353  0.50036471  0.16666312  1
  I  I112  1  0.00340107  0.50366751  0.49914940  1
  I  I113  1  0.00016113  0.49561725  0.83410419  1
  I  I114  1  0.00212371  0.83713178  0.17009487  1
  I  I115  1  -0.00008639  0.83447195  0.49982258  1
  I  I116  1  -0.00291314  0.83948542  0.82901284  1
  I  I117  1  0.33330320  0.16824141  0.16797417  1
  I  I118  1  0.33604520  0.16348966  0.50238466  1
  I  I119  1  0.33432738  0.16440822  0.82729122  1
  I  I120  1  0.33653452  0.49876185  0.16844138  1
  I  I121  1  0.33039342  0.50375168  0.49868553  1
  I  I122  1  0.33339027  0.50310403  0.83265314  1
  I  I123  1  0.33409919  0.83181958  0.17467181  1
  I  I124  1  0.33378854  0.83478579  0.49460022  1
  I  I125  1  0.33346361  0.83415750  0.83175659  1
  I  I126  1  0.66900294  0.16357072  0.16573468  1
  I  I127  1  0.66626433  0.15887579  0.50119548  1
  I  I128  1  0.66437276  0.16456949  0.83333046  1
  I  I129  1  0.66313479  0.50832918  0.16875154  1
  I  I130  1  0.66637316  0.50160582  0.49890347  1
  I  I131  1  0.66637859  0.49623522  0.83242792  1
  I  I132  1  0.66382833  0.83188087  0.16963705  1
  I  I133  1  0.66623022  0.83940412  0.49921530  1
  I  I134  1  0.66962210  0.83862012  0.83011872  1
