# generated using pymatgen
data_Cs27Sn13Pb14I81
_symmetry_space_group_name_H-M   'P 1'
_cell_length_a   18.97890581
_cell_length_b   18.97491977
_cell_length_c   18.98126359
_cell_angle_alpha   89.99900541
_cell_angle_beta   90.00075859
_cell_angle_gamma   90.00010282
_symmetry_Int_Tables_number   1
_chemical_formula_structural   Cs27Sn13Pb14I81
_chemical_formula_sum   'Cs27 Sn13 Pb14 I81'
_cell_volume   6835.59366988
_cell_formula_units_Z   1
loop_
 _symmetry_equiv_pos_site_id
 _symmetry_equiv_pos_as_xyz
  1  'x, y, z'
loop_
 _atom_site_type_symbol
 _atom_site_label
 _atom_site_symmetry_multiplicity
 _atom_site_fract_x
 _atom_site_fract_y
 _atom_site_fract_z
 _atom_site_occupancy
  Cs  Cs0  1  -0.00066396  0.00063228  -0.00058480  1
  Cs  Cs1  1  0.00167929  0.00009451  0.33489706  1
  Cs  Cs2  1  0.00587927  -0.00778372  0.66564485  1
  Cs  Cs3  1  0.00091269  0.33258632  -0.00006068  1
  Cs  Cs4  1  -0.00010023  0.33514931  0.33279170  1
  Cs  Cs5  1  -0.00256144  0.33642404  0.67023050  1
  Cs  Cs6  1  0.00207301  0.66716161  -0.00083986  1
  Cs  Cs7  1  0.00163964  0.66485666  0.33349290  1
  Cs  Cs8  1  -0.00384921  0.67305129  0.67169063  1
  Cs  Cs9  1  0.33293093  0.00491345  -0.00001442  1
  Cs  Cs10  1  0.33262984  0.00550103  0.33572840  1
  Cs  Cs11  1  0.32604156  0.00445007  0.66373275  1
  Cs  Cs12  1  0.33265136  0.32763170  -0.00748371  1
  Cs  Cs13  1  0.33195553  0.33358885  0.33411542  1
  Cs  Cs14  1  0.33342293  0.32855982  0.67297880  1
  Cs  Cs15  1  0.33479801  0.66585824  0.00097535  1
  Cs  Cs16  1  0.33452655  0.66508804  0.33232780  1
  Cs  Cs17  1  0.33313253  0.66668932  0.66704559  1
  Cs  Cs18  1  0.66737723  -0.00091725  0.00111779  1
  Cs  Cs19  1  0.66597699  -0.00012972  0.33251699  1
  Cs  Cs20  1  0.66694291  -0.00000059  0.66633615  1
  Cs  Cs21  1  0.66639036  0.33231814  -0.00187688  1
  Cs  Cs22  1  0.66730771  0.33375914  0.33407623  1
  Cs  Cs23  1  0.66738697  0.33366045  0.66931054  1
  Cs  Cs24  1  0.66439986  0.66812048  0.00143056  1
  Cs  Cs25  1  0.66479898  0.66635324  0.33274557  1
  Cs  Cs26  1  0.66979289  0.66607112  0.66623886  1
  Sn  Sn27  1  0.49976874  0.83340205  0.83313816  1
  Sn  Sn28  1  0.83345621  0.16652107  0.50001894  1
  Sn  Sn29  1  0.16738759  0.50061312  0.16712283  1
  Sn  Sn30  1  0.83303286  0.16671462  0.16703649  1
  Sn  Sn31  1  0.16725098  0.83271552  0.16707856  1
  Sn  Sn32  1  0.83313734  0.50018998  0.16685830  1
  Sn  Sn33  1  0.49899933  0.50056316  0.49925534  1
  Sn  Sn34  1  0.49994700  0.83272504  0.49976619  1
  Sn  Sn35  1  0.16726036  0.50024792  0.49967225  1
  Sn  Sn36  1  0.83335277  0.16621695  0.83315052  1
  Sn  Sn37  1  0.83362095  0.83306398  0.16704750  1
  Sn  Sn38  1  0.49933405  0.83295048  0.16707536  1
  Sn  Sn39  1  0.49948284  0.50015793  0.16721596  1
  Pb  Pb40  1  0.83136604  0.83499685  0.49769490  1
  Pb  Pb41  1  0.50195893  0.16365457  0.83319155  1
  Pb  Pb42  1  0.83313714  0.49845261  0.83634418  1
  Pb  Pb43  1  0.16953557  0.83315005  0.83615099  1
  Pb  Pb44  1  0.50193251  0.16717592  0.16677950  1
  Pb  Pb45  1  0.16916762  0.83088865  0.49754495  1
  Pb  Pb46  1  0.16679705  0.50034998  0.83331269  1
  Pb  Pb47  1  0.16364274  0.16645104  0.83320174  1
  Pb  Pb48  1  0.50164402  0.16741358  0.49982349  1
  Pb  Pb49  1  0.83314732  0.49877148  0.49832338  1
  Pb  Pb50  1  0.50004420  0.50196537  0.83317031  1
  Pb  Pb51  1  0.16414297  0.16711564  0.16681162  1
  Pb  Pb52  1  0.83148122  0.83515330  0.83568569  1
  Pb  Pb53  1  0.16385349  0.17001408  0.49980198  1
  I  I54  1  0.16730237  -0.00315051  0.16536057  1
  I  I55  1  0.16739752  -0.00018341  0.49903043  1
  I  I56  1  0.16732500  -0.00037412  0.83533307  1
  I  I57  1  0.16581652  0.33708694  0.17051024  1
  I  I58  1  0.17362885  0.33778707  0.49056647  1
  I  I59  1  0.16727269  0.33344007  0.83633631  1
  I  I60  1  0.16217418  0.66618813  0.16968190  1
  I  I61  1  0.16686337  0.66300288  0.49560956  1
  I  I62  1  0.16441041  0.66689830  0.83277839  1
  I  I63  1  0.50081724  -0.00364935  0.16708845  1
  I  I64  1  0.50367327  -0.00314020  0.49762222  1
  I  I65  1  0.50217958  -0.00433428  0.83680455  1
  I  I66  1  0.50102494  0.33716206  0.17220806  1
  I  I67  1  0.49841211  0.33718050  0.49291165  1
  I  I68  1  0.50091176  0.33324664  0.83399536  1
  I  I69  1  0.50487987  0.66715247  0.16687165  1
  I  I70  1  0.49803541  0.66645004  0.49744621  1
  I  I71  1  0.50173004  0.66990933  0.83618077  1
  I  I72  1  0.83190649  -0.00030738  0.16614912  1
  I  I73  1  0.83016400  0.00309440  0.49620224  1
  I  I74  1  0.83060951  0.00315226  0.83746853  1
  I  I75  1  0.83305296  0.33361714  0.16684496  1
  I  I76  1  0.83131335  0.33063780  0.49609535  1
  I  I77  1  0.83225134  0.33003985  0.83580947  1
  I  I78  1  0.83219135  0.66668076  0.16722013  1
  I  I79  1  0.83427421  0.66664786  0.49842140  1
  I  I80  1  0.83295574  0.66705409  0.83418187  1
  I  I81  1  0.16468914  0.16860629  0.00040549  1
  I  I82  1  0.16339392  0.16422977  0.33315561  1
  I  I83  1  0.16467311  0.16798067  0.66634962  1
  I  I84  1  0.16609481  0.50361840  0.00426879  1
  I  I85  1  0.16686587  0.50337194  0.33146955  1
  I  I86  1  0.17252143  0.49742185  0.66315676  1
  I  I87  1  0.16671289  0.82695041  0.00484536  1
  I  I88  1  0.16657361  0.83175232  0.32919685  1
  I  I89  1  0.16725010  0.83252951  0.66634524  1
  I  I90  1  0.50335285  0.16700458  0.00020263  1
  I  I91  1  0.50473879  0.16173109  0.33316895  1
  I  I92  1  0.50518461  0.16735908  0.66649651  1
  I  I93  1  0.50093466  0.50417240  0.00373339  1
  I  I94  1  0.50082472  0.50731899  0.33201233  1
  I  I95  1  0.49620237  0.50372341  0.66303340  1
  I  I96  1  0.50158440  0.82977543  0.00227849  1
  I  I97  1  0.50186981  0.82900887  0.33192966  1
  I  I98  1  0.50256000  0.82904809  0.66579886  1
  I  I99  1  0.83260339  0.16652945  0.00149692  1
  I  I100  1  0.83231108  0.16703657  0.33186384  1
  I  I101  1  0.83083487  0.16851068  0.66650272  1
  I  I102  1  0.83273299  0.49860593  0.00548183  1
  I  I103  1  0.83275987  0.49770314  0.32939866  1
  I  I104  1  0.83299697  0.49615937  0.66648356  1
  I  I105  1  0.83067551  0.83493018  0.00457744  1
  I  I106  1  0.83060538  0.83538849  0.32891021  1
  I  I107  1  0.83114176  0.83594131  0.66656074  1
  I  I108  1  -0.00459381  0.16661114  0.16624246  1
  I  I109  1  -0.00424234  0.16775155  0.49694670  1
  I  I110  1  -0.00460632  0.16692353  0.83692212  1
  I  I111  1  0.00001845  0.50174509  0.17024562  1
  I  I112  1  0.00232215  0.49539552  0.49315363  1
  I  I113  1  -0.00008744  0.49878050  0.83338789  1
  I  I114  1  -0.00048156  0.83134131  0.16636789  1
  I  I115  1  0.00018448  0.83384768  0.49856287  1
  I  I116  1  0.00002082  0.83513256  0.83469915  1
  I  I117  1  0.33319467  0.16576200  0.16630485  1
  I  I118  1  0.33318185  0.16424513  0.50000252  1
  I  I119  1  0.33335034  0.16670218  0.83389034  1
  I  I120  1  0.33383788  0.50947901  0.17161026  1
  I  I121  1  0.33434031  0.50459755  0.48967667  1
  I  I122  1  0.33352359  0.49946881  0.83879489  1
  I  I123  1  0.33444541  0.82517601  0.16595424  1
  I  I124  1  0.33745500  0.83301423  0.49756187  1
  I  I125  1  0.33756483  0.83218596  0.83614101  1
  I  I126  1  0.67074550  0.16630206  0.16658178  1
  I  I127  1  0.66983555  0.16836359  0.49781498  1
  I  I128  1  0.67007053  0.16702410  0.83568708  1
  I  I129  1  0.66631795  0.50222892  0.17010789  1
  I  I130  1  0.66360683  0.50231947  0.49504175  1
  I  I131  1  0.66657266  0.49926958  0.83348996  1
  I  I132  1  0.66618252  0.83182557  0.16632803  1
  I  I133  1  0.66305176  0.82760128  0.49689281  1
  I  I134  1  0.66357142  0.83388531  0.83690090  1
