# generated using pymatgen
data_Cs27Sn13Pb14I81
_symmetry_space_group_name_H-M   'P 1'
_cell_length_a   18.97811059
_cell_length_b   18.97414383
_cell_length_c   18.97828242
_cell_angle_alpha   90.00036845
_cell_angle_beta   89.99866060
_cell_angle_gamma   90.00200623
_symmetry_Int_Tables_number   1
_chemical_formula_structural   Cs27Sn13Pb14I81
_chemical_formula_sum   'Cs27 Sn13 Pb14 I81'
_cell_volume   6833.95423615
_cell_formula_units_Z   1
loop_
 _symmetry_equiv_pos_site_id
 _symmetry_equiv_pos_as_xyz
  1  'x, y, z'
loop_
 _atom_site_type_symbol
 _atom_site_label
 _atom_site_symmetry_multiplicity
 _atom_site_fract_x
 _atom_site_fract_y
 _atom_site_fract_z
 _atom_site_occupancy
  Cs  Cs0  1  0.00092744  0.00074322  -0.00154239  1
  Cs  Cs1  1  0.00415883  0.00282854  0.33292098  1
  Cs  Cs2  1  -0.00428636  0.00044712  0.66843012  1
  Cs  Cs3  1  -0.00401530  0.33179300  0.00222943  1
  Cs  Cs4  1  0.00139424  0.32883402  0.34099681  1
  Cs  Cs5  1  0.00096730  0.33405590  0.65617791  1
  Cs  Cs6  1  0.00055240  0.66863796  -0.00069378  1
  Cs  Cs7  1  -0.00168038  0.66655911  0.33441768  1
  Cs  Cs8  1  0.00287015  0.66468816  0.66568036  1
  Cs  Cs9  1  0.32856697  0.00169908  0.00085511  1
  Cs  Cs10  1  0.33232431  -0.00087261  0.33378489  1
  Cs  Cs11  1  0.33641338  -0.00041240  0.66629623  1
  Cs  Cs12  1  0.33503342  0.33422953  -0.00236251  1
  Cs  Cs13  1  0.33485710  0.33260316  0.33373732  1
  Cs  Cs14  1  0.33130862  0.33369719  0.66940322  1
  Cs  Cs15  1  0.32928121  0.66541210  -0.00425557  1
  Cs  Cs16  1  0.33469606  0.66836543  0.33174533  1
  Cs  Cs17  1  0.33297701  0.66734871  0.67448034  1
  Cs  Cs18  1  0.67044493  0.00127078  -0.00120720  1
  Cs  Cs19  1  0.66451641  -0.00314385  0.33324142  1
  Cs  Cs20  1  0.66714886  -0.00314408  0.66971739  1
  Cs  Cs21  1  0.66600802  0.33444647  0.00119478  1
  Cs  Cs22  1  0.66591552  0.33478606  0.33256652  1
  Cs  Cs23  1  0.66789495  0.33255822  0.66497362  1
  Cs  Cs24  1  0.66772781  0.66375313  0.00175491  1
  Cs  Cs25  1  0.66752412  0.66675746  0.33282963  1
  Cs  Cs26  1  0.66458240  0.67082827  0.66818423  1
  Sn  Sn27  1  0.83332364  0.49982687  0.83357973  1
  Sn  Sn28  1  0.50015218  0.16747668  0.49996673  1
  Sn  Sn29  1  0.49969200  0.50041721  0.16723479  1
  Sn  Sn30  1  0.83379976  0.50048899  0.16629362  1
  Sn  Sn31  1  0.16671378  0.16697046  0.83334038  1
  Sn  Sn32  1  0.50036535  0.83302247  0.16640791  1
  Sn  Sn33  1  0.49980852  0.49977059  0.49967910  1
  Sn  Sn34  1  0.49953762  0.16681115  0.83352576  1
  Sn  Sn35  1  0.50013199  0.16650467  0.16656954  1
  Sn  Sn36  1  0.16594441  0.83308098  0.49988804  1
  Sn  Sn37  1  0.83444659  0.83318851  0.49888188  1
  Sn  Sn38  1  0.83288390  0.83281018  0.16751463  1
  Sn  Sn39  1  0.16636453  0.49965641  0.16712762  1
  Pb  Pb40  1  0.83061279  0.16358608  0.49976109  1
  Pb  Pb41  1  0.16389459  0.49768319  0.83547512  1
  Pb  Pb42  1  0.16624076  0.83153935  0.16789483  1
  Pb  Pb43  1  0.83113461  0.50188831  0.49930352  1
  Pb  Pb44  1  0.50013926  0.83300057  0.49844452  1
  Pb  Pb45  1  0.50002047  0.83602158  0.83726422  1
  Pb  Pb46  1  0.16906024  0.16919916  0.16528054  1
  Pb  Pb47  1  0.83336141  0.83091377  0.83401198  1
  Pb  Pb48  1  0.50149381  0.49818447  0.83348929  1
  Pb  Pb49  1  0.16962753  0.50194196  0.49791496  1
  Pb  Pb50  1  0.83148754  0.16659380  0.16698190  1
  Pb  Pb51  1  0.16922575  0.16462710  0.50199854  1
  Pb  Pb52  1  0.83334265  0.16938036  0.83324133  1
  Pb  Pb53  1  0.16650363  0.83555620  0.83069281  1
  I  I54  1  0.16743577  0.00009372  0.16639487  1
  I  I55  1  0.16500910  -0.00311492  0.49811458  1
  I  I56  1  0.17190337  0.00348849  0.83509063  1
  I  I57  1  0.16629679  0.33729090  0.16631043  1
  I  I58  1  0.16601505  0.33337555  0.50008811  1
  I  I59  1  0.17354391  0.33023468  0.83402795  1
  I  I60  1  0.17220256  0.66357495  0.16698736  1
  I  I61  1  0.16495189  0.66959401  0.49877046  1
  I  I62  1  0.16609509  0.66629432  0.83314474  1
  I  I63  1  0.50486239  0.00001861  0.16741803  1
  I  I64  1  0.49991722  0.00242766  0.49881989  1
  I  I65  1  0.49770349  0.00435783  0.83078515  1
  I  I66  1  0.50020990  0.33394353  0.16706924  1
  I  I67  1  0.50030826  0.33322957  0.49433560  1
  I  I68  1  0.49778497  0.33009478  0.83779818  1
  I  I69  1  0.50172237  0.66562231  0.17325564  1
  I  I70  1  0.50108445  0.66429633  0.49346975  1
  I  I71  1  0.50130445  0.66651393  0.83166652  1
  I  I72  1  0.82760454  -0.00338795  0.17040585  1
  I  I73  1  0.83477093  -0.00436486  0.49408401  1
  I  I74  1  0.83276984  0.00010836  0.83344432  1
  I  I75  1  0.83105656  0.33683608  0.16148974  1
  I  I76  1  0.83354080  0.33355538  0.50015591  1
  I  I77  1  0.83104223  0.33692860  0.84191229  1
  I  I78  1  0.82725291  0.66610225  0.16663829  1
  I  I79  1  0.83317316  0.66967950  0.49779024  1
  I  I80  1  0.83191973  0.66323931  0.83634297  1
  I  I81  1  0.17344235  0.16652774  -0.00253078  1
  I  I82  1  0.16787012  0.16655526  0.33349856  1
  I  I83  1  0.17362017  0.16694078  0.66967804  1
  I  I84  1  0.17334217  0.50102819  0.00357161  1
  I  I85  1  0.16303032  0.49992469  0.32982373  1
  I  I86  1  0.16644247  0.50037736  0.66654398  1
  I  I87  1  0.16714670  0.83346058  0.00014367  1
  I  I88  1  0.16656855  0.83352621  0.33571086  1
  I  I89  1  0.16194024  0.83254078  0.66270484  1
  I  I90  1  0.49669971  0.16711943  0.00082632  1
  I  I91  1  0.50167647  0.16780360  0.33265019  1
  I  I92  1  0.49608305  0.17160627  0.66636440  1
  I  I93  1  0.49954741  0.49924136  0.00356895  1
  I  I94  1  0.50211905  0.49535860  0.33143289  1
  I  I95  1  0.50270034  0.49589397  0.66414770  1
  I  I96  1  0.50613039  0.83060984  0.00545524  1
  I  I97  1  0.50125414  0.83664654  0.33023055  1
  I  I98  1  0.50076127  0.83339172  0.66664242  1
  I  I99  1  0.83053311  0.16306490  0.00012950  1
  I  I100  1  0.83199428  0.17148751  0.33331262  1
  I  I101  1  0.82991382  0.16700722  0.66657234  1
  I  I102  1  0.83028432  0.50442284  0.00253675  1
  I  I103  1  0.83249587  0.50303915  0.32988183  1
  I  I104  1  0.83034093  0.50028371  0.66838545  1
  I  I105  1  0.82769038  0.83127322  0.00366055  1
  I  I106  1  0.83139494  0.82692575  0.33198911  1
  I  I107  1  0.83617343  0.83283059  0.66390218  1
  I  I108  1  0.00025695  0.16646864  0.16333827  1
  I  I109  1  0.00018771  0.16779969  0.50260037  1
  I  I110  1  0.00259489  0.16685359  0.83445354  1
  I  I111  1  -0.00116856  0.50645388  0.16047682  1
  I  I112  1  -0.00004280  0.49959472  0.49948948  1
  I  I113  1  -0.00369979  0.49890824  0.83952201  1
  I  I114  1  -0.00315698  0.82746497  0.16873371  1
  I  I115  1  -0.00097572  0.83217467  0.49374136  1
  I  I116  1  -0.00016271  0.83689432  0.83788570  1
  I  I117  1  0.33784983  0.16560935  0.16892411  1
  I  I118  1  0.33745825  0.16733079  0.49654875  1
  I  I119  1  0.33510604  0.16770347  0.83419022  1
  I  I120  1  0.33509947  0.49961450  0.17145440  1
  I  I121  1  0.33757420  0.49815341  0.49405901  1
  I  I122  1  0.33333845  0.50052576  0.83408949  1
  I  I123  1  0.33622414  0.83314014  0.16939526  1
  I  I124  1  0.33192821  0.83454045  0.49751840  1
  I  I125  1  0.33349140  0.83018669  0.83214356  1
  I  I126  1  0.66241708  0.17067303  0.16405439  1
  I  I127  1  0.66211973  0.16880235  0.50164120  1
  I  I128  1  0.66337249  0.16748859  0.83413546  1
  I  I129  1  0.66592679  0.50044553  0.16624653  1
  I  I130  1  0.66324324  0.49806515  0.49410880  1
  I  I131  1  0.66907945  0.49816710  0.83984087  1
  I  I132  1  0.66651266  0.82941522  0.17274869  1
  I  I133  1  0.66872596  0.83344559  0.49703511  1
  I  I134  1  0.66660316  0.83624868  0.82765911  1
