# generated using pymatgen
data_Cs27Sn14Pb13I81
_symmetry_space_group_name_H-M   'P 1'
_cell_length_a   18.96820707
_cell_length_b   18.99089816
_cell_length_c   18.96787963
_cell_angle_alpha   90.00078895
_cell_angle_beta   90.00537010
_cell_angle_gamma   89.99925250
_symmetry_Int_Tables_number   1
_chemical_formula_structural   Cs27Sn14Pb13I81
_chemical_formula_sum   'Cs27 Sn14 Pb13 I81'
_cell_volume   6832.67194907
_cell_formula_units_Z   1
loop_
 _symmetry_equiv_pos_site_id
 _symmetry_equiv_pos_as_xyz
  1  'x, y, z'
loop_
 _atom_site_type_symbol
 _atom_site_label
 _atom_site_symmetry_multiplicity
 _atom_site_fract_x
 _atom_site_fract_y
 _atom_site_fract_z
 _atom_site_occupancy
  Cs  Cs0  1  -0.00137642  -0.00377083  0.00094910  1
  Cs  Cs1  1  -0.00142456  0.00131996  0.33375179  1
  Cs  Cs2  1  -0.00003415  0.00316369  0.66490901  1
  Cs  Cs3  1  -0.00010080  0.33438990  -0.00047732  1
  Cs  Cs4  1  -0.00352216  0.33713474  0.33624375  1
  Cs  Cs5  1  0.00030523  0.33306677  0.66555964  1
  Cs  Cs6  1  0.00237450  0.66821587  -0.00117617  1
  Cs  Cs7  1  -0.00132500  0.66045909  0.33651473  1
  Cs  Cs8  1  0.00032265  0.66342373  0.66635451  1
  Cs  Cs9  1  0.33112609  0.00239510  0.00266773  1
  Cs  Cs10  1  0.33432051  -0.00165168  0.33282472  1
  Cs  Cs11  1  0.33249852  0.00137272  0.66504948  1
  Cs  Cs12  1  0.33367669  0.33447235  -0.00032775  1
  Cs  Cs13  1  0.33640764  0.33353755  0.33079528  1
  Cs  Cs14  1  0.33286240  0.32893706  0.67014053  1
  Cs  Cs15  1  0.32933256  0.66430261  0.00333997  1
  Cs  Cs16  1  0.33349181  0.66847741  0.33175623  1
  Cs  Cs17  1  0.33559808  0.67062275  0.66451757  1
  Cs  Cs18  1  0.67162940  -0.00350686  -0.00195061  1
  Cs  Cs19  1  0.66652956  0.00313253  0.33468721  1
  Cs  Cs20  1  0.66740772  -0.00261407  0.66584492  1
  Cs  Cs21  1  0.66551611  0.33340533  -0.00072625  1
  Cs  Cs22  1  0.66676041  0.33209792  0.33395421  1
  Cs  Cs23  1  0.66686057  0.33254530  0.66672023  1
  Cs  Cs24  1  0.66911951  0.67008203  -0.00432705  1
  Cs  Cs25  1  0.66647520  0.66295299  0.33333625  1
  Cs  Cs26  1  0.66443843  0.67191095  0.67005146  1
  Sn  Sn27  1  0.49956515  0.50006679  0.16713781  1
  Sn  Sn28  1  0.49969214  0.49910842  0.49969671  1
  Sn  Sn29  1  0.16691090  0.83283740  0.83348016  1
  Sn  Sn30  1  0.83349866  0.83381587  0.49957851  1
  Sn  Sn31  1  0.16712159  0.49979752  0.16623909  1
  Sn  Sn32  1  0.83387015  0.49912717  0.83347837  1
  Sn  Sn33  1  0.16696229  0.16700763  0.16701326  1
  Sn  Sn34  1  0.49952306  0.16659033  0.16709201  1
  Sn  Sn35  1  0.16615710  0.50069758  0.83377947  1
  Sn  Sn36  1  0.50048808  0.16751521  0.49950708  1
  Sn  Sn37  1  0.49990554  0.83333578  0.16646796  1
  Sn  Sn38  1  0.16711880  0.83316344  0.16631631  1
  Sn  Sn39  1  0.83252078  0.16604366  0.50085883  1
  Sn  Sn40  1  0.83338824  0.16744867  0.83278121  1
  Pb  Pb41  1  0.83580981  0.83333223  0.83126870  1
  Pb  Pb42  1  0.83302863  0.50011402  0.16416264  1
  Pb  Pb43  1  0.50160677  0.83368140  0.49773299  1
  Pb  Pb44  1  0.16972973  0.49982659  0.50025596  1
  Pb  Pb45  1  0.49922382  0.50005399  0.83358744  1
  Pb  Pb46  1  0.16451084  0.83328088  0.49946554  1
  Pb  Pb47  1  0.49667957  0.83347836  0.83635961  1
  Pb  Pb48  1  0.83299953  0.16682421  0.16691764  1
  Pb  Pb49  1  0.16454483  0.16679517  0.83572030  1
  Pb  Pb50  1  0.50234055  0.16638227  0.83364149  1
  Pb  Pb51  1  0.83385671  0.83310552  0.16904760  1
  Pb  Pb52  1  0.16702010  0.16686674  0.49715882  1
  Pb  Pb53  1  0.83073466  0.49951427  0.50255636  1
  I  I54  1  0.17243619  -0.00033567  0.16311998  1
  I  I55  1  0.16981860  0.00011672  0.50062786  1
  I  I56  1  0.16536880  -0.00229066  0.83867185  1
  I  I57  1  0.17270870  0.33405877  0.16266554  1
  I  I58  1  0.16117955  0.33333983  0.50061605  1
  I  I59  1  0.16470248  0.33609613  0.83797949  1
  I  I60  1  0.17339616  0.66633087  0.16164608  1
  I  I61  1  0.16538125  0.66650168  0.49622075  1
  I  I62  1  0.16016458  0.66574070  0.84264376  1
  I  I63  1  0.49340003  0.00062348  0.17058824  1
  I  I64  1  0.50290357  0.00302759  0.49519374  1
  I  I65  1  0.50082008  -0.00004341  0.83290284  1
  I  I66  1  0.49392453  0.33331154  0.17096737  1
  I  I67  1  0.50598898  0.33242232  0.49094633  1
  I  I68  1  0.49646419  0.33330226  0.83740531  1
  I  I69  1  0.49379625  0.66601497  0.17094943  1
  I  I70  1  0.50118944  0.66438218  0.49602585  1
  I  I71  1  0.50700269  0.66659557  0.83085774  1
  I  I72  1  0.83402481  0.00011592  0.16211575  1
  I  I73  1  0.82802016  0.00181840  0.50510764  1
  I  I74  1  0.83370985  0.00234284  0.83166525  1
  I  I75  1  0.83456824  0.33336314  0.16996451  1
  I  I76  1  0.83095352  0.33053038  0.50169442  1
  I  I77  1  0.83900201  0.33335090  0.82839709  1
  I  I78  1  0.83172925  0.66659016  0.16805807  1
  I  I79  1  0.83290006  0.66824085  0.49986184  1
  I  I80  1  0.83495018  0.66434481  0.83266265  1
  I  I81  1  0.17193632  0.16692571  0.00387412  1
  I  I82  1  0.16582602  0.16595909  0.32876773  1
  I  I83  1  0.16894134  0.16606687  0.66678431  1
  I  I84  1  0.16843967  0.50058332  0.00116244  1
  I  I85  1  0.16829704  0.50143916  0.32980297  1
  I  I86  1  0.16338739  0.50501880  0.67002291  1
  I  I87  1  0.16933664  0.83234505  0.00140750  1
  I  I88  1  0.17038656  0.83270842  0.32942042  1
  I  I89  1  0.16352613  0.82762939  0.66948124  1
  I  I90  1  0.49659296  0.16851794  0.00381210  1
  I  I91  1  0.50248713  0.16761084  0.33259432  1
  I  I92  1  0.50249428  0.17239287  0.66339872  1
  I  I93  1  0.49876260  0.49865124  0.00351921  1
  I  I94  1  0.49549663  0.49940456  0.33173510  1
  I  I95  1  0.50118616  0.49415506  0.66400260  1
  I  I96  1  0.50106039  0.83272031  0.00486238  1
  I  I97  1  0.49297029  0.83320270  0.32959640  1
  I  I98  1  0.49965936  0.83276227  0.66644574  1
  I  I99  1  0.83379612  0.17069156  -0.00239903  1
  I  I100  1  0.83212222  0.16233174  0.33618499  1
  I  I101  1  0.82833521  0.16654536  0.66584938  1
  I  I102  1  0.83258615  0.49431261  -0.00375740  1
  I  I103  1  0.83639463  0.49949226  0.33358797  1
  I  I104  1  0.83908191  0.49842223  0.67019330  1
  I  I105  1  0.83084359  0.83421827  -0.00014897  1
  I  I106  1  0.83454763  0.84109582  0.33665353  1
  I  I107  1  0.83346310  0.83511943  0.66366208  1
  I  I108  1  0.00287294  0.16590386  0.16555817  1
  I  I109  1  -0.00299694  0.16237898  0.50230248  1
  I  I110  1  -0.00331217  0.16820002  0.82838025  1
  I  I111  1  0.00339171  0.50049370  0.16466013  1
  I  I112  1  -0.00012122  0.49994003  0.49700611  1
  I  I113  1  0.00095445  0.50003289  0.83891007  1
  I  I114  1  0.00374582  0.83395169  0.16301203  1
  I  I115  1  -0.00336111  0.84027865  0.49828045  1
  I  I116  1  0.00334573  0.83204695  0.84172849  1
  I  I117  1  0.33402081  0.16640527  0.17137602  1
  I  I118  1  0.33681839  0.17056675  0.49760844  1
  I  I119  1  0.33308472  0.16714444  0.83027851  1
  I  I120  1  0.33311076  0.49972635  0.16461000  1
  I  I121  1  0.33761912  0.49430586  0.49949745  1
  I  I122  1  0.32999640  0.50426168  0.83582608  1
  I  I123  1  0.33292207  0.83336544  0.16378648  1
  I  I124  1  0.33346956  0.83383737  0.50245455  1
  I  I125  1  0.32871794  0.82591781  0.83336071  1
  I  I126  1  0.66326776  0.16720700  0.16788361  1
  I  I127  1  0.66628748  0.16683536  0.49698800  1
  I  I128  1  0.67045233  0.17309594  0.83459623  1
  I  I129  1  0.66308722  0.49881481  0.16987196  1
  I  I130  1  0.66314533  0.49842428  0.49333027  1
  I  I131  1  0.66895218  0.49527989  0.83317747  1
  I  I132  1  0.66363366  0.83415619  0.16917540  1
  I  I133  1  0.66942370  0.83503078  0.49938886  1
  I  I134  1  0.66693127  0.83249684  0.83459517  1
