# generated using pymatgen
data_Cs27Sn14Pb13I81
_symmetry_space_group_name_H-M   'P 1'
_cell_length_a   18.97808184
_cell_length_b   18.97106735
_cell_length_c   18.97791346
_cell_angle_alpha   89.99966773
_cell_angle_beta   90.00163145
_cell_angle_gamma   89.99946977
_symmetry_Int_Tables_number   1
_chemical_formula_structural   Cs27Sn14Pb13I81
_chemical_formula_sum   'Cs27 Sn14 Pb13 I81'
_cell_volume   6832.70298933
_cell_formula_units_Z   1
loop_
 _symmetry_equiv_pos_site_id
 _symmetry_equiv_pos_as_xyz
  1  'x, y, z'
loop_
 _atom_site_type_symbol
 _atom_site_label
 _atom_site_symmetry_multiplicity
 _atom_site_fract_x
 _atom_site_fract_y
 _atom_site_fract_z
 _atom_site_occupancy
  Cs  Cs0  1  -0.00164060  0.00417333  -0.00246916  1
  Cs  Cs1  1  0.00860591  0.00349194  0.33133247  1
  Cs  Cs2  1  -0.00206852  0.00107362  0.66879372  1
  Cs  Cs3  1  -0.00140647  0.33348557  0.00235795  1
  Cs  Cs4  1  -0.00294114  0.33108349  0.32718850  1
  Cs  Cs5  1  0.00064663  0.33617273  0.66782947  1
  Cs  Cs6  1  -0.00064217  0.66433154  -0.00102298  1
  Cs  Cs7  1  -0.00330369  0.66611494  0.33523702  1
  Cs  Cs8  1  0.00049398  0.66614573  0.66542125  1
  Cs  Cs9  1  0.33433991  -0.00037756  0.00371641  1
  Cs  Cs10  1  0.32597204  -0.00054116  0.33137377  1
  Cs  Cs11  1  0.32948864  0.00543698  0.66363790  1
  Cs  Cs12  1  0.33400388  0.33392681  -0.00207775  1
  Cs  Cs13  1  0.33623873  0.33302545  0.33281330  1
  Cs  Cs14  1  0.33442322  0.33466560  0.66880779  1
  Cs  Cs15  1  0.33647838  0.66798026  -0.00002739  1
  Cs  Cs16  1  0.33373268  0.66801509  0.33326283  1
  Cs  Cs17  1  0.33309652  0.66421111  0.66710587  1
  Cs  Cs18  1  0.66693644  -0.00470050  -0.00397597  1
  Cs  Cs19  1  0.66508068  -0.00256318  0.33699276  1
  Cs  Cs20  1  0.67196843  0.00087707  0.66585704  1
  Cs  Cs21  1  0.66529269  0.33265789  0.00384366  1
  Cs  Cs22  1  0.66600732  0.33216598  0.33207119  1
  Cs  Cs23  1  0.66506334  0.33227381  0.66450587  1
  Cs  Cs24  1  0.66392209  0.67105043  -0.00056771  1
  Cs  Cs25  1  0.66832463  0.66636198  0.33386492  1
  Cs  Cs26  1  0.66681553  0.66694117  0.66558791  1
  Sn  Sn27  1  0.50020397  0.16681813  0.16592927  1
  Sn  Sn28  1  0.49955670  0.16673017  0.83407091  1
  Sn  Sn29  1  0.16695262  0.83307207  0.83342481  1
  Sn  Sn30  1  0.16656939  0.49998587  0.49942321  1
  Sn  Sn31  1  0.50004040  0.83263985  0.50031026  1
  Sn  Sn32  1  0.49932905  0.49973294  0.16735087  1
  Sn  Sn33  1  0.83341213  0.50001931  0.83284221  1
  Sn  Sn34  1  0.83375134  0.83346525  0.16765061  1
  Sn  Sn35  1  0.50008442  0.50084110  0.49911742  1
  Sn  Sn36  1  0.16757339  0.50036616  0.16662039  1
  Sn  Sn37  1  0.16762522  0.16704104  0.83344471  1
  Sn  Sn38  1  0.83319713  0.50022431  0.50082961  1
  Sn  Sn39  1  0.83306411  0.83262034  0.49882197  1
  Sn  Sn40  1  0.16606299  0.50016116  0.83362191  1
  Pb  Pb41  1  0.83518961  0.83098887  0.83258781  1
  Pb  Pb42  1  0.50019845  0.49891836  0.83330731  1
  Pb  Pb43  1  0.83269950  0.50117608  0.16679913  1
  Pb  Pb44  1  0.16433036  0.83078520  0.16436924  1
  Pb  Pb45  1  0.16627820  0.83136579  0.50171650  1
  Pb  Pb46  1  0.49762683  0.83624070  0.83016413  1
  Pb  Pb47  1  0.83317468  0.16974260  0.83334051  1
  Pb  Pb48  1  0.50132658  0.83319408  0.16883094  1
  Pb  Pb49  1  0.83029648  0.16318234  0.16675122  1
  Pb  Pb50  1  0.83358421  0.16667750  0.49968679  1
  Pb  Pb51  1  0.16647421  0.17005854  0.50219775  1
  Pb  Pb52  1  0.49993772  0.16652353  0.49972433  1
  Pb  Pb53  1  0.16879050  0.16921586  0.16430735  1
  I  I54  1  0.16714824  0.00002484  0.16523240  1
  I  I55  1  0.16714492  -0.00009584  0.50248120  1
  I  I56  1  0.17141290  0.00044197  0.83240007  1
  I  I57  1  0.16631685  0.33765961  0.16548958  1
  I  I58  1  0.16807883  0.33879664  0.50282240  1
  I  I59  1  0.16716401  0.33475496  0.83234113  1
  I  I60  1  0.17347407  0.66240967  0.16382557  1
  I  I61  1  0.16693720  0.66271121  0.50360661  1
  I  I62  1  0.16124777  0.66471365  0.83242976  1
  I  I63  1  0.50320129  0.00240201  0.16282932  1
  I  I64  1  0.50662080  -0.00292461  0.50199477  1
  I  I65  1  0.49503925  0.00398478  0.83900653  1
  I  I66  1  0.49648503  0.33490372  0.16853056  1
  I  I67  1  0.49995039  0.33684014  0.49977238  1
  I  I68  1  0.49447539  0.33111793  0.83213220  1
  I  I69  1  0.49718269  0.66362490  0.16867851  1
  I  I70  1  0.50069856  0.66463646  0.49484991  1
  I  I71  1  0.49912224  0.66670501  0.83607321  1
  I  I72  1  0.83230102  -0.00453017  0.17236816  1
  I  I73  1  0.82619866  -0.00380779  0.49761755  1
  I  I74  1  0.83498397  -0.00010955  0.83298098  1
  I  I75  1  0.83527221  0.33352395  0.16620038  1
  I  I76  1  0.83236378  0.33758613  0.50517549  1
  I  I77  1  0.83930343  0.33776026  0.82769442  1
  I  I78  1  0.83153441  0.66870168  0.16796519  1
  I  I79  1  0.83249029  0.66527830  0.50041355  1
  I  I80  1  0.83937841  0.66302988  0.83163907  1
  I  I81  1  0.16839491  0.16960491  -0.00379574  1
  I  I82  1  0.16813381  0.16680271  0.33294090  1
  I  I83  1  0.17390153  0.16908239  0.67068956  1
  I  I84  1  0.16589436  0.49948453  -0.00099401  1
  I  I85  1  0.16735908  0.50135809  0.33372739  1
  I  I86  1  0.16604869  0.49980515  0.66708246  1
  I  I87  1  0.16516729  0.83007625  -0.00355205  1
  I  I88  1  0.16831822  0.83211796  0.33339477  1
  I  I89  1  0.16534372  0.83037975  0.66968827  1
  I  I90  1  0.49571142  0.17385514  0.00005556  1
  I  I91  1  0.50198289  0.16996145  0.33066805  1
  I  I92  1  0.49510485  0.16800858  0.66920982  1
  I  I93  1  0.49725467  0.49715939  0.00241643  1
  I  I94  1  0.49712422  0.49751574  0.33372453  1
  I  I95  1  0.49810161  0.50182445  0.66394030  1
  I  I96  1  0.50175256  0.83108888  -0.00010224  1
  I  I97  1  0.50139223  0.83269694  0.33673736  1
  I  I98  1  0.50683757  0.82569122  0.66272269  1
  I  I99  1  0.83512569  0.16706970  -0.00008155  1
  I  I100  1  0.83079294  0.17332009  0.33309242  1
  I  I101  1  0.83061015  0.16265701  0.66687397  1
  I  I102  1  0.83787127  0.50130336  -0.00211705  1
  I  I103  1  0.83571072  0.50269249  0.33630448  1
  I  I104  1  0.83661971  0.50502453  0.66566157  1
  I  I105  1  0.83454516  0.83088972  0.00155921  1
  I  I106  1  0.82865748  0.82491914  0.33495735  1
  I  I107  1  0.83024678  0.83035615  0.66357067  1
  I  I108  1  0.00020321  0.16791014  0.16546713  1
  I  I109  1  0.00016944  0.16572745  0.50254265  1
  I  I110  1  0.00317543  0.16557486  0.83184171  1
  I  I111  1  0.00235731  0.50253773  0.16747385  1
  I  I112  1  -0.00012204  0.50413257  0.50259827  1
  I  I113  1  0.00167921  0.49836996  0.83034947  1
  I  I114  1  -0.00323133  0.82970981  0.17394132  1
  I  I115  1  -0.00292419  0.82751476  0.49842560  1
  I  I116  1  0.00314393  0.83647204  0.83140472  1
  I  I117  1  0.33669578  0.16776733  0.16531751  1
  I  I118  1  0.33337816  0.16550785  0.49946797  1
  I  I119  1  0.33267178  0.17040399  0.83599047  1
  I  I120  1  0.33356761  0.49686498  0.16886314  1
  I  I121  1  0.33357775  0.50340509  0.50077335  1
  I  I122  1  0.33036213  0.50047757  0.83067146  1
  I  I123  1  0.33323711  0.83482550  0.16732578  1
  I  I124  1  0.33565028  0.82861204  0.50239142  1
  I  I125  1  0.32993053  0.82542761  0.83232931  1
  I  I126  1  0.66249037  0.17682968  0.15996826  1
  I  I127  1  0.66641142  0.17140017  0.50333902  1
  I  I128  1  0.66369133  0.16899202  0.83654679  1
  I  I129  1  0.66375205  0.49719700  0.16943061  1
  I  I130  1  0.66651632  0.50367814  0.50059358  1
  I  I131  1  0.66894222  0.49852281  0.82997074  1
  I  I132  1  0.66921286  0.82998402  0.16719996  1
  I  I133  1  0.66701659  0.82479244  0.49701079  1
  I  I134  1  0.66665531  0.83320966  0.83513729  1
