# generated using pymatgen
data_Cs27Sn13Pb14I81
_symmetry_space_group_name_H-M   'P 1'
_cell_length_a   19.00028958
_cell_length_b   18.98717305
_cell_length_c   18.98700816
_cell_angle_alpha   89.99735973
_cell_angle_beta   90.00127350
_cell_angle_gamma   90.00069972
_symmetry_Int_Tables_number   1
_chemical_formula_structural   Cs27Sn13Pb14I81
_chemical_formula_sum   'Cs27 Sn13 Pb14 I81'
_cell_volume   6849.78696841
_cell_formula_units_Z   1
loop_
 _symmetry_equiv_pos_site_id
 _symmetry_equiv_pos_as_xyz
  1  'x, y, z'
loop_
 _atom_site_type_symbol
 _atom_site_label
 _atom_site_symmetry_multiplicity
 _atom_site_fract_x
 _atom_site_fract_y
 _atom_site_fract_z
 _atom_site_occupancy
  Cs  Cs0  1  0.00523477  -0.00232745  0.00404306  1
  Cs  Cs1  1  -0.00085143  -0.00065810  0.33545885  1
  Cs  Cs2  1  -0.00029435  -0.00116650  0.66365037  1
  Cs  Cs3  1  0.00578794  0.33391130  -0.00750552  1
  Cs  Cs4  1  -0.00375219  0.33387590  0.33236963  1
  Cs  Cs5  1  -0.00241806  0.33221503  0.67681963  1
  Cs  Cs6  1  0.00097972  0.66579497  0.00024810  1
  Cs  Cs7  1  -0.00102648  0.66619659  0.33013026  1
  Cs  Cs8  1  -0.00020260  0.66887116  0.66840629  1
  Cs  Cs9  1  0.33501443  0.00979421  0.00671857  1
  Cs  Cs10  1  0.33381560  0.00089621  0.33185982  1
  Cs  Cs11  1  0.33327370  -0.00307184  0.66548929  1
  Cs  Cs12  1  0.32800664  0.32289100  0.00083408  1
  Cs  Cs13  1  0.33026737  0.33735757  0.33509708  1
  Cs  Cs14  1  0.33159713  0.33519471  0.66465792  1
  Cs  Cs15  1  0.33486690  0.66703431  0.00094790  1
  Cs  Cs16  1  0.33126860  0.66231035  0.33461014  1
  Cs  Cs17  1  0.33576673  0.66809930  0.66463355  1
  Cs  Cs18  1  0.66101192  0.00054019  0.00412385  1
  Cs  Cs19  1  0.66724529  0.00060601  0.33268285  1
  Cs  Cs20  1  0.66671449  0.00014600  0.66536093  1
  Cs  Cs21  1  0.66635972  0.33453593  -0.00029377  1
  Cs  Cs22  1  0.66968443  0.33661039  0.33332875  1
  Cs  Cs23  1  0.66971126  0.32987826  0.66867940  1
  Cs  Cs24  1  0.66685388  0.66605312  0.00043298  1
  Cs  Cs25  1  0.66752368  0.66454542  0.33211128  1
  Cs  Cs26  1  0.66455909  0.66753730  0.66765278  1
  Sn  Sn27  1  0.50014171  0.83394581  0.50022882  1
  Sn  Sn28  1  0.16725789  0.16626624  0.50014114  1
  Sn  Sn29  1  0.49987836  0.50030160  0.83444308  1
  Sn  Sn30  1  0.49931876  0.16610140  0.50010563  1
  Sn  Sn31  1  0.16688179  0.83381972  0.50040391  1
  Sn  Sn32  1  0.16744076  0.83330943  0.83275316  1
  Sn  Sn33  1  0.83299045  0.83218802  0.50062535  1
  Sn  Sn34  1  0.83325454  0.16769675  0.16631762  1
  Sn  Sn35  1  0.50033737  0.50003210  0.16533852  1
  Sn  Sn36  1  0.83287989  0.83358172  0.83284865  1
  Sn  Sn37  1  0.83273291  0.49882684  0.16680316  1
  Sn  Sn38  1  0.83345655  0.50078269  0.50016500  1
  Sn  Sn39  1  0.49975403  0.83288100  0.83298419  1
  Pb  Pb40  1  0.16319486  0.50021132  0.50024098  1
  Pb  Pb41  1  0.83320864  0.83284027  0.16658968  1
  Pb  Pb42  1  0.16638137  0.49990939  0.16648288  1
  Pb  Pb43  1  0.16706107  0.83328324  0.16707487  1
  Pb  Pb44  1  0.50175246  0.16970483  0.16976804  1
  Pb  Pb45  1  0.83154239  0.50205532  0.83363710  1
  Pb  Pb46  1  0.49991973  0.83126142  0.16698838  1
  Pb  Pb47  1  0.50007596  0.16629991  0.83090053  1
  Pb  Pb48  1  0.17014722  0.50272831  0.83318112  1
  Pb  Pb49  1  0.83318056  0.16303963  0.83659862  1
  Pb  Pb50  1  0.16392386  0.16674688  0.16983942  1
  Pb  Pb51  1  0.83351044  0.16644280  0.49914238  1
  Pb  Pb52  1  0.16672391  0.16354200  0.83033999  1
  Pb  Pb53  1  0.50196289  0.50011010  0.50038948  1
  I  I54  1  0.16401245  0.00013034  0.16405231  1
  I  I55  1  0.16463733  -0.00173759  0.50398336  1
  I  I56  1  0.16861488  -0.00474067  0.83129283  1
  I  I57  1  0.16910430  0.33318370  0.16963869  1
  I  I58  1  0.17229433  0.33054019  0.49670347  1
  I  I59  1  0.16678854  0.33315562  0.83263667  1
  I  I60  1  0.16336525  0.66663753  0.17016787  1
  I  I61  1  0.17013839  0.67039292  0.50397338  1
  I  I62  1  0.16328687  0.67102827  0.82517691  1
  I  I63  1  0.50168915  0.00037344  0.16412510  1
  I  I64  1  0.50225410  -0.00196492  0.50556206  1
  I  I65  1  0.50060058  -0.00390301  0.83010759  1
  I  I66  1  0.50349505  0.33741601  0.16187211  1
  I  I67  1  0.49701658  0.33118124  0.49903203  1
  I  I68  1  0.50286468  0.33618091  0.83540415  1
  I  I69  1  0.50833534  0.66349435  0.16813180  1
  I  I70  1  0.49792389  0.66974562  0.50102869  1
  I  I71  1  0.50062452  0.66829463  0.83054558  1
  I  I72  1  0.83449465  0.00187703  0.16800477  1
  I  I73  1  0.83332168  -0.00325064  0.50185974  1
  I  I74  1  0.83048536  -0.00518675  0.82552467  1
  I  I75  1  0.82810902  0.33481140  0.17636462  1
  I  I76  1  0.83156451  0.33559031  0.49587065  1
  I  I77  1  0.83124530  0.33344373  0.82940426  1
  I  I78  1  0.82913856  0.66373598  0.16901045  1
  I  I79  1  0.83244291  0.66806891  0.49721079  1
  I  I80  1  0.83511264  0.67033614  0.83300487  1
  I  I81  1  0.16573914  0.16514126  -0.00000043  1
  I  I82  1  0.17087221  0.15791864  0.33749309  1
  I  I83  1  0.16880073  0.16489390  0.66244546  1
  I  I84  1  0.16096979  0.50363298  -0.00027373  1
  I  I85  1  0.17157399  0.50344824  0.33372969  1
  I  I86  1  0.16649578  0.49684676  0.66651204  1
  I  I87  1  0.16425575  0.83045705  -0.00352833  1
  I  I88  1  0.16564099  0.83706627  0.33758927  1
  I  I89  1  0.16604932  0.83700832  0.66560994  1
  I  I90  1  0.50138755  0.16338337  0.00022836  1
  I  I91  1  0.49710248  0.15973145  0.33739431  1
  I  I92  1  0.49853331  0.16703024  0.66278977  1
  I  I93  1  0.50783133  0.50854054  -0.00018372  1
  I  I94  1  0.50378886  0.49983519  0.33156175  1
  I  I95  1  0.50128095  0.50292936  0.66883134  1
  I  I96  1  0.50181525  0.83001147  -0.00336277  1
  I  I97  1  0.50090099  0.83606904  0.33711937  1
  I  I98  1  0.50038557  0.83046113  0.66613394  1
  I  I99  1  0.83170976  0.17324173  0.00418303  1
  I  I100  1  0.83296860  0.16646965  0.33135739  1
  I  I101  1  0.83358870  0.17006028  0.66659969  1
  I  I102  1  0.83000306  0.49832359  0.00275809  1
  I  I103  1  0.82730926  0.50245244  0.33339608  1
  I  I104  1  0.83187078  0.50276143  0.66419410  1
  I  I105  1  0.83318518  0.83349128  -0.00313906  1
  I  I106  1  0.83352791  0.83262602  0.33665370  1
  I  I107  1  0.83333479  0.82773457  0.66516145  1
  I  I108  1  -0.00373949  0.17244158  0.16960393  1
  I  I109  1  0.00210094  0.16157412  0.49701477  1
  I  I110  1  -0.00010323  0.16679742  0.83093734  1
  I  I111  1  -0.00382085  0.49781282  0.17290209  1
  I  I112  1  -0.00467868  0.50440470  0.49254316  1
  I  I113  1  -0.00005306  0.50117521  0.83368833  1
  I  I114  1  -0.00018800  0.83145762  0.16647601  1
  I  I115  1  -0.00029221  0.83399099  0.50524106  1
  I  I116  1  -0.00014075  0.83458989  0.82646464  1
  I  I117  1  0.33341061  0.16733692  0.16525998  1
  I  I118  1  0.33364902  0.15786925  0.50015459  1
  I  I119  1  0.33344846  0.16610718  0.83674476  1
  I  I120  1  0.33673610  0.50337431  0.16419728  1
  I  I121  1  0.33342012  0.50183206  0.49862235  1
  I  I122  1  0.33813404  0.50650418  0.83743312  1
  I  I123  1  0.33355978  0.83045467  0.16729578  1
  I  I124  1  0.33374997  0.83807372  0.50626670  1
  I  I125  1  0.33402638  0.82733230  0.82462558  1
  I  I126  1  0.66937047  0.16695918  0.17053630  1
  I  I127  1  0.66459911  0.16285877  0.49868299  1
  I  I128  1  0.66663472  0.16355665  0.82906171  1
  I  I129  1  0.66743277  0.49735294  0.16784261  1
  I  I130  1  0.66956913  0.50430618  0.49792475  1
  I  I131  1  0.66389863  0.50777590  0.83351796  1
  I  I132  1  0.66673806  0.83556219  0.16736595  1
  I  I133  1  0.66660706  0.83361851  0.50551804  1
  I  I134  1  0.66613949  0.82889983  0.82625515  1
