# generated using pymatgen
data_Cs27Sn13Pb14I81
_symmetry_space_group_name_H-M   'P 1'
_cell_length_a   18.97589438
_cell_length_b   18.98111130
_cell_length_c   18.97296371
_cell_angle_alpha   90.00000923
_cell_angle_beta   89.99895645
_cell_angle_gamma   90.00053346
_symmetry_Int_Tables_number   1
_chemical_formula_structural   Cs27Sn13Pb14I81
_chemical_formula_sum   'Cs27 Sn13 Pb14 I81'
_cell_volume   6833.74967361
_cell_formula_units_Z   1
loop_
 _symmetry_equiv_pos_site_id
 _symmetry_equiv_pos_as_xyz
  1  'x, y, z'
loop_
 _atom_site_type_symbol
 _atom_site_label
 _atom_site_symmetry_multiplicity
 _atom_site_fract_x
 _atom_site_fract_y
 _atom_site_fract_z
 _atom_site_occupancy
  Cs  Cs0  1  -0.00464548  -0.00111281  0.00060680  1
  Cs  Cs1  1  0.00184754  0.01008175  0.33624382  1
  Cs  Cs2  1  -0.00140241  0.00210187  0.66329606  1
  Cs  Cs3  1  -0.00104501  0.33572588  -0.00238844  1
  Cs  Cs4  1  -0.00105530  0.32509702  0.33336697  1
  Cs  Cs5  1  -0.00121867  0.33254606  0.66871762  1
  Cs  Cs6  1  0.00005115  0.66518363  -0.00108657  1
  Cs  Cs7  1  -0.00032203  0.66723316  0.33289746  1
  Cs  Cs8  1  0.00193740  0.66544451  0.66781596  1
  Cs  Cs9  1  0.33455696  -0.00015696  -0.00169270  1
  Cs  Cs10  1  0.33091061  0.00188157  0.33067149  1
  Cs  Cs11  1  0.33551437  -0.00167817  0.66995422  1
  Cs  Cs12  1  0.33376304  0.33185467  -0.00046244  1
  Cs  Cs13  1  0.33166017  0.33356911  0.33354760  1
  Cs  Cs14  1  0.33575376  0.33567639  0.66791404  1
  Cs  Cs15  1  0.33250312  0.66759751  0.00005816  1
  Cs  Cs16  1  0.33244090  0.66616827  0.33540108  1
  Cs  Cs17  1  0.33330686  0.66754546  0.66535998  1
  Cs  Cs18  1  0.67127337  -0.00305134  0.00651801  1
  Cs  Cs19  1  0.66699207  -0.00077966  0.32806248  1
  Cs  Cs20  1  0.66529014  -0.00013322  0.66711598  1
  Cs  Cs21  1  0.66613987  0.33386432  -0.00084784  1
  Cs  Cs22  1  0.66745974  0.33625324  0.33416953  1
  Cs  Cs23  1  0.66509479  0.33068117  0.66650240  1
  Cs  Cs24  1  0.66858967  0.66836382  0.00155750  1
  Cs  Cs25  1  0.66703308  0.66547046  0.33359517  1
  Cs  Cs26  1  0.66600518  0.66807590  0.66445902  1
  Sn  Sn27  1  0.16727479  0.83419814  0.83417961  1
  Sn  Sn28  1  0.50063416  0.83440570  0.50028789  1
  Sn  Sn29  1  0.83349076  0.50079436  0.49958715  1
  Sn  Sn30  1  0.49985734  0.16534733  0.50022954  1
  Sn  Sn31  1  0.16667365  0.83288790  0.16608616  1
  Sn  Sn32  1  0.83365097  0.50042288  0.16757348  1
  Sn  Sn33  1  0.16666766  0.50072319  0.16685246  1
  Sn  Sn34  1  0.50005747  0.50054777  0.83413677  1
  Sn  Sn35  1  0.49964952  0.50035388  0.16596318  1
  Sn  Sn36  1  0.49970032  0.83346108  0.83310709  1
  Sn  Sn37  1  0.83273191  0.83261098  0.49993223  1
  Sn  Sn38  1  0.49958984  0.16594827  0.83298058  1
  Sn  Sn39  1  0.16734695  0.16560329  0.83346856  1
  Pb  Pb40  1  0.49831049  0.83124199  0.16687862  1
  Pb  Pb41  1  0.83325633  0.16956532  0.16655199  1
  Pb  Pb42  1  0.83058103  0.50023499  0.83314385  1
  Pb  Pb43  1  0.16690513  0.83337418  0.50027010  1
  Pb  Pb44  1  0.50000116  0.16907279  0.16628054  1
  Pb  Pb45  1  0.83350754  0.83328879  0.83108397  1
  Pb  Pb46  1  0.16886878  0.50030908  0.83501821  1
  Pb  Pb47  1  0.16349444  0.49983104  0.49723605  1
  Pb  Pb48  1  0.83052667  0.16647106  0.50014188  1
  Pb  Pb49  1  0.16990698  0.16665945  0.50321401  1
  Pb  Pb50  1  0.50122368  0.50029740  0.50006124  1
  Pb  Pb51  1  0.83648259  0.83146596  0.16948426  1
  Pb  Pb52  1  0.83274048  0.16636674  0.83333729  1
  Pb  Pb53  1  0.16685469  0.16647917  0.16381043  1
  I  I54  1  0.16833734  -0.00302975  0.16545710  1
  I  I55  1  0.16092876  -0.00018489  0.49371858  1
  I  I56  1  0.17592638  -0.00111393  0.83851435  1
  I  I57  1  0.16651391  0.33655661  0.16602810  1
  I  I58  1  0.16739044  0.33326953  0.49993396  1
  I  I59  1  0.17150812  0.33117723  0.83411967  1
  I  I60  1  0.16708243  0.66624793  0.16042702  1
  I  I61  1  0.17151395  0.66672347  0.50446210  1
  I  I62  1  0.17100997  0.66960971  0.83514004  1
  I  I63  1  0.49795225  -0.00032854  0.16526297  1
  I  I64  1  0.50511480  -0.00107944  0.50884717  1
  I  I65  1  0.49438155  -0.00052760  0.82638071  1
  I  I66  1  0.49823968  0.33763464  0.16344510  1
  I  I67  1  0.50114875  0.33150762  0.50351477  1
  I  I68  1  0.49656304  0.33306950  0.83286190  1
  I  I69  1  0.50169683  0.66306629  0.16322500  1
  I  I70  1  0.50200309  0.66930464  0.50335392  1
  I  I71  1  0.49642696  0.66746427  0.83245595  1
  I  I72  1  0.83422256  -0.00052640  0.16752894  1
  I  I73  1  0.83188841  -0.00302722  0.50219817  1
  I  I74  1  0.82994130  -0.00029174  0.83126514  1
  I  I75  1  0.83528718  0.33847895  0.17348629  1
  I  I76  1  0.83181741  0.33618001  0.49473750  1
  I  I77  1  0.83380781  0.33355801  0.83212075  1
  I  I78  1  0.83054760  0.66322917  0.16841723  1
  I  I79  1  0.82620876  0.66671139  0.49667466  1
  I  I80  1  0.83321917  0.66666132  0.83417210  1
  I  I81  1  0.17578220  0.16616522  -0.00384922  1
  I  I82  1  0.16695953  0.16675143  0.33325005  1
  I  I83  1  0.16809289  0.16013682  0.67114262  1
  I  I84  1  0.16240307  0.50120071  0.00325861  1
  I  I85  1  0.17383300  0.50695702  0.32868765  1
  I  I86  1  0.16679805  0.50051961  0.66696322  1
  I  I87  1  0.17309082  0.83244466  -0.00102143  1
  I  I88  1  0.16738128  0.82659044  0.33072851  1
  I  I89  1  0.16838496  0.83718468  0.66998838  1
  I  I90  1  0.49534024  0.16567932  -0.00372764  1
  I  I91  1  0.50218769  0.16358296  0.33621455  1
  I  I92  1  0.49664415  0.16895294  0.66777569  1
  I  I93  1  0.50156901  0.49944323  -0.00026757  1
  I  I94  1  0.49898359  0.50014293  0.33079825  1
  I  I95  1  0.50153924  0.49947879  0.66933101  1
  I  I96  1  0.49702206  0.83510591  -0.00304494  1
  I  I97  1  0.50242224  0.83545186  0.33622545  1
  I  I98  1  0.49809253  0.83121403  0.66758123  1
  I  I99  1  0.83062573  0.16861038  -0.00010731  1
  I  I100  1  0.83225210  0.16514307  0.33360454  1
  I  I101  1  0.83611114  0.17096370  0.66653563  1
  I  I102  1  0.83477922  0.49897402  0.00313876  1
  I  I103  1  0.82990781  0.50473260  0.33275059  1
  I  I104  1  0.83035656  0.50314295  0.66374156  1
  I  I105  1  0.83085977  0.83208584  0.00030277  1
  I  I106  1  0.82643286  0.83007535  0.33709635  1
  I  I107  1  0.83293179  0.82625212  0.66313937  1
  I  I108  1  0.00029665  0.16832413  0.16550416  1
  I  I109  1  -0.00003954  0.16682787  0.50056850  1
  I  I110  1  0.00333133  0.16274282  0.83526927  1
  I  I111  1  0.00016882  0.50457107  0.17106913  1
  I  I112  1  -0.00470823  0.50704939  0.49673064  1
  I  I113  1  0.00015466  0.49928225  0.83393656  1
  I  I114  1  0.00407494  0.82677148  0.16035415  1
  I  I115  1  -0.00259658  0.82706466  0.49992169  1
  I  I116  1  0.00350818  0.83710840  0.83624277  1
  I  I117  1  0.33344533  0.17095728  0.17019791  1
  I  I118  1  0.33786928  0.16125603  0.50098421  1
  I  I119  1  0.33472586  0.16624711  0.82974283  1
  I  I120  1  0.33352111  0.50313193  0.16126908  1
  I  I121  1  0.33358112  0.50027962  0.49871669  1
  I  I122  1  0.33719297  0.49965828  0.83762266  1
  I  I123  1  0.33048855  0.82660622  0.16711018  1
  I  I124  1  0.33665384  0.83647976  0.50179524  1
  I  I125  1  0.33449576  0.83336208  0.83140191  1
  I  I126  1  0.66633033  0.16788178  0.16410057  1
  I  I127  1  0.66273547  0.16672550  0.50824034  1
  I  I128  1  0.66234891  0.16791883  0.82847987  1
  I  I129  1  0.66646289  0.49863772  0.16693214  1
  I  I130  1  0.66897993  0.50133400  0.49429482  1
  I  I131  1  0.66207270  0.49945684  0.83832305  1
  I  I132  1  0.66676498  0.83162994  0.16424230  1
  I  I133  1  0.66520424  0.83236209  0.50582974  1
  I  I134  1  0.66305431  0.83354329  0.83088325  1
