# generated using pymatgen
data_Cs27Sn14Pb13I81
_symmetry_space_group_name_H-M   'P 1'
_cell_length_a   18.97192184
_cell_length_b   18.97705915
_cell_length_c   18.97750260
_cell_angle_alpha   90.00219700
_cell_angle_beta   90.00142526
_cell_angle_gamma   89.99967778
_symmetry_Int_Tables_number   1
_chemical_formula_structural   Cs27Sn14Pb13I81
_chemical_formula_sum   'Cs27 Sn14 Pb13 I81'
_cell_volume   6832.49459937
_cell_formula_units_Z   1
loop_
 _symmetry_equiv_pos_site_id
 _symmetry_equiv_pos_as_xyz
  1  'x, y, z'
loop_
 _atom_site_type_symbol
 _atom_site_label
 _atom_site_symmetry_multiplicity
 _atom_site_fract_x
 _atom_site_fract_y
 _atom_site_fract_z
 _atom_site_occupancy
  Cs  Cs0  1  0.00270672  0.00149868  -0.00340176  1
  Cs  Cs1  1  -0.00462933  0.00090182  0.33293998  1
  Cs  Cs2  1  0.00052676  -0.00045159  0.66845947  1
  Cs  Cs3  1  -0.00121722  0.33177433  0.00259013  1
  Cs  Cs4  1  0.00063327  0.34158037  0.33269891  1
  Cs  Cs5  1  0.00005695  0.33299356  0.66365766  1
  Cs  Cs6  1  0.00404146  0.66206892  -0.00177947  1
  Cs  Cs7  1  -0.00605617  0.65743457  0.33684283  1
  Cs  Cs8  1  -0.00288850  0.66774613  0.66593245  1
  Cs  Cs9  1  0.33102986  -0.00145438  0.00026024  1
  Cs  Cs10  1  0.33401572  0.00079989  0.33369529  1
  Cs  Cs11  1  0.33319621  0.00048634  0.66575719  1
  Cs  Cs12  1  0.33483954  0.33328472  0.00012742  1
  Cs  Cs13  1  0.33300121  0.33444484  0.33570416  1
  Cs  Cs14  1  0.33699911  0.32954660  0.66333880  1
  Cs  Cs15  1  0.33252000  0.66905676  0.00054881  1
  Cs  Cs16  1  0.33539212  0.66478919  0.33271889  1
  Cs  Cs17  1  0.33386503  0.66957187  0.66750586  1
  Cs  Cs18  1  0.66850041  -0.00005168  0.00433677  1
  Cs  Cs19  1  0.67100279  -0.00268042  0.32883068  1
  Cs  Cs20  1  0.66774776  0.00175178  0.66623406  1
  Cs  Cs21  1  0.66702773  0.33565999  -0.00200082  1
  Cs  Cs22  1  0.66556299  0.33165521  0.32975033  1
  Cs  Cs23  1  0.66306160  0.33294105  0.67038654  1
  Cs  Cs24  1  0.66601962  0.66489559  0.00071818  1
  Cs  Cs25  1  0.66756528  0.67096166  0.33510856  1
  Cs  Cs26  1  0.66798271  0.66387016  0.66571139  1
  Sn  Sn27  1  0.16751837  0.16596347  0.16635448  1
  Sn  Sn28  1  0.83353782  0.16672516  0.50074944  1
  Sn  Sn29  1  0.83414938  0.16577546  0.83229144  1
  Sn  Sn30  1  0.49929353  0.83285769  0.50081937  1
  Sn  Sn31  1  0.49947079  0.49932563  0.16730392  1
  Sn  Sn32  1  0.16689017  0.83341362  0.49942072  1
  Sn  Sn33  1  0.16716993  0.49938452  0.83277519  1
  Sn  Sn34  1  0.16669114  0.83347564  0.83311651  1
  Sn  Sn35  1  0.49976026  0.50061767  0.49943949  1
  Sn  Sn36  1  0.49886724  0.16726571  0.16638339  1
  Sn  Sn37  1  0.16627287  0.16691659  0.83370342  1
  Sn  Sn38  1  0.50032860  0.83364904  0.83266630  1
  Sn  Sn39  1  0.83331258  0.83400872  0.83353882  1
  Sn  Sn40  1  0.16645817  0.83371644  0.16745762  1
  Pb  Pb41  1  0.83319613  0.83474093  0.50202514  1
  Pb  Pb42  1  0.16848816  0.49976493  0.16502482  1
  Pb  Pb43  1  0.49992197  0.16413445  0.83545089  1
  Pb  Pb44  1  0.83002943  0.50027346  0.16652874  1
  Pb  Pb45  1  0.83430992  0.16669843  0.16593966  1
  Pb  Pb46  1  0.50199091  0.16569548  0.49759630  1
  Pb  Pb47  1  0.83592324  0.49956441  0.83323886  1
  Pb  Pb48  1  0.49833492  0.83343349  0.16697706  1
  Pb  Pb49  1  0.16495633  0.16461724  0.49956193  1
  Pb  Pb50  1  0.16887318  0.50271312  0.50259240  1
  Pb  Pb51  1  0.83738223  0.83321770  0.16353458  1
  Pb  Pb52  1  0.83008265  0.49704573  0.50036268  1
  Pb  Pb53  1  0.49786626  0.50239263  0.83323449  1
  I  I54  1  0.17353118  0.00023233  0.16044159  1
  I  I55  1  0.17343071  -0.00355893  0.50525424  1
  I  I56  1  0.16578981  -0.00084020  0.83454450  1
  I  I57  1  0.16820299  0.33027503  0.16071126  1
  I  I58  1  0.16684666  0.33335385  0.50084554  1
  I  I59  1  0.16193804  0.33182235  0.83949046  1
  I  I60  1  0.16910494  0.66944393  0.16308553  1
  I  I61  1  0.16778265  0.67107858  0.50018850  1
  I  I62  1  0.16731911  0.66889798  0.83439264  1
  I  I63  1  0.49791585  0.00212615  0.16580094  1
  I  I64  1  0.49652794  -0.00322385  0.50368023  1
  I  I65  1  0.49489475  -0.00387692  0.82873135  1
  I  I66  1  0.49411382  0.33298745  0.17173712  1
  I  I67  1  0.50220791  0.33530684  0.49758738  1
  I  I68  1  0.49964907  0.33316934  0.83153321  1
  I  I69  1  0.49786276  0.66491150  0.16680947  1
  I  I70  1  0.49568563  0.66786173  0.49804140  1
  I  I71  1  0.49885735  0.67059000  0.83479908  1
  I  I72  1  0.82604635  0.00003351  0.16962160  1
  I  I73  1  0.83109947  0.00250211  0.50238197  1
  I  I74  1  0.83863162  0.00002512  0.82968359  1
  I  I75  1  0.83753496  0.33303138  0.16478147  1
  I  I76  1  0.83378262  0.32931819  0.50706576  1
  I  I77  1  0.83748470  0.32967378  0.83077432  1
  I  I78  1  0.83329911  0.66705540  0.16521602  1
  I  I79  1  0.83514188  0.66673810  0.50110457  1
  I  I80  1  0.83463815  0.66989047  0.83379903  1
  I  I81  1  0.16531233  0.16160364  -0.00112268  1
  I  I82  1  0.16940439  0.16107961  0.33033594  1
  I  I83  1  0.16447846  0.16497067  0.66980739  1
  I  I84  1  0.16948313  0.50568486  -0.00289444  1
  I  I85  1  0.16590568  0.49999695  0.33353119  1
  I  I86  1  0.16876757  0.49976204  0.67054023  1
  I  I87  1  0.16744520  0.83434707  -0.00149569  1
  I  I88  1  0.17460352  0.83972736  0.33331019  1
  I  I89  1  0.16779303  0.83335472  0.66817115  1
  I  I90  1  0.50016153  0.17089773  0.00320879  1
  I  I91  1  0.49537159  0.16598199  0.32985629  1
  I  I92  1  0.49827983  0.16916489  0.66678814  1
  I  I93  1  0.49820855  0.49746689  0.00219478  1
  I  I94  1  0.49833508  0.50224194  0.33337245  1
  I  I95  1  0.49870468  0.50309734  0.66428371  1
  I  I96  1  0.49845075  0.83362026  -0.00248093  1
  I  I97  1  0.49485274  0.83252289  0.33592252  1
  I  I98  1  0.49454568  0.82848509  0.66673514  1
  I  I99  1  0.83508693  0.16191322  -0.00331778  1
  I  I100  1  0.83156958  0.16580388  0.33535511  1
  I  I101  1  0.83844526  0.16202003  0.66857086  1
  I  I102  1  0.83057479  0.49840781  -0.00043469  1
  I  I103  1  0.83803424  0.49753757  0.33366234  1
  I  I104  1  0.83086999  0.50161197  0.66685103  1
  I  I105  1  0.83076025  0.84112570  -0.00483778  1
  I  I106  1  0.83227647  0.83591301  0.33344836  1
  I  I107  1  0.83843121  0.83579496  0.67022736  1
  I  I108  1  0.00353424  0.16051307  0.16390852  1
  I  I109  1  -0.00267977  0.16257149  0.50121438  1
  I  I110  1  0.00135017  0.16123663  0.83531563  1
  I  I111  1  0.00053244  0.49951136  0.16529035  1
  I  I112  1  0.00016490  0.50117772  0.50055253  1
  I  I113  1  0.00398062  0.50586384  0.83439794  1
  I  I114  1  0.00552452  0.84199145  0.16673384  1
  I  I115  1  0.00280247  0.83664299  0.50182477  1
  I  I116  1  0.00159065  0.83464240  0.83365421  1
  I  I117  1  0.33223881  0.16592185  0.16094575  1
  I  I118  1  0.33341109  0.16798287  0.50216693  1
  I  I119  1  0.33017728  0.16493512  0.83594278  1
  I  I120  1  0.33631208  0.49891345  0.16952929  1
  I  I121  1  0.33668737  0.50031602  0.49637769  1
  I  I122  1  0.33006620  0.50064082  0.83419459  1
  I  I123  1  0.33031489  0.83455030  0.16051894  1
  I  I124  1  0.33332476  0.83117333  0.50575373  1
  I  I125  1  0.33187838  0.83306296  0.83309964  1
  I  I126  1  0.66425815  0.17094261  0.16694242  1
  I  I127  1  0.66952404  0.16547729  0.50616543  1
  I  I128  1  0.66914511  0.16177888  0.83121832  1
  I  I129  1  0.66155136  0.49366000  0.16815396  1
  I  I130  1  0.66228253  0.50866216  0.49677755  1
  I  I131  1  0.66629202  0.50054173  0.83407690  1
  I  I132  1  0.66664116  0.83356418  0.16615798  1
  I  I133  1  0.66360802  0.83048988  0.50434834  1
  I  I134  1  0.66643415  0.83781302  0.82828564  1
