# generated using pymatgen
data_Cs27Sn13Pb14I81
_symmetry_space_group_name_H-M   'P 1'
_cell_length_a   18.97960905
_cell_length_b   18.97438831
_cell_length_c   18.97532515
_cell_angle_alpha   90.00159919
_cell_angle_beta   89.99903573
_cell_angle_gamma   89.99785238
_symmetry_Int_Tables_number   1
_chemical_formula_structural   Cs27Sn13Pb14I81
_chemical_formula_sum   'Cs27 Sn13 Pb14 I81'
_cell_volume   6833.51689463
_cell_formula_units_Z   1
loop_
 _symmetry_equiv_pos_site_id
 _symmetry_equiv_pos_as_xyz
  1  'x, y, z'
loop_
 _atom_site_type_symbol
 _atom_site_label
 _atom_site_symmetry_multiplicity
 _atom_site_fract_x
 _atom_site_fract_y
 _atom_site_fract_z
 _atom_site_occupancy
  Cs  Cs0  1  0.00275679  -0.00371115  -0.00083858  1
  Cs  Cs1  1  -0.00688768  -0.00057623  0.33541456  1
  Cs  Cs2  1  0.00303637  0.00368061  0.66501866  1
  Cs  Cs3  1  0.00099714  0.33750481  -0.00165067  1
  Cs  Cs4  1  0.00020260  0.33332292  0.33714003  1
  Cs  Cs5  1  0.00059404  0.33030343  0.66478556  1
  Cs  Cs6  1  -0.00195672  0.66465770  -0.00051053  1
  Cs  Cs7  1  0.00256290  0.66647379  0.33163326  1
  Cs  Cs8  1  -0.00420873  0.66624448  0.67169159  1
  Cs  Cs9  1  0.33169299  -0.00085443  -0.00080741  1
  Cs  Cs10  1  0.33289925  -0.00247314  0.32959595  1
  Cs  Cs11  1  0.33284711  -0.00019343  0.67128532  1
  Cs  Cs12  1  0.33535530  0.33317921  0.00102769  1
  Cs  Cs13  1  0.33373540  0.33532194  0.33397483  1
  Cs  Cs14  1  0.33334625  0.33247829  0.66403231  1
  Cs  Cs15  1  0.33284715  0.66622727  0.00245592  1
  Cs  Cs16  1  0.33220272  0.66605744  0.33368148  1
  Cs  Cs17  1  0.33747216  0.66903791  0.66203642  1
  Cs  Cs18  1  0.66774912  0.00302423  0.00308132  1
  Cs  Cs19  1  0.67641741  0.00324541  0.33373134  1
  Cs  Cs20  1  0.66494130  -0.00456145  0.66352209  1
  Cs  Cs21  1  0.66479393  0.33294326  -0.00196864  1
  Cs  Cs22  1  0.66650300  0.33085541  0.33298409  1
  Cs  Cs23  1  0.66541565  0.33398552  0.67047467  1
  Cs  Cs24  1  0.66923173  0.66457297  -0.00220479  1
  Cs  Cs25  1  0.66607338  0.66781987  0.33630797  1
  Cs  Cs26  1  0.66625419  0.67420714  0.66606425  1
  Sn  Sn27  1  0.49964977  0.16675793  0.50046887  1
  Sn  Sn28  1  0.16631363  0.16688583  0.16687970  1
  Sn  Sn29  1  0.83305999  0.50005208  0.49957000  1
  Sn  Sn30  1  0.50018896  0.50081042  0.16619357  1
  Sn  Sn31  1  0.16822860  0.50000145  0.83354354  1
  Sn  Sn32  1  0.83269247  0.16658316  0.83359232  1
  Sn  Sn33  1  0.16683524  0.49980717  0.16621608  1
  Sn  Sn34  1  0.83304348  0.49973434  0.16787737  1
  Sn  Sn35  1  0.50079146  0.16728383  0.83246046  1
  Sn  Sn36  1  0.49881416  0.49962276  0.83377568  1
  Sn  Sn37  1  0.49988267  0.83259245  0.16662112  1
  Sn  Sn38  1  0.16673267  0.83320211  0.49948359  1
  Sn  Sn39  1  0.16734878  0.83322107  0.16768475  1
  Pb  Pb40  1  0.83277332  0.49894486  0.83334139  1
  Pb  Pb41  1  0.83604499  0.83098904  0.49990431  1
  Pb  Pb42  1  0.49866892  0.16670821  0.16624788  1
  Pb  Pb43  1  0.83629366  0.16937791  0.16460452  1
  Pb  Pb44  1  0.49828459  0.83610390  0.49693297  1
  Pb  Pb45  1  0.16689062  0.83028740  0.83380643  1
  Pb  Pb46  1  0.83326702  0.83708568  0.83345922  1
  Pb  Pb47  1  0.50004044  0.83330925  0.83600098  1
  Pb  Pb48  1  0.16735788  0.16882496  0.83516719  1
  Pb  Pb49  1  0.83118364  0.16868657  0.50222946  1
  Pb  Pb50  1  0.16512429  0.50157017  0.50021910  1
  Pb  Pb51  1  0.16870460  0.16442621  0.49747310  1
  Pb  Pb52  1  0.83344049  0.83088106  0.16648571  1
  Pb  Pb53  1  0.50181400  0.49889280  0.50002277  1
  I  I54  1  0.17309346  -0.00086259  0.16958384  1
  I  I55  1  0.16722137  -0.00335437  0.49412328  1
  I  I56  1  0.16582909  0.00006541  0.83532083  1
  I  I57  1  0.16742418  0.33500961  0.16157753  1
  I  I58  1  0.16580050  0.33336351  0.49870331  1
  I  I59  1  0.16739870  0.33686604  0.83995400  1
  I  I60  1  0.16742021  0.66565600  0.16682711  1
  I  I61  1  0.16727933  0.66921745  0.49299636  1
  I  I62  1  0.17052117  0.66211176  0.83945020  1
  I  I63  1  0.49301284  -0.00209136  0.16609901  1
  I  I64  1  0.49897868  0.00367295  0.50594407  1
  I  I65  1  0.50413721  0.00322726  0.83102079  1
  I  I66  1  0.49850899  0.33643073  0.16537212  1
  I  I67  1  0.49970707  0.33098055  0.49907091  1
  I  I68  1  0.50017491  0.33415296  0.83664081  1
  I  I69  1  0.49510043  0.66486125  0.16234377  1
  I  I70  1  0.50081948  0.66683121  0.50221203  1
  I  I71  1  0.49586606  0.66316433  0.83615910  1
  I  I72  1  0.83302259  0.00029791  0.16510443  1
  I  I73  1  0.83322877  0.00020375  0.50133582  1
  I  I74  1  0.82727772  0.00504037  0.83401423  1
  I  I75  1  0.83234875  0.33756821  0.16907369  1
  I  I76  1  0.83554176  0.33640982  0.49492347  1
  I  I77  1  0.83151860  0.33137081  0.83453873  1
  I  I78  1  0.83771303  0.66238715  0.16801263  1
  I  I79  1  0.83191052  0.66293771  0.49664848  1
  I  I80  1  0.83409379  0.66620580  0.83330168  1
  I  I81  1  0.16907262  0.16322912  0.00325218  1
  I  I82  1  0.16960968  0.17311039  0.32944538  1
  I  I83  1  0.16473281  0.16653579  0.66676669  1
  I  I84  1  0.16482482  0.50133099  0.00188180  1
  I  I85  1  0.16897429  0.49903252  0.32980050  1
  I  I86  1  0.16889305  0.50086216  0.66948175  1
  I  I87  1  0.17043976  0.83502506  0.00378582  1
  I  I88  1  0.17121144  0.83026728  0.33089624  1
  I  I89  1  0.16557907  0.83178331  0.66422184  1
  I  I90  1  0.50240459  0.16892453  -0.00257429  1
  I  I91  1  0.49655212  0.16750633  0.33475219  1
  I  I92  1  0.50256132  0.17338394  0.66814815  1
  I  I93  1  0.50058395  0.49750032  0.00088229  1
  I  I94  1  0.49683600  0.50132439  0.32997161  1
  I  I95  1  0.49673327  0.49613864  0.66972993  1
  I  I96  1  0.49196674  0.83345564  0.00398720  1
  I  I97  1  0.49608733  0.82723939  0.32911142  1
  I  I98  1  0.49859820  0.83097218  0.66649582  1
  I  I99  1  0.82525678  0.17009962  -0.00282694  1
  I  I100  1  0.83219680  0.16629797  0.33320370  1
  I  I101  1  0.83360582  0.17169471  0.66996377  1
  I  I102  1  0.83445603  0.49885394  0.00268216  1
  I  I103  1  0.83438377  0.49961775  0.33160758  1
  I  I104  1  0.83496492  0.49765045  0.66483699  1
  I  I105  1  0.83619859  0.82998854  0.00034992  1
  I  I106  1  0.83120947  0.83600448  0.33305968  1
  I  I107  1  0.83512290  0.82793511  0.66648306  1
  I  I108  1  0.00417450  0.16601669  0.16493591  1
  I  I109  1  0.00003416  0.16637816  0.50126716  1
  I  I110  1  -0.00155857  0.16976451  0.83615101  1
  I  I111  1  0.00130220  0.49992911  0.16546272  1
  I  I112  1  -0.00266497  0.50029028  0.49589648  1
  I  I113  1  0.00205833  0.49909694  0.83740638  1
  I  I114  1  0.00357824  0.83270909  0.16974495  1
  I  I115  1  0.00381701  0.83371702  0.49127391  1
  I  I116  1  0.00039450  0.83166637  0.83607175  1
  I  I117  1  0.33074846  0.17077715  0.16482290  1
  I  I118  1  0.33633119  0.16907623  0.50664762  1
  I  I119  1  0.33638178  0.16931685  0.83135106  1
  I  I120  1  0.33305163  0.50051437  0.16183443  1
  I  I121  1  0.33344809  0.49973851  0.49824033  1
  I  I122  1  0.33412463  0.49428180  0.84221565  1
  I  I123  1  0.33230838  0.82838832  0.16980533  1
  I  I124  1  0.33047068  0.83085380  0.49649566  1
  I  I125  1  0.33337026  0.83822950  0.83198390  1
  I  I126  1  0.66670147  0.16635206  0.16817174  1
  I  I127  1  0.66334134  0.16720706  0.49908859  1
  I  I128  1  0.66502389  0.17458400  0.83166636  1
  I  I129  1  0.66552442  0.50401697  0.16547555  1
  I  I130  1  0.66951606  0.49806867  0.49521870  1
  I  I131  1  0.66363865  0.49656809  0.83796005  1
  I  I132  1  0.66362369  0.82915532  0.16496338  1
  I  I133  1  0.66654763  0.83361786  0.49913498  1
  I  I134  1  0.66636192  0.82678014  0.83474402  1
