# generated using pymatgen
data_Cs27Sn14Pb13I81
_symmetry_space_group_name_H-M   'P 1'
_cell_length_a   18.96446708
_cell_length_b   18.96438294
_cell_length_c   18.95439661
_cell_angle_alpha   90.00096625
_cell_angle_beta   90.00128114
_cell_angle_gamma   90.00093495
_symmetry_Int_Tables_number   1
_chemical_formula_structural   Cs27Sn14Pb13I81
_chemical_formula_sum   'Cs27 Sn14 Pb13 I81'
_cell_volume   6816.93767047
_cell_formula_units_Z   1
loop_
 _symmetry_equiv_pos_site_id
 _symmetry_equiv_pos_as_xyz
  1  'x, y, z'
loop_
 _atom_site_type_symbol
 _atom_site_label
 _atom_site_symmetry_multiplicity
 _atom_site_fract_x
 _atom_site_fract_y
 _atom_site_fract_z
 _atom_site_occupancy
  Cs  Cs0  1  0.00342973  0.00433096  -0.00080388  1
  Cs  Cs1  1  0.00254016  -0.00366801  0.32916517  1
  Cs  Cs2  1  -0.00114977  -0.00004561  0.66781527  1
  Cs  Cs3  1  -0.00179088  0.33025349  0.00296524  1
  Cs  Cs4  1  -0.00059859  0.33216455  0.33093064  1
  Cs  Cs5  1  0.00012910  0.33312894  0.66625525  1
  Cs  Cs6  1  -0.00365895  0.66450159  -0.00216330  1
  Cs  Cs7  1  0.00031945  0.67311969  0.33717713  1
  Cs  Cs8  1  0.00189320  0.66702370  0.66484658  1
  Cs  Cs9  1  0.33083389  -0.00156048  0.00226630  1
  Cs  Cs10  1  0.33271482  -0.00052761  0.32858109  1
  Cs  Cs11  1  0.33515603  0.00307305  0.66727325  1
  Cs  Cs12  1  0.33488856  0.33629817  0.00020228  1
  Cs  Cs13  1  0.33447916  0.33377824  0.33322148  1
  Cs  Cs14  1  0.33415041  0.33367985  0.66736419  1
  Cs  Cs15  1  0.33509380  0.66484082  -0.00021134  1
  Cs  Cs16  1  0.33301355  0.66649866  0.33382725  1
  Cs  Cs17  1  0.33087309  0.66368672  0.66677849  1
  Cs  Cs18  1  0.66660405  -0.00316512  -0.00077494  1
  Cs  Cs19  1  0.66576733  -0.00447606  0.33336708  1
  Cs  Cs20  1  0.66716442  0.00206447  0.66653182  1
  Cs  Cs21  1  0.66689052  0.33497825  0.00065483  1
  Cs  Cs22  1  0.66579393  0.33476778  0.33450008  1
  Cs  Cs23  1  0.66554165  0.33166137  0.66580111  1
  Cs  Cs24  1  0.66634362  0.66689177  0.00174442  1
  Cs  Cs25  1  0.66615237  0.66597838  0.33257077  1
  Cs  Cs26  1  0.66744857  0.66720151  0.66625467  1
  Sn  Sn27  1  0.83435672  0.16719078  0.50038860  1
  Sn  Sn28  1  0.50045257  0.16735208  0.16655880  1
  Sn  Sn29  1  0.83308840  0.49957821  0.83222432  1
  Sn  Sn30  1  0.83385315  0.16692354  0.83252785  1
  Sn  Sn31  1  0.16686783  0.50015463  0.16695319  1
  Sn  Sn32  1  0.16625322  0.16636646  0.83234683  1
  Sn  Sn33  1  0.49976816  0.83240736  0.50108189  1
  Sn  Sn34  1  0.83275042  0.49931043  0.50087971  1
  Sn  Sn35  1  0.49914083  0.49896941  0.16755054  1
  Sn  Sn36  1  0.49975528  0.83316063  0.83215676  1
  Sn  Sn37  1  0.83355769  0.83354792  0.83285147  1
  Sn  Sn38  1  0.16579300  0.16679460  0.50044016  1
  Sn  Sn39  1  0.16673071  0.83375329  0.83303380  1
  Sn  Sn40  1  0.50046776  0.50070362  0.49967560  1
  Pb  Pb41  1  0.16625282  0.49803611  0.49822674  1
  Pb  Pb42  1  0.83096638  0.16655412  0.16709199  1
  Pb  Pb43  1  0.83174548  0.83366153  0.50189210  1
  Pb  Pb44  1  0.16659006  0.83037228  0.16387768  1
  Pb  Pb45  1  0.16851134  0.16829769  0.16642141  1
  Pb  Pb46  1  0.50009550  0.16458659  0.83549980  1
  Pb  Pb47  1  0.16410416  0.49939461  0.83498080  1
  Pb  Pb48  1  0.49996811  0.83255442  0.16682301  1
  Pb  Pb49  1  0.50215616  0.50201645  0.83303682  1
  Pb  Pb50  1  0.83367218  0.83352542  0.16379256  1
  Pb  Pb51  1  0.83314250  0.50005376  0.16769221  1
  Pb  Pb52  1  0.50028697  0.16672671  0.49837325  1
  Pb  Pb53  1  0.16931266  0.83610746  0.50230955  1
  I  I54  1  0.16902719  0.00017679  0.16757236  1
  I  I55  1  0.16195482  0.00405759  0.50102826  1
  I  I56  1  0.16242577  0.00045874  0.83067676  1
  I  I57  1  0.16975638  0.33598952  0.16399543  1
  I  I58  1  0.16815538  0.33008309  0.50652941  1
  I  I59  1  0.16243602  0.33020691  0.83162526  1
  I  I60  1  0.17392964  0.66266207  0.16607226  1
  I  I61  1  0.16512546  0.66672700  0.49977517  1
  I  I62  1  0.16602469  0.66909564  0.83638234  1
  I  I63  1  0.50060855  0.00193996  0.16653259  1
  I  I64  1  0.50041367  -0.00207984  0.50269915  1
  I  I65  1  0.50445679  -0.00347405  0.82920418  1
  I  I66  1  0.49688271  0.33483736  0.17141767  1
  I  I67  1  0.50154677  0.33593708  0.49671074  1
  I  I68  1  0.49998217  0.33340870  0.83222936  1
  I  I69  1  0.49714524  0.66343020  0.16725475  1
  I  I70  1  0.50557333  0.66548386  0.49791892  1
  I  I71  1  0.49992752  0.67019643  0.83452322  1
  I  I72  1  0.82992508  0.00037897  0.16764230  1
  I  I73  1  0.83413266  0.00294635  0.50453230  1
  I  I74  1  0.83314804  0.00048878  0.82996495  1
  I  I75  1  0.83380292  0.33342524  0.16053578  1
  I  I76  1  0.83051827  0.33354433  0.50788946  1
  I  I77  1  0.83755814  0.33266652  0.83034332  1
  I  I78  1  0.83092532  0.66631618  0.16519613  1
  I  I79  1  0.83015482  0.66390761  0.50344063  1
  I  I80  1  0.83276557  0.66668101  0.83113718  1
  I  I81  1  0.16297052  0.16337043  -0.00322429  1
  I  I82  1  0.16384590  0.16956379  0.33586637  1
  I  I83  1  0.16379893  0.16399093  0.66758763  1
  I  I84  1  0.17256045  0.49915876  0.00267761  1
  I  I85  1  0.16767250  0.49642383  0.33050442  1
  I  I86  1  0.16926772  0.50115329  0.66671404  1
  I  I87  1  0.16871406  0.84038379  -0.00467816  1
  I  I88  1  0.16898579  0.83496232  0.33367698  1
  I  I89  1  0.16410981  0.83311831  0.67069532  1
  I  I90  1  0.49990478  0.17170744  0.00302464  1
  I  I91  1  0.49952483  0.16665692  0.33077145  1
  I  I92  1  0.49947200  0.16822996  0.66672564  1
  I  I93  1  0.49819981  0.49806733  0.00227220  1
  I  I94  1  0.50242458  0.50166554  0.33403132  1
  I  I95  1  0.50259676  0.50206146  0.66380114  1
  I  I96  1  0.50119054  0.83395760  -0.00313758  1
  I  I97  1  0.50111804  0.83293979  0.33618396  1
  I  I98  1  0.50087971  0.82889422  0.66719501  1
  I  I99  1  0.83665170  0.16668823  -0.00364735  1
  I  I100  1  0.83579878  0.17334819  0.33701770  1
  I  I101  1  0.83587619  0.16740011  0.66747364  1
  I  I102  1  0.83350218  0.50055875  -0.00287662  1
  I  I103  1  0.83116846  0.49395583  0.33697139  1
  I  I104  1  0.82798743  0.49911922  0.66644904  1
  I  I105  1  0.82909248  0.83242213  -0.00555662  1
  I  I106  1  0.83012147  0.83273933  0.33401334  1
  I  I107  1  0.83428133  0.83321850  0.67049004  1
  I  I108  1  0.00012346  0.16880754  0.16586332  1
  I  I109  1  -0.00096581  0.17281164  0.50446323  1
  I  I110  1  -0.00055357  0.16222498  0.83099392  1
  I  I111  1  0.00211882  0.49923611  0.16393801  1
  I  I112  1  -0.00308097  0.49771772  0.50289839  1
  I  I113  1  -0.00398121  0.50454199  0.82964170  1
  I  I114  1  0.00035261  0.83143188  0.16711160  1
  I  I115  1  0.00008418  0.83005441  0.50077216  1
  I  I116  1  -0.00050042  0.83405320  0.83509266  1
  I  I117  1  0.33634620  0.16875358  0.16715256  1
  I  I118  1  0.33123213  0.16630885  0.50340172  1
  I  I119  1  0.33058635  0.16197001  0.83064775  1
  I  I120  1  0.33506008  0.49618369  0.17049267  1
  I  I121  1  0.33605936  0.50201609  0.49712403  1
  I  I122  1  0.33338741  0.50062257  0.83241177  1
  I  I123  1  0.33350037  0.83547300  0.16335354  1
  I  I124  1  0.33725099  0.82861956  0.50551980  1
  I  I125  1  0.33332503  0.83820115  0.83045608  1
  I  I126  1  0.66315735  0.17330308  0.16633306  1
  I  I127  1  0.66939490  0.16787895  0.50413633  1
  I  I128  1  0.66978363  0.16588758  0.83006672  1
  I  I129  1  0.66369951  0.49699177  0.16736711  1
  I  I130  1  0.66661250  0.49802365  0.49842079  1
  I  I131  1  0.67038179  0.49895887  0.83443440  1
  I  I132  1  0.66630094  0.83213620  0.16347424  1
  I  I133  1  0.66364496  0.83439799  0.50544815  1
  I  I134  1  0.66699652  0.83356671  0.83030376  1
