# generated using pymatgen
data_Cs27Sn13Pb14I81
_symmetry_space_group_name_H-M   'P 1'
_cell_length_a   18.98287356
_cell_length_b   18.98359541
_cell_length_c   18.96980235
_cell_angle_alpha   89.99899282
_cell_angle_beta   90.00107674
_cell_angle_gamma   90.00018361
_symmetry_Int_Tables_number   1
_chemical_formula_structural   Cs27Sn13Pb14I81
_chemical_formula_sum   'Cs27 Sn13 Pb14 I81'
_cell_volume   6836.01851378
_cell_formula_units_Z   1
loop_
 _symmetry_equiv_pos_site_id
 _symmetry_equiv_pos_as_xyz
  1  'x, y, z'
loop_
 _atom_site_type_symbol
 _atom_site_label
 _atom_site_symmetry_multiplicity
 _atom_site_fract_x
 _atom_site_fract_y
 _atom_site_fract_z
 _atom_site_occupancy
  Cs  Cs0  1  -0.00006086  0.00133943  -0.00341959  1
  Cs  Cs1  1  -0.00093383  -0.00022740  0.33339647  1
  Cs  Cs2  1  0.00296635  -0.00211974  0.66950531  1
  Cs  Cs3  1  0.00247257  0.33339843  -0.00276453  1
  Cs  Cs4  1  -0.00139172  0.33318506  0.33350050  1
  Cs  Cs5  1  0.00064128  0.33350950  0.66702762  1
  Cs  Cs6  1  0.00385800  0.66513068  -0.00461739  1
  Cs  Cs7  1  0.00116535  0.66667599  0.33431249  1
  Cs  Cs8  1  -0.00388512  0.66959014  0.66765744  1
  Cs  Cs9  1  0.33210060  0.00178532  -0.00504061  1
  Cs  Cs10  1  0.33376919  -0.00219218  0.33297773  1
  Cs  Cs11  1  0.33171811  0.00307112  0.67483500  1
  Cs  Cs12  1  0.32978274  0.33292107  -0.00460203  1
  Cs  Cs13  1  0.33388397  0.33465931  0.33338409  1
  Cs  Cs14  1  0.33407072  0.32937451  0.67112791  1
  Cs  Cs15  1  0.32762629  0.66464766  -0.00222993  1
  Cs  Cs16  1  0.33390840  0.66650664  0.33291105  1
  Cs  Cs17  1  0.33524634  0.66958973  0.66673079  1
  Cs  Cs18  1  0.66818944  -0.00380487  0.00304789  1
  Cs  Cs19  1  0.66714717  0.00035929  0.33226619  1
  Cs  Cs20  1  0.66416836  0.00136856  0.66693321  1
  Cs  Cs21  1  0.66797378  0.33598391  0.00244138  1
  Cs  Cs22  1  0.66718877  0.33302049  0.33370208  1
  Cs  Cs23  1  0.66406460  0.33230597  0.66570021  1
  Cs  Cs24  1  0.66713438  0.66800023  -0.00246440  1
  Cs  Cs25  1  0.66559130  0.66626828  0.33314697  1
  Cs  Cs26  1  0.66877205  0.66615626  0.66917345  1
  Sn  Sn27  1  0.83302075  0.83197668  0.16769656  1
  Sn  Sn28  1  0.50092748  0.83280158  0.49918800  1
  Sn  Sn29  1  0.16749612  0.16661858  0.16809798  1
  Sn  Sn30  1  0.83241561  0.16692597  0.83316909  1
  Sn  Sn31  1  0.16694012  0.49915487  0.49944935  1
  Sn  Sn32  1  0.83312365  0.50058840  0.49890379  1
  Sn  Sn33  1  0.50002332  0.50061931  0.49924173  1
  Sn  Sn34  1  0.83221105  0.83273167  0.49870601  1
  Sn  Sn35  1  0.50048370  0.50032710  0.16721542  1
  Sn  Sn36  1  0.49899145  0.16685262  0.16725751  1
  Sn  Sn37  1  0.50043890  0.83277107  0.16738785  1
  Sn  Sn38  1  0.83291334  0.50117124  0.16747747  1
  Sn  Sn39  1  0.16676396  0.16720134  0.49867349  1
  Pb  Pb40  1  0.49797516  0.16632376  0.49823161  1
  Pb  Pb41  1  0.50027996  0.83310951  0.83347643  1
  Pb  Pb42  1  0.50271059  0.16678736  0.83692092  1
  Pb  Pb43  1  0.83302994  0.83505000  0.83336644  1
  Pb  Pb44  1  0.83520165  0.16637956  0.50159339  1
  Pb  Pb45  1  0.16476298  0.16686656  0.83333567  1
  Pb  Pb46  1  0.50021612  0.50011923  0.83342555  1
  Pb  Pb47  1  0.16663348  0.50000651  0.82937889  1
  Pb  Pb48  1  0.83331806  0.16681574  0.16559465  1
  Pb  Pb49  1  0.16707095  0.83314876  0.49984341  1
  Pb  Pb50  1  0.83309620  0.49828348  0.83337309  1
  Pb  Pb51  1  0.16666568  0.83303033  0.83341940  1
  Pb  Pb52  1  0.16665404  0.83559494  0.16673044  1
  Pb  Pb53  1  0.16658185  0.49820512  0.16844398  1
  I  I54  1  0.16922791  0.00381438  0.17292452  1
  I  I55  1  0.16540491  0.00268538  0.49674228  1
  I  I56  1  0.16535198  0.00061932  0.83059842  1
  I  I57  1  0.16944724  0.33024311  0.16908455  1
  I  I58  1  0.16555760  0.33394868  0.49549258  1
  I  I59  1  0.16515871  0.33313525  0.83527400  1
  I  I60  1  0.16868117  0.66645156  0.16769621  1
  I  I61  1  0.16637712  0.66351795  0.49985437  1
  I  I62  1  0.16561118  0.66628496  0.83380556  1
  I  I63  1  0.50133093  -0.00076363  0.17089870  1
  I  I64  1  0.50428033  -0.00296949  0.49513453  1
  I  I65  1  0.49998537  0.00010486  0.83168643  1
  I  I66  1  0.50166322  0.33429745  0.17102295  1
  I  I67  1  0.50300961  0.33638712  0.49568531  1
  I  I68  1  0.50067113  0.33325899  0.83203283  1
  I  I69  1  0.50567988  0.66645553  0.17176332  1
  I  I70  1  0.49818814  0.66600201  0.49266477  1
  I  I71  1  0.50056378  0.66663664  0.83668039  1
  I  I72  1  0.83024773  -0.00261554  0.16945035  1
  I  I73  1  0.83020149  -0.00319404  0.49646378  1
  I  I74  1  0.83486002  0.00261393  0.83458103  1
  I  I75  1  0.83000719  0.33615440  0.17008140  1
  I  I76  1  0.83121721  0.33658479  0.49664658  1
  I  I77  1  0.83463887  0.33075884  0.83452980  1
  I  I78  1  0.82579023  0.66642541  0.17059474  1
  I  I79  1  0.83544345  0.66603712  0.49691106  1
  I  I80  1  0.83393854  0.66666624  0.83303275  1
  I  I81  1  0.17006670  0.16573901  0.00306575  1
  I  I82  1  0.16845991  0.17016753  0.33330514  1
  I  I83  1  0.16490378  0.17049871  0.66364358  1
  I  I84  1  0.16620768  0.49788304  0.00034377  1
  I  I85  1  0.16625113  0.49738528  0.33671174  1
  I  I86  1  0.16622457  0.49259280  0.66073986  1
  I  I87  1  0.16602582  0.83641306  0.00064241  1
  I  I88  1  0.16565344  0.83415483  0.33344236  1
  I  I89  1  0.16604052  0.83637276  0.66583652  1
  I  I90  1  0.49316692  0.16650561  0.00538431  1
  I  I91  1  0.50033750  0.16688184  0.32989740  1
  I  I92  1  0.49842344  0.16648632  0.66651641  1
  I  I93  1  0.50585916  0.50002607  0.00431542  1
  I  I94  1  0.50078106  0.50029748  0.33335567  1
  I  I95  1  0.50080170  0.50437203  0.66236131  1
  I  I96  1  0.50523761  0.83395065  0.00425571  1
  I  I97  1  0.50417196  0.83275289  0.33296126  1
  I  I98  1  0.50392647  0.82799874  0.66268827  1
  I  I99  1  0.83478478  0.16642192  -0.00180634  1
  I  I100  1  0.83336014  0.16657413  0.33331555  1
  I  I101  1  0.83645117  0.16684256  0.66900975  1
  I  I102  1  0.82783816  0.50237372  0.00375474  1
  I  I103  1  0.83251385  0.50207980  0.33380860  1
  I  I104  1  0.83349866  0.50322784  0.66271496  1
  I  I105  1  0.82853283  0.83127693  0.00370984  1
  I  I106  1  0.82947461  0.83101876  0.33341418  1
  I  I107  1  0.83048761  0.82948938  0.66297398  1
  I  I108  1  0.00210070  0.16698854  0.16830500  1
  I  I109  1  0.00302622  0.17062662  0.49433410  1
  I  I110  1  -0.00254896  0.16620365  0.83621822  1
  I  I111  1  -0.00305352  0.50199678  0.17102940  1
  I  I112  1  -0.00104230  0.49935041  0.49599012  1
  I  I113  1  -0.00027070  0.49829767  0.83511237  1
  I  I114  1  -0.00360519  0.83098381  0.17145589  1
  I  I115  1  -0.00313426  0.83088381  0.49639936  1
  I  I116  1  -0.00065668  0.83543410  0.83258993  1
  I  I117  1  0.33405412  0.16664296  0.17140455  1
  I  I118  1  0.33011935  0.17070038  0.49812856  1
  I  I119  1  0.33340510  0.16604758  0.83178534  1
  I  I120  1  0.33657850  0.50226771  0.17117473  1
  I  I121  1  0.33446666  0.50044815  0.49511410  1
  I  I122  1  0.33340468  0.49819034  0.83538923  1
  I  I123  1  0.33712045  0.83093394  0.17213598  1
  I  I124  1  0.33681376  0.82965554  0.49460162  1
  I  I125  1  0.33374622  0.83568694  0.83219103  1
  I  I126  1  0.66405091  0.16661073  0.16443299  1
  I  I127  1  0.66657939  0.16894690  0.50032979  1
  I  I128  1  0.66983205  0.16675069  0.83272714  1
  I  I129  1  0.66638395  0.49708310  0.17371148  1
  I  I130  1  0.66672370  0.50386301  0.49631016  1
  I  I131  1  0.66677728  0.49744579  0.82926455  1
  I  I132  1  0.66642232  0.83619806  0.17038499  1
  I  I133  1  0.66681104  0.82673627  0.49624186  1
  I  I134  1  0.66676469  0.83573693  0.83330474  1
