# generated using pymatgen
data_Cs27Sn14Pb13I81
_symmetry_space_group_name_H-M   'P 1'
_cell_length_a   18.97953667
_cell_length_b   18.97584157
_cell_length_c   18.97008386
_cell_angle_alpha   89.99836130
_cell_angle_beta   90.00281286
_cell_angle_gamma   89.99626653
_symmetry_Int_Tables_number   1
_chemical_formula_structural   Cs27Sn14Pb13I81
_chemical_formula_sum   'Cs27 Sn14 Pb13 I81'
_cell_volume   6832.12653393
_cell_formula_units_Z   1
loop_
 _symmetry_equiv_pos_site_id
 _symmetry_equiv_pos_as_xyz
  1  'x, y, z'
loop_
 _atom_site_type_symbol
 _atom_site_label
 _atom_site_symmetry_multiplicity
 _atom_site_fract_x
 _atom_site_fract_y
 _atom_site_fract_z
 _atom_site_occupancy
  Cs  Cs0  1  0.00033923  0.00013515  -0.00050490  1
  Cs  Cs1  1  0.00030005  0.00186426  0.33355009  1
  Cs  Cs2  1  -0.00027061  0.00008713  0.66726437  1
  Cs  Cs3  1  0.00276662  0.32995184  0.00309413  1
  Cs  Cs4  1  -0.00044343  0.33279291  0.33293655  1
  Cs  Cs5  1  -0.00321437  0.33358121  0.66106611  1
  Cs  Cs6  1  -0.00009715  0.66894074  -0.00044300  1
  Cs  Cs7  1  0.00296819  0.66462597  0.33672495  1
  Cs  Cs8  1  -0.00172847  0.66518192  0.66338230  1
  Cs  Cs9  1  0.33091331  0.00046915  -0.00177928  1
  Cs  Cs10  1  0.33484977  -0.00280223  0.33537610  1
  Cs  Cs11  1  0.33652975  0.00038039  0.66722209  1
  Cs  Cs12  1  0.33246517  0.33377854  -0.00007004  1
  Cs  Cs13  1  0.33252831  0.33616450  0.33032199  1
  Cs  Cs14  1  0.33747683  0.33055249  0.67359335  1
  Cs  Cs15  1  0.33280000  0.66626398  0.00001532  1
  Cs  Cs16  1  0.33330311  0.66715410  0.33627288  1
  Cs  Cs17  1  0.33140066  0.66890394  0.66480674  1
  Cs  Cs18  1  0.67261615  -0.00541170  0.00262798  1
  Cs  Cs19  1  0.66373549  -0.00232436  0.33671325  1
  Cs  Cs20  1  0.66598211  0.00296030  0.66011313  1
  Cs  Cs21  1  0.66500998  0.33548785  0.00029252  1
  Cs  Cs22  1  0.66726831  0.33187233  0.33403520  1
  Cs  Cs23  1  0.66565485  0.33422225  0.66496247  1
  Cs  Cs24  1  0.66949164  0.66971836  -0.00361514  1
  Cs  Cs25  1  0.66124550  0.67024751  0.33034877  1
  Cs  Cs26  1  0.67193270  0.66235052  0.67485725  1
  Sn  Sn27  1  0.83336477  0.49962659  0.16664924  1
  Sn  Sn28  1  0.83302002  0.16733913  0.16581952  1
  Sn  Sn29  1  0.49977192  0.49995540  0.49970125  1
  Sn  Sn30  1  0.16718029  0.16689791  0.49931832  1
  Sn  Sn31  1  0.83349439  0.83300646  0.49961405  1
  Sn  Sn32  1  0.50003728  0.49940300  0.16730351  1
  Sn  Sn33  1  0.16741835  0.83241659  0.83398639  1
  Sn  Sn34  1  0.16655230  0.50039652  0.16596710  1
  Sn  Sn35  1  0.49994737  0.16684497  0.16630068  1
  Sn  Sn36  1  0.16631924  0.50068104  0.83388965  1
  Sn  Sn37  1  0.49941211  0.83356925  0.83366305  1
  Sn  Sn38  1  0.83318795  0.16708888  0.83397435  1
  Sn  Sn39  1  0.16706695  0.16639880  0.16768468  1
  Sn  Sn40  1  0.16680144  0.83321830  0.16632787  1
  Pb  Pb41  1  0.50214519  0.83075932  0.50276394  1
  Pb  Pb42  1  0.49749096  0.83305435  0.16510571  1
  Pb  Pb43  1  0.83420439  0.83529046  0.83147789  1
  Pb  Pb44  1  0.16844231  0.49776638  0.50013435  1
  Pb  Pb45  1  0.16563625  0.83519306  0.50040538  1
  Pb  Pb46  1  0.83590858  0.83339584  0.16835392  1
  Pb  Pb47  1  0.50280210  0.16444653  0.83638895  1
  Pb  Pb48  1  0.83476570  0.16560363  0.49896341  1
  Pb  Pb49  1  0.83090797  0.50191047  0.49692358  1
  Pb  Pb50  1  0.83625748  0.49751263  0.83586348  1
  Pb  Pb51  1  0.49752609  0.16873733  0.49747902  1
  Pb  Pb52  1  0.16534412  0.16668498  0.83363193  1
  Pb  Pb53  1  0.49797412  0.50151042  0.83433031  1
  I  I54  1  0.16582189  0.00076529  0.16620508  1
  I  I55  1  0.16511097  0.00295409  0.49448995  1
  I  I56  1  0.16792024  -0.00247381  0.83692970  1
  I  I57  1  0.16643556  0.33344602  0.16636972  1
  I  I58  1  0.16472554  0.33016354  0.49457906  1
  I  I59  1  0.16561397  0.33562046  0.83753342  1
  I  I60  1  0.16636819  0.66588966  0.16173790  1
  I  I61  1  0.16627241  0.66648376  0.49755033  1
  I  I62  1  0.16975713  0.66703299  0.84201484  1
  I  I63  1  0.50005726  0.00263220  0.16411022  1
  I  I64  1  0.50048983  0.00002848  0.49945460  1
  I  I65  1  0.49153790  -0.00307287  0.83440321  1
  I  I66  1  0.49589426  0.33381446  0.16946667  1
  I  I67  1  0.50031797  0.33646860  0.49882809  1
  I  I68  1  0.49885209  0.33334407  0.83122191  1
  I  I69  1  0.49980440  0.66353166  0.16921673  1
  I  I70  1  0.49818597  0.66338982  0.49031889  1
  I  I71  1  0.49891885  0.66936874  0.83553633  1
  I  I72  1  0.83423618  0.00301889  0.16407242  1
  I  I73  1  0.83459995  -0.00207077  0.49861309  1
  I  I74  1  0.83636210  0.00285094  0.84113566  1
  I  I75  1  0.83810043  0.33271682  0.16352745  1
  I  I76  1  0.83378355  0.33347675  0.50229933  1
  I  I77  1  0.83536901  0.32987022  0.83464392  1
  I  I78  1  0.83325208  0.66388922  0.16905734  1
  I  I79  1  0.83585367  0.66928698  0.50043669  1
  I  I80  1  0.83172039  0.66651014  0.83338182  1
  I  I81  1  0.16759321  0.16699592  0.00349739  1
  I  I82  1  0.16362860  0.16667398  0.33025843  1
  I  I83  1  0.16281851  0.16643693  0.66497091  1
  I  I84  1  0.16893075  0.49830320  0.00220919  1
  I  I85  1  0.16505757  0.50188552  0.32963311  1
  I  I86  1  0.16905730  0.50351440  0.66927454  1
  I  I87  1  0.16901176  0.83489491  0.00055224  1
  I  I88  1  0.16429743  0.83127153  0.33042331  1
  I  I89  1  0.16839647  0.83048363  0.66977907  1
  I  I90  1  0.49291245  0.17429832  0.00441318  1
  I  I91  1  0.50492036  0.16687539  0.32907345  1
  I  I92  1  0.49972800  0.16765711  0.66678751  1
  I  I93  1  0.50042577  0.49653470  0.00370006  1
  I  I94  1  0.49767531  0.49698609  0.33073125  1
  I  I95  1  0.49728906  0.50284267  0.66498270  1
  I  I96  1  0.49896481  0.83165252  -0.00255315  1
  I  I97  1  0.49978143  0.83493739  0.33315074  1
  I  I98  1  0.49205374  0.83246544  0.67024874  1
  I  I99  1  0.83695689  0.16834843  0.00241774  1
  I  I100  1  0.83334169  0.16969418  0.32948360  1
  I  I101  1  0.83775878  0.16273016  0.66842698  1
  I  I102  1  0.82826456  0.50006037  0.00413298  1
  I  I103  1  0.84018372  0.49282750  0.32883965  1
  I  I104  1  0.83308243  0.49919105  0.66673833  1
  I  I105  1  0.83202596  0.83244419  0.00016610  1
  I  I106  1  0.83543496  0.83552677  0.33553644  1
  I  I107  1  0.83518821  0.83610854  0.66415873  1
  I  I108  1  0.00061204  0.16901337  0.16645361  1
  I  I109  1  0.00262511  0.16693834  0.49412575  1
  I  I110  1  -0.00221316  0.16449076  0.83986151  1
  I  I111  1  0.00098494  0.49711977  0.16195265  1
  I  I112  1  0.00004202  0.50009873  0.49990483  1
  I  I113  1  0.00410993  0.50657468  0.83825641  1
  I  I114  1  0.00401770  0.83410656  0.16050155  1
  I  I115  1  -0.00194723  0.83396379  0.50107040  1
  I  I116  1  0.00322283  0.83156752  0.83692338  1
  I  I117  1  0.33240490  0.16959600  0.17119410  1
  I  I118  1  0.32975567  0.16526102  0.49504063  1
  I  I119  1  0.33336577  0.16769389  0.83313600  1
  I  I120  1  0.33268802  0.49687926  0.16643753  1
  I  I121  1  0.33590253  0.50026198  0.49237148  1
  I  I122  1  0.33001954  0.49978044  0.83957853  1
  I  I123  1  0.32927250  0.83397754  0.16570718  1
  I  I124  1  0.33340217  0.83385126  0.49873806  1
  I  I125  1  0.33155071  0.83045561  0.83751140  1
  I  I126  1  0.66706084  0.17388741  0.16142701  1
  I  I127  1  0.66642881  0.16540780  0.50005130  1
  I  I128  1  0.67036439  0.16456268  0.83843003  1
  I  I129  1  0.66631240  0.49246370  0.17188403  1
  I  I130  1  0.66323131  0.49986252  0.49488236  1
  I  I131  1  0.66679951  0.50206358  0.83382999  1
  I  I132  1  0.66663848  0.83337055  0.16579398  1
  I  I133  1  0.66947643  0.83595253  0.49929695  1
  I  I134  1  0.66492700  0.83436423  0.83228509  1
