# generated using pymatgen
data_Cs27Sn13Pb14I81
_symmetry_space_group_name_H-M   'P 1'
_cell_length_a   18.97036998
_cell_length_b   18.98008815
_cell_length_c   18.97912348
_cell_angle_alpha   89.99963581
_cell_angle_beta   89.99711606
_cell_angle_gamma   90.00233139
_symmetry_Int_Tables_number   1
_chemical_formula_structural   Cs27Sn13Pb14I81
_chemical_formula_sum   'Cs27 Sn13 Pb14 I81'
_cell_volume   6833.60979485
_cell_formula_units_Z   1
loop_
 _symmetry_equiv_pos_site_id
 _symmetry_equiv_pos_as_xyz
  1  'x, y, z'
loop_
 _atom_site_type_symbol
 _atom_site_label
 _atom_site_symmetry_multiplicity
 _atom_site_fract_x
 _atom_site_fract_y
 _atom_site_fract_z
 _atom_site_occupancy
  Cs  Cs0  1  -0.00679878  0.00134390  0.00599513  1
  Cs  Cs1  1  0.00106727  0.00383499  0.32289111  1
  Cs  Cs2  1  0.00396478  -0.00077065  0.66873915  1
  Cs  Cs3  1  -0.00057598  0.33492241  0.00267433  1
  Cs  Cs4  1  0.00076687  0.32807236  0.33331189  1
  Cs  Cs5  1  0.00217435  0.33499127  0.66494902  1
  Cs  Cs6  1  0.00166671  0.66605312  0.00256439  1
  Cs  Cs7  1  -0.00396804  0.66885684  0.33337992  1
  Cs  Cs8  1  -0.00209073  0.66595462  0.66597867  1
  Cs  Cs9  1  0.33439318  -0.00264678  -0.00255183  1
  Cs  Cs10  1  0.33406036  -0.00000044  0.33503787  1
  Cs  Cs11  1  0.33313662  -0.00096834  0.66589267  1
  Cs  Cs12  1  0.33422936  0.34514712  -0.00362977  1
  Cs  Cs13  1  0.33258358  0.33133710  0.33337531  1
  Cs  Cs14  1  0.33202032  0.33270569  0.66821654  1
  Cs  Cs15  1  0.33138045  0.66159067  0.00020821  1
  Cs  Cs16  1  0.33524674  0.66787776  0.33256128  1
  Cs  Cs17  1  0.33253355  0.66905886  0.66712902  1
  Cs  Cs18  1  0.67161473  0.00338006  -0.00193023  1
  Cs  Cs19  1  0.66379851  0.00043137  0.33259969  1
  Cs  Cs20  1  0.66693965  0.00047445  0.66963177  1
  Cs  Cs21  1  0.66645856  0.33292150  -0.00269860  1
  Cs  Cs22  1  0.66636376  0.33422544  0.33507829  1
  Cs  Cs23  1  0.66655257  0.33176430  0.66716226  1
  Cs  Cs24  1  0.66697571  0.66424090  0.00066893  1
  Cs  Cs25  1  0.66681590  0.66533067  0.33670600  1
  Cs  Cs26  1  0.67054653  0.66825687  0.66231601  1
  Sn  Sn27  1  0.49964185  0.83330016  0.83333854  1
  Sn  Sn28  1  0.16709557  0.83265369  0.50034809  1
  Sn  Sn29  1  0.49989188  0.83406478  0.16640868  1
  Sn  Sn30  1  0.83325378  0.50009820  0.83404013  1
  Sn  Sn31  1  0.16752595  0.50106961  0.49988375  1
  Sn  Sn32  1  0.83293941  0.16586903  0.50039953  1
  Sn  Sn33  1  0.49894960  0.49989337  0.50029742  1
  Sn  Sn34  1  0.16723957  0.83444994  0.83287002  1
  Sn  Sn35  1  0.49942536  0.83348810  0.50024294  1
  Sn  Sn36  1  0.16687508  0.16584825  0.83389045  1
  Sn  Sn37  1  0.50088355  0.16645584  0.49963199  1
  Sn  Sn38  1  0.49938826  0.16638071  0.16663600  1
  Sn  Sn39  1  0.83304219  0.49998505  0.16604400  1
  Pb  Pb40  1  0.50188768  0.50287988  0.83037081  1
  Pb  Pb41  1  0.50130152  0.49991300  0.16887227  1
  Pb  Pb42  1  0.83583142  0.16852758  0.83134312  1
  Pb  Pb43  1  0.83019111  0.83137128  0.16673411  1
  Pb  Pb44  1  0.83404395  0.83642752  0.49991367  1
  Pb  Pb45  1  0.16432965  0.50010389  0.17018095  1
  Pb  Pb46  1  0.83358776  0.49834660  0.49982917  1
  Pb  Pb47  1  0.16489513  0.50092739  0.83135347  1
  Pb  Pb48  1  0.17018976  0.16675483  0.16302916  1
  Pb  Pb49  1  0.83395438  0.83161993  0.83324320  1
  Pb  Pb50  1  0.16731328  0.16582730  0.50089431  1
  Pb  Pb51  1  0.16899473  0.83340975  0.16660695  1
  Pb  Pb52  1  0.49831378  0.16486584  0.83331052  1
  Pb  Pb53  1  0.83064388  0.16866626  0.16859566  1
  I  I54  1  0.16400848  0.00007581  0.17220949  1
  I  I55  1  0.17083068  -0.00307870  0.50367871  1
  I  I56  1  0.17125401  -0.00154016  0.82482462  1
  I  I57  1  0.16898220  0.33335788  0.16706597  1
  I  I58  1  0.16885724  0.33508989  0.50234175  1
  I  I59  1  0.16507065  0.33182354  0.83021911  1
  I  I60  1  0.16891314  0.66673484  0.16253052  1
  I  I61  1  0.17398368  0.66751607  0.50567325  1
  I  I62  1  0.16995662  0.66994908  0.83044013  1
  I  I63  1  0.49956156  -0.00053754  0.17330897  1
  I  I64  1  0.49978756  -0.00069486  0.49903757  1
  I  I65  1  0.49850506  -0.00340410  0.82833212  1
  I  I66  1  0.50198915  0.33081359  0.17293825  1
  I  I67  1  0.50066476  0.33294965  0.49487389  1
  I  I68  1  0.49878258  0.33353328  0.83320977  1
  I  I69  1  0.50166449  0.66951093  0.16824277  1
  I  I70  1  0.49636871  0.66751745  0.49980085  1
  I  I71  1  0.49348593  0.67094388  0.83451569  1
  I  I72  1  0.83461097  0.00033252  0.16832565  1
  I  I73  1  0.82777736  0.00394777  0.50090740  1
  I  I74  1  0.83180601  0.00006966  0.83150568  1
  I  I75  1  0.83064449  0.33628188  0.16399490  1
  I  I76  1  0.82893979  0.33081959  0.50019958  1
  I  I77  1  0.83431725  0.33636142  0.83542185  1
  I  I78  1  0.83160279  0.66346451  0.16487322  1
  I  I79  1  0.83089206  0.66664946  0.49991815  1
  I  I80  1  0.83390492  0.66364534  0.83441024  1
  I  I81  1  0.16623423  0.15977340  -0.00456264  1
  I  I82  1  0.16391869  0.16720991  0.33333204  1
  I  I83  1  0.16860585  0.16558269  0.66864766  1
  I  I84  1  0.16683729  0.49973914  -0.00013084  1
  I  I85  1  0.16909315  0.50493784  0.33830761  1
  I  I86  1  0.16773437  0.50074758  0.66339174  1
  I  I87  1  0.17117562  0.83648632  -0.00339666  1
  I  I88  1  0.17082108  0.82907574  0.33678959  1
  I  I89  1  0.17494275  0.83339043  0.66606348  1
  I  I90  1  0.49857132  0.16132779  0.00244795  1
  I  I91  1  0.50338749  0.16253495  0.33507008  1
  I  I92  1  0.50232533  0.16638314  0.66348270  1
  I  I93  1  0.50033002  0.49975527  -0.00019169  1
  I  I94  1  0.50024128  0.50415311  0.33712158  1
  I  I95  1  0.49931488  0.49831805  0.66220719  1
  I  I96  1  0.49684129  0.83787046  -0.00021284  1
  I  I97  1  0.49701192  0.83375110  0.33483137  1
  I  I98  1  0.49604737  0.83308069  0.66549317  1
  I  I99  1  0.83276946  0.16680735  0.00005337  1
  I  I100  1  0.83311505  0.17003667  0.33661377  1
  I  I101  1  0.82556138  0.17005556  0.66356643  1
  I  I102  1  0.83249606  0.50029097  -0.00016757  1
  I  I103  1  0.83200455  0.49864264  0.33172104  1
  I  I104  1  0.83351071  0.49892660  0.66809425  1
  I  I105  1  0.83281196  0.83464222  -0.00006584  1
  I  I106  1  0.83369978  0.82915776  0.33355339  1
  I  I107  1  0.82809337  0.82965748  0.66643021  1
  I  I108  1  -0.00007215  0.16793155  0.16897575  1
  I  I109  1  -0.00151691  0.16985744  0.50328545  1
  I  I110  1  0.00355797  0.16029987  0.82886231  1
  I  I111  1  -0.00353535  0.49961666  0.16435676  1
  I  I112  1  0.00253940  0.50289239  0.50117842  1
  I  I113  1  -0.00275223  0.50104792  0.83332336  1
  I  I114  1  0.00002640  0.83220518  0.16721816  1
  I  I115  1  0.00363815  0.82805375  0.50683684  1
  I  I116  1  0.00370450  0.83487870  0.82601757  1
  I  I117  1  0.33787752  0.16315559  0.17689255  1
  I  I118  1  0.33664016  0.16670358  0.49748961  1
  I  I119  1  0.33055722  0.16545941  0.82962820  1
  I  I120  1  0.33365109  0.49974238  0.16590904  1
  I  I121  1  0.33420173  0.49883622  0.50038021  1
  I  I122  1  0.33336298  0.49801083  0.83374287  1
  I  I123  1  0.33745724  0.83573429  0.16853056  1
  I  I124  1  0.33472380  0.83408916  0.50086835  1
  I  I125  1  0.33361554  0.83682586  0.83090867  1
  I  I126  1  0.66275176  0.16219754  0.16867818  1
  I  I127  1  0.66439692  0.16833419  0.49719316  1
  I  I128  1  0.66644766  0.16612082  0.83395717  1
  I  I129  1  0.66906281  0.50059232  0.16580244  1
  I  I130  1  0.66393188  0.50266031  0.49973286  1
  I  I131  1  0.66941373  0.50046807  0.83435519  1
  I  I132  1  0.66173239  0.83686070  0.16827122  1
  I  I133  1  0.66305317  0.82981592  0.50046827  1
  I  I134  1  0.66338761  0.83155799  0.83128028  1
