# generated using pymatgen
data_Cs27Sn14Pb13I81
_symmetry_space_group_name_H-M   'P 1'
_cell_length_a   18.96145870
_cell_length_b   18.95860646
_cell_length_c   18.96148567
_cell_angle_alpha   90.00181769
_cell_angle_beta   90.00240219
_cell_angle_gamma   90.00030356
_symmetry_Int_Tables_number   1
_chemical_formula_structural   Cs27Sn14Pb13I81
_chemical_formula_sum   'Cs27 Sn14 Pb13 I81'
_cell_volume   6816.32858537
_cell_formula_units_Z   1
loop_
 _symmetry_equiv_pos_site_id
 _symmetry_equiv_pos_as_xyz
  1  'x, y, z'
loop_
 _atom_site_type_symbol
 _atom_site_label
 _atom_site_symmetry_multiplicity
 _atom_site_fract_x
 _atom_site_fract_y
 _atom_site_fract_z
 _atom_site_occupancy
  Cs  Cs0  1  -0.00063706  -0.00118375  -0.00013748  1
  Cs  Cs1  1  0.00119873  -0.00088844  0.33299998  1
  Cs  Cs2  1  0.00007243  0.00226320  0.66808460  1
  Cs  Cs3  1  0.00198683  0.33424969  -0.00130748  1
  Cs  Cs4  1  -0.00032291  0.33553749  0.33523134  1
  Cs  Cs5  1  -0.00282007  0.32626645  0.66505225  1
  Cs  Cs6  1  -0.00051681  0.66693241  0.00071739  1
  Cs  Cs7  1  0.00031743  0.66706320  0.33160984  1
  Cs  Cs8  1  0.00062031  0.66943146  0.66771774  1
  Cs  Cs9  1  0.33475110  0.00008084  0.00122410  1
  Cs  Cs10  1  0.33286156  0.00080867  0.33404045  1
  Cs  Cs11  1  0.33265766  -0.00021544  0.66570216  1
  Cs  Cs12  1  0.33606570  0.34176559  -0.00001165  1
  Cs  Cs13  1  0.33252049  0.32915370  0.33010907  1
  Cs  Cs14  1  0.33299768  0.33354579  0.66862841  1
  Cs  Cs15  1  0.33123185  0.66089641  -0.00387846  1
  Cs  Cs16  1  0.33174560  0.66737996  0.33754261  1
  Cs  Cs17  1  0.33574169  0.66408924  0.66664615  1
  Cs  Cs18  1  0.66643948  -0.00063988  0.00088769  1
  Cs  Cs19  1  0.66547467  -0.00120884  0.33060128  1
  Cs  Cs20  1  0.66667956  0.00036503  0.66736794  1
  Cs  Cs21  1  0.66152769  0.33525340  0.00276981  1
  Cs  Cs22  1  0.66761798  0.34002877  0.33230500  1
  Cs  Cs23  1  0.67021357  0.33386731  0.66544518  1
  Cs  Cs24  1  0.66949759  0.66890841  -0.00236802  1
  Cs  Cs25  1  0.66740207  0.66421908  0.33740677  1
  Cs  Cs26  1  0.66386444  0.66624169  0.66731800  1
  Sn  Sn27  1  0.49979673  0.16633590  0.50062217  1
  Sn  Sn28  1  0.16571419  0.16581447  0.16705815  1
  Sn  Sn29  1  0.16740411  0.16653158  0.49931994  1
  Sn  Sn30  1  0.16709486  0.83414910  0.16719046  1
  Sn  Sn31  1  0.16654099  0.49983168  0.50011866  1
  Sn  Sn32  1  0.49967181  0.83341940  0.16593543  1
  Sn  Sn33  1  0.49986565  0.16575447  0.83255614  1
  Sn  Sn34  1  0.16582967  0.83343860  0.49948909  1
  Sn  Sn35  1  0.83394243  0.83384635  0.49996669  1
  Sn  Sn36  1  0.83411521  0.16616469  0.16681565  1
  Sn  Sn37  1  0.83363423  0.50046739  0.83333569  1
  Sn  Sn38  1  0.50048320  0.83433893  0.83408590  1
  Sn  Sn39  1  0.83265517  0.83285350  0.83321206  1
  Sn  Sn40  1  0.83321229  0.83405536  0.16689393  1
  Pb  Pb41  1  0.49980311  0.83478500  0.50016609  1
  Pb  Pb42  1  0.50215459  0.50033615  0.83312481  1
  Pb  Pb43  1  0.16377736  0.49985413  0.83051529  1
  Pb  Pb44  1  0.83351972  0.50034706  0.16480281  1
  Pb  Pb45  1  0.83545172  0.50281447  0.50211415  1
  Pb  Pb46  1  0.16691211  0.83347607  0.83354658  1
  Pb  Pb47  1  0.83113630  0.16611058  0.83601819  1
  Pb  Pb48  1  0.16653775  0.50007222  0.16860236  1
  Pb  Pb49  1  0.16925569  0.16658716  0.83418110  1
  Pb  Pb50  1  0.83331464  0.16462029  0.49765080  1
  Pb  Pb51  1  0.49969396  0.16525759  0.16673130  1
  Pb  Pb52  1  0.49997176  0.50431542  0.16689233  1
  Pb  Pb53  1  0.49765157  0.49640576  0.49999232  1
  I  I54  1  0.16562479  -0.00098668  0.17456013  1
  I  I55  1  0.16718815  -0.00022930  0.49566107  1
  I  I56  1  0.16271840  -0.00012421  0.82849553  1
  I  I57  1  0.16231682  0.32979330  0.17079322  1
  I  I58  1  0.17166920  0.33177772  0.49659917  1
  I  I59  1  0.16639895  0.33309071  0.83364508  1
  I  I60  1  0.16564539  0.67050174  0.17025967  1
  I  I61  1  0.16169287  0.66845707  0.49611227  1
  I  I62  1  0.17070086  0.66702854  0.83302522  1
  I  I63  1  0.50064610  -0.00317583  0.16534442  1
  I  I64  1  0.49417675  0.00252217  0.50118054  1
  I  I65  1  0.50562513  -0.00124791  0.83334970  1
  I  I66  1  0.50001799  0.33302988  0.16591579  1
  I  I67  1  0.49601538  0.32814313  0.50537293  1
  I  I68  1  0.50050772  0.33045139  0.82936743  1
  I  I69  1  0.50064551  0.67279079  0.16078670  1
  I  I70  1  0.49912855  0.66696866  0.50003082  1
  I  I71  1  0.50200960  0.67023344  0.83766837  1
  I  I72  1  0.83439814  -0.00194090  0.16463400  1
  I  I73  1  0.83822154  -0.00383108  0.50458887  1
  I  I74  1  0.83108230  -0.00339703  0.83254486  1
  I  I75  1  0.83778977  0.33028537  0.16533449  1
  I  I76  1  0.83400500  0.33312584  0.50077396  1
  I  I77  1  0.83272811  0.33505696  0.83425890  1
  I  I78  1  0.83405919  0.67081399  0.16797144  1
  I  I79  1  0.83738867  0.67136944  0.49477369  1
  I  I80  1  0.82849447  0.66960883  0.83465505  1
  I  I81  1  0.16330563  0.15984173  0.00372518  1
  I  I82  1  0.16928435  0.16516487  0.33396643  1
  I  I83  1  0.16848485  0.16552067  0.66338450  1
  I  I84  1  0.16697216  0.49997450  -0.00005963  1
  I  I85  1  0.16523338  0.50100183  0.33661727  1
  I  I86  1  0.16709130  0.50152440  0.66244844  1
  I  I87  1  0.16441096  0.83867610  0.00345747  1
  I  I88  1  0.16417486  0.83390698  0.33343504  1
  I  I89  1  0.16356052  0.83447395  0.66328530  1
  I  I90  1  0.50152505  0.16330040  -0.00210608  1
  I  I91  1  0.49725000  0.16390775  0.33551730  1
  I  I92  1  0.49509190  0.16033954  0.66653549  1
  I  I93  1  0.49875196  0.49410003  -0.00020480  1
  I  I94  1  0.50168826  0.49984279  0.33358201  1
  I  I95  1  0.49932134  0.50501491  0.66660975  1
  I  I96  1  0.50365599  0.83970735  -0.00024060  1
  I  I97  1  0.50207708  0.83587536  0.33086108  1
  I  I98  1  0.50346463  0.83552121  0.66916756  1
  I  I99  1  0.83776162  0.16042453  0.00378198  1
  I  I100  1  0.83266109  0.16009662  0.32977642  1
  I  I101  1  0.83518651  0.16564398  0.66666213  1
  I  I102  1  0.83286852  0.50665629  -0.00301128  1
  I  I103  1  0.83391258  0.50073233  0.33359620  1
  I  I104  1  0.83370220  0.50536001  0.66992413  1
  I  I105  1  0.83266789  0.83306960  0.00045654  1
  I  I106  1  0.83384557  0.83810836  0.33256611  1
  I  I107  1  0.83338669  0.82917546  0.66687811  1
  I  I108  1  0.00081442  0.15849380  0.17147713  1
  I  I109  1  0.00308843  0.16778205  0.49801425  1
  I  I110  1  -0.00028780  0.16660948  0.83107056  1
  I  I111  1  0.00002666  0.50374435  0.16561105  1
  I  I112  1  0.00341162  0.49534125  0.50042403  1
  I  I113  1  -0.00384014  0.50812842  0.83468761  1
  I  I114  1  -0.00018392  0.83668593  0.16734820  1
  I  I115  1  0.00069314  0.83485013  0.49767563  1
  I  I116  1  -0.00309077  0.82946504  0.83510730  1
  I  I117  1  0.33051194  0.16126397  0.16922014  1
  I  I118  1  0.33181188  0.16383686  0.49811825  1
  I  I119  1  0.33720430  0.15947525  0.83299929  1
  I  I120  1  0.33305858  0.49849736  0.16566548  1
  I  I121  1  0.32947853  0.50758468  0.50032943  1
  I  I122  1  0.33333847  0.50057291  0.83305330  1
  I  I123  1  0.33240822  0.83841574  0.16780458  1
  I  I124  1  0.33029033  0.83269892  0.49690967  1
  I  I125  1  0.33644247  0.83777579  0.83597984  1
  I  I126  1  0.66871987  0.16115099  0.16574871  1
  I  I127  1  0.66445229  0.16270227  0.50272507  1
  I  I128  1  0.66333029  0.16413433  0.82866380  1
  I  I129  1  0.66692957  0.49690201  0.16725251  1
  I  I130  1  0.66701127  0.50023739  0.50071681  1
  I  I131  1  0.66985515  0.50328800  0.83273236  1
  I  I132  1  0.66761260  0.83803228  0.16573090  1
  I  I133  1  0.66908775  0.83573589  0.49778810  1
  I  I134  1  0.66726256  0.83332253  0.83618793  1
