# generated using pymatgen
data_Cs27Sn14Pb13I81
_symmetry_space_group_name_H-M   'P 1'
_cell_length_a   18.96053004
_cell_length_b   18.95564189
_cell_length_c   18.96400960
_cell_angle_alpha   90.00351966
_cell_angle_beta   90.00338127
_cell_angle_gamma   90.00231949
_symmetry_Int_Tables_number   1
_chemical_formula_structural   Cs27Sn14Pb13I81
_chemical_formula_sum   'Cs27 Sn14 Pb13 I81'
_cell_volume   6815.83602497
_cell_formula_units_Z   1
loop_
 _symmetry_equiv_pos_site_id
 _symmetry_equiv_pos_as_xyz
  1  'x, y, z'
loop_
 _atom_site_type_symbol
 _atom_site_label
 _atom_site_symmetry_multiplicity
 _atom_site_fract_x
 _atom_site_fract_y
 _atom_site_fract_z
 _atom_site_occupancy
  Cs  Cs0  1  0.00187473  0.00341236  0.00175511  1
  Cs  Cs1  1  0.00028203  0.00233681  0.33412331  1
  Cs  Cs2  1  -0.00198132  -0.00489860  0.66254862  1
  Cs  Cs3  1  -0.00027560  0.33148892  -0.00003872  1
  Cs  Cs4  1  -0.00211505  0.33039404  0.33017250  1
  Cs  Cs5  1  0.00225992  0.33710640  0.67189953  1
  Cs  Cs6  1  -0.00103241  0.66539894  0.00097437  1
  Cs  Cs7  1  0.00098832  0.66645779  0.33229174  1
  Cs  Cs8  1  0.00025674  0.66771264  0.66692370  1
  Cs  Cs9  1  0.33589426  0.00157251  -0.00269685  1
  Cs  Cs10  1  0.33055694  -0.00422314  0.33349654  1
  Cs  Cs11  1  0.33451367  0.00238842  0.66650359  1
  Cs  Cs12  1  0.33257685  0.33079807  -0.00178362  1
  Cs  Cs13  1  0.33625227  0.33440587  0.33548264  1
  Cs  Cs14  1  0.33425055  0.33188954  0.66614939  1
  Cs  Cs15  1  0.33515769  0.66796148  0.00263826  1
  Cs  Cs16  1  0.33265686  0.66798657  0.33348120  1
  Cs  Cs17  1  0.32841740  0.66427074  0.66083702  1
  Cs  Cs18  1  0.66144480  -0.00298765  -0.00348963  1
  Cs  Cs19  1  0.66827711  0.00355370  0.33609758  1
  Cs  Cs20  1  0.66724105  0.00165474  0.66748604  1
  Cs  Cs21  1  0.66864792  0.33586445  0.00071779  1
  Cs  Cs22  1  0.66618333  0.33198633  0.33443813  1
  Cs  Cs23  1  0.66400392  0.33187900  0.66646287  1
  Cs  Cs24  1  0.66619036  0.66568254  0.00072487  1
  Cs  Cs25  1  0.66638883  0.66505695  0.33033846  1
  Cs  Cs26  1  0.67100481  0.66748564  0.66950047  1
  Sn  Sn27  1  0.49993470  0.16728601  0.16673085  1
  Sn  Sn28  1  0.16652895  0.16663088  0.49993240  1
  Sn  Sn29  1  0.83335675  0.49997277  0.49983856  1
  Sn  Sn30  1  0.83349965  0.50056112  0.16672714  1
  Sn  Sn31  1  0.16570102  0.83273717  0.16613575  1
  Sn  Sn32  1  0.83396323  0.83309843  0.16668231  1
  Sn  Sn33  1  0.50014406  0.83305985  0.50012430  1
  Sn  Sn34  1  0.83342691  0.16688486  0.83342713  1
  Sn  Sn35  1  0.49988505  0.49888066  0.16594351  1
  Sn  Sn36  1  0.16678142  0.83315678  0.83377337  1
  Sn  Sn37  1  0.50010451  0.50043051  0.83371543  1
  Sn  Sn38  1  0.16667441  0.50023900  0.16659733  1
  Sn  Sn39  1  0.16745438  0.83423168  0.49995166  1
  Sn  Sn40  1  0.83254630  0.49911465  0.83341841  1
  Pb  Pb41  1  0.49817144  0.16443111  0.49809428  1
  Pb  Pb42  1  0.16672936  0.50161574  0.83571871  1
  Pb  Pb43  1  0.50205654  0.50176020  0.49994979  1
  Pb  Pb44  1  0.49999805  0.83293519  0.16796175  1
  Pb  Pb45  1  0.50191164  0.16901345  0.83513669  1
  Pb  Pb46  1  0.83132686  0.16648819  0.16503478  1
  Pb  Pb47  1  0.16467376  0.16420982  0.83100074  1
  Pb  Pb48  1  0.83542179  0.16932883  0.50241347  1
  Pb  Pb49  1  0.83499917  0.83289064  0.83582396  1
  Pb  Pb50  1  0.49763762  0.83050675  0.83058470  1
  Pb  Pb51  1  0.16864892  0.16648115  0.16802869  1
  Pb  Pb52  1  0.83366158  0.83168581  0.49769201  1
  Pb  Pb53  1  0.16461911  0.50019659  0.49760081  1
  I  I54  1  0.16347129  -0.00338926  0.16648123  1
  I  I55  1  0.16946194  -0.00211347  0.49750315  1
  I  I56  1  0.16488935  -0.00388008  0.83895757  1
  I  I57  1  0.16363604  0.33624205  0.16854229  1
  I  I58  1  0.16414304  0.33146577  0.49756855  1
  I  I59  1  0.16760911  0.33353884  0.83263847  1
  I  I60  1  0.16733476  0.66709746  0.16886335  1
  I  I61  1  0.16899640  0.66966026  0.50030116  1
  I  I62  1  0.16454633  0.66961062  0.82869098  1
  I  I63  1  0.50000661  0.00165482  0.16938781  1
  I  I64  1  0.49850919  -0.00354853  0.49708247  1
  I  I65  1  0.50130806  -0.00018872  0.83480998  1
  I  I66  1  0.50028656  0.33575388  0.16426815  1
  I  I67  1  0.49869729  0.33355663  0.50083806  1
  I  I68  1  0.50084882  0.33732861  0.83440410  1
  I  I69  1  0.50060718  0.66358526  0.16460150  1
  I  I70  1  0.49219491  0.66942593  0.49705807  1
  I  I71  1  0.50786170  0.66275243  0.84174990  1
  I  I72  1  0.83728179  -0.00265245  0.16571581  1
  I  I73  1  0.83198145  -0.00010081  0.49992556  1
  I  I74  1  0.83616249  0.00183130  0.83539235  1
  I  I75  1  0.83575686  0.33685532  0.16761223  1
  I  I76  1  0.83419368  0.33735302  0.49358978  1
  I  I77  1  0.83108923  0.33573097  0.83551920  1
  I  I78  1  0.83250974  0.66496035  0.16504079  1
  I  I79  1  0.83522445  0.66359911  0.50355294  1
  I  I80  1  0.83095853  0.66333920  0.83292205  1
  I  I81  1  0.16688524  0.16554628  -0.00003423  1
  I  I82  1  0.16626838  0.16084660  0.33578461  1
  I  I83  1  0.16637980  0.16208036  0.66318376  1
  I  I84  1  0.16313835  0.50503775  0.00402813  1
  I  I85  1  0.16733354  0.50565816  0.32933948  1
  I  I86  1  0.16565575  0.50175017  0.66663049  1
  I  I87  1  0.16170877  0.82768473  0.00149315  1
  I  I88  1  0.16721402  0.83270672  0.33284921  1
  I  I89  1  0.17049609  0.83697009  0.66572016  1
  I  I90  1  0.49881204  0.16675797  0.00318059  1
  I  I91  1  0.50142363  0.17389260  0.33020436  1
  I  I92  1  0.49982604  0.16731613  0.66670936  1
  I  I93  1  0.50470948  0.49793312  0.00143496  1
  I  I94  1  0.50095571  0.49858474  0.33013212  1
  I  I95  1  0.50506109  0.50295483  0.66916694  1
  I  I96  1  0.49908898  0.83494905  0.00000426  1
  I  I97  1  0.49413960  0.83099668  0.33553613  1
  I  I98  1  0.49512288  0.83169355  0.66304416  1
  I  I99  1  0.83417427  0.17279682  -0.00260820  1
  I  I100  1  0.83300920  0.16746060  0.33330004  1
  I  I101  1  0.83358267  0.17133451  0.67015194  1
  I  I102  1  0.83251070  0.50045583  0.00079423  1
  I  I103  1  0.83363178  0.50525929  0.33160964  1
  I  I104  1  0.82931587  0.49644677  0.66776148  1
  I  I105  1  0.83750154  0.82759076  0.00382977  1
  I  I106  1  0.83774431  0.82741698  0.32964503  1
  I  I107  1  0.83504740  0.83123660  0.66671410  1
  I  I108  1  -0.00000590  0.16859332  0.16679935  1
  I  I109  1  0.00309497  0.15869027  0.49782339  1
  I  I110  1  -0.00305697  0.17498683  0.83531087  1
  I  I111  1  -0.00071720  0.50543515  0.16707404  1
  I  I112  1  -0.00326298  0.50232375  0.50060353  1
  I  I113  1  -0.00298483  0.49807683  0.83438277  1
  I  I114  1  0.00104356  0.82540803  0.16841563  1
  I  I115  1  0.00310981  0.83527343  0.50059147  1
  I  I116  1  0.00297844  0.83080695  0.82884242  1
  I  I117  1  0.33635564  0.17096435  0.16728156  1
  I  I118  1  0.33013247  0.16553157  0.49956400  1
  I  I119  1  0.33334067  0.16736681  0.83321880  1
  I  I120  1  0.33361248  0.50125281  0.16300045  1
  I  I121  1  0.33311282  0.49946609  0.49972620  1
  I  I122  1  0.33574935  0.50294886  0.83842548  1
  I  I123  1  0.33031417  0.82978888  0.16692838  1
  I  I124  1  0.33144624  0.83494311  0.49694659  1
  I  I125  1  0.32967309  0.83198399  0.83932725  1
  I  I126  1  0.66365767  0.17053333  0.16673055  1
  I  I127  1  0.66676644  0.16503108  0.49979585  1
  I  I128  1  0.66990110  0.16769880  0.83365369  1
  I  I129  1  0.66737125  0.50112439  0.16591027  1
  I  I130  1  0.66995175  0.50253900  0.49558132  1
  I  I131  1  0.66782223  0.49776360  0.83808420  1
  I  I132  1  0.66893931  0.82940378  0.16836247  1
  I  I133  1  0.66483636  0.83001334  0.49672014  1
  I  I134  1  0.66674098  0.83476256  0.83320269  1
