# generated using pymatgen
data_Cs27Sn13Pb14I81
_symmetry_space_group_name_H-M   'P 1'
_cell_length_a   18.97769895
_cell_length_b   18.97607724
_cell_length_c   18.97815528
_cell_angle_alpha   90.00127610
_cell_angle_beta   90.00397179
_cell_angle_gamma   90.00086285
_symmetry_Int_Tables_number   1
_chemical_formula_structural   Cs27Sn13Pb14I81
_chemical_formula_sum   'Cs27 Sn13 Pb14 I81'
_cell_volume   6834.45655095
_cell_formula_units_Z   1
loop_
 _symmetry_equiv_pos_site_id
 _symmetry_equiv_pos_as_xyz
  1  'x, y, z'
loop_
 _atom_site_type_symbol
 _atom_site_label
 _atom_site_symmetry_multiplicity
 _atom_site_fract_x
 _atom_site_fract_y
 _atom_site_fract_z
 _atom_site_occupancy
  Cs  Cs0  1  0.00056725  0.00044828  -0.00030629  1
  Cs  Cs1  1  -0.00105076  -0.00078478  0.33382740  1
  Cs  Cs2  1  0.00076664  0.00046334  0.66649270  1
  Cs  Cs3  1  0.00097830  0.32631281  0.00000177  1
  Cs  Cs4  1  -0.00095853  0.33392815  0.33583588  1
  Cs  Cs5  1  0.00126875  0.33180564  0.66420857  1
  Cs  Cs6  1  -0.00104166  0.66836971  0.00153128  1
  Cs  Cs7  1  0.00222374  0.66508113  0.33206131  1
  Cs  Cs8  1  -0.00350522  0.66539164  0.66636365  1
  Cs  Cs9  1  0.33097834  -0.00225751  -0.00356724  1
  Cs  Cs10  1  0.33468139  -0.00164180  0.33662623  1
  Cs  Cs11  1  0.33280448  0.00008241  0.66694845  1
  Cs  Cs12  1  0.33540315  0.33601450  -0.00192537  1
  Cs  Cs13  1  0.33940905  0.34002154  0.33170392  1
  Cs  Cs14  1  0.33290954  0.33442135  0.66802351  1
  Cs  Cs15  1  0.33241389  0.66656535  0.00270038  1
  Cs  Cs16  1  0.33062338  0.66108761  0.33121069  1
  Cs  Cs17  1  0.33510892  0.66707809  0.66555032  1
  Cs  Cs18  1  0.66786987  -0.00070123  0.00074398  1
  Cs  Cs19  1  0.66559243  0.00165821  0.33373083  1
  Cs  Cs20  1  0.66617819  -0.00173854  0.66554544  1
  Cs  Cs21  1  0.66311289  0.33418253  0.00401014  1
  Cs  Cs22  1  0.66019996  0.33044124  0.32894718  1
  Cs  Cs23  1  0.66658213  0.34141786  0.66680921  1
  Cs  Cs24  1  0.66825147  0.66699598  -0.00353542  1
  Cs  Cs25  1  0.66775118  0.66872910  0.33595193  1
  Cs  Cs26  1  0.66845973  0.65963521  0.66884645  1
  Sn  Sn27  1  0.50069887  0.83378718  0.16607928  1
  Sn  Sn28  1  0.16632256  0.16587355  0.49848524  1
  Sn  Sn29  1  0.16601327  0.50156876  0.83328957  1
  Sn  Sn30  1  0.83366401  0.16580416  0.50092530  1
  Sn  Sn31  1  0.83363083  0.50069229  0.16672653  1
  Sn  Sn32  1  0.16719591  0.16643084  0.16834676  1
  Sn  Sn33  1  0.83175342  0.16633110  0.83230832  1
  Sn  Sn34  1  0.83420940  0.83413993  0.49934103  1
  Sn  Sn35  1  0.49947642  0.83417204  0.83398004  1
  Sn  Sn36  1  0.50159569  0.16567665  0.83299314  1
  Sn  Sn37  1  0.83261391  0.83271743  0.16747356  1
  Sn  Sn38  1  0.16578687  0.83401233  0.50082360  1
  Sn  Sn39  1  0.16707765  0.83219896  0.83246554  1
  Pb  Pb40  1  0.16649356  0.50007887  0.50192691  1
  Pb  Pb41  1  0.16461165  0.49713061  0.16449638  1
  Pb  Pb42  1  0.50009576  0.83319932  0.50038370  1
  Pb  Pb43  1  0.16682921  0.16602237  0.83253005  1
  Pb  Pb44  1  0.49697961  0.16408008  0.16430853  1
  Pb  Pb45  1  0.83343752  0.49965068  0.49764640  1
  Pb  Pb46  1  0.50258490  0.50334643  0.16634169  1
  Pb  Pb47  1  0.83436160  0.16602802  0.16731387  1
  Pb  Pb48  1  0.83565229  0.49668716  0.83560637  1
  Pb  Pb49  1  0.50005074  0.16664847  0.50251364  1
  Pb  Pb50  1  0.16653523  0.83460861  0.16706198  1
  Pb  Pb51  1  0.50006710  0.50007061  0.49989073  1
  Pb  Pb52  1  0.49791693  0.50071651  0.83346058  1
  Pb  Pb53  1  0.83333915  0.83471223  0.83296864  1
  I  I54  1  0.16350646  0.00232537  0.16407515  1
  I  I55  1  0.16221083  -0.00042650  0.50285013  1
  I  I56  1  0.16804738  -0.00262375  0.83262466  1
  I  I57  1  0.16305196  0.32931273  0.16914148  1
  I  I58  1  0.16134576  0.32983970  0.49924287  1
  I  I59  1  0.16564123  0.33448647  0.83476274  1
  I  I60  1  0.16834683  0.66683858  0.16804985  1
  I  I61  1  0.16275926  0.67034182  0.50236605  1
  I  I62  1  0.17191359  0.66900785  0.82911473  1
  I  I63  1  0.50740799  -0.00358212  0.16440633  1
  I  I64  1  0.49965438  -0.00017835  0.49864878  1
  I  I65  1  0.49666767  -0.00096849  0.83703223  1
  I  I66  1  0.50070444  0.33316732  0.16551558  1
  I  I67  1  0.49964388  0.33272970  0.50212071  1
  I  I68  1  0.50131683  0.33049788  0.83216957  1
  I  I69  1  0.49910605  0.67135826  0.15986988  1
  I  I70  1  0.50010292  0.66749853  0.50263515  1
  I  I71  1  0.49737031  0.67040882  0.83673910  1
  I  I72  1  0.83117476  -0.00290450  0.16740642  1
  I  I73  1  0.83816695  -0.00037698  0.49804951  1
  I  I74  1  0.83556115  0.00266684  0.83486778  1
  I  I75  1  0.83795545  0.33465171  0.16469288  1
  I  I76  1  0.83891273  0.32969803  0.50364347  1
  I  I77  1  0.83097574  0.32867441  0.82928332  1
  I  I78  1  0.83085288  0.66882695  0.17090102  1
  I  I79  1  0.83733245  0.67014202  0.49787445  1
  I  I80  1  0.83150351  0.66674871  0.83125675  1
  I  I81  1  0.16508138  0.16614615  0.00109870  1
  I  I82  1  0.15905934  0.15988256  0.33482711  1
  I  I83  1  0.16505130  0.16522576  0.66410596  1
  I  I84  1  0.16623111  0.50418481  -0.00327507  1
  I  I85  1  0.16623968  0.50200922  0.33321393  1
  I  I86  1  0.16640822  0.49844700  0.66993039  1
  I  I87  1  0.16734215  0.83310102  -0.00241648  1
  I  I88  1  0.16549607  0.83726054  0.33607399  1
  I  I89  1  0.16662209  0.83648960  0.66675352  1
  I  I90  1  0.50413990  0.16442728  -0.00364783  1
  I  I91  1  0.50214794  0.16592524  0.33320312  1
  I  I92  1  0.49778674  0.15877359  0.67058803  1
  I  I93  1  0.49943825  0.49708012  -0.00011773  1
  I  I94  1  0.49873525  0.50060918  0.33262257  1
  I  I95  1  0.50060713  0.50193434  0.66734442  1
  I  I96  1  0.49961120  0.83751946  -0.00093214  1
  I  I97  1  0.50154397  0.83311721  0.33075477  1
  I  I98  1  0.49748328  0.83809807  0.66994694  1
  I  I99  1  0.83348819  0.16618997  -0.00195341  1
  I  I100  1  0.83779347  0.16521003  0.33624057  1
  I  I101  1  0.83708914  0.16030081  0.66596981  1
  I  I102  1  0.83453818  0.50631164  0.00304262  1
  I  I103  1  0.83531828  0.50058033  0.32999924  1
  I  I104  1  0.83345337  0.50210461  0.66679194  1
  I  I105  1  0.83309686  0.83220060  0.00212775  1
  I  I106  1  0.83376261  0.83555683  0.33360119  1
  I  I107  1  0.83508783  0.83725242  0.66403878  1
  I  I108  1  0.00220669  0.16397335  0.16344455  1
  I  I109  1  -0.00008857  0.16227091  0.50300322  1
  I  I110  1  -0.00184037  0.16649823  0.83332499  1
  I  I111  1  -0.00288520  0.50787578  0.16582063  1
  I  I112  1  -0.00003297  0.49971241  0.50070820  1
  I  I113  1  0.00320751  0.50520317  0.83377974  1
  I  I114  1  -0.00261465  0.83186471  0.16688327  1
  I  I115  1  0.00004024  0.83801484  0.50026980  1
  I  I116  1  0.00257044  0.83273735  0.83320755  1
  I  I117  1  0.32928955  0.16452387  0.16995249  1
  I  I118  1  0.32988705  0.16106618  0.49884904  1
  I  I119  1  0.33516041  0.16524430  0.83459246  1
  I  I120  1  0.33328146  0.49990255  0.16604485  1
  I  I121  1  0.33270192  0.50002073  0.49986223  1
  I  I122  1  0.32998720  0.49753787  0.83393810  1
  I  I123  1  0.33525401  0.83742634  0.16430992  1
  I  I124  1  0.33006868  0.83853314  0.50188413  1
  I  I125  1  0.33294508  0.83653052  0.83410793  1
  I  I126  1  0.66645530  0.16879698  0.16788887  1
  I  I127  1  0.67017103  0.16118464  0.50155504  1
  I  I128  1  0.66700486  0.15991090  0.82952266  1
  I  I129  1  0.67043835  0.49848145  0.16573106  1
  I  I130  1  0.66735414  0.50119377  0.50183502  1
  I  I131  1  0.66690992  0.50171563  0.83356475  1
  I  I132  1  0.66761612  0.83074414  0.16575059  1
  I  I133  1  0.67003979  0.83830736  0.49793010  1
  I  I134  1  0.66441309  0.83723644  0.83494127  1
