# generated using pymatgen
data_Cs27Sn13Pb14I81
_symmetry_space_group_name_H-M   'P 1'
_cell_length_a   18.96806219
_cell_length_b   18.98351494
_cell_length_c   18.97839236
_cell_angle_alpha   90.00123183
_cell_angle_beta   89.99909724
_cell_angle_gamma   90.00195761
_symmetry_Int_Tables_number   1
_chemical_formula_structural   Cs27Sn13Pb14I81
_chemical_formula_sum   'Cs27 Sn13 Pb14 I81'
_cell_volume   6833.74884928
_cell_formula_units_Z   1
loop_
 _symmetry_equiv_pos_site_id
 _symmetry_equiv_pos_as_xyz
  1  'x, y, z'
loop_
 _atom_site_type_symbol
 _atom_site_label
 _atom_site_symmetry_multiplicity
 _atom_site_fract_x
 _atom_site_fract_y
 _atom_site_fract_z
 _atom_site_occupancy
  Cs  Cs0  1  -0.00033392  -0.00104595  -0.00230885  1
  Cs  Cs1  1  -0.00304510  0.00194628  0.33574770  1
  Cs  Cs2  1  -0.00027149  0.00030014  0.66719546  1
  Cs  Cs3  1  -0.00109109  0.33541175  0.00195976  1
  Cs  Cs4  1  0.00147610  0.33455458  0.33428316  1
  Cs  Cs5  1  0.00118780  0.33205298  0.66533089  1
  Cs  Cs6  1  -0.00093789  0.66564502  0.00173172  1
  Cs  Cs7  1  -0.00033248  0.66376811  0.33554871  1
  Cs  Cs8  1  0.00119894  0.66720043  0.66575540  1
  Cs  Cs9  1  0.33463717  -0.00083988  0.00693251  1
  Cs  Cs10  1  0.34162516  -0.00100162  0.32348142  1
  Cs  Cs11  1  0.33120324  -0.00024847  0.66848209  1
  Cs  Cs12  1  0.33536195  0.32947096  0.00182059  1
  Cs  Cs13  1  0.33291978  0.33253786  0.32879153  1
  Cs  Cs14  1  0.33434040  0.33511335  0.66804764  1
  Cs  Cs15  1  0.32909514  0.67216753  0.00398062  1
  Cs  Cs16  1  0.33846406  0.66788153  0.33237408  1
  Cs  Cs17  1  0.33135431  0.66516244  0.66458525  1
  Cs  Cs18  1  0.66761424  -0.00016530  -0.00096853  1
  Cs  Cs19  1  0.66491666  0.00048485  0.33408155  1
  Cs  Cs20  1  0.66760354  0.00169078  0.66675952  1
  Cs  Cs21  1  0.66594886  0.33771697  -0.00410700  1
  Cs  Cs22  1  0.66524278  0.33095999  0.33750723  1
  Cs  Cs23  1  0.65773561  0.33289996  0.66836570  1
  Cs  Cs24  1  0.66990854  0.66315714  -0.00207586  1
  Cs  Cs25  1  0.66446882  0.66806137  0.33325728  1
  Cs  Cs26  1  0.66450093  0.66542095  0.66799893  1
  Sn  Sn27  1  0.16612032  0.49918956  0.83313348  1
  Sn  Sn28  1  0.16567177  0.16745487  0.83278190  1
  Sn  Sn29  1  0.83398808  0.83241190  0.50014920  1
  Sn  Sn30  1  0.83416284  0.16638529  0.83396578  1
  Sn  Sn31  1  0.83368800  0.83388929  0.16676410  1
  Sn  Sn32  1  0.83347022  0.50048794  0.50067212  1
  Sn  Sn33  1  0.16661488  0.16636198  0.50041535  1
  Sn  Sn34  1  0.83377668  0.16632184  0.16565226  1
  Sn  Sn35  1  0.50029456  0.50003773  0.16642606  1
  Sn  Sn36  1  0.50060163  0.83342029  0.83292069  1
  Sn  Sn37  1  0.16583428  0.49992494  0.50083577  1
  Sn  Sn38  1  0.83262859  0.83378123  0.83313367  1
  Sn  Sn39  1  0.16627697  0.83375010  0.49969087  1
  Pb  Pb40  1  0.50036202  0.83348482  0.50203904  1
  Pb  Pb41  1  0.50372888  0.16884331  0.16631298  1
  Pb  Pb42  1  0.49963426  0.16447133  0.83332163  1
  Pb  Pb43  1  0.83505551  0.49968640  0.83093093  1
  Pb  Pb44  1  0.16428060  0.16649823  0.16627120  1
  Pb  Pb45  1  0.83445583  0.16668317  0.50073376  1
  Pb  Pb46  1  0.16376413  0.83339068  0.17022691  1
  Pb  Pb47  1  0.49581138  0.16646000  0.50019133  1
  Pb  Pb48  1  0.50323403  0.83170783  0.16414073  1
  Pb  Pb49  1  0.49650779  0.50246856  0.83523771  1
  Pb  Pb50  1  0.16845499  0.49998747  0.16697179  1
  Pb  Pb51  1  0.83193887  0.49972113  0.16922104  1
  Pb  Pb52  1  0.49945379  0.50007998  0.49855323  1
  Pb  Pb53  1  0.16600002  0.83369664  0.83189043  1
  I  I54  1  0.16988353  -0.00010327  0.16598430  1
  I  I55  1  0.16035055  -0.00014512  0.50582827  1
  I  I56  1  0.16478423  0.00261273  0.82799722  1
  I  I57  1  0.16437547  0.33326140  0.17108144  1
  I  I58  1  0.16156210  0.33377922  0.50401347  1
  I  I59  1  0.16131269  0.33261518  0.82511235  1
  I  I60  1  0.16489431  0.66672004  0.16434725  1
  I  I61  1  0.16179223  0.66640626  0.50465623  1
  I  I62  1  0.16732970  0.66476232  0.82870312  1
  I  I63  1  0.49790409  -0.00016986  0.16609472  1
  I  I64  1  0.50129681  -0.00024095  0.49927695  1
  I  I65  1  0.50036873  -0.00335047  0.83338673  1
  I  I66  1  0.50032519  0.33624627  0.16720091  1
  I  I67  1  0.50365985  0.33347665  0.49972425  1
  I  I68  1  0.50250667  0.33348986  0.83423303  1
  I  I69  1  0.50097659  0.66436841  0.16729416  1
  I  I70  1  0.49613132  0.66679464  0.49974062  1
  I  I71  1  0.50678353  0.66991641  0.83334086  1
  I  I72  1  0.83420991  -0.00076323  0.16815727  1
  I  I73  1  0.83775937  -0.00288678  0.50000430  1
  I  I74  1  0.83534110  -0.00054956  0.83230218  1
  I  I75  1  0.83245403  0.33069624  0.16313659  1
  I  I76  1  0.83839378  0.33550202  0.49801828  1
  I  I77  1  0.83668960  0.33052171  0.83731555  1
  I  I78  1  0.83184902  0.66948140  0.16447856  1
  I  I79  1  0.84116350  0.66792275  0.49960087  1
  I  I80  1  0.83156808  0.66951519  0.83550744  1
  I  I81  1  0.16457352  0.17171494  -0.00355591  1
  I  I82  1  0.16401583  0.16856134  0.33644470  1
  I  I83  1  0.15988039  0.16710072  0.66698166  1
  I  I84  1  0.16778870  0.49546399  -0.00299491  1
  I  I85  1  0.16331611  0.49934167  0.33712510  1
  I  I86  1  0.16318275  0.49966868  0.66559066  1
  I  I87  1  0.16702327  0.83258934  -0.00008009  1
  I  I88  1  0.16178999  0.83187763  0.33857625  1
  I  I89  1  0.16100007  0.83281817  0.66374002  1
  I  I90  1  0.49449769  0.16656054  -0.00016043  1
  I  I91  1  0.50063899  0.16633237  0.33307586  1
  I  I92  1  0.50632594  0.16726225  0.66698859  1
  I  I93  1  0.50164208  0.50054799  0.00253237  1
  I  I94  1  0.49933030  0.50154646  0.33091111  1
  I  I95  1  0.50124862  0.50068000  0.66691223  1
  I  I96  1  0.50321479  0.83257802  -0.00351418  1
  I  I97  1  0.49930603  0.83215162  0.33302367  1
  I  I98  1  0.50618248  0.83264486  0.66973820  1
  I  I99  1  0.83877636  0.15876292  -0.00121792  1
  I  I100  1  0.83458851  0.16400496  0.33172766  1
  I  I101  1  0.83659732  0.16237002  0.66960021  1
  I  I102  1  0.83423036  0.50253038  -0.00018765  1
  I  I103  1  0.83957344  0.50355478  0.33707581  1
  I  I104  1  0.83598824  0.50470302  0.66300869  1
  I  I105  1  0.82861469  0.83776244  -0.00070425  1
  I  I106  1  0.83898702  0.83337153  0.33401517  1
  I  I107  1  0.83391991  0.83385374  0.66670330  1
  I  I108  1  -0.00371820  0.16359530  0.16553076  1
  I  I109  1  0.00274335  0.16677727  0.50139011  1
  I  I110  1  -0.00035504  0.16357169  0.83294171  1
  I  I111  1  -0.00024302  0.50040701  0.16615608  1
  I  I112  1  0.00085269  0.50188906  0.50186577  1
  I  I113  1  0.00312962  0.50122894  0.83166532  1
  I  I114  1  -0.00445143  0.83521531  0.16022239  1
  I  I115  1  -0.00090772  0.83203021  0.50226751  1
  I  I116  1  -0.00324213  0.83476097  0.83433242  1
  I  I117  1  0.33344925  0.16776429  0.16758333  1
  I  I118  1  0.32726699  0.16796489  0.50733819  1
  I  I119  1  0.32968374  0.16961786  0.82725000  1
  I  I120  1  0.33608053  0.50080464  0.16803965  1
  I  I121  1  0.32934007  0.50085806  0.50313152  1
  I  I122  1  0.32876678  0.49565196  0.82585454  1
  I  I123  1  0.33361198  0.83218225  0.16615094  1
  I  I124  1  0.33006842  0.83160458  0.50403135  1
  I  I125  1  0.33471779  0.83182325  0.83027651  1
  I  I126  1  0.67162958  0.16181573  0.16198041  1
  I  I127  1  0.66697826  0.16731457  0.49972117  1
  I  I128  1  0.67008055  0.16416626  0.83716987  1
  I  I129  1  0.66451930  0.50083688  0.16782511  1
  I  I130  1  0.66955531  0.50550541  0.49780198  1
  I  I131  1  0.66674060  0.49796032  0.83213182  1
  I  I132  1  0.67120269  0.83703427  0.17255008  1
  I  I133  1  0.67064064  0.82846364  0.49806867  1
  I  I134  1  0.66935699  0.83802125  0.83168753  1
