# generated using pymatgen
data_Cs27Sn13Pb14I81
_symmetry_space_group_name_H-M   'P 1'
_cell_length_a   18.97914463
_cell_length_b   18.96986160
_cell_length_c   18.98313038
_cell_angle_alpha   90.00106785
_cell_angle_beta   90.00110275
_cell_angle_gamma   90.00022831
_symmetry_Int_Tables_number   1
_chemical_formula_structural   Cs27Sn13Pb14I81
_chemical_formula_sum   'Cs27 Sn13 Pb14 I81'
_cell_volume   6834.52959215
_cell_formula_units_Z   1
loop_
 _symmetry_equiv_pos_site_id
 _symmetry_equiv_pos_as_xyz
  1  'x, y, z'
loop_
 _atom_site_type_symbol
 _atom_site_label
 _atom_site_symmetry_multiplicity
 _atom_site_fract_x
 _atom_site_fract_y
 _atom_site_fract_z
 _atom_site_occupancy
  Cs  Cs0  1  -0.00174637  0.00311656  0.00368675  1
  Cs  Cs1  1  0.00042088  -0.00340640  0.33249359  1
  Cs  Cs2  1  -0.00064511  0.00214084  0.66422482  1
  Cs  Cs3  1  0.00095038  0.33272535  0.00001319  1
  Cs  Cs4  1  0.00061729  0.33239735  0.33349638  1
  Cs  Cs5  1  0.00168952  0.33361795  0.66651908  1
  Cs  Cs6  1  -0.00024371  0.66499479  0.00090395  1
  Cs  Cs7  1  0.00072624  0.67202297  0.33366824  1
  Cs  Cs8  1  -0.00022171  0.66525850  0.66538504  1
  Cs  Cs9  1  0.33364501  -0.00294309  -0.00254214  1
  Cs  Cs10  1  0.33013646  0.00028330  0.33352973  1
  Cs  Cs11  1  0.33741128  0.00067817  0.66933234  1
  Cs  Cs12  1  0.32977411  0.33071193  0.00152231  1
  Cs  Cs13  1  0.33833269  0.33409107  0.33410389  1
  Cs  Cs14  1  0.32947704  0.33218550  0.66375473  1
  Cs  Cs15  1  0.33589587  0.66900918  -0.00085107  1
  Cs  Cs16  1  0.33249309  0.66497947  0.33493742  1
  Cs  Cs17  1  0.33226398  0.66558369  0.66724705  1
  Cs  Cs18  1  0.66813271  0.00544207  0.00105019  1
  Cs  Cs19  1  0.66950035  0.00112848  0.33170967  1
  Cs  Cs20  1  0.66403483  -0.00130937  0.66737556  1
  Cs  Cs21  1  0.66753621  0.32996224  0.00352298  1
  Cs  Cs22  1  0.66086335  0.33369424  0.33282820  1
  Cs  Cs23  1  0.66816638  0.33174730  0.66389065  1
  Cs  Cs24  1  0.66444552  0.66600570  -0.00392811  1
  Cs  Cs25  1  0.66718600  0.66537087  0.33325391  1
  Cs  Cs26  1  0.66785921  0.66881785  0.67036784  1
  Sn  Sn27  1  0.16662198  0.16733438  0.16760912  1
  Sn  Sn28  1  0.83397730  0.16735298  0.49997920  1
  Sn  Sn29  1  0.83368461  0.83301908  0.83353667  1
  Sn  Sn30  1  0.50004188  0.83294014  0.49978945  1
  Sn  Sn31  1  0.50037751  0.83253215  0.83353223  1
  Sn  Sn32  1  0.83398659  0.50030247  0.16664382  1
  Sn  Sn33  1  0.50044549  0.49991493  0.83331518  1
  Sn  Sn34  1  0.50029910  0.83324449  0.16669442  1
  Sn  Sn35  1  0.83249446  0.50045379  0.83348560  1
  Sn  Sn36  1  0.16604282  0.16668614  0.49921420  1
  Sn  Sn37  1  0.16620636  0.49968719  0.16673155  1
  Sn  Sn38  1  0.83343758  0.49944331  0.49991581  1
  Sn  Sn39  1  0.16601876  0.83318592  0.83320217  1
  Pb  Pb40  1  0.16644031  0.50171360  0.83515517  1
  Pb  Pb41  1  0.16644809  0.16430649  0.83336110  1
  Pb  Pb42  1  0.50000739  0.50156496  0.16452007  1
  Pb  Pb43  1  0.50234771  0.50208556  0.50263772  1
  Pb  Pb44  1  0.16870008  0.83554649  0.50231265  1
  Pb  Pb45  1  0.50013838  0.16745937  0.83342711  1
  Pb  Pb46  1  0.16457923  0.49828206  0.49757037  1
  Pb  Pb47  1  0.83332771  0.16740817  0.83118783  1
  Pb  Pb48  1  0.49719411  0.16409784  0.16667658  1
  Pb  Pb49  1  0.83172872  0.83319239  0.50187172  1
  Pb  Pb50  1  0.16819277  0.83309479  0.16495208  1
  Pb  Pb51  1  0.83525367  0.16914755  0.16927052  1
  Pb  Pb52  1  0.83120990  0.83099681  0.16411518  1
  Pb  Pb53  1  0.50011118  0.16460677  0.49993736  1
  I  I54  1  0.16955310  0.00237411  0.16911064  1
  I  I55  1  0.15960160  0.00338867  0.49336545  1
  I  I56  1  0.16895732  -0.00399737  0.83489954  1
  I  I57  1  0.16257040  0.33364343  0.16838832  1
  I  I58  1  0.16598818  0.33011611  0.50065069  1
  I  I59  1  0.16730151  0.33346027  0.83239537  1
  I  I60  1  0.16371308  0.66407443  0.16359577  1
  I  I61  1  0.16617083  0.66674431  0.49907328  1
  I  I62  1  0.16805958  0.66982099  0.83555275  1
  I  I63  1  0.49884377  -0.00419455  0.16254116  1
  I  I64  1  0.50171969  -0.00360046  0.50463668  1
  I  I65  1  0.50013389  -0.00396977  0.83272332  1
  I  I66  1  0.50139084  0.33360212  0.16464027  1
  I  I67  1  0.49862279  0.33358826  0.50203605  1
  I  I68  1  0.50610756  0.33711918  0.83409907  1
  I  I69  1  0.49767755  0.66963904  0.16654302  1
  I  I70  1  0.50120678  0.67014726  0.49943520  1
  I  I71  1  0.50133737  0.66817059  0.83343716  1
  I  I72  1  0.83363357  -0.00007409  0.16633984  1
  I  I73  1  0.83553927  0.00232850  0.50241352  1
  I  I74  1  0.83141937  -0.00299739  0.83117690  1
  I  I75  1  0.83390151  0.33738572  0.16004671  1
  I  I76  1  0.83710889  0.33415758  0.50326252  1
  I  I77  1  0.82858191  0.33729113  0.83512635  1
  I  I78  1  0.84027285  0.66280478  0.17180453  1
  I  I79  1  0.83077566  0.66372758  0.49939401  1
  I  I80  1  0.83180769  0.66614327  0.83115728  1
  I  I81  1  0.16789567  0.16953297  0.00292615  1
  I  I82  1  0.16258852  0.16925107  0.33329812  1
  I  I83  1  0.16319912  0.16425305  0.66378226  1
  I  I84  1  0.16152342  0.49453909  0.00299744  1
  I  I85  1  0.16256913  0.50049079  0.32954524  1
  I  I86  1  0.16657200  0.49932539  0.66666528  1
  I  I87  1  0.16980254  0.83462643  -0.00305151  1
  I  I88  1  0.16963387  0.83221033  0.33332411  1
  I  I89  1  0.16902706  0.83383222  0.67031834  1
  I  I90  1  0.49810884  0.16339134  0.00014818  1
  I  I91  1  0.50202779  0.16435467  0.33334852  1
  I  I92  1  0.49739780  0.16322379  0.66652351  1
  I  I93  1  0.50548477  0.50844659  -0.00329145  1
  I  I94  1  0.50091327  0.50320397  0.33332807  1
  I  I95  1  0.50434790  0.50681687  0.67058817  1
  I  I96  1  0.49868958  0.82908026  -0.00160410  1
  I  I97  1  0.49951555  0.83436689  0.33326268  1
  I  I98  1  0.50039181  0.83096377  0.66828951  1
  I  I99  1  0.83471734  0.16616355  0.00029217  1
  I  I100  1  0.83448045  0.17007332  0.33708240  1
  I  I101  1  0.83975902  0.17142504  0.66333731  1
  I  I102  1  0.83347014  0.50616252  -0.00064745  1
  I  I103  1  0.83767625  0.49545984  0.33331396  1
  I  I104  1  0.82833017  0.50049035  0.66735511  1
  I  I105  1  0.83138648  0.82827392  -0.00410306  1
  I  I106  1  0.83054519  0.83245217  0.33326928  1
  I  I107  1  0.83075697  0.82849995  0.67010288  1
  I  I108  1  0.00315210  0.16623322  0.16742370  1
  I  I109  1  -0.00020060  0.16975297  0.49755804  1
  I  I110  1  -0.00007171  0.16481108  0.83433958  1
  I  I111  1  -0.00067535  0.49679183  0.16339380  1
  I  I112  1  -0.00378012  0.49969648  0.50629586  1
  I  I113  1  -0.00328198  0.50494336  0.83189386  1
  I  I114  1  -0.00014202  0.83467481  0.16410742  1
  I  I115  1  -0.00013272  0.83230900  0.50260981  1
  I  I116  1  -0.00094390  0.82896333  0.83299067  1
  I  I117  1  0.32925044  0.17386801  0.17311915  1
  I  I118  1  0.33042255  0.16365421  0.49651251  1
  I  I119  1  0.33312007  0.16573709  0.83100287  1
  I  I120  1  0.33085376  0.49761837  0.16401052  1
  I  I121  1  0.33342509  0.49930057  0.50029607  1
  I  I122  1  0.33574232  0.50612526  0.83581209  1
  I  I123  1  0.33616701  0.83190217  0.16282359  1
  I  I124  1  0.33669196  0.83499311  0.50295265  1
  I  I125  1  0.33478973  0.83060657  0.83386071  1
  I  I126  1  0.66687958  0.16668380  0.16746841  1
  I  I127  1  0.66968900  0.16980208  0.50211400  1
  I  I128  1  0.66690132  0.16141624  0.83099640  1
  I  I129  1  0.66958412  0.50294685  0.16781476  1
  I  I130  1  0.67062770  0.49363928  0.49520111  1
  I  I131  1  0.66782667  0.50957813  0.83460800  1
  I  I132  1  0.66330279  0.83126411  0.16469940  1
  I  I133  1  0.66381456  0.83472106  0.50328216  1
  I  I134  1  0.66616520  0.82825679  0.83242526  1
