# generated using pymatgen
data_Cs27Sn13Pb14I81
_symmetry_space_group_name_H-M   'P 1'
_cell_length_a   18.98111936
_cell_length_b   18.97356210
_cell_length_c   18.97519317
_cell_angle_alpha   89.99980174
_cell_angle_beta   90.00056699
_cell_angle_gamma   90.00201043
_symmetry_Int_Tables_number   1
_chemical_formula_structural   Cs27Sn13Pb14I81
_chemical_formula_sum   'Cs27 Sn13 Pb14 I81'
_cell_volume   6833.71556531
_cell_formula_units_Z   1
loop_
 _symmetry_equiv_pos_site_id
 _symmetry_equiv_pos_as_xyz
  1  'x, y, z'
loop_
 _atom_site_type_symbol
 _atom_site_label
 _atom_site_symmetry_multiplicity
 _atom_site_fract_x
 _atom_site_fract_y
 _atom_site_fract_z
 _atom_site_occupancy
  Cs  Cs0  1  -0.00241066  -0.00233435  -0.00332317  1
  Cs  Cs1  1  0.00018300  0.00013986  0.33406937  1
  Cs  Cs2  1  -0.00059728  -0.00110678  0.66659754  1
  Cs  Cs3  1  0.00048915  0.33267882  0.00013876  1
  Cs  Cs4  1  0.00121119  0.33304364  0.33380335  1
  Cs  Cs5  1  0.00108352  0.33496485  0.66455074  1
  Cs  Cs6  1  0.00077327  0.66913482  -0.00379973  1
  Cs  Cs7  1  -0.00155067  0.66559424  0.33138070  1
  Cs  Cs8  1  -0.00158374  0.66588298  0.67841453  1
  Cs  Cs9  1  0.33551313  -0.00072599  0.00089610  1
  Cs  Cs10  1  0.33190790  -0.00077173  0.33611956  1
  Cs  Cs11  1  0.33269407  0.00005695  0.66061133  1
  Cs  Cs12  1  0.33414905  0.33350032  -0.00136720  1
  Cs  Cs13  1  0.32989932  0.33165690  0.33229505  1
  Cs  Cs14  1  0.33259062  0.33321781  0.66861511  1
  Cs  Cs15  1  0.33281796  0.66683210  0.00089543  1
  Cs  Cs16  1  0.33514533  0.66961430  0.33245669  1
  Cs  Cs17  1  0.33660201  0.66760023  0.66819915  1
  Cs  Cs18  1  0.66630203  0.00341875  -0.00208119  1
  Cs  Cs19  1  0.66809014  0.00010311  0.33259340  1
  Cs  Cs20  1  0.66810609  -0.00047029  0.66779369  1
  Cs  Cs21  1  0.66394061  0.32409763  -0.00313271  1
  Cs  Cs22  1  0.66842328  0.33417723  0.33220701  1
  Cs  Cs23  1  0.66543425  0.34108526  0.67079278  1
  Cs  Cs24  1  0.66582639  0.66928018  0.00271819  1
  Cs  Cs25  1  0.66708111  0.66625069  0.33324959  1
  Cs  Cs26  1  0.66610245  0.65855706  0.66594285  1
  Sn  Sn27  1  0.16652963  0.16696859  0.16647314  1
  Sn  Sn28  1  0.16658863  0.50012025  0.49924507  1
  Sn  Sn29  1  0.50051692  0.16718039  0.49977280  1
  Sn  Sn30  1  0.16658060  0.49938443  0.16768184  1
  Sn  Sn31  1  0.83332862  0.50032465  0.16668010  1
  Sn  Sn32  1  0.83364791  0.83337000  0.49943946  1
  Sn  Sn33  1  0.50010277  0.83333322  0.83362637  1
  Sn  Sn34  1  0.50085242  0.83298970  0.16622110  1
  Sn  Sn35  1  0.16656582  0.16630563  0.83330545  1
  Sn  Sn36  1  0.83302174  0.16641229  0.49978592  1
  Sn  Sn37  1  0.83255966  0.83282962  0.16758230  1
  Sn  Sn38  1  0.50008416  0.50016417  0.16697749  1
  Sn  Sn39  1  0.16642953  0.16732738  0.49979568  1
  Pb  Pb40  1  0.16681378  0.49807551  0.83374898  1
  Pb  Pb41  1  0.83086950  0.83333982  0.83351090  1
  Pb  Pb42  1  0.50242842  0.83475382  0.49943237  1
  Pb  Pb43  1  0.49797211  0.16468086  0.83053084  1
  Pb  Pb44  1  0.16642013  0.83294706  0.16680671  1
  Pb  Pb45  1  0.83550764  0.16675770  0.82994938  1
  Pb  Pb46  1  0.49980563  0.50216305  0.83635137  1
  Pb  Pb47  1  0.49793243  0.16626595  0.16834494  1
  Pb  Pb48  1  0.49748583  0.49775652  0.49752983  1
  Pb  Pb49  1  0.83321319  0.49982255  0.83739145  1
  Pb  Pb50  1  0.16931522  0.83585304  0.83321540  1
  Pb  Pb51  1  0.83558902  0.16637859  0.16823344  1
  Pb  Pb52  1  0.16388129  0.83242203  0.50007326  1
  Pb  Pb53  1  0.83563721  0.50019072  0.49832648  1
  I  I54  1  0.16726359  0.00297451  0.16881732  1
  I  I55  1  0.16841131  0.00345844  0.49876918  1
  I  I56  1  0.16639701  0.00408167  0.83262718  1
  I  I57  1  0.16668814  0.33363752  0.16829817  1
  I  I58  1  0.16466720  0.33161576  0.49845882  1
  I  I59  1  0.16809374  0.32991374  0.83257754  1
  I  I60  1  0.16715202  0.66325920  0.17218179  1
  I  I61  1  0.16615185  0.66330730  0.49199807  1
  I  I62  1  0.16649417  0.66660962  0.83298659  1
  I  I63  1  0.50328070  -0.00282375  0.16440156  1
  I  I64  1  0.49379980  0.00291924  0.49758791  1
  I  I65  1  0.49946001  -0.00293304  0.84193893  1
  I  I66  1  0.50148393  0.33587614  0.17001771  1
  I  I67  1  0.50328022  0.32957420  0.49802253  1
  I  I68  1  0.49909300  0.33315410  0.83404112  1
  I  I69  1  0.49803754  0.66679064  0.16380083  1
  I  I70  1  0.49923602  0.66650521  0.50197127  1
  I  I71  1  0.49966092  0.67019801  0.83339003  1
  I  I72  1  0.83009322  -0.00277512  0.16911081  1
  I  I73  1  0.83554986  0.00055138  0.49380826  1
  I  I74  1  0.83433574  0.00003848  0.83783234  1
  I  I75  1  0.83219331  0.33594781  0.16886367  1
  I  I76  1  0.83413166  0.33060880  0.49790322  1
  I  I77  1  0.83260759  0.33312968  0.83344415  1
  I  I78  1  0.83404027  0.66710501  0.17292931  1
  I  I79  1  0.83390692  0.66913684  0.49629035  1
  I  I80  1  0.83478130  0.66684469  0.82736606  1
  I  I81  1  0.16752297  0.17081547  0.00105184  1
  I  I82  1  0.16665419  0.17096285  0.33409315  1
  I  I83  1  0.16689368  0.16966145  0.66488217  1
  I  I84  1  0.16666852  0.49578502  0.00397909  1
  I  I85  1  0.16647207  0.49087627  0.33208303  1
  I  I86  1  0.16580439  0.49487251  0.66367750  1
  I  I87  1  0.16249200  0.83456897  0.00032250  1
  I  I88  1  0.17113804  0.83864038  0.33328465  1
  I  I89  1  0.16705312  0.83372001  0.66645253  1
  I  I90  1  0.49737386  0.16823528  0.00022372  1
  I  I91  1  0.49642080  0.16436642  0.33619327  1
  I  I92  1  0.49700660  0.16352664  0.66260339  1
  I  I93  1  0.49661135  0.50017964  0.00493549  1
  I  I94  1  0.50120312  0.50683954  0.32938834  1
  I  I95  1  0.49794718  0.50109848  0.66638157  1
  I  I96  1  0.50435279  0.83036841  0.00219309  1
  I  I97  1  0.50171403  0.83047838  0.33018396  1
  I  I98  1  0.49928806  0.83813309  0.66843475  1
  I  I99  1  0.83560137  0.16645678  0.00019522  1
  I  I100  1  0.83664698  0.16509356  0.33637782  1
  I  I101  1  0.83594233  0.15942170  0.66153965  1
  I  I102  1  0.83800690  0.50720852  0.00590351  1
  I  I103  1  0.83239681  0.50135468  0.32998247  1
  I  I104  1  0.83583023  0.50071400  0.66635104  1
  I  I105  1  0.83263589  0.82865654  0.00358749  1
  I  I106  1  0.82805965  0.83403434  0.33221200  1
  I  I107  1  0.83410386  0.83981455  0.66374036  1
  I  I108  1  0.00377109  0.17017598  0.16967250  1
  I  I109  1  0.00099686  0.16620210  0.49936037  1
  I  I110  1  0.00385293  0.16641878  0.83306316  1
  I  I111  1  0.00053946  0.49950314  0.17146308  1
  I  I112  1  0.00343658  0.49285775  0.49249370  1
  I  I113  1  0.00024634  0.50061461  0.83464192  1
  I  I114  1  -0.00302623  0.83136810  0.17140539  1
  I  I115  1  -0.00386940  0.84023799  0.49203336  1
  I  I116  1  -0.00020029  0.83398806  0.83385653  1
  I  I117  1  0.32971502  0.16984935  0.16974843  1
  I  I118  1  0.33188057  0.16980461  0.49975443  1
  I  I119  1  0.32994594  0.16609710  0.83155406  1
  I  I120  1  0.33282642  0.50002157  0.17015343  1
  I  I121  1  0.32948439  0.49387801  0.49408297  1
  I  I122  1  0.33327052  0.50045770  0.83528322  1
  I  I123  1  0.33608865  0.83090926  0.16290292  1
  I  I124  1  0.33346711  0.83564650  0.49933430  1
  I  I125  1  0.33694376  0.83333734  0.84053830  1
  I  I126  1  0.66673707  0.16957167  0.16942390  1
  I  I127  1  0.66724749  0.16012467  0.49729453  1
  I  I128  1  0.66641987  0.16556770  0.83284587  1
  I  I129  1  0.66670406  0.50641314  0.16741790  1
  I  I130  1  0.66681552  0.49817053  0.49866616  1
  I  I131  1  0.66640237  0.49924742  0.83123378  1
  I  I132  1  0.66667850  0.82582516  0.16757692  1
  I  I133  1  0.67019020  0.83979457  0.49745613  1
  I  I134  1  0.66340007  0.83573149  0.83638536  1
