# generated using pymatgen
data_Cs27Sn14Pb13I81
_symmetry_space_group_name_H-M   'P 1'
_cell_length_a   18.95884873
_cell_length_b   18.95833467
_cell_length_c   18.96295545
_cell_angle_alpha   89.99814853
_cell_angle_beta   89.99751010
_cell_angle_gamma   89.99970909
_symmetry_Int_Tables_number   1
_chemical_formula_structural   Cs27Sn14Pb13I81
_chemical_formula_sum   'Cs27 Sn14 Pb13 I81'
_cell_volume   6815.82091904
_cell_formula_units_Z   1
loop_
 _symmetry_equiv_pos_site_id
 _symmetry_equiv_pos_as_xyz
  1  'x, y, z'
loop_
 _atom_site_type_symbol
 _atom_site_label
 _atom_site_symmetry_multiplicity
 _atom_site_fract_x
 _atom_site_fract_y
 _atom_site_fract_z
 _atom_site_occupancy
  Cs  Cs0  1  -0.00290298  -0.00667731  0.00344654  1
  Cs  Cs1  1  0.00126542  0.00100363  0.33053730  1
  Cs  Cs2  1  -0.00252500  0.00042506  0.66566180  1
  Cs  Cs3  1  0.00403853  0.33700638  -0.00179911  1
  Cs  Cs4  1  -0.00062028  0.33266479  0.33466869  1
  Cs  Cs5  1  0.00079621  0.33412215  0.66584536  1
  Cs  Cs6  1  -0.00116440  0.66698261  0.00045865  1
  Cs  Cs7  1  0.00222985  0.66635764  0.33220104  1
  Cs  Cs8  1  -0.00215854  0.66418352  0.66743319  1
  Cs  Cs9  1  0.33578628  0.00125163  -0.00193643  1
  Cs  Cs10  1  0.32914838  -0.00403033  0.33680393  1
  Cs  Cs11  1  0.33410064  0.00038582  0.66639228  1
  Cs  Cs12  1  0.33274718  0.32930966  -0.00122933  1
  Cs  Cs13  1  0.33332372  0.33424415  0.33226652  1
  Cs  Cs14  1  0.32988713  0.33004832  0.66891542  1
  Cs  Cs15  1  0.33451620  0.66764424  -0.00118650  1
  Cs  Cs16  1  0.33527173  0.66903151  0.33579731  1
  Cs  Cs17  1  0.33557598  0.66910278  0.66586084  1
  Cs  Cs18  1  0.66622869  -0.00074904  0.00198579  1
  Cs  Cs19  1  0.67033374  0.00642749  0.33202713  1
  Cs  Cs20  1  0.66810251  0.00034084  0.66715393  1
  Cs  Cs21  1  0.66333324  0.33244289  0.00163325  1
  Cs  Cs22  1  0.66571232  0.33241785  0.33057625  1
  Cs  Cs23  1  0.66929941  0.33372608  0.66610833  1
  Cs  Cs24  1  0.66703291  0.66781808  -0.00204385  1
  Cs  Cs25  1  0.66126941  0.66250729  0.33715084  1
  Cs  Cs26  1  0.66671881  0.66721947  0.66753081  1
  Sn  Sn27  1  0.16749218  0.16755237  0.49927699  1
  Sn  Sn28  1  0.16631074  0.49938157  0.16751937  1
  Sn  Sn29  1  0.16719328  0.83318811  0.83313916  1
  Sn  Sn30  1  0.83401191  0.50093921  0.49958302  1
  Sn  Sn31  1  0.83353964  0.16756527  0.83393778  1
  Sn  Sn32  1  0.83368921  0.50014244  0.16680324  1
  Sn  Sn33  1  0.49919888  0.83265709  0.83403381  1
  Sn  Sn34  1  0.83348172  0.83245526  0.49944886  1
  Sn  Sn35  1  0.50045212  0.50018395  0.83312159  1
  Sn  Sn36  1  0.50006854  0.83319853  0.16651485  1
  Sn  Sn37  1  0.16624578  0.49952913  0.49931516  1
  Sn  Sn38  1  0.83232315  0.49891003  0.83358749  1
  Sn  Sn39  1  0.16664700  0.16723242  0.16714772  1
  Sn  Sn40  1  0.49915825  0.16708677  0.50004437  1
  Pb  Pb41  1  0.50235083  0.83550850  0.50037160  1
  Pb  Pb42  1  0.83572937  0.16919377  0.16387774  1
  Pb  Pb43  1  0.16829974  0.83274619  0.16471864  1
  Pb  Pb44  1  0.49745084  0.16439105  0.16903954  1
  Pb  Pb45  1  0.49929296  0.50128852  0.16445929  1
  Pb  Pb46  1  0.16662367  0.50160202  0.83320545  1
  Pb  Pb47  1  0.49958324  0.49798424  0.50228636  1
  Pb  Pb48  1  0.16434924  0.16413145  0.83339817  1
  Pb  Pb49  1  0.83272577  0.83280072  0.83222967  1
  Pb  Pb50  1  0.83090990  0.83052519  0.16964525  1
  Pb  Pb51  1  0.50196567  0.16651846  0.83182951  1
  Pb  Pb52  1  0.83409157  0.16751755  0.50094921  1
  Pb  Pb53  1  0.16472315  0.83302837  0.50188638  1
  I  I54  1  0.16868199  0.00226480  0.17007875  1
  I  I55  1  0.16811783  0.00265692  0.49783311  1
  I  I56  1  0.17062882  -0.00329719  0.83264413  1
  I  I57  1  0.16308441  0.33435621  0.16981383  1
  I  I58  1  0.16423802  0.33389821  0.49790042  1
  I  I59  1  0.16846152  0.33340804  0.83323734  1
  I  I60  1  0.16353635  0.66337274  0.16951328  1
  I  I61  1  0.16368912  0.66354412  0.49714009  1
  I  I62  1  0.16618484  0.66921182  0.83314061  1
  I  I63  1  0.49926827  -0.00330944  0.15932961  1
  I  I64  1  0.49580264  0.00309404  0.50214039  1
  I  I65  1  0.49804036  -0.00278268  0.83503943  1
  I  I66  1  0.50161323  0.33336439  0.16577286  1
  I  I67  1  0.50077730  0.33043156  0.50208973  1
  I  I68  1  0.50304128  0.33581279  0.83137456  1
  I  I69  1  0.49860274  0.66920693  0.16502869  1
  I  I70  1  0.49862706  0.66654994  0.49959868  1
  I  I71  1  0.50220508  0.66689349  0.83544839  1
  I  I72  1  0.83415794  -0.00005877  0.16623687  1
  I  I73  1  0.83221650  -0.00136401  0.50500113  1
  I  I74  1  0.83448950  0.00151948  0.82869601  1
  I  I75  1  0.83330710  0.33755096  0.17217113  1
  I  I76  1  0.83463401  0.33670061  0.50015276  1
  I  I77  1  0.82908562  0.33562649  0.82992031  1
  I  I78  1  0.84033590  0.66237115  0.16060399  1
  I  I79  1  0.83755526  0.66436061  0.50350464  1
  I  I80  1  0.83258865  0.66349212  0.83363983  1
  I  I81  1  0.16460205  0.17118985  0.00243159  1
  I  I82  1  0.16966628  0.16975527  0.33424317  1
  I  I83  1  0.16809624  0.17022555  0.66384042  1
  I  I84  1  0.16353262  0.49753848  0.00247737  1
  I  I85  1  0.15895411  0.49673457  0.33373498  1
  I  I86  1  0.16312194  0.49685481  0.66398697  1
  I  I87  1  0.16700167  0.83301093  -0.00313377  1
  I  I88  1  0.16780983  0.83364703  0.33336814  1
  I  I89  1  0.17194422  0.83285873  0.66959422  1
  I  I90  1  0.49946544  0.16755680  0.00004020  1
  I  I91  1  0.50097721  0.16584780  0.33682266  1
  I  I92  1  0.49426816  0.16512146  0.66402544  1
  I  I93  1  0.50402996  0.50188305  -0.00362244  1
  I  I94  1  0.50278121  0.50142191  0.33342834  1
  I  I95  1  0.50423213  0.50608566  0.67021349  1
  I  I96  1  0.49672811  0.82974563  -0.00163480  1
  I  I97  1  0.50100699  0.83385508  0.33143914  1
  I  I98  1  0.49821826  0.83059612  0.66953677  1
  I  I99  1  0.83376624  0.17015398  -0.00378284  1
  I  I100  1  0.83123203  0.16602062  0.33308727  1
  I  I101  1  0.83487480  0.17125801  0.66883669  1
  I  I102  1  0.83425190  0.49563020  -0.00050033  1
  I  I103  1  0.83817999  0.50510125  0.33403222  1
  I  I104  1  0.83383891  0.50025355  0.66652374  1
  I  I105  1  0.83491118  0.83323012  0.00021784  1
  I  I106  1  0.83296567  0.83021146  0.33723322  1
  I  I107  1  0.83229677  0.82846710  0.66442458  1
  I  I108  1  0.00364132  0.16652766  0.17382260  1
  I  I109  1  0.00290352  0.16784356  0.49839030  1
  I  I110  1  -0.00315500  0.17237068  0.82979487  1
  I  I111  1  0.00008657  0.49719896  0.16506937  1
  I  I112  1  -0.00034890  0.49814537  0.50234801  1
  I  I113  1  -0.00274340  0.49846845  0.83255099  1
  I  I114  1  -0.00003593  0.83490856  0.16494599  1
  I  I115  1  -0.00300562  0.83322416  0.50361907  1
  I  I116  1  0.00147569  0.83354168  0.83115618  1
  I  I117  1  0.32949148  0.17400329  0.16633319  1
  I  I118  1  0.33170016  0.17078642  0.49854453  1
  I  I119  1  0.33310412  0.16818083  0.83362430  1
  I  I120  1  0.33009075  0.49807492  0.16996520  1
  I  I121  1  0.33024771  0.49791987  0.49683398  1
  I  I122  1  0.33550879  0.50362554  0.83303412  1
  I  I123  1  0.33609806  0.83134459  0.16488062  1
  I  I124  1  0.33337577  0.83194370  0.49990125  1
  I  I125  1  0.33456368  0.82805044  0.83538140  1
  I  I126  1  0.66672382  0.16680664  0.16795751  1
  I  I127  1  0.66534893  0.16513531  0.50386764  1
  I  I128  1  0.66980982  0.16680734  0.82941162  1
  I  I129  1  0.66926703  0.50269761  0.16862780  1
  I  I130  1  0.66954281  0.50211073  0.49909980  1
  I  I131  1  0.66788244  0.50239591  0.83255211  1
  I  I132  1  0.66345232  0.83235703  0.15881766  1
  I  I133  1  0.66996937  0.82813686  0.50309427  1
  I  I134  1  0.66402400  0.83179812  0.83483053  1
