# generated using pymatgen
data_Cs27Sn13Pb14I81
_symmetry_space_group_name_H-M   'P 1'
_cell_length_a   19.02642643
_cell_length_b   19.01258509
_cell_length_c   19.02301601
_cell_angle_alpha   89.99962385
_cell_angle_beta   90.00016106
_cell_angle_gamma   89.99961975
_symmetry_Int_Tables_number   1
_chemical_formula_structural   Cs27Sn13Pb14I81
_chemical_formula_sum   'Cs27 Sn13 Pb14 I81'
_cell_volume   6881.41532622
_cell_formula_units_Z   1
loop_
 _symmetry_equiv_pos_site_id
 _symmetry_equiv_pos_as_xyz
  1  'x, y, z'
loop_
 _atom_site_type_symbol
 _atom_site_label
 _atom_site_symmetry_multiplicity
 _atom_site_fract_x
 _atom_site_fract_y
 _atom_site_fract_z
 _atom_site_occupancy
  Cs  Cs0  1  -0.00000245  0.00931614  -0.00080941  1
  Cs  Cs1  1  -0.00137206  -0.00339247  0.33309434  1
  Cs  Cs2  1  -0.00211097  0.00061340  0.66845144  1
  Cs  Cs3  1  0.00128045  0.32389661  0.00813191  1
  Cs  Cs4  1  0.00972043  0.34215486  0.32104932  1
  Cs  Cs5  1  0.00452884  0.33045224  0.66812076  1
  Cs  Cs6  1  0.00041966  0.66529786  -0.00024343  1
  Cs  Cs7  1  0.00037615  0.66548419  0.33191192  1
  Cs  Cs8  1  -0.00329462  0.66761330  0.66645807  1
  Cs  Cs9  1  0.33590025  -0.00201412  -0.00341572  1
  Cs  Cs10  1  0.33280458  -0.00004708  0.33585261  1
  Cs  Cs11  1  0.32760409  0.00105973  0.66696661  1
  Cs  Cs12  1  0.33867565  0.33573179  0.00157945  1
  Cs  Cs13  1  0.32747463  0.33121576  0.34107847  1
  Cs  Cs14  1  0.33619148  0.33185899  0.65769330  1
  Cs  Cs15  1  0.33757446  0.66663379  -0.00394811  1
  Cs  Cs16  1  0.32955641  0.66800200  0.33272148  1
  Cs  Cs17  1  0.33158075  0.66680501  0.67178165  1
  Cs  Cs18  1  0.66359275  0.00342286  0.00230440  1
  Cs  Cs19  1  0.66677097  -0.00339665  0.33664911  1
  Cs  Cs20  1  0.67052533  0.00006975  0.66246254  1
  Cs  Cs21  1  0.66429965  0.33131477  -0.00032998  1
  Cs  Cs22  1  0.66567324  0.33727546  0.33394798  1
  Cs  Cs23  1  0.66302800  0.33503950  0.66755061  1
  Cs  Cs24  1  0.66265614  0.66611040  -0.00206110  1
  Cs  Cs25  1  0.66996907  0.66814420  0.33532601  1
  Cs  Cs26  1  0.67001304  0.66569722  0.66730471  1
  Sn  Sn27  1  0.83403968  0.83332876  0.16595989  1
  Sn  Sn28  1  0.83314561  0.83318699  0.83422709  1
  Sn  Sn29  1  0.50020428  0.16704176  0.83332816  1
  Sn  Sn30  1  0.83375559  0.16749439  0.49913376  1
  Sn  Sn31  1  0.83365370  0.83391511  0.49988103  1
  Sn  Sn32  1  0.50015177  0.49933913  0.16682446  1
  Sn  Sn33  1  0.16609472  0.83302627  0.49970143  1
  Sn  Sn34  1  0.16617098  0.49955338  0.83364943  1
  Sn  Sn35  1  0.50013787  0.16755366  0.16693700  1
  Sn  Sn36  1  0.16574491  0.83342370  0.16637461  1
  Sn  Sn37  1  0.49978508  0.83286953  0.50048376  1
  Sn  Sn38  1  0.50012006  0.49900061  0.83380280  1
  Sn  Sn39  1  0.83397556  0.49976058  0.83365600  1
  Pb  Pb40  1  0.16975484  0.16990690  0.83345557  1
  Pb  Pb41  1  0.49999895  0.83312701  0.16846503  1
  Pb  Pb42  1  0.16302835  0.16425980  0.49976035  1
  Pb  Pb43  1  0.16638464  0.50269129  0.50233962  1
  Pb  Pb44  1  0.16372259  0.83194335  0.83380119  1
  Pb  Pb45  1  0.50182200  0.16446497  0.49992554  1
  Pb  Pb46  1  0.50230449  0.83346665  0.83109456  1
  Pb  Pb47  1  0.83132479  0.16718133  0.83168266  1
  Pb  Pb48  1  0.16937553  0.50254512  0.16411657  1
  Pb  Pb49  1  0.50006096  0.50257160  0.50003298  1
  Pb  Pb50  1  0.16975116  0.16383705  0.16658532  1
  Pb  Pb51  1  0.83111467  0.50226010  0.16386171  1
  Pb  Pb52  1  0.83098431  0.16458976  0.16953552  1
  Pb  Pb53  1  0.83361712  0.49946264  0.50180097  1
  I  I54  1  0.16410170  -0.00419306  0.17080203  1
  I  I55  1  0.17082816  -0.00429094  0.49762353  1
  I  I56  1  0.16783323  0.00005052  0.83242233  1
  I  I57  1  0.16420148  0.33343674  0.16557830  1
  I  I58  1  0.16644340  0.33321627  0.50168552  1
  I  I59  1  0.15809994  0.33777308  0.83392760  1
  I  I60  1  0.16451890  0.67015100  0.17267782  1
  I  I61  1  0.16306550  0.67102756  0.49528033  1
  I  I62  1  0.17442534  0.66433340  0.83288495  1
  I  I63  1  0.50042078  0.00184981  0.16204659  1
  I  I64  1  0.49925950  -0.00343425  0.49924383  1
  I  I65  1  0.50294699  0.00222741  0.83814397  1
  I  I66  1  0.50204319  0.33372960  0.15975727  1
  I  I67  1  0.50314001  0.33333725  0.50061871  1
  I  I68  1  0.50344900  0.33459617  0.83764372  1
  I  I69  1  0.49981893  0.66465942  0.16066649  1
  I  I70  1  0.50477326  0.67052322  0.49965213  1
  I  I71  1  0.49841591  0.66378557  0.83733599  1
  I  I72  1  0.83422873  -0.00405336  0.16106106  1
  I  I73  1  0.83215222  -0.00325307  0.50334789  1
  I  I74  1  0.83137990  -0.00295744  0.83344578  1
  I  I75  1  0.83432106  0.33331881  0.16784429  1
  I  I76  1  0.82725899  0.33037193  0.50539500  1
  I  I77  1  0.83315385  0.33648650  0.82872246  1
  I  I78  1  0.83393469  0.67055406  0.17390488  1
  I  I79  1  0.83295683  0.67047507  0.49873901  1
  I  I80  1  0.82968132  0.66725926  0.83020177  1
  I  I81  1  0.16172212  0.16155407  -0.00009039  1
  I  I82  1  0.17134986  0.16993963  0.33331480  1
  I  I83  1  0.17012309  0.16404853  0.66666145  1
  I  I84  1  0.16497149  0.50578865  -0.00334892  1
  I  I85  1  0.16899978  0.49869895  0.33293788  1
  I  I86  1  0.17090824  0.50327470  0.67042068  1
  I  I87  1  0.16315913  0.83079958  0.00261960  1
  I  I88  1  0.16189547  0.83299285  0.33392095  1
  I  I89  1  0.16677375  0.83126318  0.66412866  1
  I  I90  1  0.50208134  0.16969020  -0.00037520  1
  I  I91  1  0.50197939  0.16935368  0.33075064  1
  I  I92  1  0.50187427  0.17200137  0.66915534  1
  I  I93  1  0.50023866  0.49771266  -0.00139504  1
  I  I94  1  0.50098796  0.49689834  0.33036725  1
  I  I95  1  0.50052807  0.49632790  0.67022593  1
  I  I96  1  0.49993144  0.83366703  -0.00025764  1
  I  I97  1  0.50580754  0.83379655  0.33609760  1
  I  I98  1  0.50029040  0.83317304  0.66342653  1
  I  I99  1  0.83404336  0.16455189  0.00019607  1
  I  I100  1  0.82849243  0.15546514  0.33680368  1
  I  I101  1  0.82938943  0.15664418  0.66439943  1
  I  I102  1  0.83398832  0.50793710  -0.00409573  1
  I  I103  1  0.82948165  0.50173232  0.33303850  1
  I  I104  1  0.82815102  0.50879154  0.67031104  1
  I  I105  1  0.83723489  0.82618734  -0.00007425  1
  I  I106  1  0.83257058  0.83920918  0.33398585  1
  I  I107  1  0.83211228  0.83254200  0.66620908  1
  I  I108  1  0.00002721  0.16772723  0.16751734  1
  I  I109  1  -0.00435408  0.15722112  0.50442032  1
  I  I110  1  -0.00001835  0.16675949  0.83079354  1
  I  I111  1  0.00010544  0.49942214  0.16585961  1
  I  I112  1  -0.00008588  0.50266159  0.50310510  1
  I  I113  1  -0.00066499  0.51086712  0.82882046  1
  I  I114  1  -0.00092190  0.83175235  0.17350288  1
  I  I115  1  -0.00092545  0.83753535  0.50007227  1
  I  I116  1  -0.00396424  0.82691166  0.82722731  1
  I  I117  1  0.33758209  0.16802686  0.16206603  1
  I  I118  1  0.33319487  0.16429385  0.50086805  1
  I  I119  1  0.33783981  0.16932892  0.83656601  1
  I  I120  1  0.33699568  0.50049514  0.15865516  1
  I  I121  1  0.33348162  0.50287733  0.50349360  1
  I  I122  1  0.33453971  0.49721545  0.83824509  1
  I  I123  1  0.33141511  0.83307076  0.17363901  1
  I  I124  1  0.33297201  0.83148036  0.49328604  1
  I  I125  1  0.33338607  0.83250620  0.83240945  1
  I  I126  1  0.66354511  0.16734327  0.16138503  1
  I  I127  1  0.66896750  0.15551151  0.50094206  1
  I  I128  1  0.66382305  0.17221337  0.83657406  1
  I  I129  1  0.66344096  0.49951452  0.15983159  1
  I  I130  1  0.66668003  0.50514459  0.50287138  1
  I  I131  1  0.66625320  0.50164697  0.83662738  1
  I  I132  1  0.66910484  0.83305702  0.16834330  1
  I  I133  1  0.66810029  0.83723440  0.49969920  1
  I  I134  1  0.66988139  0.82699841  0.83314574  1
