# generated using pymatgen
data_Cs27Sn14Pb13I81
_symmetry_space_group_name_H-M   'P 1'
_cell_length_a   18.98182800
_cell_length_b   18.97023999
_cell_length_c   18.97559538
_cell_angle_alpha   89.99997445
_cell_angle_beta   89.99971220
_cell_angle_gamma   89.99913742
_symmetry_Int_Tables_number   1
_chemical_formula_structural   Cs27Sn14Pb13I81
_chemical_formula_sum   'Cs27 Sn14 Pb13 I81'
_cell_volume   6832.91896545
_cell_formula_units_Z   1
loop_
 _symmetry_equiv_pos_site_id
 _symmetry_equiv_pos_as_xyz
  1  'x, y, z'
loop_
 _atom_site_type_symbol
 _atom_site_label
 _atom_site_symmetry_multiplicity
 _atom_site_fract_x
 _atom_site_fract_y
 _atom_site_fract_z
 _atom_site_occupancy
  Cs  Cs0  1  0.00155202  -0.00018460  0.00066302  1
  Cs  Cs1  1  -0.00011718  0.00073450  0.33451475  1
  Cs  Cs2  1  -0.00431884  -0.00099764  0.66313012  1
  Cs  Cs3  1  -0.00089010  0.33118005  0.00301326  1
  Cs  Cs4  1  0.00132375  0.33231283  0.33523244  1
  Cs  Cs5  1  0.00311322  0.33834907  0.65710044  1
  Cs  Cs6  1  0.00301211  0.66872152  -0.00442303  1
  Cs  Cs7  1  -0.00104120  0.66765724  0.33123373  1
  Cs  Cs8  1  -0.00721066  0.66147670  0.67506449  1
  Cs  Cs9  1  0.33333520  0.00075626  0.00001373  1
  Cs  Cs10  1  0.33461931  -0.00158333  0.33446916  1
  Cs  Cs11  1  0.33747178  0.00029541  0.66470091  1
  Cs  Cs12  1  0.33416984  0.33119437  0.00028087  1
  Cs  Cs13  1  0.33164054  0.33570086  0.33407114  1
  Cs  Cs14  1  0.32945223  0.33872555  0.66508223  1
  Cs  Cs15  1  0.32978324  0.66598784  -0.00243662  1
  Cs  Cs16  1  0.33543442  0.67019789  0.33372123  1
  Cs  Cs17  1  0.33067570  0.66060777  0.66596503  1
  Cs  Cs18  1  0.66535978  0.00273719  0.00017933  1
  Cs  Cs19  1  0.66523970  -0.00089305  0.33307392  1
  Cs  Cs20  1  0.66353392  -0.00103369  0.66623830  1
  Cs  Cs21  1  0.66628951  0.33061234  0.00202865  1
  Cs  Cs22  1  0.66691579  0.33574563  0.33054815  1
  Cs  Cs23  1  0.66839931  0.33924432  0.66724827  1
  Cs  Cs24  1  0.66670116  0.66312188  0.00096510  1
  Cs  Cs25  1  0.66531494  0.66673974  0.33284950  1
  Cs  Cs26  1  0.67574604  0.66165871  0.66780395  1
  Sn  Sn27  1  0.16612662  0.49940405  0.16665327  1
  Sn  Sn28  1  0.16690219  0.16717693  0.16623495  1
  Sn  Sn29  1  0.83340892  0.16626929  0.16614693  1
  Sn  Sn30  1  0.16644645  0.16611785  0.83337619  1
  Sn  Sn31  1  0.50013257  0.16664593  0.49995111  1
  Sn  Sn32  1  0.16679051  0.83332555  0.50071559  1
  Sn  Sn33  1  0.49986087  0.83357556  0.83328781  1
  Sn  Sn34  1  0.83255986  0.83367418  0.16639425  1
  Sn  Sn35  1  0.49985719  0.16628782  0.83287406  1
  Sn  Sn36  1  0.50064914  0.83417508  0.16605570  1
  Sn  Sn37  1  0.83455015  0.49998568  0.16640797  1
  Sn  Sn38  1  0.83361437  0.16655469  0.83364366  1
  Sn  Sn39  1  0.49924356  0.83379914  0.50063482  1
  Sn  Sn40  1  0.49970144  0.16579453  0.16705896  1
  Pb  Pb41  1  0.16696330  0.83386364  0.16761408  1
  Pb  Pb42  1  0.16662586  0.49698865  0.83603265  1
  Pb  Pb43  1  0.83039058  0.16664502  0.49989493  1
  Pb  Pb44  1  0.49999082  0.49972667  0.83352294  1
  Pb  Pb45  1  0.16884492  0.83592389  0.83033178  1
  Pb  Pb46  1  0.16667569  0.50355203  0.49722964  1
  Pb  Pb47  1  0.83262161  0.83345474  0.49807980  1
  Pb  Pb48  1  0.16888758  0.16506250  0.49989439  1
  Pb  Pb49  1  0.50003177  0.50057579  0.49989972  1
  Pb  Pb50  1  0.83088792  0.83581682  0.83608804  1
  Pb  Pb51  1  0.83335966  0.49991714  0.49701580  1
  Pb  Pb52  1  0.83344106  0.49652549  0.83636940  1
  Pb  Pb53  1  0.49961751  0.50013438  0.16658946  1
  I  I54  1  0.16510686  0.00329507  0.16417731  1
  I  I55  1  0.17011543  -0.00251650  0.49540062  1
  I  I56  1  0.16578849  0.00411571  0.84306611  1
  I  I57  1  0.16439210  0.33135613  0.16360455  1
  I  I58  1  0.16829939  0.33327668  0.50164042  1
  I  I59  1  0.17118311  0.32838467  0.83446692  1
  I  I60  1  0.16378637  0.66479673  0.17057427  1
  I  I61  1  0.17679972  0.67102893  0.49626419  1
  I  I62  1  0.16938154  0.66687288  0.83413547  1
  I  I63  1  0.50239084  0.00092815  0.16701421  1
  I  I64  1  0.49655528  -0.00009096  0.49855315  1
  I  I65  1  0.50030983  0.00147814  0.83439453  1
  I  I66  1  0.50244415  0.32966086  0.16593396  1
  I  I67  1  0.50073869  0.32990413  0.49878457  1
  I  I68  1  0.50049045  0.32861325  0.83532113  1
  I  I69  1  0.50308122  0.67019531  0.16813292  1
  I  I70  1  0.49586425  0.67082422  0.49677363  1
  I  I71  1  0.49940484  0.67017001  0.83487569  1
  I  I72  1  0.83213469  0.00112494  0.16383580  1
  I  I73  1  0.83610937  0.00011927  0.49596440  1
  I  I74  1  0.83448274  0.00394675  0.84050938  1
  I  I75  1  0.83259547  0.33183687  0.16281809  1
  I  I76  1  0.83131155  0.33290767  0.49814480  1
  I  I77  1  0.82822955  0.32835796  0.84024482  1
  I  I78  1  0.83221022  0.66705631  0.16992936  1
  I  I79  1  0.83029005  0.66691532  0.49731848  1
  I  I80  1  0.83100905  0.66672153  0.83420213  1
  I  I81  1  0.17096130  0.16969895  0.00145599  1
  I  I82  1  0.16619096  0.16909181  0.32996150  1
  I  I83  1  0.16728593  0.16316541  0.66937407  1
  I  I84  1  0.16337054  0.50046128  0.00418178  1
  I  I85  1  0.16288508  0.49124002  0.32926161  1
  I  I86  1  0.16786505  0.49848876  0.66666608  1
  I  I87  1  0.16731385  0.83086553  -0.00009059  1
  I  I88  1  0.17332863  0.83523368  0.33508095  1
  I  I89  1  0.17415495  0.83742490  0.66290426  1
  I  I90  1  0.50020984  0.16193245  0.00065496  1
  I  I91  1  0.50008595  0.16094969  0.33197169  1
  I  I92  1  0.50014890  0.15934698  0.66742043  1
  I  I93  1  0.50006995  0.50047204  0.00037469  1
  I  I94  1  0.50094856  0.49903357  0.33292731  1
  I  I95  1  0.49944535  0.49837787  0.66670072  1
  I  I96  1  0.50478605  0.84019616  0.00080955  1
  I  I97  1  0.50001600  0.83913649  0.33258681  1
  I  I98  1  0.49377904  0.84335409  0.66660979  1
  I  I99  1  0.82869828  0.16697082  0.00183794  1
  I  I100  1  0.83369598  0.16697019  0.32930580  1
  I  I101  1  0.83298476  0.16502503  0.66981555  1
  I  I102  1  0.83620291  0.50205247  0.00448640  1
  I  I103  1  0.83584925  0.49624429  0.32829416  1
  I  I104  1  0.83240716  0.49935098  0.66719765  1
  I  I105  1  0.82941843  0.83193244  0.00448673  1
  I  I106  1  0.82781212  0.83629636  0.32916112  1
  I  I107  1  0.83266031  0.83518375  0.66709122  1
  I  I108  1  -0.00030100  0.16666319  0.16033155  1
  I  I109  1  0.00012436  0.16503532  0.49949203  1
  I  I110  1  -0.00001428  0.16673631  0.84395666  1
  I  I111  1  -0.00042683  0.49583076  0.16734966  1
  I  I112  1  0.00025886  0.50032140  0.50016310  1
  I  I113  1  -0.00003211  0.50099707  0.83243568  1
  I  I114  1  -0.00227728  0.83615353  0.17014033  1
  I  I115  1  0.00226743  0.83456743  0.49477936  1
  I  I116  1  -0.00011434  0.83499830  0.83298842  1
  I  I117  1  0.33400087  0.16663025  0.16414668  1
  I  I118  1  0.33702167  0.16346685  0.49839592  1
  I  I119  1  0.33427904  0.16292317  0.83807165  1
  I  I120  1  0.33060730  0.49563730  0.16695086  1
  I  I121  1  0.33324281  0.49766122  0.49645614  1
  I  I122  1  0.33323448  0.49772173  0.83680920  1
  I  I123  1  0.33656686  0.83661916  0.16606710  1
  I  I124  1  0.33551386  0.83825510  0.49536186  1
  I  I125  1  0.33725450  0.84038710  0.84059150  1
  I  I126  1  0.66635488  0.16657882  0.16473630  1
  I  I127  1  0.66218536  0.15873005  0.49848310  1
  I  I128  1  0.66580319  0.16290797  0.83764909  1
  I  I129  1  0.66937494  0.49727156  0.16649642  1
  I  I130  1  0.66659065  0.50115663  0.49746362  1
  I  I131  1  0.66682333  0.49789876  0.83577065  1
  I  I132  1  0.66551802  0.83641580  0.16904074  1
  I  I133  1  0.66275670  0.83862663  0.50004974  1
  I  I134  1  0.66261876  0.83999417  0.82888360  1
