# generated using pymatgen
data_Cs27Sn13Pb14I81
_symmetry_space_group_name_H-M   'P 1'
_cell_length_a   18.97802567
_cell_length_b   18.97413697
_cell_length_c   18.97857318
_cell_angle_alpha   89.99859587
_cell_angle_beta   89.99855297
_cell_angle_gamma   90.00085447
_symmetry_Int_Tables_number   1
_chemical_formula_structural   Cs27Sn13Pb14I81
_chemical_formula_sum   'Cs27 Sn13 Pb14 I81'
_cell_volume   6834.02588998
_cell_formula_units_Z   1
loop_
 _symmetry_equiv_pos_site_id
 _symmetry_equiv_pos_as_xyz
  1  'x, y, z'
loop_
 _atom_site_type_symbol
 _atom_site_label
 _atom_site_symmetry_multiplicity
 _atom_site_fract_x
 _atom_site_fract_y
 _atom_site_fract_z
 _atom_site_occupancy
  Cs  Cs0  1  -0.00225389  -0.00250110  0.00009012  1
  Cs  Cs1  1  -0.00270871  0.00286529  0.33200040  1
  Cs  Cs2  1  -0.00262234  0.00032208  0.66691393  1
  Cs  Cs3  1  0.00149164  0.33359239  0.00101027  1
  Cs  Cs4  1  0.00086848  0.33158202  0.33326292  1
  Cs  Cs5  1  0.00000235  0.33866267  0.66572918  1
  Cs  Cs6  1  0.00298472  0.66798624  -0.00171593  1
  Cs  Cs7  1  0.00394966  0.66720513  0.33664506  1
  Cs  Cs8  1  0.00342074  0.66070939  0.66524062  1
  Cs  Cs9  1  0.32930392  0.00042501  -0.00304830  1
  Cs  Cs10  1  0.33438762  -0.00536343  0.33672788  1
  Cs  Cs11  1  0.33336198  0.00275823  0.66632864  1
  Cs  Cs12  1  0.33399337  0.33245364  0.00202042  1
  Cs  Cs13  1  0.33331599  0.33329185  0.33027304  1
  Cs  Cs14  1  0.33387391  0.32846432  0.66921342  1
  Cs  Cs15  1  0.33509990  0.66790909  0.00100644  1
  Cs  Cs16  1  0.33355071  0.67207012  0.33486792  1
  Cs  Cs17  1  0.32684724  0.66827979  0.66462221  1
  Cs  Cs18  1  0.67139437  -0.00279664  -0.00088016  1
  Cs  Cs19  1  0.66871762  -0.00308193  0.33486564  1
  Cs  Cs20  1  0.66658945  0.00035995  0.66644656  1
  Cs  Cs21  1  0.66521348  0.33500768  0.00223060  1
  Cs  Cs22  1  0.66582845  0.33449312  0.33144544  1
  Cs  Cs23  1  0.66645680  0.33271270  0.66624725  1
  Cs  Cs24  1  0.66539679  0.66647056  -0.00173232  1
  Cs  Cs25  1  0.66442636  0.66624915  0.33209184  1
  Cs  Cs26  1  0.66930777  0.66660176  0.67028693  1
  Sn  Sn27  1  0.83320937  0.16673158  0.83266910  1
  Sn  Sn28  1  0.83266813  0.83375330  0.83200100  1
  Sn  Sn29  1  0.49947100  0.16645179  0.16675772  1
  Sn  Sn30  1  0.50002354  0.50063220  0.83295422  1
  Sn  Sn31  1  0.16709115  0.49947911  0.16680349  1
  Sn  Sn32  1  0.49974240  0.49947025  0.16690161  1
  Sn  Sn33  1  0.83317519  0.83349036  0.50079937  1
  Sn  Sn34  1  0.83353110  0.50032238  0.16672886  1
  Sn  Sn35  1  0.50033469  0.83282975  0.83325806  1
  Sn  Sn36  1  0.16616165  0.16693180  0.49928797  1
  Sn  Sn37  1  0.49994594  0.49976660  0.50014444  1
  Sn  Sn38  1  0.83380093  0.16644330  0.50079946  1
  Sn  Sn39  1  0.16779488  0.16703594  0.16767730  1
  Pb  Pb40  1  0.83185009  0.49977666  0.49798935  1
  Pb  Pb41  1  0.50218839  0.16649335  0.83575166  1
  Pb  Pb42  1  0.50005341  0.83363711  0.16447616  1
  Pb  Pb43  1  0.83336801  0.83023774  0.16667638  1
  Pb  Pb44  1  0.16366413  0.16675656  0.83360736  1
  Pb  Pb45  1  0.83332828  0.16818195  0.16685142  1
  Pb  Pb46  1  0.17001791  0.49976150  0.83577459  1
  Pb  Pb47  1  0.83186256  0.50008323  0.83523671  1
  Pb  Pb48  1  0.50040096  0.16804457  0.49779544  1
  Pb  Pb49  1  0.16945852  0.49749859  0.49781854  1
  Pb  Pb50  1  0.50216673  0.83095073  0.50274417  1
  Pb  Pb51  1  0.16376481  0.83630644  0.50010127  1
  Pb  Pb52  1  0.16672965  0.83403646  0.16680562  1
  Pb  Pb53  1  0.16617823  0.83337456  0.83306219  1
  I  I54  1  0.17108582  0.00412284  0.16981428  1
  I  I55  1  0.16696176  0.00434826  0.49242234  1
  I  I56  1  0.17189827  0.00028996  0.83672370  1
  I  I57  1  0.16786956  0.33327041  0.16999422  1
  I  I58  1  0.15887724  0.32977792  0.49782015  1
  I  I59  1  0.16583555  0.33321137  0.83190955  1
  I  I60  1  0.16778114  0.66323399  0.16510722  1
  I  I61  1  0.16597776  0.66641268  0.49855745  1
  I  I62  1  0.16218628  0.66641747  0.83548710  1
  I  I63  1  0.49570735  0.00313537  0.16554960  1
  I  I64  1  0.49841695  0.00002833  0.49923274  1
  I  I65  1  0.50325361  -0.00244178  0.83582673  1
  I  I66  1  0.49991066  0.33494033  0.16421962  1
  I  I67  1  0.50297442  0.33619071  0.50320782  1
  I  I68  1  0.50184181  0.33601339  0.83385858  1
  I  I69  1  0.49985082  0.66301957  0.16778681  1
  I  I70  1  0.50200556  0.66288843  0.49289736  1
  I  I71  1  0.50714100  0.66590973  0.83661511  1
  I  I72  1  0.83316464  0.00005937  0.16603459  1
  I  I73  1  0.83619825  0.00096419  0.50289771  1
  I  I74  1  0.82728501  -0.00025428  0.83106811  1
  I  I75  1  0.83141352  0.33608883  0.16637113  1
  I  I76  1  0.83578317  0.33030328  0.50285798  1
  I  I77  1  0.83204151  0.33092005  0.83056739  1
  I  I78  1  0.83085738  0.66220037  0.16621007  1
  I  I79  1  0.82978049  0.66896604  0.50316699  1
  I  I80  1  0.82998784  0.66941584  0.83102298  1
  I  I81  1  0.16988580  0.17134993  0.00343808  1
  I  I82  1  0.16345542  0.17148166  0.33257672  1
  I  I83  1  0.16501049  0.16544576  0.66373741  1
  I  I84  1  0.16719739  0.49295176  0.00430986  1
  I  I85  1  0.16801518  0.49750533  0.32955394  1
  I  I86  1  0.16759467  0.49907842  0.66636009  1
  I  I87  1  0.16397245  0.83501890  -0.00003270  1
  I  I88  1  0.16512896  0.83062247  0.33353408  1
  I  I89  1  0.16991411  0.83486185  0.66646372  1
  I  I90  1  0.49617197  0.17331197  0.00358804  1
  I  I91  1  0.50140674  0.17422669  0.32985977  1
  I  I92  1  0.49775208  0.16900090  0.66674353  1
  I  I93  1  0.50060482  0.50016201  0.00100874  1
  I  I94  1  0.50122014  0.49436521  0.33177557  1
  I  I95  1  0.50330919  0.50367998  0.66723185  1
  I  I96  1  0.50784914  0.82734614  -0.00337421  1
  I  I97  1  0.50171897  0.83188026  0.33359797  1
  I  I98  1  0.50299579  0.82878349  0.67063137  1
  I  I99  1  0.83204020  0.16349982  -0.00200874  1
  I  I100  1  0.83420122  0.16385042  0.33587193  1
  I  I101  1  0.83711892  0.16341548  0.66598107  1
  I  I102  1  0.83040868  0.49845659  0.00323307  1
  I  I103  1  0.82964880  0.49863395  0.33003558  1
  I  I104  1  0.83013623  0.49930670  0.66663456  1
  I  I105  1  0.82931840  0.83745703  -0.00328429  1
  I  I106  1  0.83403963  0.83807112  0.33623847  1
  I  I107  1  0.82798360  0.83832554  0.66724615  1
  I  I108  1  0.00232714  0.17205086  0.16760047  1
  I  I109  1  -0.00085757  0.16316486  0.49663721  1
  I  I110  1  -0.00434449  0.16012058  0.83545081  1
  I  I111  1  0.00048484  0.49520378  0.16660247  1
  I  I112  1  0.00012537  0.50198049  0.49753253  1
  I  I113  1  -0.00000388  0.50078547  0.83604472  1
  I  I114  1  -0.00020798  0.83261998  0.16353602  1
  I  I115  1  -0.00433546  0.83237217  0.50627994  1
  I  I116  1  -0.00401785  0.83843374  0.83147910  1
  I  I117  1  0.33313348  0.17624892  0.17061802  1
  I  I118  1  0.33112899  0.17032011  0.49690520  1
  I  I119  1  0.33356412  0.16650389  0.83162389  1
  I  I120  1  0.33431320  0.49439569  0.16540198  1
  I  I121  1  0.33732022  0.49855885  0.49849722  1
  I  I122  1  0.33839706  0.50503695  0.83536857  1
  I  I123  1  0.33354363  0.82961068  0.16445890  1
  I  I124  1  0.33345953  0.83345193  0.50059603  1
  I  I125  1  0.33657497  0.82794197  0.83644442  1
  I  I126  1  0.66454417  0.17301064  0.16588123  1
  I  I127  1  0.66966028  0.16456025  0.50205497  1
  I  I128  1  0.66997369  0.16585864  0.82936663  1
  I  I129  1  0.66502892  0.49573024  0.16641479  1
  I  I130  1  0.66389541  0.49765133  0.49603499  1
  I  I131  1  0.66363327  0.50072266  0.83758483  1
  I  I132  1  0.66679215  0.83362152  0.16809100  1
  I  I133  1  0.67006604  0.84060678  0.50083527  1
  I  I134  1  0.66743443  0.83270803  0.83081634  1
