# generated using pymatgen
data_Cs27Sn13Pb14I81
_symmetry_space_group_name_H-M   'P 1'
_cell_length_a   18.97120943
_cell_length_b   18.98087724
_cell_length_c   18.97697144
_cell_angle_alpha   90.00029060
_cell_angle_beta   90.00114602
_cell_angle_gamma   89.99882826
_symmetry_Int_Tables_number   1
_chemical_formula_structural   Cs27Sn13Pb14I81
_chemical_formula_sum   'Cs27 Sn13 Pb14 I81'
_cell_volume   6833.42138798
_cell_formula_units_Z   1
loop_
 _symmetry_equiv_pos_site_id
 _symmetry_equiv_pos_as_xyz
  1  'x, y, z'
loop_
 _atom_site_type_symbol
 _atom_site_label
 _atom_site_symmetry_multiplicity
 _atom_site_fract_x
 _atom_site_fract_y
 _atom_site_fract_z
 _atom_site_occupancy
  Cs  Cs0  1  -0.00145146  0.00189775  -0.00048359  1
  Cs  Cs1  1  -0.00370312  -0.00095094  0.33438018  1
  Cs  Cs2  1  0.00240255  -0.00691652  0.66730044  1
  Cs  Cs3  1  0.00057004  0.33389357  -0.00046567  1
  Cs  Cs4  1  -0.00197875  0.33449361  0.33141329  1
  Cs  Cs5  1  -0.00046507  0.33468505  0.66996781  1
  Cs  Cs6  1  0.00192071  0.66343591  -0.00118267  1
  Cs  Cs7  1  0.00263589  0.66561644  0.34011837  1
  Cs  Cs8  1  -0.00040444  0.66820830  0.66477233  1
  Cs  Cs9  1  0.33330703  0.00096952  -0.00044543  1
  Cs  Cs10  1  0.33296245  -0.00070763  0.33389731  1
  Cs  Cs11  1  0.33220023  0.00711210  0.66542632  1
  Cs  Cs12  1  0.33221132  0.33328928  0.00000432  1
  Cs  Cs13  1  0.33320251  0.33412047  0.33193813  1
  Cs  Cs14  1  0.33477947  0.33055204  0.66789596  1
  Cs  Cs15  1  0.33461029  0.66586334  0.00138427  1
  Cs  Cs16  1  0.33254437  0.66645680  0.33361684  1
  Cs  Cs17  1  0.33306109  0.66566212  0.66377485  1
  Cs  Cs18  1  0.66989019  -0.01326228  0.00363587  1
  Cs  Cs19  1  0.67201789  0.00492610  0.32917218  1
  Cs  Cs20  1  0.66528238  0.00225979  0.66733362  1
  Cs  Cs21  1  0.66898307  0.33541098  0.00033411  1
  Cs  Cs22  1  0.66766407  0.33144607  0.33510189  1
  Cs  Cs23  1  0.66467496  0.33213428  0.66410708  1
  Cs  Cs24  1  0.66440484  0.67276480  -0.00196770  1
  Cs  Cs25  1  0.66429951  0.66611027  0.33287950  1
  Cs  Cs26  1  0.66778533  0.66652692  0.66987872  1
  Sn  Sn27  1  0.83211280  0.50023718  0.16597091  1
  Sn  Sn28  1  0.16721782  0.83228995  0.83433931  1
  Sn  Sn29  1  0.16625621  0.16786042  0.49896485  1
  Sn  Sn30  1  0.83300703  0.16728844  0.83349911  1
  Sn  Sn31  1  0.83393144  0.49896367  0.83428449  1
  Sn  Sn32  1  0.49958628  0.16727538  0.16608810  1
  Sn  Sn33  1  0.16636830  0.50069359  0.83226084  1
  Sn  Sn34  1  0.50105253  0.49915748  0.16719513  1
  Sn  Sn35  1  0.49910903  0.50078940  0.49922173  1
  Sn  Sn36  1  0.16716410  0.16571654  0.16753650  1
  Sn  Sn37  1  0.16755164  0.49869028  0.50118270  1
  Sn  Sn38  1  0.16666052  0.83435990  0.16602878  1
  Sn  Sn39  1  0.50008297  0.83299212  0.49981646  1
  Pb  Pb40  1  0.49797564  0.83319400  0.16842073  1
  Pb  Pb41  1  0.50002202  0.49981865  0.83334226  1
  Pb  Pb42  1  0.49676618  0.83339820  0.83049219  1
  Pb  Pb43  1  0.82950164  0.83332222  0.49993264  1
  Pb  Pb44  1  0.49829754  0.16715104  0.49789724  1
  Pb  Pb45  1  0.83352913  0.16851668  0.16485860  1
  Pb  Pb46  1  0.16548611  0.16699760  0.83363175  1
  Pb  Pb47  1  0.83561169  0.83262139  0.83325794  1
  Pb  Pb48  1  0.16794611  0.83334237  0.49996937  1
  Pb  Pb49  1  0.83656152  0.16682527  0.50275118  1
  Pb  Pb50  1  0.50332333  0.16659138  0.83701719  1
  Pb  Pb51  1  0.16688480  0.49976412  0.16673721  1
  Pb  Pb52  1  0.83661366  0.82968278  0.16692361  1
  Pb  Pb53  1  0.83295695  0.50003399  0.50038730  1
  I  I54  1  0.17273658  0.00109854  0.16653013  1
  I  I55  1  0.16888051  0.00218493  0.49990732  1
  I  I56  1  0.16495429  -0.00189792  0.83354408  1
  I  I57  1  0.16751615  0.33122350  0.16729312  1
  I  I58  1  0.17225551  0.33460164  0.50020771  1
  I  I59  1  0.16404200  0.33618539  0.83260146  1
  I  I60  1  0.16649936  0.66814925  0.16571381  1
  I  I61  1  0.16838455  0.66383767  0.50010346  1
  I  I62  1  0.16112079  0.66522639  0.83341762  1
  I  I63  1  0.49645998  0.00251693  0.16793914  1
  I  I64  1  0.49624298  -0.00181233  0.49985644  1
  I  I65  1  0.49942499  0.00008671  0.83176360  1
  I  I66  1  0.49708297  0.33439882  0.17215394  1
  I  I67  1  0.49744145  0.33647565  0.49771427  1
  I  I68  1  0.49467064  0.33338285  0.82942677  1
  I  I69  1  0.50157278  0.66360429  0.16886327  1
  I  I70  1  0.49276138  0.66444412  0.49416569  1
  I  I71  1  0.50341566  0.66639699  0.83765625  1
  I  I72  1  0.83061122  -0.00001653  0.16450206  1
  I  I73  1  0.83441826  0.00026824  0.50199004  1
  I  I74  1  0.83548530  0.00233820  0.83321237  1
  I  I75  1  0.83503639  0.33658016  0.16429022  1
  I  I76  1  0.83000976  0.33356768  0.49858454  1
  I  I77  1  0.84112899  0.33525422  0.83733173  1
  I  I78  1  0.82805591  0.66175349  0.15970043  1
  I  I79  1  0.83994015  0.66617078  0.50132910  1
  I  I80  1  0.83586315  0.66303672  0.83676072  1
  I  I81  1  0.16872193  0.16643366  0.00276002  1
  I  I82  1  0.17061716  0.16715151  0.33258245  1
  I  I83  1  0.16548661  0.16729242  0.66454707  1
  I  I84  1  0.16543629  0.50063497  -0.00205084  1
  I  I85  1  0.16736168  0.50005070  0.33551589  1
  I  I86  1  0.16623966  0.50048285  0.66658810  1
  I  I87  1  0.16694287  0.83250836  0.00003165  1
  I  I88  1  0.16883459  0.83332415  0.33113028  1
  I  I89  1  0.16717762  0.83221402  0.66885802  1
  I  I90  1  0.49057924  0.17420947  0.00485410  1
  I  I91  1  0.49782408  0.16885710  0.32994874  1
  I  I92  1  0.49867333  0.16678678  0.66656237  1
  I  I93  1  0.49943579  0.49583229  0.00312093  1
  I  I94  1  0.49870059  0.50032180  0.33316589  1
  I  I95  1  0.49830015  0.50409155  0.66364194  1
  I  I96  1  0.50051377  0.83320839  0.00027750  1
  I  I97  1  0.49440595  0.82972719  0.33595592  1
  I  I98  1  0.49788935  0.82554153  0.66271380  1
  I  I99  1  0.83721367  0.17122581  -0.00274455  1
  I  I100  1  0.83232342  0.16788154  0.33300959  1
  I  I101  1  0.83491735  0.17458924  0.67050248  1
  I  I102  1  0.83571956  0.49549140  -0.00058650  1
  I  I103  1  0.83362216  0.49985920  0.33068899  1
  I  I104  1  0.83556555  0.49696484  0.66982023  1
  I  I105  1  0.83069807  0.83485266  0.00012704  1
  I  I106  1  0.83822112  0.83222004  0.33305590  1
  I  I107  1  0.83727443  0.83117504  0.66691258  1
  I  I108  1  0.00309369  0.16491113  0.16874848  1
  I  I109  1  0.00489706  0.17252552  0.49279053  1
  I  I110  1  -0.00209175  0.16978916  0.83554248  1
  I  I111  1  -0.00157245  0.49974797  0.16506360  1
  I  I112  1  0.00317340  0.49695139  0.49981047  1
  I  I113  1  0.00084021  0.49980737  0.83440507  1
  I  I114  1  0.00470071  0.83877636  0.16361763  1
  I  I115  1  0.00054405  0.83285692  0.50040754  1
  I  I116  1  0.00385333  0.83185314  0.83535162  1
  I  I117  1  0.33236180  0.16964585  0.16981683  1
  I  I118  1  0.33000274  0.16818877  0.49989079  1
  I  I119  1  0.33315306  0.16662122  0.83186092  1
  I  I120  1  0.33552080  0.49940641  0.16795251  1
  I  I121  1  0.33272814  0.50049747  0.49923129  1
  I  I122  1  0.33013308  0.50386972  0.83277006  1
  I  I123  1  0.32992979  0.83188654  0.16371119  1
  I  I124  1  0.33542091  0.82989219  0.49947017  1
  I  I125  1  0.32872177  0.82686079  0.83800230  1
  I  I126  1  0.66410981  0.17010846  0.16620787  1
  I  I127  1  0.66653171  0.16644301  0.49942315  1
  I  I128  1  0.67090936  0.17583867  0.83247514  1
  I  I129  1  0.66557097  0.49396078  0.16759926  1
  I  I130  1  0.66339568  0.50428964  0.49872473  1
  I  I131  1  0.66961956  0.49551305  0.83407136  1
  I  I132  1  0.66654418  0.83601638  0.16826184  1
  I  I133  1  0.66156913  0.82503561  0.49924371  1
  I  I134  1  0.66664724  0.83314940  0.83220416  1
