# generated using pymatgen
data_Cs27Sn13Pb14I81
_symmetry_space_group_name_H-M   'P 1'
_cell_length_a   18.99249301
_cell_length_b   18.98129920
_cell_length_c   19.00069060
_cell_angle_alpha   89.99982568
_cell_angle_beta   90.00124957
_cell_angle_gamma   90.00206676
_symmetry_Int_Tables_number   1
_chemical_formula_structural   Cs27Sn13Pb14I81
_chemical_formula_sum   'Cs27 Sn13 Pb14 I81'
_cell_volume   6849.79060920
_cell_formula_units_Z   1
loop_
 _symmetry_equiv_pos_site_id
 _symmetry_equiv_pos_as_xyz
  1  'x, y, z'
loop_
 _atom_site_type_symbol
 _atom_site_label
 _atom_site_symmetry_multiplicity
 _atom_site_fract_x
 _atom_site_fract_y
 _atom_site_fract_z
 _atom_site_occupancy
  Cs  Cs0  1  -0.00342782  0.00154885  0.00051041  1
  Cs  Cs1  1  0.00159506  -0.00012779  0.33502600  1
  Cs  Cs2  1  -0.00119183  0.00450129  0.66385303  1
  Cs  Cs3  1  -0.00048249  0.33214792  0.00004533  1
  Cs  Cs4  1  0.00120320  0.33306742  0.33378751  1
  Cs  Cs5  1  0.00303802  0.33145073  0.66438918  1
  Cs  Cs6  1  -0.00187614  0.66681034  0.00039973  1
  Cs  Cs7  1  -0.00212141  0.66887848  0.33895456  1
  Cs  Cs8  1  0.00412674  0.66690356  0.65874774  1
  Cs  Cs9  1  0.33343257  -0.00977493  -0.00000922  1
  Cs  Cs10  1  0.34081559  -0.00448979  0.33240126  1
  Cs  Cs11  1  0.33724848  -0.00344036  0.66751657  1
  Cs  Cs12  1  0.33238034  0.33479484  -0.00156000  1
  Cs  Cs13  1  0.33498489  0.33248114  0.33300345  1
  Cs  Cs14  1  0.33238387  0.33375918  0.66770846  1
  Cs  Cs15  1  0.33213320  0.67237680  -0.00160796  1
  Cs  Cs16  1  0.33087612  0.67298211  0.33049270  1
  Cs  Cs17  1  0.32524189  0.67194062  0.66979396  1
  Cs  Cs18  1  0.67008578  0.00020494  0.00144446  1
  Cs  Cs19  1  0.65682792  0.00211390  0.33518962  1
  Cs  Cs20  1  0.66446027  -0.00269154  0.66487203  1
  Cs  Cs21  1  0.66782436  0.33419398  -0.00061349  1
  Cs  Cs22  1  0.66290903  0.33386185  0.33203392  1
  Cs  Cs23  1  0.66466727  0.33422931  0.66930143  1
  Cs  Cs24  1  0.66810244  0.66442535  -0.00083861  1
  Cs  Cs25  1  0.67159126  0.66439170  0.33561354  1
  Cs  Cs26  1  0.66873735  0.66774453  0.66636625  1
  Sn  Sn27  1  0.49906673  0.16729348  0.83395571  1
  Sn  Sn28  1  0.83297472  0.16729671  0.49971202  1
  Sn  Sn29  1  0.16650712  0.49945841  0.16641669  1
  Sn  Sn30  1  0.16694184  0.16703432  0.16659300  1
  Sn  Sn31  1  0.16673134  0.16702624  0.49948364  1
  Sn  Sn32  1  0.83343111  0.50066380  0.83342594  1
  Sn  Sn33  1  0.16796543  0.16690581  0.83385270  1
  Sn  Sn34  1  0.83365928  0.83208775  0.83369379  1
  Sn  Sn35  1  0.49954476  0.50022038  0.50061247  1
  Sn  Sn36  1  0.83329269  0.83293015  0.16624666  1
  Sn  Sn37  1  0.83375546  0.50033125  0.16599616  1
  Sn  Sn38  1  0.50020899  0.49949629  0.83311162  1
  Sn  Sn39  1  0.49979050  0.49983745  0.16636206  1
  Pb  Pb40  1  0.50258922  0.83255683  0.83348303  1
  Pb  Pb41  1  0.49927083  0.16838971  0.50224341  1
  Pb  Pb42  1  0.83320275  0.83599586  0.49973764  1
  Pb  Pb43  1  0.83311508  0.16721177  0.83189440  1
  Pb  Pb44  1  0.50332545  0.82994643  0.16649700  1
  Pb  Pb45  1  0.16624636  0.49861250  0.83517897  1
  Pb  Pb46  1  0.16673788  0.83662675  0.49988234  1
  Pb  Pb47  1  0.16938400  0.49802602  0.49720579  1
  Pb  Pb48  1  0.49724689  0.16858216  0.16378070  1
  Pb  Pb49  1  0.83485470  0.16707045  0.16884208  1
  Pb  Pb50  1  0.50015193  0.82943452  0.50020100  1
  Pb  Pb51  1  0.83197855  0.49790056  0.50023172  1
  Pb  Pb52  1  0.16397112  0.83319435  0.16657784  1
  Pb  Pb53  1  0.16314694  0.83652048  0.83338712  1
  I  I54  1  0.16334315  0.00327019  0.16671409  1
  I  I55  1  0.16123245  0.00532020  0.49779094  1
  I  I56  1  0.17196463  0.00505419  0.83565198  1
  I  I57  1  0.16377057  0.33361110  0.16641697  1
  I  I58  1  0.16243063  0.32997029  0.50240354  1
  I  I59  1  0.16491960  0.33023932  0.83183728  1
  I  I60  1  0.17012198  0.66316443  0.16560979  1
  I  I61  1  0.16771766  0.66623039  0.49882751  1
  I  I62  1  0.17017055  0.66665831  0.83555774  1
  I  I63  1  0.50010856  -0.00003356  0.16649759  1
  I  I64  1  0.50038798  0.00032083  0.50158195  1
  I  I65  1  0.49659391  0.00277798  0.83134395  1
  I  I66  1  0.50625256  0.33710540  0.16838205  1
  I  I67  1  0.50086347  0.33621014  0.49752507  1
  I  I68  1  0.50291357  0.33473259  0.83343105  1
  I  I69  1  0.49312834  0.66135731  0.16311929  1
  I  I70  1  0.50353279  0.66130804  0.50149962  1
  I  I71  1  0.50306423  0.66263613  0.83441015  1
  I  I72  1  0.83705084  -0.00221218  0.16196813  1
  I  I73  1  0.83857525  0.00376391  0.50161773  1
  I  I74  1  0.83447569  -0.00184701  0.83696139  1
  I  I75  1  0.83154997  0.33685864  0.16260910  1
  I  I76  1  0.83780222  0.33040601  0.50068385  1
  I  I77  1  0.83138868  0.33623591  0.83775835  1
  I  I78  1  0.83424283  0.66468409  0.16264546  1
  I  I79  1  0.83094865  0.66641711  0.49995401  1
  I  I80  1  0.82600106  0.66499136  0.83809733  1
  I  I81  1  0.16976714  0.17214913  0.00016524  1
  I  I82  1  0.15924230  0.17228810  0.33301924  1
  I  I83  1  0.16504215  0.16671591  0.66687249  1
  I  I84  1  0.16932034  0.49281010  0.00322833  1
  I  I85  1  0.16483589  0.49372413  0.32913928  1
  I  I86  1  0.16635427  0.49784257  0.66662541  1
  I  I87  1  0.16844183  0.83660102  -0.00000522  1
  I  I88  1  0.16339419  0.83403034  0.33303181  1
  I  I89  1  0.16392285  0.83278798  0.66684084  1
  I  I90  1  0.49770702  0.17367161  -0.00388605  1
  I  I91  1  0.50026111  0.16838372  0.33319473  1
  I  I92  1  0.49611816  0.17361040  0.66986352  1
  I  I93  1  0.50232645  0.49480811  -0.00025802  1
  I  I94  1  0.50120933  0.49908589  0.33230277  1
  I  I95  1  0.50713992  0.49386651  0.66813708  1
  I  I96  1  0.49773617  0.83335988  0.00002469  1
  I  I97  1  0.50233175  0.83452009  0.33311558  1
  I  I98  1  0.50385635  0.83314402  0.66702102  1
  I  I99  1  0.83452102  0.16615863  0.00006120  1
  I  I100  1  0.83939093  0.16764898  0.33633641  1
  I  I101  1  0.83925357  0.16736460  0.66445937  1
  I  I102  1  0.82879465  0.50219406  0.00032805  1
  I  I103  1  0.83243888  0.50281260  0.33017400  1
  I  I104  1  0.82748000  0.50213838  0.66973749  1
  I  I105  1  0.83350165  0.82978107  0.00000183  1
  I  I106  1  0.83481925  0.82717723  0.33027451  1
  I  I107  1  0.83227159  0.82974486  0.66962587  1
  I  I108  1  0.00296213  0.17259895  0.16170310  1
  I  I109  1  0.00093024  0.16788621  0.50337317  1
  I  I110  1  0.00240869  0.16646448  0.83426907  1
  I  I111  1  -0.00076577  0.49881297  0.16096924  1
  I  I112  1  0.00031840  0.50005093  0.50008045  1
  I  I113  1  -0.00308882  0.50112593  0.83917017  1
  I  I114  1  -0.00360017  0.82765200  0.16201513  1
  I  I115  1  -0.00032667  0.83032808  0.50016161  1
  I  I116  1  -0.00444480  0.82806754  0.83842705  1
  I  I117  1  0.32918945  0.17331779  0.17249973  1
  I  I118  1  0.33038693  0.16964474  0.49833337  1
  I  I119  1  0.33327164  0.17480953  0.83113169  1
  I  I120  1  0.33343970  0.49190738  0.16741128  1
  I  I121  1  0.33708509  0.49547306  0.50206803  1
  I  I122  1  0.33620125  0.49553021  0.83398016  1
  I  I123  1  0.33340826  0.83328780  0.16808869  1
  I  I124  1  0.33345744  0.83563187  0.49964997  1
  I  I125  1  0.33323887  0.83154387  0.83212991  1
  I  I126  1  0.66650535  0.16689392  0.16747977  1
  I  I127  1  0.66838375  0.16761678  0.50202502  1
  I  I128  1  0.66451480  0.16869283  0.83034791  1
  I  I129  1  0.66689758  0.50467227  0.16607541  1
  I  I130  1  0.66419508  0.49531375  0.49552730  1
  I  I131  1  0.66649425  0.49681339  0.83803256  1
  I  I132  1  0.67102569  0.82940441  0.16191987  1
  I  I133  1  0.66697602  0.83890036  0.49964686  1
  I  I134  1  0.67024742  0.83497304  0.83772872  1
