# generated using pymatgen
data_Cs27Sn14Pb13I81
_symmetry_space_group_name_H-M   'P 1'
_cell_length_a   18.98547868
_cell_length_b   18.97011400
_cell_length_c   18.97004901
_cell_angle_alpha   90.00046041
_cell_angle_beta   90.00087089
_cell_angle_gamma   89.99993146
_symmetry_Int_Tables_number   1
_chemical_formula_structural   Cs27Sn14Pb13I81
_chemical_formula_sum   'Cs27 Sn14 Pb13 I81'
_cell_volume   6832.19015144
_cell_formula_units_Z   1
loop_
 _symmetry_equiv_pos_site_id
 _symmetry_equiv_pos_as_xyz
  1  'x, y, z'
loop_
 _atom_site_type_symbol
 _atom_site_label
 _atom_site_symmetry_multiplicity
 _atom_site_fract_x
 _atom_site_fract_y
 _atom_site_fract_z
 _atom_site_occupancy
  Cs  Cs0  1  0.00146123  0.00471780  0.00592489  1
  Cs  Cs1  1  -0.00763786  -0.00678183  0.32487014  1
  Cs  Cs2  1  -0.00044764  -0.00160503  0.66680423  1
  Cs  Cs3  1  0.00057691  0.33170416  0.00139299  1
  Cs  Cs4  1  -0.00044624  0.33340748  0.33310737  1
  Cs  Cs5  1  0.00339807  0.33687244  0.66645867  1
  Cs  Cs6  1  -0.00170619  0.66466148  -0.00247514  1
  Cs  Cs7  1  0.00118365  0.66881972  0.33439234  1
  Cs  Cs8  1  0.00062428  0.66433534  0.66726465  1
  Cs  Cs9  1  0.33042757  0.00458914  -0.00120558  1
  Cs  Cs10  1  0.33357646  -0.01153638  0.33570696  1
  Cs  Cs11  1  0.33568419  0.00014384  0.66734234  1
  Cs  Cs12  1  0.33405181  0.33103964  0.00106822  1
  Cs  Cs13  1  0.33369194  0.33648102  0.33689667  1
  Cs  Cs14  1  0.33210931  0.33364029  0.66551346  1
  Cs  Cs15  1  0.33612144  0.66593734  -0.00021678  1
  Cs  Cs16  1  0.33391330  0.66969971  0.33014963  1
  Cs  Cs17  1  0.33147461  0.66555858  0.66767975  1
  Cs  Cs18  1  0.66759085  0.00155901  -0.00116446  1
  Cs  Cs19  1  0.67494498  -0.00289186  0.34062145  1
  Cs  Cs20  1  0.66557293  0.00209389  0.66367774  1
  Cs  Cs21  1  0.66448436  0.33356315  -0.00092516  1
  Cs  Cs22  1  0.66690696  0.33107257  0.33411174  1
  Cs  Cs23  1  0.66689848  0.33286690  0.66639187  1
  Cs  Cs24  1  0.66452827  0.66644728  -0.00164196  1
  Cs  Cs25  1  0.66482489  0.67060703  0.32758379  1
  Cs  Cs26  1  0.66842487  0.66517959  0.67082318  1
  Sn  Sn27  1  0.50079498  0.16685005  0.83399256  1
  Sn  Sn28  1  0.16684254  0.49920737  0.49955868  1
  Sn  Sn29  1  0.49983112  0.16623108  0.16734272  1
  Sn  Sn30  1  0.16657617  0.83276798  0.83330896  1
  Sn  Sn31  1  0.49885558  0.49969029  0.83256744  1
  Sn  Sn32  1  0.83387807  0.49972504  0.16764831  1
  Sn  Sn33  1  0.16597440  0.49963293  0.16657806  1
  Sn  Sn34  1  0.50015142  0.50002211  0.50065152  1
  Sn  Sn35  1  0.83308127  0.49989182  0.49861665  1
  Sn  Sn36  1  0.16641250  0.16636762  0.49914620  1
  Sn  Sn37  1  0.16778120  0.50040022  0.83386756  1
  Sn  Sn38  1  0.83360411  0.83499870  0.83334012  1
  Sn  Sn39  1  0.83300018  0.16607644  0.83307329  1
  Sn  Sn40  1  0.49988345  0.83352947  0.83335984  1
  Pb  Pb41  1  0.83335778  0.49963847  0.83335483  1
  Pb  Pb42  1  0.83319096  0.83063115  0.16378962  1
  Pb  Pb43  1  0.16685266  0.16683668  0.83200124  1
  Pb  Pb44  1  0.49824311  0.16824062  0.50000973  1
  Pb  Pb45  1  0.49988863  0.49871723  0.16666137  1
  Pb  Pb46  1  0.16643077  0.83306710  0.50208146  1
  Pb  Pb47  1  0.83339865  0.83042049  0.50250675  1
  Pb  Pb48  1  0.16899262  0.16860139  0.17024356  1
  Pb  Pb49  1  0.50012069  0.83023270  0.50245578  1
  Pb  Pb50  1  0.83594315  0.16870275  0.50219865  1
  Pb  Pb51  1  0.83125681  0.16893100  0.16471618  1
  Pb  Pb52  1  0.50021336  0.83706206  0.16416820  1
  Pb  Pb53  1  0.16678564  0.83068916  0.16356846  1
  I  I54  1  0.16809612  0.00015879  0.16629859  1
  I  I55  1  0.16946324  0.00252801  0.50564614  1
  I  I56  1  0.16926006  -0.00230327  0.82960726  1
  I  I57  1  0.16362694  0.33729764  0.15982243  1
  I  I58  1  0.16714515  0.33642711  0.50445485  1
  I  I59  1  0.16897025  0.33668242  0.83372639  1
  I  I60  1  0.16479516  0.66188201  0.17183775  1
  I  I61  1  0.16657325  0.66254937  0.49969642  1
  I  I62  1  0.16885081  0.66490762  0.83138468  1
  I  I63  1  0.49831417  0.00468730  0.15893787  1
  I  I64  1  0.49674474  0.00003966  0.50119931  1
  I  I65  1  0.49993952  0.00032061  0.83879814  1
  I  I66  1  0.50013511  0.33144119  0.15796572  1
  I  I67  1  0.50060400  0.33695856  0.50707364  1
  I  I68  1  0.50055023  0.33393610  0.83338211  1
  I  I69  1  0.49997851  0.66656801  0.16615014  1
  I  I70  1  0.49624846  0.66151286  0.50488808  1
  I  I71  1  0.49995085  0.66575974  0.82835903  1
  I  I72  1  0.83256736  0.00012673  0.16678084  1
  I  I73  1  0.83493200  0.00008918  0.50007410  1
  I  I74  1  0.83009254  -0.00016867  0.83296093  1
  I  I75  1  0.83710811  0.33698108  0.16654024  1
  I  I76  1  0.83174525  0.33732163  0.50086236  1
  I  I77  1  0.82951422  0.33144955  0.83320947  1
  I  I78  1  0.83622821  0.66238378  0.16823461  1
  I  I79  1  0.83706202  0.66177578  0.50011760  1
  I  I80  1  0.83124015  0.66828980  0.83315782  1
  I  I81  1  0.16521860  0.16769216  0.00000293  1
  I  I82  1  0.16915781  0.17711651  0.33751399  1
  I  I83  1  0.16822933  0.17491889  0.66463481  1
  I  I84  1  0.16629720  0.50492250  -0.00110929  1
  I  I85  1  0.16644734  0.49374536  0.33420588  1
  I  I86  1  0.16671873  0.50024405  0.66699341  1
  I  I87  1  0.16741137  0.82831833  -0.00495299  1
  I  I88  1  0.16717018  0.83268057  0.33324136  1
  I  I89  1  0.16714473  0.82604217  0.67075141  1
  I  I90  1  0.50274333  0.17035418  -0.00284256  1
  I  I91  1  0.49685276  0.17406994  0.33127190  1
  I  I92  1  0.50237459  0.16560655  0.67017302  1
  I  I93  1  0.49793998  0.50177616  -0.00336030  1
  I  I94  1  0.49758025  0.49597088  0.33590198  1
  I  I95  1  0.49740202  0.49839465  0.66821654  1
  I  I96  1  0.50036581  0.82480409  -0.00491733  1
  I  I97  1  0.49931081  0.83272214  0.33332984  1
  I  I98  1  0.49934833  0.83799276  0.67144701  1
  I  I99  1  0.83293870  0.16617667  -0.00373518  1
  I  I100  1  0.83151577  0.16731438  0.33342665  1
  I  I101  1  0.82598710  0.16584110  0.67039354  1
  I  I102  1  0.83651708  0.50035450  0.00162091  1
  I  I103  1  0.83651500  0.49818637  0.33396530  1
  I  I104  1  0.83561721  0.50037934  0.66487513  1
  I  I105  1  0.83292488  0.83315570  -0.00473875  1
  I  I106  1  0.83339810  0.83442295  0.33323343  1
  I  I107  1  0.83293936  0.83339634  0.67113665  1
  I  I108  1  0.00007885  0.16731958  0.16452174  1
  I  I109  1  0.00341098  0.17591208  0.50457464  1
  I  I110  1  -0.00203800  0.16526065  0.83055129  1
  I  I111  1  0.00072534  0.49938276  0.16739178  1
  I  I112  1  0.00094828  0.49657631  0.50190470  1
  I  I113  1  0.00245123  0.50266771  0.83093160  1
  I  I114  1  0.00003172  0.83556082  0.16304958  1
  I  I115  1  0.00000667  0.83019260  0.50576216  1
  I  I116  1  0.00025420  0.83029305  0.83189013  1
  I  I117  1  0.33631609  0.17150860  0.15536848  1
  I  I118  1  0.33061316  0.17602401  0.50440209  1
  I  I119  1  0.33611623  0.16573030  0.83530992  1
  I  I120  1  0.33081832  0.49830274  0.16749467  1
  I  I121  1  0.33275279  0.49562166  0.50242277  1
  I  I122  1  0.33334712  0.50247390  0.83079741  1
  I  I123  1  0.33346510  0.82988780  0.16477739  1
  I  I124  1  0.33327107  0.83165346  0.50295843  1
  I  I125  1  0.33359222  0.83116832  0.83285477  1
  I  I126  1  0.66353481  0.17190368  0.16260907  1
  I  I127  1  0.66668663  0.16975032  0.49986694  1
  I  I128  1  0.66543882  0.16584410  0.83620077  1
  I  I129  1  0.66873419  0.49832838  0.16817034  1
  I  I130  1  0.66635378  0.50011031  0.50290447  1
  I  I131  1  0.66419645  0.50168845  0.83105188  1
  I  I132  1  0.66666204  0.82785978  0.16259825  1
  I  I133  1  0.66669809  0.83217001  0.50350688  1
  I  I134  1  0.66615582  0.83126251  0.83332129  1
