# generated using pymatgen
data_Cs27Sn13Pb14I81
_symmetry_space_group_name_H-M   'P 1'
_cell_length_a   18.97703230
_cell_length_b   18.97703110
_cell_length_c   18.97749377
_cell_angle_alpha   89.99995909
_cell_angle_beta   90.00051477
_cell_angle_gamma   90.00107801
_symmetry_Int_Tables_number   1
_chemical_formula_structural   Cs27Sn13Pb14I81
_chemical_formula_sum   'Cs27 Sn13 Pb14 I81'
_cell_volume   6834.32179075
_cell_formula_units_Z   1
loop_
 _symmetry_equiv_pos_site_id
 _symmetry_equiv_pos_as_xyz
  1  'x, y, z'
loop_
 _atom_site_type_symbol
 _atom_site_label
 _atom_site_symmetry_multiplicity
 _atom_site_fract_x
 _atom_site_fract_y
 _atom_site_fract_z
 _atom_site_occupancy
  Cs  Cs0  1  -0.00586931  -0.00319846  -0.00302627  1
  Cs  Cs1  1  0.00528613  0.00141483  0.33555464  1
  Cs  Cs2  1  0.00062900  0.00175538  0.66608529  1
  Cs  Cs3  1  0.00210846  0.33590847  0.00017385  1
  Cs  Cs4  1  -0.00141099  0.33236862  0.33190619  1
  Cs  Cs5  1  -0.00035100  0.33080913  0.66692430  1
  Cs  Cs6  1  0.00194289  0.66585186  0.00177143  1
  Cs  Cs7  1  -0.00286540  0.66531500  0.32903827  1
  Cs  Cs8  1  0.00407093  0.66778453  0.66826907  1
  Cs  Cs9  1  0.33461193  -0.00470753  0.00753741  1
  Cs  Cs10  1  0.32696576  0.00187474  0.32823500  1
  Cs  Cs11  1  0.33073245  -0.00017518  0.66513197  1
  Cs  Cs12  1  0.33316071  0.33312583  -0.00251370  1
  Cs  Cs13  1  0.33367845  0.33075927  0.33173129  1
  Cs  Cs14  1  0.33487163  0.33571192  0.66868918  1
  Cs  Cs15  1  0.33275077  0.67125477  0.00079903  1
  Cs  Cs16  1  0.33203038  0.66747986  0.33523155  1
  Cs  Cs17  1  0.33421600  0.66448820  0.66675027  1
  Cs  Cs18  1  0.66901746  -0.00283920  0.00259167  1
  Cs  Cs19  1  0.66631552  -0.00234479  0.33008160  1
  Cs  Cs20  1  0.66886709  0.00075374  0.66815715  1
  Cs  Cs21  1  0.66543143  0.33284884  -0.00109411  1
  Cs  Cs22  1  0.66760280  0.33440153  0.33480812  1
  Cs  Cs23  1  0.66552767  0.33326352  0.66654754  1
  Cs  Cs24  1  0.66569145  0.66832551  -0.00093672  1
  Cs  Cs25  1  0.66920845  0.66678642  0.33548131  1
  Cs  Cs26  1  0.66495434  0.66629900  0.66463585  1
  Sn  Sn27  1  0.16712468  0.49973766  0.50037980  1
  Sn  Sn28  1  0.83304473  0.83417150  0.16782684  1
  Sn  Sn29  1  0.49993517  0.49990727  0.16668534  1
  Sn  Sn30  1  0.83323286  0.16652412  0.16685044  1
  Sn  Sn31  1  0.50050268  0.83388556  0.50017336  1
  Sn  Sn32  1  0.16788149  0.16709910  0.83363931  1
  Sn  Sn33  1  0.16703828  0.49924017  0.83232957  1
  Sn  Sn34  1  0.49932474  0.49976746  0.49972696  1
  Sn  Sn35  1  0.83288439  0.83331570  0.49959011  1
  Sn  Sn36  1  0.49904387  0.16684630  0.83287911  1
  Sn  Sn37  1  0.83316859  0.50001899  0.83297318  1
  Sn  Sn38  1  0.50012989  0.16640741  0.50047833  1
  Sn  Sn39  1  0.49988723  0.49950907  0.83362954  1
  Pb  Pb40  1  0.16945431  0.49983734  0.16650711  1
  Pb  Pb41  1  0.83289978  0.16868479  0.83482249  1
  Pb  Pb42  1  0.16675061  0.83091379  0.50004294  1
  Pb  Pb43  1  0.50139043  0.16834106  0.16634207  1
  Pb  Pb44  1  0.83353306  0.50152993  0.50195603  1
  Pb  Pb45  1  0.83127431  0.50016289  0.16458582  1
  Pb  Pb46  1  0.49988177  0.83396592  0.83105232  1
  Pb  Pb47  1  0.50162057  0.83086032  0.16950325  1
  Pb  Pb48  1  0.83107291  0.16442848  0.49816728  1
  Pb  Pb49  1  0.16353148  0.83331232  0.16684290  1
  Pb  Pb50  1  0.16916135  0.16932649  0.50196343  1
  Pb  Pb51  1  0.83317191  0.83082773  0.83279191  1
  Pb  Pb52  1  0.16398089  0.16689868  0.16335828  1
  Pb  Pb53  1  0.16702674  0.83358524  0.83325318  1
  I  I54  1  0.17078061  0.00027364  0.16554050  1
  I  I55  1  0.16714785  0.00027535  0.50187219  1
  I  I56  1  0.17091414  0.00366576  0.83361767  1
  I  I57  1  0.16216305  0.33351543  0.16912641  1
  I  I58  1  0.17154922  0.33742353  0.50248188  1
  I  I59  1  0.16771327  0.33489861  0.82966275  1
  I  I60  1  0.16451451  0.66621139  0.16418653  1
  I  I61  1  0.17304933  0.66274733  0.50737263  1
  I  I62  1  0.16728908  0.66270580  0.82965770  1
  I  I63  1  0.50042194  -0.00013247  0.16600714  1
  I  I64  1  0.50663430  0.00029442  0.50614115  1
  I  I65  1  0.49628852  0.00371647  0.82871787  1
  I  I66  1  0.50387696  0.33634985  0.17031908  1
  I  I67  1  0.49613992  0.33443746  0.50128309  1
  I  I68  1  0.50027957  0.33478312  0.82904829  1
  I  I69  1  0.50243324  0.66282778  0.16420061  1
  I  I70  1  0.50069281  0.66529679  0.50022934  1
  I  I71  1  0.49971019  0.66303835  0.83278364  1
  I  I72  1  0.83081025  -0.00058084  0.16854623  1
  I  I73  1  0.82755808  -0.00368508  0.50005169  1
  I  I74  1  0.83367660  0.00011223  0.83296168  1
  I  I75  1  0.83128603  0.33147621  0.16356340  1
  I  I76  1  0.83236123  0.33340395  0.49855541  1
  I  I77  1  0.83217644  0.33671727  0.83524510  1
  I  I78  1  0.83140150  0.66909921  0.16983159  1
  I  I79  1  0.82672423  0.66937750  0.49400169  1
  I  I80  1  0.83232156  0.66259641  0.83504564  1
  I  I81  1  0.17418767  0.17602768  -0.00462179  1
  I  I82  1  0.16713632  0.16775955  0.33341316  1
  I  I83  1  0.16636682  0.16932803  0.67008132  1
  I  I84  1  0.16655571  0.49639982  -0.00372225  1
  I  I85  1  0.17168996  0.50199781  0.33637955  1
  I  I86  1  0.17146921  0.49798242  0.66761053  1
  I  I87  1  0.16490837  0.82999777  -0.00004813  1
  I  I88  1  0.16930770  0.83107787  0.33373253  1
  I  I89  1  0.16287873  0.83399808  0.66644962  1
  I  I90  1  0.49811266  0.17366447  -0.00323474  1
  I  I91  1  0.50345148  0.16919524  0.33617091  1
  I  I92  1  0.49822900  0.17212358  0.66689311  1
  I  I93  1  0.50131494  0.49468399  -0.00164498  1
  I  I94  1  0.49681656  0.50011606  0.33498483  1
  I  I95  1  0.49963617  0.50015138  0.66671856  1
  I  I96  1  0.50191072  0.83220270  0.00025285  1
  I  I97  1  0.50265276  0.83225989  0.33757344  1
  I  I98  1  0.50675396  0.82756187  0.66282166  1
  I  I99  1  0.83077049  0.16044105  0.00255809  1
  I  I100  1  0.83044141  0.16754416  0.33030600  1
  I  I101  1  0.83449473  0.16578165  0.66673698  1
  I  I102  1  0.83317869  0.50134762  -0.00340144  1
  I  I103  1  0.83278063  0.49924819  0.33335635  1
  I  I104  1  0.82864457  0.50099102  0.66986375  1
  I  I105  1  0.83379902  0.83616744  0.00264037  1
  I  I106  1  0.82737325  0.83478724  0.33365850  1
  I  I107  1  0.82868905  0.83019384  0.66357779  1
  I  I108  1  -0.00390010  0.16366706  0.16571098  1
  I  I109  1  0.00012550  0.16650377  0.50081646  1
  I  I110  1  0.00232773  0.17223386  0.83601774  1
  I  I111  1  -0.00018160  0.50120568  0.16586042  1
  I  I112  1  0.00257338  0.50267172  0.50563473  1
  I  I113  1  0.00103115  0.49687243  0.82911257  1
  I  I114  1  -0.00479344  0.83489840  0.17303286  1
  I  I115  1  -0.00299017  0.83046102  0.49580467  1
  I  I116  1  -0.00014300  0.83231200  0.83198590  1
  I  I117  1  0.33348959  0.16846500  0.16843793  1
  I  I118  1  0.33763645  0.16252681  0.50016421  1
  I  I119  1  0.33455242  0.17693859  0.82871014  1
  I  I120  1  0.33753127  0.49885531  0.16357917  1
  I  I121  1  0.33539443  0.50242194  0.50470709  1
  I  I122  1  0.33430286  0.49576130  0.83163740  1
  I  I123  1  0.33368763  0.83193261  0.16674049  1
  I  I124  1  0.33668006  0.83279857  0.50240761  1
  I  I125  1  0.33363686  0.82813798  0.83123072  1
  I  I126  1  0.66913109  0.16370174  0.16414528  1
  I  I127  1  0.66265387  0.17331569  0.50654029  1
  I  I128  1  0.66344434  0.17230700  0.83044734  1
  I  I129  1  0.66341342  0.49994962  0.16729577  1
  I  I130  1  0.66321138  0.49909347  0.50145041  1
  I  I131  1  0.66485552  0.49690263  0.83323645  1
  I  I132  1  0.66952929  0.83615139  0.16790723  1
  I  I133  1  0.66564230  0.82972223  0.49683528  1
  I  I134  1  0.66656902  0.83189526  0.83448128  1
