# generated using pymatgen
data_Cs27Sn13Pb14I81
_symmetry_space_group_name_H-M   'P 1'
_cell_length_a   18.97428737
_cell_length_b   18.97721876
_cell_length_c   18.97743832
_cell_angle_alpha   89.99838968
_cell_angle_beta   90.00040281
_cell_angle_gamma   90.00233870
_symmetry_Int_Tables_number   1
_chemical_formula_structural   Cs27Sn13Pb14I81
_chemical_formula_sum   'Cs27 Sn13 Pb14 I81'
_cell_volume   6833.38084465
_cell_formula_units_Z   1
loop_
 _symmetry_equiv_pos_site_id
 _symmetry_equiv_pos_as_xyz
  1  'x, y, z'
loop_
 _atom_site_type_symbol
 _atom_site_label
 _atom_site_symmetry_multiplicity
 _atom_site_fract_x
 _atom_site_fract_y
 _atom_site_fract_z
 _atom_site_occupancy
  Cs  Cs0  1  -0.00224304  -0.00269653  0.00016777  1
  Cs  Cs1  1  -0.00149984  0.00058113  0.33294528  1
  Cs  Cs2  1  0.00610689  0.00042614  0.66593907  1
  Cs  Cs3  1  0.00233185  0.33287927  0.00270019  1
  Cs  Cs4  1  0.00055576  0.33424839  0.33283166  1
  Cs  Cs5  1  0.00031037  0.33333068  0.66803044  1
  Cs  Cs6  1  -0.00197582  0.66971466  -0.00215572  1
  Cs  Cs7  1  0.00038623  0.66253541  0.33031510  1
  Cs  Cs8  1  -0.00154251  0.66526424  0.67611983  1
  Cs  Cs9  1  0.33649781  0.00028935  0.00033725  1
  Cs  Cs10  1  0.33355639  -0.00193086  0.33521671  1
  Cs  Cs11  1  0.32956640  -0.00172376  0.66444023  1
  Cs  Cs12  1  0.33502465  0.33629546  0.00169856  1
  Cs  Cs13  1  0.33131414  0.33447105  0.32876290  1
  Cs  Cs14  1  0.32951307  0.33179234  0.67269332  1
  Cs  Cs15  1  0.33390644  0.66462043  -0.00043142  1
  Cs  Cs16  1  0.33354855  0.66794524  0.33523871  1
  Cs  Cs17  1  0.33492797  0.66974308  0.66578791  1
  Cs  Cs18  1  0.66613420  -0.00001138  -0.00066741  1
  Cs  Cs19  1  0.66803334  0.00114654  0.33442535  1
  Cs  Cs20  1  0.66502482  0.00215517  0.66589547  1
  Cs  Cs21  1  0.66194289  0.33060083  0.00030520  1
  Cs  Cs22  1  0.66602694  0.33283108  0.33384682  1
  Cs  Cs23  1  0.66870113  0.33473688  0.66548780  1
  Cs  Cs24  1  0.66805714  0.67028242  -0.00391631  1
  Cs  Cs25  1  0.66603629  0.66632188  0.33890867  1
  Cs  Cs26  1  0.66679001  0.65735615  0.66314363  1
  Sn  Sn27  1  0.50039132  0.83413289  0.83356777  1
  Sn  Sn28  1  0.83404567  0.16748252  0.16654937  1
  Sn  Sn29  1  0.50006760  0.16677553  0.50078592  1
  Sn  Sn30  1  0.16662100  0.50010725  0.49971041  1
  Sn  Sn31  1  0.16567468  0.50029405  0.16749100  1
  Sn  Sn32  1  0.83378050  0.83368930  0.50022812  1
  Sn  Sn33  1  0.16742077  0.83329986  0.16684401  1
  Sn  Sn34  1  0.83289514  0.16634691  0.83328996  1
  Sn  Sn35  1  0.83332504  0.49927184  0.16662271  1
  Sn  Sn36  1  0.50076188  0.16568442  0.83211360  1
  Sn  Sn37  1  0.49967557  0.83346816  0.16636587  1
  Sn  Sn38  1  0.83291638  0.16572136  0.50019673  1
  Sn  Sn39  1  0.16602497  0.16628832  0.16679408  1
  Pb  Pb40  1  0.83090177  0.83572765  0.83020293  1
  Pb  Pb41  1  0.16643036  0.16818495  0.49778940  1
  Pb  Pb42  1  0.83320352  0.49697261  0.83664326  1
  Pb  Pb43  1  0.83519615  0.49925995  0.49819759  1
  Pb  Pb44  1  0.50045435  0.50319582  0.16673496  1
  Pb  Pb45  1  0.50014404  0.49970055  0.83326726  1
  Pb  Pb46  1  0.16661982  0.50011200  0.83400995  1
  Pb  Pb47  1  0.16697079  0.16645053  0.83620985  1
  Pb  Pb48  1  0.50034896  0.16504079  0.16674703  1
  Pb  Pb49  1  0.49707681  0.49648535  0.49988845  1
  Pb  Pb50  1  0.83309970  0.83340370  0.16788644  1
  Pb  Pb51  1  0.16388245  0.83103004  0.49792615  1
  Pb  Pb52  1  0.16919027  0.83353594  0.83583565  1
  Pb  Pb53  1  0.50168099  0.83515187  0.50023704  1
  I  I54  1  0.16605722  0.00028603  0.16578625  1
  I  I55  1  0.16781473  0.00008858  0.49749731  1
  I  I56  1  0.16469872  0.00016691  0.83497224  1
  I  I57  1  0.16185866  0.33325223  0.17009412  1
  I  I58  1  0.16559726  0.33584842  0.49208077  1
  I  I59  1  0.16922797  0.33300844  0.83611035  1
  I  I60  1  0.16653711  0.66627885  0.17077767  1
  I  I61  1  0.16563999  0.66348742  0.49190968  1
  I  I62  1  0.16826001  0.66686129  0.83505743  1
  I  I63  1  0.49627214  -0.00268234  0.16572862  1
  I  I64  1  0.50165529  0.00331110  0.49992864  1
  I  I65  1  0.50423621  0.00112930  0.83535935  1
  I  I66  1  0.49726077  0.33308494  0.16599681  1
  I  I67  1  0.50801329  0.32845173  0.50403453  1
  I  I68  1  0.50370343  0.32928855  0.83013884  1
  I  I69  1  0.49662849  0.67115095  0.16130300  1
  I  I70  1  0.50202078  0.66676196  0.50001726  1
  I  I71  1  0.49825447  0.66996918  0.83944553  1
  I  I72  1  0.83625389  0.00312712  0.16587226  1
  I  I73  1  0.82981186  0.00228584  0.49582641  1
  I  I74  1  0.83114146  0.00400463  0.84031420  1
  I  I75  1  0.84094702  0.33171494  0.16836146  1
  I  I76  1  0.83056160  0.32972141  0.50087656  1
  I  I77  1  0.82723764  0.32853598  0.82824471  1
  I  I78  1  0.83675032  0.66455697  0.17011021  1
  I  I79  1  0.83369876  0.66851085  0.49558092  1
  I  I80  1  0.83216320  0.66685109  0.83314176  1
  I  I81  1  0.16342550  0.16945285  0.00464935  1
  I  I82  1  0.16339401  0.16553306  0.32950613  1
  I  I83  1  0.16478815  0.16969058  0.66654159  1
  I  I84  1  0.16349385  0.49923558  0.00435053  1
  I  I85  1  0.16269172  0.49911263  0.33105100  1
  I  I86  1  0.16700562  0.49790308  0.66389375  1
  I  I87  1  0.16580316  0.83121801  0.00466054  1
  I  I88  1  0.17296385  0.83571577  0.32936743  1
  I  I89  1  0.16744790  0.83149640  0.66640552  1
  I  I90  1  0.50299481  0.16414363  -0.00218825  1
  I  I91  1  0.50349658  0.16494428  0.33531540  1
  I  I92  1  0.50814178  0.16144556  0.66709063  1
  I  I93  1  0.49737854  0.49490959  0.00030338  1
  I  I94  1  0.50175440  0.49978196  0.33317659  1
  I  I95  1  0.49817190  0.50496769  0.66643851  1
  I  I96  1  0.49676727  0.83951749  0.00039924  1
  I  I97  1  0.49710707  0.83493245  0.33098675  1
  I  I98  1  0.50212074  0.83686741  0.66925359  1
  I  I99  1  0.83296404  0.17126729  0.00082244  1
  I  I100  1  0.83297122  0.16648031  0.33304713  1
  I  I101  1  0.82758515  0.16201541  0.66613449  1
  I  I102  1  0.84061773  0.49710873  0.00477760  1
  I  I103  1  0.83613178  0.49465067  0.33010114  1
  I  I104  1  0.83523567  0.50032518  0.66659941  1
  I  I105  1  0.83474488  0.83343768  -0.00008466  1
  I  I106  1  0.83119589  0.83986174  0.33538354  1
  I  I107  1  0.83223297  0.83833574  0.66266097  1
  I  I108  1  -0.00086609  0.16586531  0.16718603  1
  I  I109  1  -0.00323352  0.16439010  0.50135332  1
  I  I110  1  -0.00316735  0.16805376  0.83107997  1
  I  I111  1  0.00077418  0.49974799  0.17082513  1
  I  I112  1  0.00282009  0.49750583  0.49456643  1
  I  I113  1  -0.00025076  0.49843504  0.83160270  1
  I  I114  1  0.00241812  0.83352525  0.16984938  1
  I  I115  1  -0.00367203  0.84221468  0.49677129  1
  I  I116  1  -0.00038486  0.83399417  0.83414043  1
  I  I117  1  0.33099028  0.16906429  0.16691105  1
  I  I118  1  0.33576427  0.16785638  0.50291915  1
  I  I119  1  0.33676315  0.16318962  0.82958240  1
  I  I120  1  0.32998584  0.49651142  0.16943664  1
  I  I121  1  0.32948835  0.49966354  0.49077889  1
  I  I122  1  0.33335092  0.49633589  0.83623522  1
  I  I123  1  0.33273360  0.83425812  0.16371222  1
  I  I124  1  0.33325024  0.83392101  0.50065840  1
  I  I125  1  0.33730819  0.84081430  0.83389400  1
  I  I126  1  0.66970920  0.16930835  0.16703616  1
  I  I127  1  0.66793129  0.16330289  0.49750722  1
  I  I128  1  0.66686136  0.16306368  0.83586797  1
  I  I129  1  0.66977533  0.49422688  0.16668989  1
  I  I130  1  0.66694305  0.50196193  0.49820088  1
  I  I131  1  0.66689836  0.50205662  0.83513863  1
  I  I132  1  0.66436059  0.83499048  0.16412165  1
  I  I133  1  0.66949789  0.83562892  0.49551372  1
  I  I134  1  0.66318926  0.83669094  0.84300809  1
