# generated using pymatgen
data_Cs27Sn13Pb14I81
_symmetry_space_group_name_H-M   'P 1'
_cell_length_a   18.97686071
_cell_length_b   18.97203473
_cell_length_c   18.98107380
_cell_angle_alpha   90.00108464
_cell_angle_beta   89.99937863
_cell_angle_gamma   89.99833662
_symmetry_Int_Tables_number   1
_chemical_formula_structural   Cs27Sn13Pb14I81
_chemical_formula_sum   'Cs27 Sn13 Pb14 I81'
_cell_volume   6833.74955096
_cell_formula_units_Z   1
loop_
 _symmetry_equiv_pos_site_id
 _symmetry_equiv_pos_as_xyz
  1  'x, y, z'
loop_
 _atom_site_type_symbol
 _atom_site_label
 _atom_site_symmetry_multiplicity
 _atom_site_fract_x
 _atom_site_fract_y
 _atom_site_fract_z
 _atom_site_occupancy
  Cs  Cs0  1  -0.00112828  -0.00058780  0.00057470  1
  Cs  Cs1  1  0.00343836  0.00454842  0.33465991  1
  Cs  Cs2  1  0.00059207  0.00316172  0.66614459  1
  Cs  Cs3  1  -0.00114691  0.33482031  -0.00293441  1
  Cs  Cs4  1  0.00208363  0.32508495  0.33655594  1
  Cs  Cs5  1  0.00085697  0.33289881  0.66691491  1
  Cs  Cs6  1  0.00031842  0.66692023  0.00033526  1
  Cs  Cs7  1  -0.00168993  0.66722939  0.33221018  1
  Cs  Cs8  1  0.00035950  0.66569342  0.66692252  1
  Cs  Cs9  1  0.33107677  -0.00264130  -0.00170314  1
  Cs  Cs10  1  0.33421758  0.00191632  0.33516947  1
  Cs  Cs11  1  0.33417347  -0.00018376  0.66715944  1
  Cs  Cs12  1  0.33533923  0.33534674  0.00537492  1
  Cs  Cs13  1  0.33366958  0.33252645  0.32345745  1
  Cs  Cs14  1  0.33185544  0.33268402  0.66761832  1
  Cs  Cs15  1  0.33100113  0.66582065  -0.00210143  1
  Cs  Cs16  1  0.33192514  0.66491150  0.33219664  1
  Cs  Cs17  1  0.33381152  0.66659609  0.66941047  1
  Cs  Cs18  1  0.66864664  0.00160660  0.00209164  1
  Cs  Cs19  1  0.66451372  -0.00342826  0.33151242  1
  Cs  Cs20  1  0.66439038  -0.00020248  0.66758740  1
  Cs  Cs21  1  0.66572658  0.33024101  0.00246699  1
  Cs  Cs22  1  0.66505631  0.33487440  0.33328421  1
  Cs  Cs23  1  0.66724711  0.33541518  0.66415467  1
  Cs  Cs24  1  0.66863968  0.66719771  -0.00132803  1
  Cs  Cs25  1  0.66860064  0.66871508  0.33528374  1
  Cs  Cs26  1  0.66572088  0.66537609  0.66583630  1
  Sn  Sn27  1  0.83383637  0.50090424  0.83387590  1
  Sn  Sn28  1  0.49915024  0.16674772  0.83254755  1
  Sn  Sn29  1  0.83338309  0.83266368  0.83308774  1
  Sn  Sn30  1  0.16616472  0.49930487  0.83248423  1
  Sn  Sn31  1  0.83355287  0.83335122  0.50011646  1
  Sn  Sn32  1  0.50021022  0.83296363  0.16699831  1
  Sn  Sn33  1  0.16675689  0.83242289  0.50027013  1
  Sn  Sn34  1  0.50000743  0.16643593  0.50082341  1
  Sn  Sn35  1  0.83274720  0.83263724  0.16681470  1
  Sn  Sn36  1  0.83371598  0.50047809  0.16632554  1
  Sn  Sn37  1  0.16691576  0.50051617  0.50039390  1
  Sn  Sn38  1  0.49978584  0.83360527  0.49951457  1
  Sn  Sn39  1  0.16769699  0.16754704  0.83325715  1
  Pb  Pb40  1  0.50229448  0.83496572  0.83333088  1
  Pb  Pb41  1  0.50290998  0.50326413  0.16664225  1
  Pb  Pb42  1  0.16906587  0.16691051  0.50163905  1
  Pb  Pb43  1  0.16668905  0.16666888  0.16301244  1
  Pb  Pb44  1  0.83539979  0.50169078  0.49998125  1
  Pb  Pb45  1  0.83335254  0.16657365  0.16683200  1
  Pb  Pb46  1  0.50002711  0.16408093  0.16663201  1
  Pb  Pb47  1  0.83316557  0.16727201  0.83319675  1
  Pb  Pb48  1  0.16434623  0.83312270  0.83124423  1
  Pb  Pb49  1  0.50027697  0.49742821  0.83331225  1
  Pb  Pb50  1  0.16390418  0.50014306  0.16654097  1
  Pb  Pb51  1  0.16631021  0.83329669  0.16943306  1
  Pb  Pb52  1  0.49708231  0.50027106  0.49996219  1
  Pb  Pb53  1  0.83036137  0.16394315  0.50001063  1
  I  I54  1  0.16373504  -0.00035252  0.16655476  1
  I  I55  1  0.16438519  -0.00287662  0.50092033  1
  I  I56  1  0.16896563  0.00210340  0.83153894  1
  I  I57  1  0.16483639  0.33362505  0.17276049  1
  I  I58  1  0.16636579  0.33590788  0.50315024  1
  I  I59  1  0.16349775  0.33444463  0.82664713  1
  I  I60  1  0.16971810  0.66681562  0.16238111  1
  I  I61  1  0.16794040  0.66754754  0.50595929  1
  I  I62  1  0.16359674  0.66393316  0.83103120  1
  I  I63  1  0.50821324  -0.00387709  0.16864682  1
  I  I64  1  0.49885471  -0.00175690  0.50031916  1
  I  I65  1  0.49536062  0.00284037  0.83140428  1
  I  I66  1  0.50122000  0.33331280  0.16770501  1
  I  I67  1  0.49907047  0.33049182  0.50558705  1
  I  I68  1  0.50120438  0.32938587  0.82633429  1
  I  I69  1  0.50186105  0.67125808  0.17352583  1
  I  I70  1  0.50254197  0.67042375  0.49611818  1
  I  I71  1  0.49797372  0.66683452  0.83307246  1
  I  I72  1  0.82890031  -0.00415611  0.16538722  1
  I  I73  1  0.83895775  -0.00510494  0.50034805  1
  I  I74  1  0.83318254  -0.00295593  0.83375789  1
  I  I75  1  0.83482402  0.33678684  0.15948000  1
  I  I76  1  0.83358882  0.33351182  0.50030433  1
  I  I77  1  0.83461861  0.33675392  0.83832872  1
  I  I78  1  0.82952646  0.66812668  0.16551289  1
  I  I79  1  0.82862389  0.67046497  0.50028052  1
  I  I80  1  0.83823942  0.66682057  0.83408530  1
  I  I81  1  0.17253259  0.17197036  -0.00529147  1
  I  I82  1  0.16730442  0.16704221  0.33374640  1
  I  I83  1  0.16814183  0.16754306  0.66954930  1
  I  I84  1  0.16438048  0.49567824  -0.00344281  1
  I  I85  1  0.16649461  0.50575078  0.33623235  1
  I  I86  1  0.16056059  0.50027602  0.66763713  1
  I  I87  1  0.16704520  0.83384767  -0.00031720  1
  I  I88  1  0.16283675  0.82809522  0.33785420  1
  I  I89  1  0.16737607  0.83258463  0.66313928  1
  I  I90  1  0.49676476  0.16609163  -0.00296882  1
  I  I91  1  0.50057395  0.16310481  0.33627186  1
  I  I92  1  0.49697347  0.15943521  0.66643505  1
  I  I93  1  0.49553195  0.49972751  -0.00011074  1
  I  I94  1  0.49945953  0.49507397  0.33342749  1
  I  I95  1  0.50477294  0.50443274  0.66664609  1
  I  I96  1  0.50584619  0.83508987  0.00235001  1
  I  I97  1  0.50521399  0.83867568  0.33475629  1
  I  I98  1  0.50126790  0.83597983  0.66367624  1
  I  I99  1  0.83181456  0.16109448  -0.00031934  1
  I  I100  1  0.83270497  0.16825317  0.33354921  1
  I  I101  1  0.83413064  0.16543852  0.66675155  1
  I  I102  1  0.83872214  0.50870410  -0.00120606  1
  I  I103  1  0.83334586  0.50582828  0.33092417  1
  I  I104  1  0.83557829  0.50417827  0.66956879  1
  I  I105  1  0.82861671  0.83012082  0.00008548  1
  I  I106  1  0.83154150  0.82913391  0.33341946  1
  I  I107  1  0.83309198  0.83007544  0.66644603  1
  I  I108  1  -0.00006637  0.16301891  0.16638930  1
  I  I109  1  0.00038953  0.16517056  0.50116481  1
  I  I110  1  0.00252614  0.16759976  0.83289340  1
  I  I111  1  -0.00387274  0.50957439  0.16426891  1
  I  I112  1  0.00328155  0.50587832  0.50203898  1
  I  I113  1  -0.00009698  0.49817623  0.83316534  1
  I  I114  1  -0.00370805  0.82917465  0.16637482  1
  I  I115  1  -0.00033457  0.82799932  0.50058935  1
  I  I116  1  -0.00381045  0.83419139  0.83430367  1
  I  I117  1  0.33360431  0.16495530  0.16867611  1
  I  I118  1  0.33660346  0.15903164  0.50315821  1
  I  I119  1  0.33306582  0.17029072  0.82848563  1
  I  I120  1  0.33318868  0.50041230  0.16621257  1
  I  I121  1  0.32918675  0.50648654  0.50760916  1
  I  I122  1  0.33011118  0.49859288  0.82845069  1
  I  I123  1  0.33622393  0.83605253  0.17137128  1
  I  I124  1  0.33388604  0.83420172  0.49590985  1
  I  I125  1  0.33322918  0.83169717  0.83354372  1
  I  I126  1  0.66652860  0.16849981  0.16345800  1
  I  I127  1  0.66234056  0.16182314  0.50690022  1
  I  I128  1  0.66399028  0.16467171  0.83000134  1
  I  I129  1  0.67099125  0.50165201  0.16045262  1
  I  I130  1  0.66680889  0.50026190  0.50065485  1
  I  I131  1  0.67015983  0.50344747  0.83681193  1
  I  I132  1  0.66767307  0.83039124  0.17171079  1
  I  I133  1  0.66682598  0.83799455  0.49898758  1
  I  I134  1  0.67044239  0.82946723  0.82933087  1
