# generated using pymatgen
data_Cs27Sn13Pb14I81
_symmetry_space_group_name_H-M   'P 1'
_cell_length_a   18.97152245
_cell_length_b   18.98206472
_cell_length_c   18.97730517
_cell_angle_alpha   89.99979045
_cell_angle_beta   89.99976801
_cell_angle_gamma   90.00045262
_symmetry_Int_Tables_number   1
_chemical_formula_structural   Cs27Sn13Pb14I81
_chemical_formula_sum   'Cs27 Sn13 Pb14 I81'
_cell_volume   6834.08184139
_cell_formula_units_Z   1
loop_
 _symmetry_equiv_pos_site_id
 _symmetry_equiv_pos_as_xyz
  1  'x, y, z'
loop_
 _atom_site_type_symbol
 _atom_site_label
 _atom_site_symmetry_multiplicity
 _atom_site_fract_x
 _atom_site_fract_y
 _atom_site_fract_z
 _atom_site_occupancy
  Cs  Cs0  1  -0.00164278  -0.00002098  -0.00111619  1
  Cs  Cs1  1  0.00014505  0.00046875  0.33248764  1
  Cs  Cs2  1  -0.00220126  -0.00220948  0.66893783  1
  Cs  Cs3  1  0.00158468  0.33161824  -0.00015063  1
  Cs  Cs4  1  -0.00641403  0.33628842  0.34112250  1
  Cs  Cs5  1  -0.00197136  0.33542032  0.66065896  1
  Cs  Cs6  1  0.00202822  0.66867649  -0.00174344  1
  Cs  Cs7  1  -0.00046147  0.66405491  0.33672235  1
  Cs  Cs8  1  -0.00003731  0.66714299  0.66603580  1
  Cs  Cs9  1  0.33101141  0.00309120  -0.00087601  1
  Cs  Cs10  1  0.33603586  0.00053021  0.33410393  1
  Cs  Cs11  1  0.33421492  0.00028855  0.66676672  1
  Cs  Cs12  1  0.33402802  0.33208095  -0.00100301  1
  Cs  Cs13  1  0.33077893  0.32960000  0.33549988  1
  Cs  Cs14  1  0.33373514  0.33291104  0.66655023  1
  Cs  Cs15  1  0.33274607  0.66483667  -0.00139949  1
  Cs  Cs16  1  0.33490300  0.66901678  0.33279581  1
  Cs  Cs17  1  0.33396087  0.66660668  0.66811521  1
  Cs  Cs18  1  0.67527411  0.00039369  -0.00009654  1
  Cs  Cs19  1  0.66227352  -0.00141971  0.33322640  1
  Cs  Cs20  1  0.66652160  0.00137068  0.66606529  1
  Cs  Cs21  1  0.66492015  0.33507488  0.00241635  1
  Cs  Cs22  1  0.67758107  0.33494154  0.33499407  1
  Cs  Cs23  1  0.66715556  0.33331331  0.66479307  1
  Cs  Cs24  1  0.66590144  0.66459592  0.00738451  1
  Cs  Cs25  1  0.66452184  0.66682763  0.32569276  1
  Cs  Cs26  1  0.66447273  0.66608923  0.66794046  1
  Sn  Sn27  1  0.49930168  0.16682972  0.16573099  1
  Sn  Sn28  1  0.16695607  0.83343518  0.16660683  1
  Sn  Sn29  1  0.16563779  0.49969786  0.83378266  1
  Sn  Sn30  1  0.49953051  0.83420048  0.83381125  1
  Sn  Sn31  1  0.49954261  0.49995158  0.49964858  1
  Sn  Sn32  1  0.16708091  0.16705288  0.16608308  1
  Sn  Sn33  1  0.83411959  0.50015863  0.83380444  1
  Sn  Sn34  1  0.16715774  0.16674301  0.83360587  1
  Sn  Sn35  1  0.83342578  0.83338520  0.50004382  1
  Sn  Sn36  1  0.16687441  0.49950881  0.16623362  1
  Sn  Sn37  1  0.49929650  0.16556007  0.83440402  1
  Sn  Sn38  1  0.16745524  0.83352700  0.83336566  1
  Sn  Sn39  1  0.16611468  0.83354356  0.50017282  1
  Pb  Pb40  1  0.49943969  0.49953875  0.83272459  1
  Pb  Pb41  1  0.83400239  0.16660906  0.16650189  1
  Pb  Pb42  1  0.83349548  0.16911119  0.83328359  1
  Pb  Pb43  1  0.83081679  0.50258797  0.50211438  1
  Pb  Pb44  1  0.49987478  0.16883143  0.50002997  1
  Pb  Pb45  1  0.83319545  0.83144025  0.83219925  1
  Pb  Pb46  1  0.49975765  0.83190372  0.50194428  1
  Pb  Pb47  1  0.49730214  0.49710189  0.16914839  1
  Pb  Pb48  1  0.16653944  0.16388892  0.50020657  1
  Pb  Pb49  1  0.83641938  0.50008754  0.16410480  1
  Pb  Pb50  1  0.16807629  0.50221179  0.50022107  1
  Pb  Pb51  1  0.83333828  0.16353046  0.50023191  1
  Pb  Pb52  1  0.49766808  0.83556032  0.16358384  1
  Pb  Pb53  1  0.83611428  0.83327463  0.16920756  1
  I  I54  1  0.16993172  0.00008185  0.16436121  1
  I  I55  1  0.16457963  -0.00435703  0.50086133  1
  I  I56  1  0.17120611  -0.00035968  0.83497694  1
  I  I57  1  0.17145317  0.33291539  0.15782850  1
  I  I58  1  0.16824938  0.33346849  0.50013446  1
  I  I59  1  0.16758638  0.33316883  0.84026803  1
  I  I60  1  0.16531125  0.66691158  0.16330834  1
  I  I61  1  0.16439111  0.67022108  0.50103085  1
  I  I62  1  0.16693750  0.66719858  0.83529047  1
  I  I63  1  0.49308791  0.00336273  0.16732717  1
  I  I64  1  0.50050789  -0.00008587  0.49921905  1
  I  I65  1  0.49123838  0.00021757  0.83417396  1
  I  I66  1  0.49266365  0.32954550  0.15849120  1
  I  I67  1  0.49818051  0.33628473  0.50401355  1
  I  I68  1  0.49646588  0.33040033  0.83495318  1
  I  I69  1  0.49891364  0.66662881  0.16657112  1
  I  I70  1  0.49828020  0.66445385  0.50429878  1
  I  I71  1  0.49569103  0.66873150  0.82885949  1
  I  I72  1  0.83597778  -0.00012657  0.16658600  1
  I  I73  1  0.83825369  -0.00436191  0.50260998  1
  I  I74  1  0.83514277  -0.00010513  0.83139164  1
  I  I75  1  0.83494054  0.33346202  0.16730878  1
  I  I76  1  0.83193110  0.33384090  0.50044072  1
  I  I77  1  0.83778747  0.33686575  0.83229066  1
  I  I78  1  0.83353210  0.66662622  0.16635575  1
  I  I79  1  0.83983095  0.66980960  0.50229474  1
  I  I80  1  0.83854654  0.66381075  0.83111177  1
  I  I81  1  0.17047044  0.16335028  -0.00075079  1
  I  I82  1  0.17140392  0.16601494  0.32987012  1
  I  I83  1  0.17138007  0.16728592  0.67040966  1
  I  I84  1  0.16387102  0.50437144  -0.00104642  1
  I  I85  1  0.17032853  0.50024197  0.33060038  1
  I  I86  1  0.16498524  0.50032146  0.67000512  1
  I  I87  1  0.17130657  0.83261271  -0.00081965  1
  I  I88  1  0.16170715  0.83288946  0.33288829  1
  I  I89  1  0.16656545  0.83256119  0.66803675  1
  I  I90  1  0.49372346  0.16429769  -0.00118803  1
  I  I91  1  0.49346202  0.16751964  0.33016952  1
  I  I92  1  0.49509644  0.16428852  0.67023506  1
  I  I93  1  0.50230612  0.50211246  0.00018150  1
  I  I94  1  0.49766745  0.50157395  0.33633497  1
  I  I95  1  0.49763753  0.49961146  0.66522310  1
  I  I96  1  0.49441521  0.83151596  -0.00444377  1
  I  I97  1  0.49924950  0.83372447  0.33304615  1
  I  I98  1  0.49360553  0.83792677  0.66998101  1
  I  I99  1  0.83374313  0.16533168  -0.00028898  1
  I  I100  1  0.83380050  0.16823806  0.33325054  1
  I  I101  1  0.83322184  0.16772832  0.66710940  1
  I  I102  1  0.83330250  0.50154633  -0.00382125  1
  I  I103  1  0.83354479  0.49999720  0.33337644  1
  I  I104  1  0.84099485  0.50039192  0.66975030  1
  I  I105  1  0.83362867  0.83263052  0.00001021  1
  I  I106  1  0.83847170  0.83221729  0.33715428  1
  I  I107  1  0.84048897  0.83159901  0.66444690  1
  I  I108  1  0.00457217  0.16510102  0.16111260  1
  I  I109  1  0.00037859  0.17019050  0.49984477  1
  I  I110  1  0.00389738  0.16297442  0.83810211  1
  I  I111  1  0.00501696  0.49796073  0.16671659  1
  I  I112  1  0.00010811  0.49954835  0.49853028  1
  I  I113  1  0.00274561  0.50118214  0.83598893  1
  I  I114  1  0.00520889  0.83637795  0.16012450  1
  I  I115  1  0.00205676  0.83210940  0.50248631  1
  I  I116  1  0.00377779  0.83539213  0.83487249  1
  I  I117  1  0.33166090  0.16634740  0.16206797  1
  I  I118  1  0.33315240  0.16481655  0.50026240  1
  I  I119  1  0.33209030  0.16755372  0.83676928  1
  I  I120  1  0.32910962  0.50304995  0.15922743  1
  I  I121  1  0.33533309  0.50264579  0.50375829  1
  I  I122  1  0.32988355  0.50109254  0.83537029  1
  I  I123  1  0.32899869  0.83089806  0.17174604  1
  I  I124  1  0.33027553  0.83176095  0.49926715  1
  I  I125  1  0.33117545  0.83152674  0.83067213  1
  I  I126  1  0.66341382  0.16655626  0.16170357  1
  I  I127  1  0.66633844  0.16531893  0.50077404  1
  I  I128  1  0.66317029  0.16299576  0.83666239  1
  I  I129  1  0.66647459  0.49873707  0.16638193  1
  I  I130  1  0.66355600  0.50115866  0.50391156  1
  I  I131  1  0.66819649  0.50059232  0.82820751  1
  I  I132  1  0.66627022  0.83477082  0.16737911  1
  I  I133  1  0.66870573  0.83155214  0.50432884  1
  I  I134  1  0.66383614  0.83641837  0.82893277  1
