# generated using pymatgen
data_Cs27Sn14Pb13I81
_symmetry_space_group_name_H-M   'P 1'
_cell_length_a   18.96653723
_cell_length_b   18.97871556
_cell_length_c   18.98269580
_cell_angle_alpha   89.99814111
_cell_angle_beta   89.99832244
_cell_angle_gamma   90.00169017
_symmetry_Int_Tables_number   1
_chemical_formula_structural   Cs27Sn14Pb13I81
_chemical_formula_sum   'Cs27 Sn14 Pb13 I81'
_cell_volume   6833.02095395
_cell_formula_units_Z   1
loop_
 _symmetry_equiv_pos_site_id
 _symmetry_equiv_pos_as_xyz
  1  'x, y, z'
loop_
 _atom_site_type_symbol
 _atom_site_label
 _atom_site_symmetry_multiplicity
 _atom_site_fract_x
 _atom_site_fract_y
 _atom_site_fract_z
 _atom_site_occupancy
  Cs  Cs0  1  0.00140710  -0.00025214  0.00030311  1
  Cs  Cs1  1  -0.00791117  -0.00349230  0.33486297  1
  Cs  Cs2  1  -0.00170762  -0.00163708  0.66335897  1
  Cs  Cs3  1  -0.00438107  0.33781867  -0.00310747  1
  Cs  Cs4  1  0.00386951  0.33796243  0.33168889  1
  Cs  Cs5  1  -0.00154357  0.33075463  0.67028603  1
  Cs  Cs6  1  -0.00565866  0.66323444  0.00313381  1
  Cs  Cs7  1  0.00083978  0.66715859  0.33245473  1
  Cs  Cs8  1  0.00316994  0.67095847  0.66399989  1
  Cs  Cs9  1  0.33270285  0.00021132  -0.00035669  1
  Cs  Cs10  1  0.33457363  0.00268087  0.33006110  1
  Cs  Cs11  1  0.33281821  0.00040465  0.66956507  1
  Cs  Cs12  1  0.33314866  0.33076431  -0.00096712  1
  Cs  Cs13  1  0.33353038  0.33341508  0.33319445  1
  Cs  Cs14  1  0.33409432  0.33246342  0.66656768  1
  Cs  Cs15  1  0.33439364  0.66933703  -0.00118094  1
  Cs  Cs16  1  0.33320327  0.66481410  0.33345290  1
  Cs  Cs17  1  0.33346738  0.66892254  0.66772836  1
  Cs  Cs18  1  0.66905268  0.00066791  0.00402994  1
  Cs  Cs19  1  0.67219310  0.00005803  0.33159287  1
  Cs  Cs20  1  0.66792242  -0.00007667  0.66554678  1
  Cs  Cs21  1  0.67204230  0.33247959  -0.00024834  1
  Cs  Cs22  1  0.66366277  0.33000134  0.33538729  1
  Cs  Cs23  1  0.66687424  0.33586389  0.66670781  1
  Cs  Cs24  1  0.66850063  0.66706139  -0.00145097  1
  Cs  Cs25  1  0.66490115  0.66822514  0.33488328  1
  Cs  Cs26  1  0.66330789  0.66327098  0.66800222  1
  Sn  Sn27  1  0.50034516  0.49999286  0.49999779  1
  Sn  Sn28  1  0.49974880  0.50051222  0.16630911  1
  Sn  Sn29  1  0.16745126  0.83386076  0.16670650  1
  Sn  Sn30  1  0.16736233  0.16650646  0.50007976  1
  Sn  Sn31  1  0.49916126  0.16623806  0.50088289  1
  Sn  Sn32  1  0.16690764  0.16597054  0.16665299  1
  Sn  Sn33  1  0.49909261  0.49900263  0.83377727  1
  Sn  Sn34  1  0.49951088  0.83376902  0.49929828  1
  Sn  Sn35  1  0.83326701  0.83340648  0.83302401  1
  Sn  Sn36  1  0.49959603  0.16743598  0.83272947  1
  Sn  Sn37  1  0.16757140  0.16742324  0.83327096  1
  Sn  Sn38  1  0.83302650  0.49984882  0.49998206  1
  Sn  Sn39  1  0.49907708  0.83267912  0.16749809  1
  Sn  Sn40  1  0.16768303  0.49965395  0.83324248  1
  Pb  Pb41  1  0.49888933  0.16667866  0.16646797  1
  Pb  Pb42  1  0.16894013  0.49995291  0.16426600  1
  Pb  Pb43  1  0.83294686  0.83318668  0.16508526  1
  Pb  Pb44  1  0.83741816  0.16700175  0.16680709  1
  Pb  Pb45  1  0.83053666  0.83094642  0.50185102  1
  Pb  Pb46  1  0.16472620  0.83349460  0.83547142  1
  Pb  Pb47  1  0.82988914  0.50002792  0.16971170  1
  Pb  Pb48  1  0.50117647  0.83378869  0.83368394  1
  Pb  Pb49  1  0.16747655  0.49806050  0.50225164  1
  Pb  Pb50  1  0.83307953  0.16900869  0.50006060  1
  Pb  Pb51  1  0.83314418  0.50165580  0.83132732  1
  Pb  Pb52  1  0.83312609  0.16465557  0.83315599  1
  Pb  Pb53  1  0.16914541  0.83600288  0.49751363  1
  I  I54  1  0.17439154  0.00042753  0.16380416  1
  I  I55  1  0.17211312  0.00415000  0.50647488  1
  I  I56  1  0.17073937  0.00338786  0.83230145  1
  I  I57  1  0.16896725  0.33052860  0.16874754  1
  I  I58  1  0.17246178  0.32991465  0.49500025  1
  I  I59  1  0.17052747  0.33231897  0.83522027  1
  I  I60  1  0.16920227  0.66898670  0.16425335  1
  I  I61  1  0.16665115  0.66666974  0.50055414  1
  I  I62  1  0.17093466  0.66408316  0.83420704  1
  I  I63  1  0.49780873  -0.00244103  0.16880024  1
  I  I64  1  0.49445920  0.00078129  0.50101507  1
  I  I65  1  0.49641694  0.00295156  0.83013289  1
  I  I66  1  0.49807432  0.33578484  0.16940177  1
  I  I67  1  0.50042598  0.33348125  0.50021082  1
  I  I68  1  0.49637654  0.33370416  0.83025362  1
  I  I69  1  0.49424352  0.66685845  0.16953353  1
  I  I70  1  0.50521241  0.66592877  0.49992564  1
  I  I71  1  0.49756455  0.66388283  0.83061184  1
  I  I72  1  0.82756551  -0.00016259  0.16652232  1
  I  I73  1  0.83293685  -0.00014909  0.50075772  1
  I  I74  1  0.83217275  -0.00280014  0.83345862  1
  I  I75  1  0.83271802  0.33374710  0.16485716  1
  I  I76  1  0.82547463  0.33647018  0.50215548  1
  I  I77  1  0.83388402  0.33346670  0.83248320  1
  I  I78  1  0.83924247  0.66656080  0.16550156  1
  I  I79  1  0.82695945  0.66337282  0.50160096  1
  I  I80  1  0.83212561  0.66898342  0.83302978  1
  I  I81  1  0.17207355  0.16555910  -0.00076071  1
  I  I82  1  0.17239004  0.16316959  0.33362384  1
  I  I83  1  0.17109042  0.17200427  0.66718389  1
  I  I84  1  0.17176840  0.49491884  -0.00354774  1
  I  I85  1  0.16633811  0.49852762  0.33331106  1
  I  I86  1  0.17176846  0.49543821  0.67015786  1
  I  I87  1  0.17427825  0.83913862  0.00305341  1
  I  I88  1  0.16801500  0.83722882  0.32958446  1
  I  I89  1  0.16636322  0.83363669  0.66665648  1
  I  I90  1  0.49553519  0.16894067  -0.00270325  1
  I  I91  1  0.49567820  0.16986813  0.33604280  1
  I  I92  1  0.49274765  0.16909226  0.66635989  1
  I  I93  1  0.49399628  0.50078109  -0.00078029  1
  I  I94  1  0.50472491  0.50038431  0.33408903  1
  I  I95  1  0.50088831  0.49973111  0.66658106  1
  I  I96  1  0.49806403  0.83039151  0.00263102  1
  I  I97  1  0.49635356  0.82963294  0.33339915  1
  I  I98  1  0.50282581  0.83101304  0.66431402  1
  I  I99  1  0.83055347  0.16650367  -0.00024378  1
  I  I100  1  0.83092527  0.16566937  0.33362646  1
  I  I101  1  0.83793009  0.16527045  0.66663815  1
  I  I102  1  0.83323070  0.50132869  -0.00014526  1
  I  I103  1  0.82897697  0.50028827  0.33744876  1
  I  I104  1  0.82521531  0.50062953  0.66403727  1
  I  I105  1  0.83046164  0.83200538  -0.00247132  1
  I  I106  1  0.83507442  0.83255287  0.33353551  1
  I  I107  1  0.83280885  0.83349082  0.66918371  1
  I  I108  1  0.00601082  0.15977565  0.16640355  1
  I  I109  1  0.00330081  0.16861386  0.50089385  1
  I  I110  1  0.00369031  0.17037724  0.83360489  1
  I  I111  1  0.00028714  0.49992916  0.16632898  1
  I  I112  1  -0.00159451  0.49756350  0.50318350  1
  I  I113  1  0.00269389  0.49595970  0.83230262  1
  I  I114  1  0.00291218  0.83926853  0.16368645  1
  I  I115  1  0.00012875  0.83285460  0.49963944  1
  I  I116  1  -0.00257896  0.83268251  0.83496546  1
  I  I117  1  0.33074896  0.16544337  0.16615052  1
  I  I118  1  0.33457470  0.16923132  0.50105462  1
  I  I119  1  0.33341557  0.17005568  0.83211014  1
  I  I120  1  0.33706478  0.50137630  0.17262177  1
  I  I121  1  0.33713586  0.50119596  0.49820702  1
  I  I122  1  0.33496315  0.49675867  0.83102756  1
  I  I123  1  0.33441255  0.83348850  0.16878660  1
  I  I124  1  0.33743307  0.82682360  0.50084030  1
  I  I125  1  0.33340934  0.83291628  0.83224346  1
  I  I126  1  0.66631517  0.16582562  0.16615287  1
  I  I127  1  0.66267243  0.16552246  0.50500339  1
  I  I128  1  0.66299714  0.17047119  0.82795566  1
  I  I129  1  0.66139628  0.50632957  0.16055300  1
  I  I130  1  0.66352106  0.49856170  0.50244873  1
  I  I131  1  0.66294164  0.49720105  0.83436280  1
  I  I132  1  0.66305171  0.82906704  0.16935255  1
  I  I133  1  0.66211744  0.83852436  0.49372573  1
  I  I134  1  0.66848309  0.83226633  0.83417188  1
