# generated using pymatgen
data_Cs27Sn13Pb14I81
_symmetry_space_group_name_H-M   'P 1'
_cell_length_a   18.98402509
_cell_length_b   18.98070017
_cell_length_c   18.96733847
_cell_angle_alpha   89.99886284
_cell_angle_beta   89.99884343
_cell_angle_gamma   89.99910331
_symmetry_Int_Tables_number   1
_chemical_formula_structural   Cs27Sn13Pb14I81
_chemical_formula_sum   'Cs27 Sn13 Pb14 I81'
_cell_volume   6834.50273831
_cell_formula_units_Z   1
loop_
 _symmetry_equiv_pos_site_id
 _symmetry_equiv_pos_as_xyz
  1  'x, y, z'
loop_
 _atom_site_type_symbol
 _atom_site_label
 _atom_site_symmetry_multiplicity
 _atom_site_fract_x
 _atom_site_fract_y
 _atom_site_fract_z
 _atom_site_occupancy
  Cs  Cs0  1  -0.00023839  -0.00036880  -0.00139967  1
  Cs  Cs1  1  -0.00103006  -0.00121823  0.33585468  1
  Cs  Cs2  1  0.00202002  0.00209747  0.66952433  1
  Cs  Cs3  1  -0.00058679  0.33326998  -0.00004870  1
  Cs  Cs4  1  -0.00089226  0.33263227  0.33281739  1
  Cs  Cs5  1  0.00014234  0.33265004  0.66571584  1
  Cs  Cs6  1  -0.00108508  0.66736404  0.00032861  1
  Cs  Cs7  1  -0.00040790  0.66833628  0.33651071  1
  Cs  Cs8  1  0.00450481  0.66389286  0.66303103  1
  Cs  Cs9  1  0.33258665  0.00048908  0.00050872  1
  Cs  Cs10  1  0.33367068  0.00199101  0.33319354  1
  Cs  Cs11  1  0.33183605  -0.00161259  0.66611807  1
  Cs  Cs12  1  0.33659013  0.33315305  0.00152250  1
  Cs  Cs13  1  0.33508054  0.32894966  0.32724873  1
  Cs  Cs14  1  0.33804894  0.34136922  0.66841921  1
  Cs  Cs15  1  0.33370456  0.66696337  0.00017935  1
  Cs  Cs16  1  0.33263454  0.66741260  0.33501276  1
  Cs  Cs17  1  0.33193506  0.66099031  0.66044612  1
  Cs  Cs18  1  0.66819505  -0.00236343  -0.00110473  1
  Cs  Cs19  1  0.66843865  -0.00030257  0.34295537  1
  Cs  Cs20  1  0.66473183  0.00270192  0.66331756  1
  Cs  Cs21  1  0.66785493  0.33408885  -0.00068883  1
  Cs  Cs22  1  0.66726728  0.33183800  0.33895100  1
  Cs  Cs23  1  0.66101677  0.33264011  0.66032418  1
  Cs  Cs24  1  0.66765981  0.66818408  0.00184892  1
  Cs  Cs25  1  0.66782423  0.66852518  0.33412972  1
  Cs  Cs26  1  0.66373883  0.66501633  0.66112292  1
  Sn  Sn27  1  0.83376242  0.16706862  0.83428782  1
  Sn  Sn28  1  0.83334986  0.83301532  0.83360746  1
  Sn  Sn29  1  0.16634537  0.50094498  0.16597450  1
  Sn  Sn30  1  0.49938643  0.83283981  0.16579602  1
  Sn  Sn31  1  0.16697874  0.83352428  0.83422592  1
  Sn  Sn32  1  0.16681284  0.16698901  0.50146464  1
  Sn  Sn33  1  0.49963455  0.83324059  0.83399738  1
  Sn  Sn34  1  0.83334557  0.49986660  0.83376095  1
  Sn  Sn35  1  0.83320965  0.16697856  0.16582191  1
  Sn  Sn36  1  0.16722037  0.83256660  0.16572428  1
  Sn  Sn37  1  0.50042491  0.50089565  0.16597935  1
  Sn  Sn38  1  0.83328026  0.49920774  0.16587543  1
  Sn  Sn39  1  0.16642611  0.16659381  0.83262782  1
  Pb  Pb40  1  0.49984997  0.50018623  0.49621520  1
  Pb  Pb41  1  0.16479580  0.16608536  0.16566238  1
  Pb  Pb42  1  0.16505826  0.49992060  0.83529426  1
  Pb  Pb43  1  0.83356301  0.49995866  0.49986758  1
  Pb  Pb44  1  0.83512621  0.16674888  0.50081518  1
  Pb  Pb45  1  0.83368254  0.83332447  0.50449010  1
  Pb  Pb46  1  0.50275224  0.50264858  0.83542197  1
  Pb  Pb47  1  0.16659664  0.49697271  0.49648523  1
  Pb  Pb48  1  0.16666798  0.83503944  0.50003232  1
  Pb  Pb49  1  0.49994032  0.16456161  0.83359824  1
  Pb  Pb50  1  0.49642994  0.16661176  0.50020225  1
  Pb  Pb51  1  0.83334864  0.83334673  0.16563307  1
  Pb  Pb52  1  0.49965459  0.83331049  0.49968563  1
  Pb  Pb53  1  0.50350636  0.16567556  0.16641111  1
  I  I54  1  0.16992763  -0.00289709  0.16558029  1
  I  I55  1  0.16500659  0.00284040  0.49924260  1
  I  I56  1  0.16193803  -0.00080344  0.83535184  1
  I  I57  1  0.16822657  0.33562032  0.16737574  1
  I  I58  1  0.16438678  0.32941456  0.50618055  1
  I  I59  1  0.16048902  0.33058701  0.83148853  1
  I  I60  1  0.16522242  0.66730153  0.16088630  1
  I  I61  1  0.16712789  0.66644342  0.50211811  1
  I  I62  1  0.16498832  0.66976056  0.83691415  1
  I  I63  1  0.49479413  -0.00372561  0.16240833  1
  I  I64  1  0.50154511  -0.00015687  0.49673102  1
  I  I65  1  0.50395429  -0.00391453  0.84052348  1
  I  I66  1  0.49643616  0.33616952  0.16736855  1
  I  I67  1  0.50052835  0.33344007  0.49906016  1
  I  I68  1  0.49968025  0.33375291  0.83441626  1
  I  I69  1  0.50117108  0.66693722  0.16184316  1
  I  I70  1  0.49908381  0.66681143  0.50295058  1
  I  I71  1  0.49896130  0.67084739  0.83653460  1
  I  I72  1  0.83499204  0.00215140  0.16169342  1
  I  I73  1  0.83351913  0.00020143  0.49592379  1
  I  I74  1  0.83484016  0.00014891  0.83832102  1
  I  I75  1  0.83466766  0.33420599  0.15897178  1
  I  I76  1  0.83459775  0.33329225  0.50243507  1
  I  I77  1  0.83989312  0.33281965  0.83920130  1
  I  I78  1  0.83343934  0.66395679  0.16200572  1
  I  I79  1  0.83385246  0.66657768  0.49812714  1
  I  I80  1  0.83346908  0.66685595  0.83956833  1
  I  I81  1  0.16326839  0.16420633  -0.00296019  1
  I  I82  1  0.16473010  0.16750810  0.33449579  1
  I  I83  1  0.15925491  0.15909763  0.66901017  1
  I  I84  1  0.16738115  0.49928626  0.00368840  1
  I  I85  1  0.16367426  0.50496964  0.32803175  1
  I  I86  1  0.16433053  0.50267674  0.66688839  1
  I  I87  1  0.16693503  0.83589342  -0.00054544  1
  I  I88  1  0.17120900  0.83122538  0.32965831  1
  I  I89  1  0.16556193  0.83620138  0.67051390  1
  I  I90  1  0.49479390  0.16821840  0.00016908  1
  I  I91  1  0.49990335  0.16519338  0.33293940  1
  I  I92  1  0.50572668  0.16418754  0.66704631  1
  I  I93  1  0.49814789  0.50155782  0.00373377  1
  I  I94  1  0.50282188  0.50674267  0.32773944  1
  I  I95  1  0.50175817  0.50104248  0.66694114  1
  I  I96  1  0.49906225  0.83007128  0.00025107  1
  I  I97  1  0.49515890  0.82923322  0.32928889  1
  I  I98  1  0.50119693  0.83561290  0.67030036  1
  I  I99  1  0.83936738  0.16754635  -0.00119563  1
  I  I100  1  0.83461006  0.17180831  0.33053508  1
  I  I101  1  0.83574695  0.16549218  0.67075105  1
  I  I102  1  0.83376329  0.49878422  0.00072270  1
  I  I103  1  0.83298528  0.49472738  0.32908447  1
  I  I104  1  0.83471689  0.50040606  0.67041070  1
  I  I105  1  0.83396459  0.83402451  -0.00294456  1
  I  I106  1  0.83305527  0.83398374  0.33321403  1
  I  I107  1  0.83375669  0.83459950  0.67312459  1
  I  I108  1  -0.00296681  0.17053740  0.16472892  1
  I  I109  1  0.00273729  0.16570807  0.50119863  1
  I  I110  1  -0.00041069  0.16141263  0.83392391  1
  I  I111  1  -0.00046627  0.49964151  0.16272511  1
  I  I112  1  0.00015215  0.50062480  0.49714564  1
  I  I113  1  -0.00314690  0.50366304  0.84028554  1
  I  I114  1  0.00259105  0.83122274  0.16243101  1
  I  I115  1  0.00030654  0.83356154  0.49670897  1
  I  I116  1  0.00038149  0.83541839  0.83826783  1
  I  I117  1  0.33322440  0.16972955  0.16750480  1
  I  I118  1  0.32857214  0.16487350  0.50406674  1
  I  I119  1  0.32985475  0.16146240  0.82999556  1
  I  I120  1  0.33310805  0.50428894  0.16767010  1
  I  I121  1  0.33311119  0.49901137  0.50119178  1
  I  I122  1  0.33344596  0.49881992  0.83493441  1
  I  I123  1  0.33276148  0.82633594  0.15898423  1
  I  I124  1  0.33315094  0.83558000  0.50357384  1
  I  I125  1  0.33232304  0.83983531  0.83858430  1
  I  I126  1  0.67140542  0.17013037  0.15958404  1
  I  I127  1  0.66670289  0.16643908  0.49932348  1
  I  I128  1  0.67023995  0.16546344  0.83879484  1
  I  I129  1  0.66723028  0.50075740  0.16173342  1
  I  I130  1  0.66675620  0.49909797  0.49951778  1
  I  I131  1  0.67097961  0.49896294  0.83992272  1
  I  I132  1  0.66435969  0.83008786  0.16118088  1
  I  I133  1  0.66659329  0.83431841  0.49798138  1
  I  I134  1  0.66699192  0.83326708  0.83912802  1
