# generated using pymatgen
data_Cs27Sn14Pb13I81
_symmetry_space_group_name_H-M   'P 1'
_cell_length_a   18.97746556
_cell_length_b   18.96723680
_cell_length_c   18.98196844
_cell_angle_alpha   90.00191848
_cell_angle_beta   90.00013010
_cell_angle_gamma   90.00241655
_symmetry_Int_Tables_number   1
_chemical_formula_structural   Cs27Sn14Pb13I81
_chemical_formula_sum   'Cs27 Sn14 Pb13 I81'
_cell_volume   6832.56110581
_cell_formula_units_Z   1
loop_
 _symmetry_equiv_pos_site_id
 _symmetry_equiv_pos_as_xyz
  1  'x, y, z'
loop_
 _atom_site_type_symbol
 _atom_site_label
 _atom_site_symmetry_multiplicity
 _atom_site_fract_x
 _atom_site_fract_y
 _atom_site_fract_z
 _atom_site_occupancy
  Cs  Cs0  1  -0.00208911  -0.00082871  -0.00020289  1
  Cs  Cs1  1  -0.00099335  0.00002967  0.33517688  1
  Cs  Cs2  1  0.00107737  -0.00128739  0.66536755  1
  Cs  Cs3  1  -0.00120091  0.33309998  -0.00064716  1
  Cs  Cs4  1  0.00358532  0.33652182  0.33354028  1
  Cs  Cs5  1  -0.00288678  0.33533952  0.66729705  1
  Cs  Cs6  1  0.00277996  0.66836183  0.00059951  1
  Cs  Cs7  1  0.00165127  0.66343687  0.33385599  1
  Cs  Cs8  1  -0.00179088  0.67068664  0.66586769  1
  Cs  Cs9  1  0.33174499  0.00019453  -0.00198768  1
  Cs  Cs10  1  0.33318283  0.00272731  0.33436003  1
  Cs  Cs11  1  0.33109584  0.00115972  0.66752967  1
  Cs  Cs12  1  0.33256712  0.33253555  0.00239214  1
  Cs  Cs13  1  0.33130732  0.33253255  0.33068175  1
  Cs  Cs14  1  0.33394655  0.33014906  0.66740960  1
  Cs  Cs15  1  0.33320486  0.66949580  -0.00406831  1
  Cs  Cs16  1  0.33361655  0.66334888  0.33461662  1
  Cs  Cs17  1  0.34373861  0.66715748  0.67089736  1
  Cs  Cs18  1  0.67201661  -0.00047596  0.00613286  1
  Cs  Cs19  1  0.66831286  -0.00273278  0.33254049  1
  Cs  Cs20  1  0.66978955  0.00117357  0.66274119  1
  Cs  Cs21  1  0.66896205  0.33364772  -0.00102760  1
  Cs  Cs22  1  0.66578032  0.33310657  0.33160849  1
  Cs  Cs23  1  0.66892011  0.33990024  0.67042171  1
  Cs  Cs24  1  0.66362880  0.66696794  0.00245873  1
  Cs  Cs25  1  0.66367412  0.66958843  0.33194207  1
  Cs  Cs26  1  0.66173041  0.65813519  0.66797517  1
  Sn  Sn27  1  0.49997185  0.16619423  0.83371747  1
  Sn  Sn28  1  0.83258801  0.49984681  0.16688006  1
  Sn  Sn29  1  0.16650210  0.49933834  0.83277763  1
  Sn  Sn30  1  0.16688253  0.16773258  0.83333458  1
  Sn  Sn31  1  0.16701773  0.16571872  0.16657809  1
  Sn  Sn32  1  0.16641436  0.83378350  0.49922542  1
  Sn  Sn33  1  0.16687370  0.83442894  0.16791027  1
  Sn  Sn34  1  0.83362763  0.16659575  0.49993790  1
  Sn  Sn35  1  0.16636355  0.16627197  0.50002762  1
  Sn  Sn36  1  0.83387551  0.83373640  0.50111113  1
  Sn  Sn37  1  0.83283983  0.83338852  0.83232103  1
  Sn  Sn38  1  0.50020828  0.16661572  0.50005457  1
  Sn  Sn39  1  0.50073959  0.49910275  0.16665865  1
  Sn  Sn40  1  0.49949793  0.16711394  0.16635386  1
  Pb  Pb41  1  0.16733773  0.49987185  0.16507264  1
  Pb  Pb42  1  0.49978639  0.83548713  0.50010594  1
  Pb  Pb43  1  0.83342043  0.50066270  0.49802827  1
  Pb  Pb44  1  0.16573234  0.83402406  0.83250578  1
  Pb  Pb45  1  0.16678937  0.50044627  0.50294096  1
  Pb  Pb46  1  0.83572106  0.83115783  0.16771191  1
  Pb  Pb47  1  0.83375520  0.16813111  0.16909042  1
  Pb  Pb48  1  0.83533588  0.50264136  0.83547957  1
  Pb  Pb49  1  0.49688317  0.83404623  0.16674505  1
  Pb  Pb50  1  0.83353782  0.16524681  0.83103481  1
  Pb  Pb51  1  0.50339921  0.83668086  0.83331602  1
  Pb  Pb52  1  0.49978656  0.49687902  0.49756905  1
  Pb  Pb53  1  0.49790672  0.49730689  0.83591978  1
  I  I54  1  0.17124609  0.00182125  0.16512200  1
  I  I55  1  0.16606056  0.00164293  0.50082885  1
  I  I56  1  0.16980823  0.00344350  0.83352629  1
  I  I57  1  0.16775543  0.33007822  0.16943662  1
  I  I58  1  0.16652765  0.32948524  0.49618354  1
  I  I59  1  0.16962179  0.33073966  0.83469731  1
  I  I60  1  0.16495879  0.66903911  0.16906497  1
  I  I61  1  0.15914550  0.67024168  0.49487110  1
  I  I62  1  0.16299263  0.66518504  0.83642545  1
  I  I63  1  0.49783442  0.00401282  0.16710985  1
  I  I64  1  0.49939793  0.00439951  0.49630218  1
  I  I65  1  0.49039448  0.00484321  0.83566791  1
  I  I66  1  0.49733921  0.33133271  0.16769400  1
  I  I67  1  0.49880528  0.32806688  0.50228711  1
  I  I68  1  0.49903344  0.32903141  0.83013476  1
  I  I69  1  0.50289446  0.66408402  0.16622369  1
  I  I70  1  0.50003820  0.66660497  0.49853142  1
  I  I71  1  0.49782096  0.66645987  0.83507653  1
  I  I72  1  0.83105467  -0.00007184  0.16495081  1
  I  I73  1  0.83454030  0.00046783  0.50256737  1
  I  I74  1  0.83620919  -0.00251614  0.83317288  1
  I  I75  1  0.83465905  0.33574994  0.16787659  1
  I  I76  1  0.83449439  0.33015860  0.49818391  1
  I  I77  1  0.83223588  0.33321301  0.83233145  1
  I  I78  1  0.82942018  0.66355756  0.16737141  1
  I  I79  1  0.84078572  0.67029168  0.50194186  1
  I  I80  1  0.83767777  0.67029796  0.82663394  1
  I  I81  1  0.17350749  0.16669744  0.00034594  1
  I  I82  1  0.16906426  0.16246718  0.33339197  1
  I  I83  1  0.16976313  0.16619836  0.66612863  1
  I  I84  1  0.16631393  0.49582138  -0.00244515  1
  I  I85  1  0.16643397  0.49820224  0.33321323  1
  I  I86  1  0.16518848  0.49428293  0.67048231  1
  I  I87  1  0.16493745  0.83594670  0.00181281  1
  I  I88  1  0.16094724  0.84121456  0.33398929  1
  I  I89  1  0.16291250  0.83796939  0.66365470  1
  I  I90  1  0.49154283  0.17071971  0.00061224  1
  I  I91  1  0.49642365  0.17070037  0.33311830  1
  I  I92  1  0.49528018  0.16380271  0.66637509  1
  I  I93  1  0.50323878  0.49317446  0.00357020  1
  I  I94  1  0.50185118  0.49450258  0.32952078  1
  I  I95  1  0.49906970  0.49973226  0.66707598  1
  I  I96  1  0.49974019  0.83554388  0.00012295  1
  I  I97  1  0.50504170  0.83493465  0.33327737  1
  I  I98  1  0.49406504  0.83507286  0.66670084  1
  I  I99  1  0.83347358  0.16543496  0.00004915  1
  I  I100  1  0.83336195  0.16050478  0.33708788  1
  I  I101  1  0.83402461  0.16492601  0.66291636  1
  I  I102  1  0.83040603  0.50005138  0.00315218  1
  I  I103  1  0.83152862  0.50055143  0.33017728  1
  I  I104  1  0.83469196  0.49829500  0.66673774  1
  I  I105  1  0.83600193  0.83216200  -0.00141909  1
  I  I106  1  0.83559823  0.83717413  0.33652906  1
  I  I107  1  0.84171287  0.83884845  0.66514773  1
  I  I108  1  0.00332616  0.16493172  0.16601989  1
  I  I109  1  0.00106442  0.16240137  0.49977020  1
  I  I110  1  0.00323852  0.16867295  0.83436412  1
  I  I111  1  -0.00124331  0.50048911  0.16534619  1
  I  I112  1  0.00018193  0.49411954  0.49602073  1
  I  I113  1  0.00297092  0.49178882  0.83704136  1
  I  I114  1  0.00353434  0.83806893  0.16692101  1
  I  I115  1  0.00051646  0.84223709  0.49997780  1
  I  I116  1  -0.00200340  0.83566734  0.83242610  1
  I  I117  1  0.33281466  0.16910820  0.17061911  1
  I  I118  1  0.33249269  0.16347693  0.49967946  1
  I  I119  1  0.33221270  0.16995142  0.82999770  1
  I  I120  1  0.33570399  0.49693329  0.16562194  1
  I  I121  1  0.33316526  0.50136169  0.49675837  1
  I  I122  1  0.33006576  0.50003967  0.83577574  1
  I  I123  1  0.32885068  0.83300665  0.17163840  1
  I  I124  1  0.32979652  0.83778181  0.49548595  1
  I  I125  1  0.33329417  0.83047532  0.83375922  1
  I  I126  1  0.66395787  0.16952641  0.16619495  1
  I  I127  1  0.66659557  0.16227647  0.49885456  1
  I  I128  1  0.66398902  0.16392058  0.83415520  1
  I  I129  1  0.66578740  0.49379718  0.16666125  1
  I  I130  1  0.66663909  0.49931876  0.50196255  1
  I  I131  1  0.66647560  0.49969330  0.83294212  1
  I  I132  1  0.66669880  0.83480886  0.16623557  1
  I  I133  1  0.66979444  0.83884582  0.50297913  1
  I  I134  1  0.67105923  0.83428595  0.82736409  1
