# generated using pymatgen
data_Cs27Sn14Pb13I81
_symmetry_space_group_name_H-M   'P 1'
_cell_length_a   18.97926152
_cell_length_b   18.97342980
_cell_length_c   18.97515666
_cell_angle_alpha   90.00026413
_cell_angle_beta   90.00073528
_cell_angle_gamma   90.00052649
_symmetry_Int_Tables_number   1
_chemical_formula_structural   Cs27Sn14Pb13I81
_chemical_formula_sum   'Cs27 Sn14 Pb13 I81'
_cell_volume   6832.98590312
_cell_formula_units_Z   1
loop_
 _symmetry_equiv_pos_site_id
 _symmetry_equiv_pos_as_xyz
  1  'x, y, z'
loop_
 _atom_site_type_symbol
 _atom_site_label
 _atom_site_symmetry_multiplicity
 _atom_site_fract_x
 _atom_site_fract_y
 _atom_site_fract_z
 _atom_site_occupancy
  Cs  Cs0  1  -0.00306043  0.00207452  0.00408950  1
  Cs  Cs1  1  -0.00662794  -0.00006004  0.33312987  1
  Cs  Cs2  1  -0.00244732  -0.00735819  0.66384027  1
  Cs  Cs3  1  0.00076146  0.33231688  -0.00020825  1
  Cs  Cs4  1  0.00007080  0.33192867  0.33093987  1
  Cs  Cs5  1  -0.00152883  0.33536253  0.66834036  1
  Cs  Cs6  1  0.00208447  0.66884469  -0.00221125  1
  Cs  Cs7  1  0.00181120  0.66787108  0.33407046  1
  Cs  Cs8  1  0.00287328  0.67041605  0.66766903  1
  Cs  Cs9  1  0.33525465  0.00271643  0.00107748  1
  Cs  Cs10  1  0.33166769  0.00191881  0.33469093  1
  Cs  Cs11  1  0.33452084  0.00080752  0.66557745  1
  Cs  Cs12  1  0.33228652  0.33099519  -0.00196543  1
  Cs  Cs13  1  0.33329955  0.33363238  0.33456118  1
  Cs  Cs14  1  0.33487349  0.33366210  0.66615845  1
  Cs  Cs15  1  0.33199697  0.67084928  0.00087979  1
  Cs  Cs16  1  0.33262698  0.66672656  0.33345951  1
  Cs  Cs17  1  0.33028322  0.66634218  0.66605530  1
  Cs  Cs18  1  0.66476823  -0.00950249  -0.00186598  1
  Cs  Cs19  1  0.67414032  -0.00030866  0.33491227  1
  Cs  Cs20  1  0.66761914  0.00056689  0.66723068  1
  Cs  Cs21  1  0.66653782  0.33515776  -0.00358337  1
  Cs  Cs22  1  0.66820928  0.33576585  0.33393361  1
  Cs  Cs23  1  0.66604432  0.33324652  0.66703133  1
  Cs  Cs24  1  0.66624120  0.67373003  0.00878529  1
  Cs  Cs25  1  0.66543772  0.66388935  0.32397508  1
  Cs  Cs26  1  0.66642581  0.66295903  0.66681618  1
  Sn  Sn27  1  0.16652225  0.49900591  0.49932440  1
  Sn  Sn28  1  0.50010570  0.50006743  0.50059442  1
  Sn  Sn29  1  0.16673342  0.16744115  0.50100436  1
  Sn  Sn30  1  0.83338665  0.49976780  0.50070563  1
  Sn  Sn31  1  0.50018399  0.16753922  0.83328344  1
  Sn  Sn32  1  0.16697500  0.83294173  0.16705222  1
  Sn  Sn33  1  0.16640704  0.16675275  0.83187446  1
  Sn  Sn34  1  0.50072490  0.49973656  0.83308973  1
  Sn  Sn35  1  0.83310910  0.16733298  0.83299635  1
  Sn  Sn36  1  0.50014725  0.83313327  0.50016497  1
  Sn  Sn37  1  0.16706342  0.50058126  0.16721858  1
  Sn  Sn38  1  0.49967042  0.16662634  0.49971398  1
  Sn  Sn39  1  0.50047378  0.16715377  0.16699438  1
  Sn  Sn40  1  0.83213052  0.49949526  0.83264846  1
  Pb  Pb41  1  0.49978519  0.83275178  0.83107205  1
  Pb  Pb42  1  0.83606230  0.49976589  0.16592559  1
  Pb  Pb43  1  0.49813069  0.83617659  0.16962357  1
  Pb  Pb44  1  0.83344241  0.16865475  0.50197785  1
  Pb  Pb45  1  0.16693709  0.83724378  0.83563050  1
  Pb  Pb46  1  0.82968222  0.16716531  0.16336180  1
  Pb  Pb47  1  0.83316682  0.83240202  0.83308035  1
  Pb  Pb48  1  0.16696571  0.49855100  0.83290947  1
  Pb  Pb49  1  0.49789229  0.49828766  0.16613524  1
  Pb  Pb50  1  0.16827931  0.83370939  0.49861169  1
  Pb  Pb51  1  0.83008485  0.82944832  0.50016500  1
  Pb  Pb52  1  0.16793123  0.16694259  0.16734023  1
  Pb  Pb53  1  0.83626121  0.83322404  0.16688310  1
  I  I54  1  0.17016429  -0.00154899  0.16522763  1
  I  I55  1  0.17271938  0.00337798  0.50238916  1
  I  I56  1  0.16876486  0.00564059  0.82848022  1
  I  I57  1  0.16785019  0.33555580  0.16856573  1
  I  I58  1  0.17216295  0.33377503  0.49773794  1
  I  I59  1  0.16795243  0.33029508  0.83497022  1
  I  I60  1  0.16777530  0.66532538  0.17299179  1
  I  I61  1  0.16796142  0.66339466  0.49777962  1
  I  I62  1  0.16638241  0.66653833  0.83180783  1
  I  I63  1  0.49562696  0.00402030  0.16379990  1
  I  I64  1  0.49334304  0.00207103  0.50018410  1
  I  I65  1  0.49998968  0.00377929  0.83316346  1
  I  I66  1  0.49563147  0.33041768  0.17026799  1
  I  I67  1  0.49839030  0.33329734  0.50105488  1
  I  I68  1  0.50020640  0.33239113  0.82890507  1
  I  I69  1  0.50040463  0.66664912  0.16645624  1
  I  I70  1  0.49901919  0.66466593  0.50521451  1
  I  I71  1  0.50422873  0.66281331  0.82844119  1
  I  I72  1  0.83639960  0.00043226  0.16581782  1
  I  I73  1  0.83393657  0.00008506  0.50079971  1
  I  I74  1  0.83226031  0.00336093  0.83435785  1
  I  I75  1  0.83771597  0.33338518  0.16894019  1
  I  I76  1  0.82943084  0.33677004  0.50191971  1
  I  I77  1  0.83183879  0.33350249  0.82943047  1
  I  I78  1  0.82939003  0.66625654  0.16479285  1
  I  I79  1  0.83632833  0.66129192  0.50747769  1
  I  I80  1  0.82915792  0.66236263  0.82907051  1
  I  I81  1  0.16849464  0.16710053  -0.00240912  1
  I  I82  1  0.17315972  0.16832043  0.33647238  1
  I  I83  1  0.17284538  0.17304207  0.66582390  1
  I  I84  1  0.16706950  0.50130246  0.00181080  1
  I  I85  1  0.16766067  0.49759021  0.33539668  1
  I  I86  1  0.16767012  0.49717733  0.66351498  1
  I  I87  1  0.16761863  0.82605924  0.00342571  1
  I  I88  1  0.16973644  0.83345819  0.33090347  1
  I  I89  1  0.16709009  0.83126710  0.66643412  1
  I  I90  1  0.49791529  0.17204004  -0.00173241  1
  I  I91  1  0.49237885  0.16724070  0.33526266  1
  I  I92  1  0.49868079  0.16744782  0.66643504  1
  I  I93  1  0.50263439  0.49346873  -0.00316440  1
  I  I94  1  0.50195182  0.49870173  0.33671131  1
  I  I95  1  0.49854061  0.49561720  0.66553398  1
  I  I96  1  0.49955042  0.83391046  0.00028670  1
  I  I97  1  0.49815077  0.83107631  0.33726116  1
  I  I98  1  0.49776878  0.83765953  0.66322920  1
  I  I99  1  0.83700247  0.17413168  -0.00487890  1
  I  I100  1  0.83404007  0.16718695  0.33353923  1
  I  I101  1  0.82894893  0.16965037  0.67004474  1
  I  I102  1  0.82989149  0.49503157  -0.00378691  1
  I  I103  1  0.82967282  0.50054552  0.33645377  1
  I  I104  1  0.83347555  0.49519843  0.66661633  1
  I  I105  1  0.83253577  0.83225418  -0.00006932  1
  I  I106  1  0.83257915  0.83349324  0.33376933  1
  I  I107  1  0.83536385  0.83601088  0.66641442  1
  I  I108  1  -0.00002149  0.16535095  0.16611416  1
  I  I109  1  0.00298816  0.17126123  0.50325383  1
  I  I110  1  0.00022911  0.17181242  0.82999528  1
  I  I111  1  0.00412893  0.50218167  0.17071709  1
  I  I112  1  0.00091656  0.49455446  0.49974919  1
  I  I113  1  -0.00215916  0.49470830  0.83078263  1
  I  I114  1  0.00424969  0.83064184  0.16798854  1
  I  I115  1  -0.00004350  0.83426531  0.49802241  1
  I  I116  1  0.00013979  0.83252731  0.83336765  1
  I  I117  1  0.33576933  0.16726128  0.16248452  1
  I  I118  1  0.33427927  0.17073108  0.50383415  1
  I  I119  1  0.33444727  0.17056146  0.83315834  1
  I  I120  1  0.33011403  0.50176111  0.17119157  1
  I  I121  1  0.33396053  0.49895459  0.50001460  1
  I  I122  1  0.33613979  0.49495630  0.83013751  1
  I  I123  1  0.33066077  0.82877089  0.16682805  1
  I  I124  1  0.33616533  0.83008314  0.49943388  1
  I  I125  1  0.33339113  0.83217011  0.83374393  1
  I  I126  1  0.66182884  0.16787402  0.17078157  1
  I  I127  1  0.66321986  0.16697167  0.50013625  1
  I  I128  1  0.66535671  0.17143705  0.83300653  1
  I  I129  1  0.66640100  0.49831080  0.16938496  1
  I  I130  1  0.66534152  0.49920988  0.50523814  1
  I  I131  1  0.66574714  0.49018036  0.82376662  1
  I  I132  1  0.66628908  0.83450328  0.16663088  1
  I  I133  1  0.66220350  0.83813393  0.50066343  1
  I  I134  1  0.66637259  0.83848723  0.83345974  1
