# generated using pymatgen
data_Cs27Sn13Pb14I81
_symmetry_space_group_name_H-M   'P 1'
_cell_length_a   19.05341266
_cell_length_b   19.04544512
_cell_length_c   19.04625725
_cell_angle_alpha   90.00395229
_cell_angle_beta   89.99932582
_cell_angle_gamma   90.00109923
_symmetry_Int_Tables_number   1
_chemical_formula_structural   Cs27Sn13Pb14I81
_chemical_formula_sum   'Cs27 Sn13 Pb14 I81'
_cell_volume   6911.51962187
_cell_formula_units_Z   1
loop_
 _symmetry_equiv_pos_site_id
 _symmetry_equiv_pos_as_xyz
  1  'x, y, z'
loop_
 _atom_site_type_symbol
 _atom_site_label
 _atom_site_symmetry_multiplicity
 _atom_site_fract_x
 _atom_site_fract_y
 _atom_site_fract_z
 _atom_site_occupancy
  Cs  Cs0  1  0.01203955  -0.00072399  0.00111347  1
  Cs  Cs1  1  0.00398873  0.00442682  0.32707798  1
  Cs  Cs2  1  -0.00101005  0.00218799  0.67138849  1
  Cs  Cs3  1  -0.00264964  0.33260567  -0.00348521  1
  Cs  Cs4  1  -0.00199668  0.33687232  0.33622523  1
  Cs  Cs5  1  -0.00047340  0.33345091  0.66631660  1
  Cs  Cs6  1  -0.00144188  0.66616800  0.00319288  1
  Cs  Cs7  1  -0.00026926  0.66455889  0.33381613  1
  Cs  Cs8  1  -0.00591761  0.66443513  0.66316636  1
  Cs  Cs9  1  0.31059663  -0.00212397  -0.00077612  1
  Cs  Cs10  1  0.33772783  0.00011595  0.33468178  1
  Cs  Cs11  1  0.33762902  -0.00094662  0.66567798  1
  Cs  Cs12  1  0.34000794  0.33570026  -0.00154884  1
  Cs  Cs13  1  0.33980143  0.33496625  0.33669895  1
  Cs  Cs14  1  0.33224211  0.33385234  0.66499850  1
  Cs  Cs15  1  0.34109256  0.66603844  -0.00079424  1
  Cs  Cs16  1  0.32915149  0.66385220  0.33253669  1
  Cs  Cs17  1  0.33755995  0.66460489  0.66712086  1
  Cs  Cs18  1  0.67069323  -0.00004639  0.00136770  1
  Cs  Cs19  1  0.65844299  0.00259393  0.33108755  1
  Cs  Cs20  1  0.66357330  -0.00684628  0.66660053  1
  Cs  Cs21  1  0.66560318  0.33289101  -0.00093887  1
  Cs  Cs22  1  0.66282342  0.32794198  0.33104811  1
  Cs  Cs23  1  0.67043052  0.33026203  0.67068731  1
  Cs  Cs24  1  0.66215151  0.66837436  0.00106427  1
  Cs  Cs25  1  0.67087380  0.67123831  0.33143441  1
  Cs  Cs26  1  0.66866837  0.68145985  0.66576748  1
  Sn  Sn27  1  0.50094541  0.16633269  0.83378393  1
  Sn  Sn28  1  0.50035641  0.83359438  0.16634203  1
  Sn  Sn29  1  0.83357289  0.49999916  0.83403982  1
  Sn  Sn30  1  0.50098070  0.50020655  0.50053498  1
  Sn  Sn31  1  0.83383963  0.50036767  0.16560428  1
  Sn  Sn32  1  0.83393383  0.16657583  0.50076824  1
  Sn  Sn33  1  0.16595981  0.83325588  0.50024743  1
  Sn  Sn34  1  0.16590919  0.49937059  0.16628937  1
  Sn  Sn35  1  0.83303644  0.83267985  0.16687182  1
  Sn  Sn36  1  0.16568483  0.50014268  0.83328153  1
  Sn  Sn37  1  0.16728400  0.50009668  0.50032848  1
  Sn  Sn38  1  0.83244548  0.16715026  0.83240789  1
  Sn  Sn39  1  0.16563247  0.16689812  0.50011896  1
  Pb  Pb40  1  0.83607304  0.83685740  0.49713658  1
  Pb  Pb41  1  0.50127885  0.49898745  0.83091390  1
  Pb  Pb42  1  0.50029445  0.16856704  0.50193641  1
  Pb  Pb43  1  0.49772886  0.83068589  0.49791841  1
  Pb  Pb44  1  0.16657885  0.17079195  0.16965976  1
  Pb  Pb45  1  0.83381712  0.83341684  0.83569428  1
  Pb  Pb46  1  0.16614626  0.16933267  0.83096031  1
  Pb  Pb47  1  0.16629338  0.82934791  0.83016628  1
  Pb  Pb48  1  0.49973942  0.16384740  0.16314523  1
  Pb  Pb49  1  0.50083710  0.50117359  0.16865289  1
  Pb  Pb50  1  0.83357880  0.16716600  0.16616005  1
  Pb  Pb51  1  0.49967594  0.83666730  0.83616343  1
  Pb  Pb52  1  0.83287668  0.49858179  0.50008196  1
  Pb  Pb53  1  0.16632314  0.83040719  0.16882117  1
  I  I54  1  0.16664656  0.00003866  0.16732409  1
  I  I55  1  0.15962670  0.00045969  0.49875543  1
  I  I56  1  0.16707791  -0.00009106  0.83345720  1
  I  I57  1  0.15751466  0.33843013  0.16906535  1
  I  I58  1  0.16656068  0.33438073  0.49997819  1
  I  I59  1  0.16500624  0.33682338  0.83042833  1
  I  I60  1  0.16481439  0.66299909  0.17113255  1
  I  I61  1  0.17378823  0.66485856  0.49851005  1
  I  I62  1  0.15940431  0.66144480  0.83092572  1
  I  I63  1  0.51108374  -0.00376654  0.17079652  1
  I  I64  1  0.49797928  0.00001182  0.49950656  1
  I  I65  1  0.51062532  0.00415392  0.82861958  1
  I  I66  1  0.49934460  0.33322366  0.16843776  1
  I  I67  1  0.49053597  0.33581350  0.49753114  1
  I  I68  1  0.50109691  0.33150379  0.83284228  1
  I  I69  1  0.50078536  0.66859471  0.16750256  1
  I  I70  1  0.49192424  0.66316816  0.50194562  1
  I  I71  1  0.49865195  0.66694883  0.83225128  1
  I  I72  1  0.82620946  -0.00231833  0.16957293  1
  I  I73  1  0.83949674  0.00433932  0.50772574  1
  I  I74  1  0.82653121  0.00317166  0.82774234  1
  I  I75  1  0.84049862  0.33634122  0.16651377  1
  I  I76  1  0.84078842  0.33121914  0.49865689  1
  I  I77  1  0.83442377  0.33401709  0.83623042  1
  I  I78  1  0.83427072  0.66510761  0.16061256  1
  I  I79  1  0.83294300  0.66683342  0.50364550  1
  I  I80  1  0.84005074  0.66346615  0.83443247  1
  I  I81  1  0.16666513  0.16479320  -0.00009959  1
  I  I82  1  0.15818414  0.16856494  0.33767263  1
  I  I83  1  0.16517691  0.17095106  0.66345088  1
  I  I84  1  0.15994479  0.50016364  -0.00001850  1
  I  I85  1  0.16626861  0.50072380  0.33403190  1
  I  I86  1  0.16694228  0.49884763  0.66589862  1
  I  I87  1  0.16726117  0.83504616  0.00005902  1
  I  I88  1  0.16607821  0.83013302  0.33626693  1
  I  I89  1  0.16793170  0.83180422  0.66247391  1
  I  I90  1  0.51115119  0.17187699  -0.00411285  1
  I  I91  1  0.50023950  0.16680354  0.33319868  1
  I  I92  1  0.50123205  0.16862360  0.66913313  1
  I  I93  1  0.49443723  0.50015004  -0.00011058  1
  I  I94  1  0.49226909  0.49853978  0.33610021  1
  I  I95  1  0.49053172  0.49846723  0.66372104  1
  I  I96  1  0.50533959  0.82790476  0.00356300  1
  I  I97  1  0.50632046  0.83381752  0.33070197  1
  I  I98  1  0.49842876  0.83276344  0.66675544  1
  I  I99  1  0.82611983  0.16909110  -0.00296386  1
  I  I100  1  0.84044496  0.16779367  0.33558771  1
  I  I101  1  0.83519857  0.17648761  0.66718026  1
  I  I102  1  0.84385638  0.49715639  -0.00018471  1
  I  I103  1  0.83781186  0.50334556  0.33102412  1
  I  I104  1  0.83825824  0.49506008  0.66917462  1
  I  I105  1  0.82945803  0.83357392  0.00334944  1
  I  I106  1  0.83009553  0.82369924  0.33007351  1
  I  I107  1  0.83413247  0.82896149  0.66666948  1
  I  I108  1  -0.00009994  0.15707487  0.16097650  1
  I  I109  1  0.00038206  0.17091082  0.50676316  1
  I  I110  1  -0.00286084  0.16936688  0.83083133  1
  I  I111  1  -0.00019180  0.50772659  0.16975224  1
  I  I112  1  0.00312274  0.50176395  0.49933695  1
  I  I113  1  -0.00028028  0.49232466  0.83133699  1
  I  I114  1  -0.00243596  0.83126269  0.16796631  1
  I  I115  1  0.00308505  0.82272019  0.49720762  1
  I  I116  1  0.00001574  0.84209999  0.83784329  1
  I  I117  1  0.33319574  0.16512355  0.16585866  1
  I  I118  1  0.33042504  0.16563388  0.50108848  1
  I  I119  1  0.33488908  0.16800798  0.83234775  1
  I  I120  1  0.33064300  0.50188471  0.16475842  1
  I  I121  1  0.33044885  0.49673441  0.49884040  1
  I  I122  1  0.33085146  0.49815096  0.83600594  1
  I  I123  1  0.33498122  0.83267650  0.16886307  1
  I  I124  1  0.33002234  0.84005939  0.49561806  1
  I  I125  1  0.33306538  0.83497631  0.83841821  1
  I  I126  1  0.66698209  0.17290716  0.17523789  1
  I  I127  1  0.66950193  0.17171827  0.50074958  1
  I  I128  1  0.66858770  0.17599863  0.82595887  1
  I  I129  1  0.66997906  0.50174773  0.16273563  1
  I  I130  1  0.66443471  0.49499369  0.49840520  1
  I  I131  1  0.67017997  0.49559040  0.83892549  1
  I  I132  1  0.66773649  0.82384277  0.16716554  1
  I  I133  1  0.66686710  0.83190897  0.50189435  1
  I  I134  1  0.66685195  0.82606631  0.82881943  1
