# generated using pymatgen
data_Cs27Sn14Pb13I81
_symmetry_space_group_name_H-M   'P 1'
_cell_length_a   18.97084525
_cell_length_b   18.97977123
_cell_length_c   18.97570766
_cell_angle_alpha   90.00040809
_cell_angle_beta   89.99768989
_cell_angle_gamma   89.99784470
_symmetry_Int_Tables_number   1
_chemical_formula_structural   Cs27Sn14Pb13I81
_chemical_formula_sum   'Cs27 Sn14 Pb13 I81'
_cell_volume   6832.43698916
_cell_formula_units_Z   1
loop_
 _symmetry_equiv_pos_site_id
 _symmetry_equiv_pos_as_xyz
  1  'x, y, z'
loop_
 _atom_site_type_symbol
 _atom_site_label
 _atom_site_symmetry_multiplicity
 _atom_site_fract_x
 _atom_site_fract_y
 _atom_site_fract_z
 _atom_site_occupancy
  Cs  Cs0  1  0.00647671  -0.00151314  -0.00084100  1
  Cs  Cs1  1  -0.00521137  0.00118651  0.33185490  1
  Cs  Cs2  1  -0.00032887  0.00113071  0.67033380  1
  Cs  Cs3  1  0.00193338  0.33569366  0.00060437  1
  Cs  Cs4  1  -0.00134627  0.33371463  0.33749693  1
  Cs  Cs5  1  0.00026159  0.33272958  0.66326772  1
  Cs  Cs6  1  -0.00290863  0.66544420  -0.00386974  1
  Cs  Cs7  1  0.00254588  0.66629395  0.33576651  1
  Cs  Cs8  1  0.00230147  0.66830419  0.66864064  1
  Cs  Cs9  1  0.32404174  0.00009949  0.00634572  1
  Cs  Cs10  1  0.33309286  -0.00906573  0.32453383  1
  Cs  Cs11  1  0.33538072  -0.00124332  0.66802183  1
  Cs  Cs12  1  0.33245387  0.33293495  0.00100358  1
  Cs  Cs13  1  0.33316103  0.33355513  0.33202649  1
  Cs  Cs14  1  0.33533500  0.33524612  0.66828263  1
  Cs  Cs15  1  0.33423008  0.66472823  0.00223842  1
  Cs  Cs16  1  0.33121034  0.67561302  0.33353283  1
  Cs  Cs17  1  0.33384728  0.66452390  0.66376211  1
  Cs  Cs18  1  0.66650562  0.00104163  -0.00106502  1
  Cs  Cs19  1  0.66911196  -0.00040286  0.33432966  1
  Cs  Cs20  1  0.66617559  0.00222371  0.66486605  1
  Cs  Cs21  1  0.66565476  0.33657230  0.00076191  1
  Cs  Cs22  1  0.66746184  0.33243037  0.33341174  1
  Cs  Cs23  1  0.66468717  0.33121457  0.66616060  1
  Cs  Cs24  1  0.66866205  0.66148461  -0.00187294  1
  Cs  Cs25  1  0.66592407  0.66823305  0.33058129  1
  Cs  Cs26  1  0.66553587  0.66689273  0.66966168  1
  Sn  Sn27  1  0.83222941  0.50035032  0.50044135  1
  Sn  Sn28  1  0.83312322  0.83322113  0.49982061  1
  Sn  Sn29  1  0.16746648  0.49961215  0.83390177  1
  Sn  Sn30  1  0.16665879  0.49977984  0.16628679  1
  Sn  Sn31  1  0.83305562  0.83383777  0.16681343  1
  Sn  Sn32  1  0.16782819  0.16617630  0.49987585  1
  Sn  Sn33  1  0.49920534  0.49977875  0.83255442  1
  Sn  Sn34  1  0.50039247  0.16628189  0.83308354  1
  Sn  Sn35  1  0.83290310  0.16702025  0.83358903  1
  Sn  Sn36  1  0.50086044  0.49945202  0.50024420  1
  Sn  Sn37  1  0.83308498  0.16665651  0.50029361  1
  Sn  Sn38  1  0.49931621  0.16695389  0.50009407  1
  Sn  Sn39  1  0.49992189  0.83387831  0.83364957  1
  Sn  Sn40  1  0.83313979  0.16628048  0.16614476  1
  Pb  Pb41  1  0.16729129  0.16849509  0.83149377  1
  Pb  Pb42  1  0.16751530  0.49861784  0.50022430  1
  Pb  Pb43  1  0.50208763  0.83357529  0.50140113  1
  Pb  Pb44  1  0.16387711  0.83690694  0.50019990  1
  Pb  Pb45  1  0.49793422  0.49994222  0.16752497  1
  Pb  Pb46  1  0.16974100  0.83045501  0.83309977  1
  Pb  Pb47  1  0.16397076  0.16843397  0.16934196  1
  Pb  Pb48  1  0.83493466  0.49996304  0.16929631  1
  Pb  Pb49  1  0.83164173  0.83594283  0.83331340  1
  Pb  Pb50  1  0.50205311  0.16670166  0.16685517  1
  Pb  Pb51  1  0.83295336  0.49759284  0.83089243  1
  Pb  Pb52  1  0.50294568  0.83338880  0.16349686  1
  Pb  Pb53  1  0.16338454  0.83064711  0.16656179  1
  I  I54  1  0.16781634  0.00003892  0.16786176  1
  I  I55  1  0.16698604  0.00492420  0.50111644  1
  I  I56  1  0.16654158  0.00026885  0.83196329  1
  I  I57  1  0.16423912  0.33598721  0.16274837  1
  I  I58  1  0.16013088  0.33086667  0.50034439  1
  I  I59  1  0.17165479  0.33632100  0.83568558  1
  I  I60  1  0.16528701  0.66296105  0.16417053  1
  I  I61  1  0.16566036  0.66664078  0.49968374  1
  I  I62  1  0.16930492  0.66218033  0.83533630  1
  I  I63  1  0.49790505  0.00012026  0.16719359  1
  I  I64  1  0.50229741  0.00338594  0.50537521  1
  I  I65  1  0.50781043  0.00163867  0.82746672  1
  I  I66  1  0.50300648  0.33334845  0.16293829  1
  I  I67  1  0.50571910  0.33278952  0.50814886  1
  I  I68  1  0.50032755  0.33317994  0.82836370  1
  I  I69  1  0.50244417  0.66656059  0.16672552  1
  I  I70  1  0.50444134  0.66378422  0.50488458  1
  I  I71  1  0.49591409  0.66525963  0.82895612  1
  I  I72  1  0.83230809  0.00110968  0.17324672  1
  I  I73  1  0.83333005  0.00171123  0.49889572  1
  I  I74  1  0.82796707  0.00400097  0.82785256  1
  I  I75  1  0.83461817  0.33055859  0.16849939  1
  I  I76  1  0.83344193  0.33194943  0.49992452  1
  I  I77  1  0.82867064  0.32954341  0.83306587  1
  I  I78  1  0.83494477  0.66906667  0.17183908  1
  I  I79  1  0.82880124  0.66631030  0.49490511  1
  I  I80  1  0.83262405  0.66645056  0.83335714  1
  I  I81  1  0.16575875  0.16670995  0.00003788  1
  I  I82  1  0.16578517  0.17151395  0.33726330  1
  I  I83  1  0.16005230  0.17036397  0.66367149  1
  I  I84  1  0.17134491  0.49847221  -0.00114560  1
  I  I85  1  0.16368658  0.49712237  0.33182405  1
  I  I86  1  0.16833388  0.49816094  0.66887422  1
  I  I87  1  0.16424035  0.83641307  -0.00015114  1
  I  I88  1  0.17051011  0.82932138  0.33342228  1
  I  I89  1  0.16218377  0.83002885  0.66662750  1
  I  I90  1  0.50594360  0.16877773  -0.00365585  1
  I  I91  1  0.50190240  0.17306343  0.33719075  1
  I  I92  1  0.50568601  0.16806129  0.66645100  1
  I  I93  1  0.49840805  0.49900803  -0.00336345  1
  I  I94  1  0.50367490  0.49349747  0.33720241  1
  I  I95  1  0.49813751  0.49878938  0.66701475  1
  I  I96  1  0.50294317  0.83242951  -0.00454240  1
  I  I97  1  0.49881023  0.83264027  0.33338357  1
  I  I98  1  0.50389306  0.83310731  0.66935303  1
  I  I99  1  0.82804385  0.16267251  -0.00038422  1
  I  I100  1  0.83391248  0.16635810  0.33505661  1
  I  I101  1  0.83262664  0.16692867  0.66523456  1
  I  I102  1  0.83187822  0.49980131  -0.00023633  1
  I  I103  1  0.83027879  0.49449035  0.33737909  1
  I  I104  1  0.83480481  0.49976855  0.66277756  1
  I  I105  1  0.83157045  0.83799206  0.00238521  1
  I  I106  1  0.83277154  0.83897528  0.33442667  1
  I  I107  1  0.83195404  0.83453827  0.66390388  1
  I  I108  1  -0.00437412  0.16344012  0.16701541  1
  I  I109  1  -0.00221183  0.16811770  0.49976166  1
  I  I110  1  -0.00266498  0.16813361  0.83094626  1
  I  I111  1  0.00259722  0.49928655  0.16150108  1
  I  I112  1  -0.00237820  0.49766146  0.49945280  1
  I  I113  1  0.00182978  0.49747774  0.83522854  1
  I  I114  1  -0.00433494  0.83878336  0.17076414  1
  I  I115  1  -0.00477207  0.83131603  0.49685119  1
  I  I116  1  -0.00025720  0.83304312  0.83347298  1
  I  I117  1  0.33305454  0.16790895  0.16691850  1
  I  I118  1  0.33493248  0.17513789  0.50734231  1
  I  I119  1  0.33690959  0.16623155  0.82697222  1
  I  I120  1  0.33018096  0.49829029  0.16672108  1
  I  I121  1  0.33654789  0.49385662  0.50225174  1
  I  I122  1  0.33501346  0.49788292  0.83085768  1
  I  I123  1  0.33319929  0.83255088  0.16633931  1
  I  I124  1  0.33361710  0.83221610  0.50130154  1
  I  I125  1  0.33782516  0.83963705  0.83134935  1
  I  I126  1  0.67054751  0.16467592  0.17163445  1
  I  I127  1  0.66756595  0.16753218  0.50107905  1
  I  I128  1  0.66623699  0.16871857  0.82840063  1
  I  I129  1  0.66696100  0.50045466  0.16425082  1
  I  I130  1  0.66649653  0.49477214  0.50502199  1
  I  I131  1  0.66356277  0.50138117  0.83097095  1
  I  I132  1  0.67070493  0.83673180  0.17261598  1
  I  I133  1  0.67028465  0.83802660  0.49719116  1
  I  I134  1  0.66388526  0.82776329  0.83290598  1
