# generated using pymatgen
data_Cs27Sn13Pb14I81
_symmetry_space_group_name_H-M   'P 1'
_cell_length_a   18.98713154
_cell_length_b   18.99711662
_cell_length_c   18.98808136
_cell_angle_alpha   90.00021092
_cell_angle_beta   89.99689453
_cell_angle_gamma   89.99902479
_symmetry_Int_Tables_number   1
_chemical_formula_structural   Cs27Sn13Pb14I81
_chemical_formula_sum   'Cs27 Sn13 Pb14 I81'
_cell_volume   6849.01521560
_cell_formula_units_Z   1
loop_
 _symmetry_equiv_pos_site_id
 _symmetry_equiv_pos_as_xyz
  1  'x, y, z'
loop_
 _atom_site_type_symbol
 _atom_site_label
 _atom_site_symmetry_multiplicity
 _atom_site_fract_x
 _atom_site_fract_y
 _atom_site_fract_z
 _atom_site_occupancy
  Cs  Cs0  1  0.00024272  0.00004057  0.00008847  1
  Cs  Cs1  1  -0.00126068  0.00241203  0.32982803  1
  Cs  Cs2  1  -0.00216682  0.00105009  0.66650252  1
  Cs  Cs3  1  0.00191750  0.33047598  0.00051325  1
  Cs  Cs4  1  0.00001238  0.33461673  0.34037942  1
  Cs  Cs5  1  0.00281055  0.33179214  0.65603597  1
  Cs  Cs6  1  0.00001478  0.66736594  0.00055457  1
  Cs  Cs7  1  -0.00015894  0.66133057  0.33198655  1
  Cs  Cs8  1  -0.00510036  0.66705452  0.66538198  1
  Cs  Cs9  1  0.33141740  0.00083788  -0.00030892  1
  Cs  Cs10  1  0.33675552  -0.00614548  0.33037799  1
  Cs  Cs11  1  0.33379602  0.00021037  0.66820666  1
  Cs  Cs12  1  0.33379753  0.33235334  -0.00137343  1
  Cs  Cs13  1  0.33339986  0.33288794  0.33708249  1
  Cs  Cs14  1  0.33336868  0.33398962  0.66583383  1
  Cs  Cs15  1  0.33151406  0.66659232  0.00051687  1
  Cs  Cs16  1  0.33423388  0.67530189  0.33381717  1
  Cs  Cs17  1  0.33319344  0.66754648  0.66700424  1
  Cs  Cs18  1  0.67045135  0.00316518  -0.00057621  1
  Cs  Cs19  1  0.66379348  -0.00328735  0.33515105  1
  Cs  Cs20  1  0.66657807  -0.00242124  0.66516260  1
  Cs  Cs21  1  0.66567314  0.33810833  0.00242799  1
  Cs  Cs22  1  0.66616512  0.33622594  0.32962837  1
  Cs  Cs23  1  0.66272284  0.33395614  0.66714124  1
  Cs  Cs24  1  0.67128723  0.65187925  -0.00229310  1
  Cs  Cs25  1  0.66578794  0.66735384  0.33406435  1
  Cs  Cs26  1  0.67354430  0.66965517  0.66785084  1
  Sn  Sn27  1  0.16654639  0.49973184  0.83362405  1
  Sn  Sn28  1  0.16613375  0.16762862  0.16624691  1
  Sn  Sn29  1  0.16610565  0.83384181  0.50105427  1
  Sn  Sn30  1  0.83352976  0.16697013  0.83369979  1
  Sn  Sn31  1  0.49970339  0.16722568  0.50060088  1
  Sn  Sn32  1  0.16640368  0.16681808  0.83362143  1
  Sn  Sn33  1  0.50005648  0.16582320  0.83276975  1
  Sn  Sn34  1  0.49973759  0.49987525  0.50042162  1
  Sn  Sn35  1  0.49987302  0.83373037  0.83419228  1
  Sn  Sn36  1  0.83297386  0.83395398  0.16609946  1
  Sn  Sn37  1  0.16715735  0.83349535  0.83222669  1
  Sn  Sn38  1  0.16716999  0.49858801  0.16613410  1
  Sn  Sn39  1  0.83422711  0.16579596  0.16590905  1
  Pb  Pb40  1  0.50336580  0.83325904  0.16242153  1
  Pb  Pb41  1  0.49863865  0.83350436  0.50245124  1
  Pb  Pb42  1  0.49991191  0.16650888  0.16608183  1
  Pb  Pb43  1  0.49786368  0.49999131  0.83188393  1
  Pb  Pb44  1  0.49656820  0.50006120  0.16917268  1
  Pb  Pb45  1  0.16883440  0.16452039  0.49954701  1
  Pb  Pb46  1  0.83625360  0.83371384  0.49725615  1
  Pb  Pb47  1  0.16831765  0.50228672  0.50007365  1
  Pb  Pb48  1  0.83037449  0.16664719  0.49957530  1
  Pb  Pb49  1  0.83602599  0.49882794  0.16664763  1
  Pb  Pb50  1  0.83348721  0.83521258  0.83519001  1
  Pb  Pb51  1  0.83691532  0.49610425  0.83305714  1
  Pb  Pb52  1  0.83006941  0.49988575  0.50013185  1
  Pb  Pb53  1  0.16537022  0.83376255  0.16585033  1
  I  I54  1  0.16465757  0.00293618  0.16341863  1
  I  I55  1  0.16985390  -0.00287726  0.50440191  1
  I  I56  1  0.16789245  0.00091224  0.83388366  1
  I  I57  1  0.16181526  0.33195157  0.15840623  1
  I  I58  1  0.16655687  0.33316689  0.50166246  1
  I  I59  1  0.16739027  0.33204813  0.83906155  1
  I  I60  1  0.16536611  0.66484095  0.16392511  1
  I  I61  1  0.17047174  0.66976913  0.50310145  1
  I  I62  1  0.17332844  0.66722195  0.83409633  1
  I  I63  1  0.49423565  0.00001849  0.17263827  1
  I  I64  1  0.49883466  0.00255588  0.50254315  1
  I  I65  1  0.49437790  0.00147718  0.82738208  1
  I  I66  1  0.50447374  0.33308891  0.16284883  1
  I  I67  1  0.49792462  0.33208581  0.50670745  1
  I  I68  1  0.49899188  0.33006678  0.83121624  1
  I  I69  1  0.49922257  0.66684365  0.16833926  1
  I  I70  1  0.49620832  0.66471800  0.49995988  1
  I  I71  1  0.49376412  0.66931717  0.83221957  1
  I  I72  1  0.84104073  0.00179557  0.16256300  1
  I  I73  1  0.83071010  0.00022806  0.50143898  1
  I  I74  1  0.83765839  0.00340032  0.83585392  1
  I  I75  1  0.83444955  0.32956508  0.16185559  1
  I  I76  1  0.83803086  0.33292997  0.49821488  1
  I  I77  1  0.82978246  0.32809740  0.84156051  1
  I  I78  1  0.83533217  0.66871870  0.16726004  1
  I  I79  1  0.83131376  0.66699228  0.49806398  1
  I  I80  1  0.83199568  0.66651796  0.83507244  1
  I  I81  1  0.16826194  0.16510922  -0.00141353  1
  I  I82  1  0.16268031  0.16994788  0.33027690  1
  I  I83  1  0.16442192  0.16919538  0.67003513  1
  I  I84  1  0.16767170  0.50125902  -0.00081691  1
  I  I85  1  0.16697081  0.49653284  0.33069335  1
  I  I86  1  0.16871730  0.49643903  0.66966379  1
  I  I87  1  0.16926489  0.83382879  -0.00331796  1
  I  I88  1  0.16590720  0.83294852  0.33480203  1
  I  I89  1  0.17107310  0.83352127  0.66895496  1
  I  I90  1  0.49861476  0.16197513  -0.00362145  1
  I  I91  1  0.49912459  0.17105784  0.33579943  1
  I  I92  1  0.49896403  0.16699826  0.66851224  1
  I  I93  1  0.50152575  0.50013440  -0.00027002  1
  I  I94  1  0.49824648  0.49227612  0.33701120  1
  I  I95  1  0.49510032  0.49682483  0.66434485  1
  I  I96  1  0.48944635  0.84182276  -0.00503323  1
  I  I97  1  0.49797445  0.83375701  0.33327615  1
  I  I98  1  0.49746130  0.83586609  0.67027523  1
  I  I99  1  0.83346710  0.16181841  -0.00030521  1
  I  I100  1  0.83827495  0.16360137  0.32982199  1
  I  I101  1  0.83732760  0.16674652  0.66995630  1
  I  I102  1  0.82874153  0.50294382  -0.00020204  1
  I  I103  1  0.83697286  0.49812204  0.33307812  1
  I  I104  1  0.83721381  0.49978719  0.66698699  1
  I  I105  1  0.83685364  0.83749244  0.00273988  1
  I  I106  1  0.83563339  0.84122625  0.32951240  1
  I  I107  1  0.83172313  0.83410387  0.66706603  1
  I  I108  1  0.00096003  0.16546917  0.15816758  1
  I  I109  1  0.00023360  0.16534405  0.50249621  1
  I  I110  1  0.00127739  0.16572343  0.83937248  1
  I  I111  1  0.00391708  0.49973917  0.16286625  1
  I  I112  1  0.00056748  0.50152467  0.49938056  1
  I  I113  1  0.00505565  0.50350456  0.83771574  1
  I  I114  1  -0.00213659  0.83591921  0.16460430  1
  I  I115  1  0.00414197  0.83304590  0.50893563  1
  I  I116  1  0.00334742  0.83404357  0.83133136  1
  I  I117  1  0.33009879  0.17055890  0.16293532  1
  I  I118  1  0.33634228  0.16987272  0.50505387  1
  I  I119  1  0.33238964  0.16603018  0.83347710  1
  I  I120  1  0.32869676  0.49370168  0.16121266  1
  I  I121  1  0.33570791  0.49473072  0.50058968  1
  I  I122  1  0.32976025  0.49559863  0.83637494  1
  I  I123  1  0.33319354  0.83340042  0.16941185  1
  I  I124  1  0.33061513  0.83349622  0.50010948  1
  I  I125  1  0.33192643  0.83850313  0.82993557  1
  I  I126  1  0.66963191  0.16195511  0.16359456  1
  I  I127  1  0.66254060  0.16945388  0.50477450  1
  I  I128  1  0.66608815  0.16041981  0.83274301  1
  I  I129  1  0.66676487  0.50023947  0.16841704  1
  I  I130  1  0.66205166  0.49543755  0.50081507  1
  I  I131  1  0.66671644  0.50132063  0.83145925  1
  I  I132  1  0.67077544  0.84303943  0.16771231  1
  I  I133  1  0.66655028  0.83255780  0.50029176  1
  I  I134  1  0.66406538  0.83953428  0.83377463  1
