# generated using pymatgen
data_Cs27Sn14Pb13I81
_symmetry_space_group_name_H-M   'P 1'
_cell_length_a   18.95827822
_cell_length_b   18.96226171
_cell_length_c   18.96277753
_cell_angle_alpha   90.00018167
_cell_angle_beta   90.00078870
_cell_angle_gamma   90.00050433
_symmetry_Int_Tables_number   1
_chemical_formula_structural   Cs27Sn14Pb13I81
_chemical_formula_sum   'Cs27 Sn14 Pb13 I81'
_cell_volume   6816.96365355
_cell_formula_units_Z   1
loop_
 _symmetry_equiv_pos_site_id
 _symmetry_equiv_pos_as_xyz
  1  'x, y, z'
loop_
 _atom_site_type_symbol
 _atom_site_label
 _atom_site_symmetry_multiplicity
 _atom_site_fract_x
 _atom_site_fract_y
 _atom_site_fract_z
 _atom_site_occupancy
  Cs  Cs0  1  0.00098341  0.00247136  -0.00134031  1
  Cs  Cs1  1  -0.00145457  -0.00266981  0.33343639  1
  Cs  Cs2  1  0.00056687  -0.00113648  0.66743845  1
  Cs  Cs3  1  -0.00093181  0.32372864  -0.00541043  1
  Cs  Cs4  1  0.00577324  0.33660177  0.33602073  1
  Cs  Cs5  1  0.00259473  0.33018897  0.66775758  1
  Cs  Cs6  1  0.00090051  0.66825959  0.00028012  1
  Cs  Cs7  1  -0.00076036  0.66646135  0.33262191  1
  Cs  Cs8  1  -0.00070971  0.66745984  0.66722326  1
  Cs  Cs9  1  0.33176245  0.00306751  0.00370135  1
  Cs  Cs10  1  0.33375766  0.00109844  0.32974989  1
  Cs  Cs11  1  0.33507767  -0.00067631  0.66684353  1
  Cs  Cs12  1  0.33362677  0.32981837  0.00198066  1
  Cs  Cs13  1  0.32990136  0.33495411  0.33393548  1
  Cs  Cs14  1  0.33162342  0.33147181  0.66509456  1
  Cs  Cs15  1  0.33251938  0.66664101  -0.00064024  1
  Cs  Cs16  1  0.33234479  0.66445039  0.33107277  1
  Cs  Cs17  1  0.33529900  0.66849040  0.66944383  1
  Cs  Cs18  1  0.66765623  0.00216376  0.00438085  1
  Cs  Cs19  1  0.66634770  0.00029875  0.33418342  1
  Cs  Cs20  1  0.66379749  -0.00214767  0.66323216  1
  Cs  Cs21  1  0.66805911  0.33315401  -0.00029634  1
  Cs  Cs22  1  0.66563254  0.33467355  0.33340840  1
  Cs  Cs23  1  0.66655529  0.33503885  0.66685976  1
  Cs  Cs24  1  0.66634144  0.66469525  -0.00005399  1
  Cs  Cs25  1  0.66746531  0.66640279  0.33393915  1
  Cs  Cs26  1  0.66475921  0.66616024  0.66746892  1
  Sn  Sn27  1  0.83269687  0.16695690  0.49984382  1
  Sn  Sn28  1  0.16621580  0.83295483  0.50063466  1
  Sn  Sn29  1  0.50088441  0.83224258  0.16673117  1
  Sn  Sn30  1  0.83291542  0.50055902  0.16711330  1
  Sn  Sn31  1  0.83232869  0.83246306  0.16657384  1
  Sn  Sn32  1  0.16650484  0.50052217  0.83337725  1
  Sn  Sn33  1  0.50063792  0.16670411  0.83252768  1
  Sn  Sn34  1  0.50088646  0.16771065  0.50081076  1
  Sn  Sn35  1  0.50089946  0.50103547  0.16749277  1
  Sn  Sn36  1  0.83346078  0.83299227  0.83327836  1
  Sn  Sn37  1  0.50059418  0.49943277  0.49954440  1
  Sn  Sn38  1  0.83394845  0.83307749  0.50021160  1
  Sn  Sn39  1  0.16602485  0.83230796  0.83234464  1
  Sn  Sn40  1  0.83270059  0.49987424  0.49955492  1
  Pb  Pb41  1  0.16577854  0.49995504  0.16394056  1
  Pb  Pb42  1  0.49998015  0.83514489  0.83617360  1
  Pb  Pb43  1  0.49821233  0.49818420  0.83345628  1
  Pb  Pb44  1  0.50025910  0.16758591  0.16774934  1
  Pb  Pb45  1  0.83508992  0.50163614  0.83331482  1
  Pb  Pb46  1  0.83347243  0.16729841  0.16957290  1
  Pb  Pb47  1  0.83098373  0.16375791  0.83058407  1
  Pb  Pb48  1  0.50000826  0.83296538  0.49809936  1
  Pb  Pb49  1  0.16665728  0.50234198  0.50185077  1
  Pb  Pb50  1  0.16611924  0.16693180  0.16703982  1
  Pb  Pb51  1  0.16600709  0.83323942  0.16644147  1
  Pb  Pb52  1  0.16894650  0.16572522  0.83301434  1
  Pb  Pb53  1  0.16686150  0.16373065  0.49993305  1
  I  I54  1  0.16884008  -0.00075188  0.16496933  1
  I  I55  1  0.16301816  -0.00435064  0.50578404  1
  I  I56  1  0.16321465  -0.00363957  0.82996630  1
  I  I57  1  0.16802763  0.33406893  0.16475741  1
  I  I58  1  0.16440669  0.33363379  0.50185157  1
  I  I59  1  0.16793500  0.33550169  0.83432024  1
  I  I60  1  0.16856555  0.66675719  0.16773539  1
  I  I61  1  0.16249808  0.67029643  0.50194932  1
  I  I62  1  0.16446862  0.66838085  0.82969164  1
  I  I63  1  0.50303762  -0.00247834  0.16657007  1
  I  I64  1  0.50254390  0.00196308  0.50199894  1
  I  I65  1  0.49911019  0.00271340  0.82713033  1
  I  I66  1  0.50426618  0.33688474  0.16693737  1
  I  I67  1  0.50695053  0.33401262  0.49885450  1
  I  I68  1  0.49801286  0.33046769  0.83316327  1
  I  I69  1  0.50362732  0.66603952  0.17167994  1
  I  I70  1  0.50283263  0.66394586  0.49778626  1
  I  I71  1  0.50016819  0.66680207  0.83125381  1
  I  I72  1  0.82978708  -0.00343250  0.16743208  1
  I  I73  1  0.83304006  -0.00109345  0.50043633  1
  I  I74  1  0.83961301  -0.00457476  0.83477830  1
  I  I75  1  0.82811693  0.33714899  0.17005276  1
  I  I76  1  0.82804615  0.33436066  0.49544536  1
  I  I77  1  0.83536192  0.33321632  0.83422761  1
  I  I78  1  0.82923942  0.66748767  0.17160173  1
  I  I79  1  0.83336398  0.66698203  0.49906465  1
  I  I80  1  0.83399017  0.67016925  0.82911412  1
  I  I81  1  0.16930821  0.16500640  -0.00055290  1
  I  I82  1  0.16997815  0.16484042  0.33412466  1
  I  I83  1  0.16584227  0.16797053  0.66647528  1
  I  I84  1  0.16785267  0.50780596  -0.00362266  1
  I  I85  1  0.16736871  0.50112262  0.33349685  1
  I  I86  1  0.16682736  0.50322862  0.66945680  1
  I  I87  1  0.16419005  0.83033835  -0.00304322  1
  I  I88  1  0.16330334  0.83442936  0.33594798  1
  I  I89  1  0.15916778  0.83043150  0.66686860  1
  I  I90  1  0.49715772  0.16511313  -0.00178754  1
  I  I91  1  0.50448913  0.16651806  0.33674587  1
  I  I92  1  0.50313306  0.17064680  0.66484052  1
  I  I93  1  0.50305804  0.50252789  0.00301418  1
  I  I94  1  0.50312788  0.49849599  0.33388016  1
  I  I95  1  0.50358433  0.49810810  0.66363764  1
  I  I96  1  0.50355603  0.82934842  0.00393070  1
  I  I97  1  0.50340742  0.83452081  0.33031011  1
  I  I98  1  0.50161992  0.83204406  0.66655256  1
  I  I99  1  0.83262909  0.16640554  -0.00020284  1
  I  I100  1  0.82568707  0.16071441  0.33768805  1
  I  I101  1  0.83175143  0.16760393  0.66240378  1
  I  I102  1  0.82946171  0.50608798  0.00294051  1
  I  I103  1  0.82952316  0.50481718  0.33424903  1
  I  I104  1  0.82989983  0.50154166  0.66329739  1
  I  I105  1  0.83318845  0.82846266  0.00065032  1
  I  I106  1  0.83361536  0.83356181  0.33407686  1
  I  I107  1  0.83836804  0.83375182  0.66563192  1
  I  I108  1  -0.00084924  0.16556165  0.16703761  1
  I  I109  1  -0.00335232  0.16878104  0.49871321  1
  I  I110  1  -0.00028628  0.16813418  0.83289566  1
  I  I111  1  -0.00391093  0.50640851  0.17245843  1
  I  I112  1  -0.00338686  0.49843043  0.49632223  1
  I  I113  1  0.00286388  0.50277379  0.83273028  1
  I  I114  1  -0.00378070  0.82899197  0.16784800  1
  I  I115  1  -0.00212417  0.83370615  0.49863762  1
  I  I116  1  -0.00046798  0.82990328  0.83374166  1
  I  I117  1  0.33404120  0.16472485  0.16758377  1
  I  I118  1  0.33675580  0.16976456  0.50294617  1
  I  I119  1  0.33671590  0.16499721  0.82738162  1
  I  I120  1  0.33651099  0.50344332  0.17022202  1
  I  I121  1  0.33631380  0.49665714  0.49672875  1
  I  I122  1  0.33048299  0.50688710  0.83260839  1
  I  I123  1  0.33600586  0.83059181  0.16729000  1
  I  I124  1  0.33127088  0.83338727  0.50360736  1
  I  I125  1  0.33070918  0.83158592  0.82939436  1
  I  I126  1  0.66669466  0.16413868  0.16355737  1
  I  I127  1  0.66666017  0.16428305  0.50371510  1
  I  I128  1  0.66341746  0.16627777  0.83167984  1
  I  I129  1  0.66672259  0.50490005  0.17032267  1
  I  I130  1  0.66722542  0.50138688  0.49722713  1
  I  I131  1  0.66675837  0.50072413  0.83312317  1
  I  I132  1  0.66793486  0.83035956  0.16712062  1
  I  I133  1  0.66977461  0.83389968  0.50221794  1
  I  I134  1  0.66955713  0.83489341  0.82978426  1
