# generated using pymatgen
data_Cs27Sn14Pb13I81
_symmetry_space_group_name_H-M   'P 1'
_cell_length_a   18.97781607
_cell_length_b   18.98256782
_cell_length_c   18.96761043
_cell_angle_alpha   89.99993258
_cell_angle_beta   89.99958551
_cell_angle_gamma   90.00044035
_symmetry_Int_Tables_number   1
_chemical_formula_structural   Cs27Sn14Pb13I81
_chemical_formula_sum   'Cs27 Sn14 Pb13 I81'
_cell_volume   6833.03766636
_cell_formula_units_Z   1
loop_
 _symmetry_equiv_pos_site_id
 _symmetry_equiv_pos_as_xyz
  1  'x, y, z'
loop_
 _atom_site_type_symbol
 _atom_site_label
 _atom_site_symmetry_multiplicity
 _atom_site_fract_x
 _atom_site_fract_y
 _atom_site_fract_z
 _atom_site_occupancy
  Cs  Cs0  1  0.00147246  -0.00007952  -0.00219234  1
  Cs  Cs1  1  0.00321453  0.00068461  0.33414850  1
  Cs  Cs2  1  -0.00010307  -0.00054290  0.66803662  1
  Cs  Cs3  1  -0.00274753  0.33096754  0.00122286  1
  Cs  Cs4  1  -0.00176219  0.33358093  0.33521686  1
  Cs  Cs5  1  0.00047745  0.33275103  0.66310968  1
  Cs  Cs6  1  -0.00170074  0.66899287  -0.00334244  1
  Cs  Cs7  1  -0.00086937  0.66611821  0.33385184  1
  Cs  Cs8  1  0.00353306  0.66673003  0.67033636  1
  Cs  Cs9  1  0.33125839  0.00053656  0.00152516  1
  Cs  Cs10  1  0.32962427  -0.00149341  0.33382589  1
  Cs  Cs11  1  0.33691342  0.00279721  0.66255639  1
  Cs  Cs12  1  0.33543697  0.33288673  -0.00158510  1
  Cs  Cs13  1  0.32948321  0.33574590  0.33001378  1
  Cs  Cs14  1  0.33767854  0.33963385  0.67115306  1
  Cs  Cs15  1  0.33170183  0.66682716  -0.00169310  1
  Cs  Cs16  1  0.33548741  0.66789915  0.33457328  1
  Cs  Cs17  1  0.33323335  0.65650218  0.66567800  1
  Cs  Cs18  1  0.66792228  -0.00076412  -0.00074183  1
  Cs  Cs19  1  0.66660566  -0.00166358  0.33466378  1
  Cs  Cs20  1  0.66323656  0.00127790  0.66448655  1
  Cs  Cs21  1  0.66698214  0.33328354  0.00085170  1
  Cs  Cs22  1  0.67102748  0.33259866  0.33367006  1
  Cs  Cs23  1  0.66149657  0.33075126  0.66216204  1
  Cs  Cs24  1  0.66885920  0.66794767  0.00232282  1
  Cs  Cs25  1  0.66619281  0.66842399  0.33116112  1
  Cs  Cs26  1  0.66356440  0.66907095  0.66413863  1
  Sn  Sn27  1  0.83346317  0.50004253  0.16594204  1
  Sn  Sn28  1  0.16578207  0.83371748  0.50019942  1
  Sn  Sn29  1  0.83268594  0.16621739  0.16608380  1
  Sn  Sn30  1  0.50016935  0.50011273  0.16633908  1
  Sn  Sn31  1  0.16621215  0.16656832  0.83223097  1
  Sn  Sn32  1  0.83378754  0.16780128  0.83370934  1
  Sn  Sn33  1  0.16662093  0.16639144  0.50143146  1
  Sn  Sn34  1  0.49973479  0.83341874  0.83425144  1
  Sn  Sn35  1  0.16605567  0.50036302  0.16619487  1
  Sn  Sn36  1  0.83455805  0.83345720  0.49936837  1
  Sn  Sn37  1  0.50093541  0.16627142  0.16669433  1
  Sn  Sn38  1  0.83321069  0.83376793  0.16735967  1
  Sn  Sn39  1  0.83299578  0.49879441  0.83364731  1
  Sn  Sn40  1  0.50061223  0.83372070  0.16532754  1
  Pb  Pb41  1  0.16640863  0.49984086  0.49812179  1
  Pb  Pb42  1  0.83480296  0.16464670  0.50010019  1
  Pb  Pb43  1  0.50055969  0.16514583  0.83547298  1
  Pb  Pb44  1  0.83331517  0.50253126  0.50033513  1
  Pb  Pb45  1  0.16617818  0.16827140  0.16655470  1
  Pb  Pb46  1  0.83206091  0.83375125  0.83329518  1
  Pb  Pb47  1  0.16648858  0.83117981  0.16795848  1
  Pb  Pb48  1  0.49696420  0.16687689  0.49667996  1
  Pb  Pb49  1  0.49975756  0.83332007  0.49956525  1
  Pb  Pb50  1  0.16422795  0.49740314  0.83586186  1
  Pb  Pb51  1  0.16956052  0.83539367  0.83058713  1
  Pb  Pb52  1  0.50301657  0.50211947  0.83582034  1
  Pb  Pb53  1  0.50041603  0.49969836  0.49708480  1
  I  I54  1  0.16740311  0.00005782  0.16614646  1
  I  I55  1  0.16263630  -0.00007243  0.50086343  1
  I  I56  1  0.15910197  0.00323037  0.83508782  1
  I  I57  1  0.16697954  0.33607501  0.16863259  1
  I  I58  1  0.16634780  0.33037389  0.50111506  1
  I  I59  1  0.16651443  0.32951407  0.82748752  1
  I  I60  1  0.16629604  0.66338617  0.16938888  1
  I  I61  1  0.16351490  0.66944223  0.49637636  1
  I  I62  1  0.16607552  0.66651497  0.83243939  1
  I  I63  1  0.50685787  -0.00051227  0.16322470  1
  I  I64  1  0.50146360  -0.00006507  0.49725289  1
  I  I65  1  0.50273090  -0.00257615  0.84046785  1
  I  I66  1  0.50226308  0.33337301  0.16815281  1
  I  I67  1  0.49843680  0.33304618  0.49975098  1
  I  I68  1  0.49737811  0.33336365  0.83456794  1
  I  I69  1  0.50337699  0.66707876  0.16382388  1
  I  I70  1  0.49765178  0.66700821  0.49881438  1
  I  I71  1  0.50204880  0.66987558  0.83892979  1
  I  I72  1  0.82656436  0.00008222  0.16657843  1
  I  I73  1  0.83485446  -0.00325559  0.49496766  1
  I  I74  1  0.83593507  0.00277200  0.83754353  1
  I  I75  1  0.83093898  0.33322735  0.16236086  1
  I  I76  1  0.83566364  0.33311021  0.49632204  1
  I  I77  1  0.83761450  0.33253198  0.84395364  1
  I  I78  1  0.83078876  0.66664793  0.16705626  1
  I  I79  1  0.83846719  0.67066417  0.49486067  1
  I  I80  1  0.83093728  0.66479112  0.83790711  1
  I  I81  1  0.16527357  0.16899357  -0.00197576  1
  I  I82  1  0.16766914  0.16384466  0.33511093  1
  I  I83  1  0.15938055  0.16149388  0.66701751  1
  I  I84  1  0.16916625  0.49902662  0.00392773  1
  I  I85  1  0.16474273  0.49713858  0.32971322  1
  I  I86  1  0.16499664  0.50221496  0.66703311  1
  I  I87  1  0.16474706  0.83405380  -0.00009869  1
  I  I88  1  0.16701379  0.83997391  0.33581811  1
  I  I89  1  0.15965809  0.83461264  0.66278147  1
  I  I90  1  0.49884978  0.16857022  0.00390592  1
  I  I91  1  0.50573824  0.16379192  0.32819846  1
  I  I92  1  0.50272448  0.16281341  0.66684655  1
  I  I93  1  0.49831991  0.49779318  0.00436153  1
  I  I94  1  0.50297420  0.50423338  0.32783285  1
  I  I95  1  0.50049140  0.50300049  0.66739812  1
  I  I96  1  0.50666382  0.83315581  0.00264162  1
  I  I97  1  0.50136661  0.83218962  0.32964214  1
  I  I98  1  0.50208424  0.83533094  0.66897351  1
  I  I99  1  0.83584401  0.16525493  0.00126257  1
  I  I100  1  0.83097139  0.16939053  0.32992258  1
  I  I101  1  0.83638644  0.16943521  0.66963540  1
  I  I102  1  0.83327276  0.50156634  0.00230215  1
  I  I103  1  0.83255143  0.49731125  0.32938656  1
  I  I104  1  0.83483884  0.49658658  0.66989605  1
  I  I105  1  0.83019096  0.83263298  0.00319738  1
  I  I106  1  0.83086036  0.83306570  0.33112851  1
  I  I107  1  0.83499921  0.83332626  0.66435976  1
  I  I108  1  -0.00314040  0.16672694  0.16616593  1
  I  I109  1  0.00272539  0.16407773  0.49745520  1
  I  I110  1  -0.00117237  0.16880775  0.83692249  1
  I  I111  1  -0.00162538  0.49930640  0.16434141  1
  I  I112  1  -0.00014573  0.49931973  0.49470809  1
  I  I113  1  -0.00353923  0.50131166  0.84097531  1
  I  I114  1  -0.00321338  0.83360353  0.16913353  1
  I  I115  1  -0.00061813  0.83693348  0.49299544  1
  I  I116  1  -0.00003983  0.83177449  0.83532002  1
  I  I117  1  0.33563856  0.16681482  0.16736289  1
  I  I118  1  0.32900444  0.15838643  0.50339723  1
  I  I119  1  0.33112806  0.16326291  0.83164778  1
  I  I120  1  0.33411646  0.49917659  0.16954557  1
  I  I121  1  0.33315443  0.50305045  0.49715463  1
  I  I122  1  0.33350617  0.49996423  0.83464825  1
  I  I123  1  0.33624076  0.83351970  0.16511065  1
  I  I124  1  0.33063565  0.83825127  0.49831851  1
  I  I125  1  0.33699386  0.83536113  0.84163187  1
  I  I126  1  0.66796690  0.16989294  0.16142400  1
  I  I127  1  0.66677225  0.16479211  0.50232554  1
  I  I128  1  0.66988959  0.16879742  0.83720490  1
  I  I129  1  0.66740492  0.50077812  0.16307500  1
  I  I130  1  0.66711506  0.50242352  0.49833154  1
  I  I131  1  0.67074453  0.49386742  0.84025318  1
  I  I132  1  0.66740312  0.82973164  0.16885818  1
  I  I133  1  0.66923674  0.83232884  0.49765094  1
  I  I134  1  0.66440005  0.83496429  0.83438218  1
