# generated using pymatgen
data_Cs27Sn13Pb14I81
_symmetry_space_group_name_H-M   'P 1'
_cell_length_a   18.97275094
_cell_length_b   18.97650351
_cell_length_c   18.98053766
_cell_angle_alpha   90.00146158
_cell_angle_beta   90.00094426
_cell_angle_gamma   90.00142187
_symmetry_Int_Tables_number   1
_chemical_formula_structural   Cs27Sn13Pb14I81
_chemical_formula_sum   'Cs27 Sn13 Pb14 I81'
_cell_volume   6833.68586078
_cell_formula_units_Z   1
loop_
 _symmetry_equiv_pos_site_id
 _symmetry_equiv_pos_as_xyz
  1  'x, y, z'
loop_
 _atom_site_type_symbol
 _atom_site_label
 _atom_site_symmetry_multiplicity
 _atom_site_fract_x
 _atom_site_fract_y
 _atom_site_fract_z
 _atom_site_occupancy
  Cs  Cs0  1  0.00085868  0.00401290  -0.00105997  1
  Cs  Cs1  1  0.00317795  -0.00450548  0.33329750  1
  Cs  Cs2  1  -0.00841207  -0.00054247  0.66751702  1
  Cs  Cs3  1  0.00082577  0.33316109  0.00050664  1
  Cs  Cs4  1  0.00098556  0.33614480  0.33256947  1
  Cs  Cs5  1  0.00159436  0.33380907  0.66593267  1
  Cs  Cs6  1  -0.00193273  0.66460765  -0.00061529  1
  Cs  Cs7  1  0.00066400  0.66351864  0.33408808  1
  Cs  Cs8  1  0.00082518  0.66624833  0.66676606  1
  Cs  Cs9  1  0.33211401  0.00158881  0.00012003  1
  Cs  Cs10  1  0.33196755  -0.00971195  0.33304666  1
  Cs  Cs11  1  0.33439691  -0.00109010  0.66775049  1
  Cs  Cs12  1  0.33375063  0.33110802  -0.00092434  1
  Cs  Cs13  1  0.33271761  0.33368595  0.33703864  1
  Cs  Cs14  1  0.33354222  0.33418073  0.66510354  1
  Cs  Cs15  1  0.33708558  0.66817914  -0.00272329  1
  Cs  Cs16  1  0.33841521  0.67589652  0.33223732  1
  Cs  Cs17  1  0.33316227  0.66643537  0.66931031  1
  Cs  Cs18  1  0.66712845  0.00089161  -0.00124433  1
  Cs  Cs19  1  0.66551965  0.00251588  0.33901751  1
  Cs  Cs20  1  0.67342737  0.00133389  0.66195081  1
  Cs  Cs21  1  0.66520886  0.33365309  0.00199466  1
  Cs  Cs22  1  0.66593883  0.33143161  0.33319831  1
  Cs  Cs23  1  0.66313940  0.33148200  0.66211148  1
  Cs  Cs24  1  0.66608542  0.66607788  0.00027557  1
  Cs  Cs25  1  0.66086118  0.66837737  0.33031528  1
  Cs  Cs26  1  0.66585479  0.66747077  0.66770650  1
  Sn  Sn27  1  0.16682239  0.50007515  0.16661560  1
  Sn  Sn28  1  0.83370486  0.49992474  0.49978450  1
  Sn  Sn29  1  0.50016863  0.16688236  0.16622473  1
  Sn  Sn30  1  0.83299698  0.16658034  0.16657926  1
  Sn  Sn31  1  0.83390283  0.49995840  0.16677266  1
  Sn  Sn32  1  0.83362248  0.83335663  0.16661569  1
  Sn  Sn33  1  0.16627665  0.49954388  0.49971326  1
  Sn  Sn34  1  0.16595481  0.50049966  0.83365404  1
  Sn  Sn35  1  0.50010347  0.16572878  0.83372361  1
  Sn  Sn36  1  0.83385918  0.49956061  0.83322771  1
  Sn  Sn37  1  0.49980705  0.83479944  0.83356099  1
  Sn  Sn38  1  0.16668791  0.83300922  0.83354808  1
  Sn  Sn39  1  0.16651561  0.16671174  0.50004161  1
  Pb  Pb40  1  0.50235768  0.83624887  0.16443444  1
  Pb  Pb41  1  0.49980773  0.49800922  0.16672758  1
  Pb  Pb42  1  0.16641584  0.83251755  0.50273920  1
  Pb  Pb43  1  0.83110248  0.16956668  0.83505430  1
  Pb  Pb44  1  0.49985502  0.49968982  0.83337520  1
  Pb  Pb45  1  0.16466251  0.83052178  0.16393311  1
  Pb  Pb46  1  0.83352437  0.83022810  0.49708795  1
  Pb  Pb47  1  0.83578323  0.16883888  0.49717546  1
  Pb  Pb48  1  0.49953759  0.50024003  0.49978050  1
  Pb  Pb49  1  0.83340851  0.83137705  0.83505109  1
  Pb  Pb50  1  0.50023129  0.83346013  0.50324443  1
  Pb  Pb51  1  0.16682242  0.16847173  0.16862754  1
  Pb  Pb52  1  0.49747350  0.16655477  0.49963829  1
  Pb  Pb53  1  0.16819111  0.16695136  0.83148118  1
  I  I54  1  0.16510426  -0.00011354  0.16744233  1
  I  I55  1  0.16914820  0.00227042  0.49984922  1
  I  I56  1  0.16997470  -0.00234043  0.83219510  1
  I  I57  1  0.16097754  0.33693522  0.16178215  1
  I  I58  1  0.16350843  0.33553225  0.50212983  1
  I  I59  1  0.16420291  0.33676168  0.83478030  1
  I  I60  1  0.16083475  0.66215663  0.17117829  1
  I  I61  1  0.16159316  0.66271550  0.49897422  1
  I  I62  1  0.16895844  0.66500141  0.83177606  1
  I  I63  1  0.50424910  0.00401755  0.16449554  1
  I  I64  1  0.49728935  0.00028037  0.49748617  1
  I  I65  1  0.49293235  -0.00011085  0.83869531  1
  I  I66  1  0.50588188  0.33018010  0.15939131  1
  I  I67  1  0.50109686  0.33324897  0.50334189  1
  I  I68  1  0.50031876  0.33069418  0.83726501  1
  I  I69  1  0.50091713  0.66701784  0.16550326  1
  I  I70  1  0.49843112  0.66671514  0.50086328  1
  I  I71  1  0.49851456  0.66884164  0.83291688  1
  I  I72  1  0.82829088  0.00062369  0.16464641  1
  I  I73  1  0.83455328  0.00016980  0.49926353  1
  I  I74  1  0.83588297  0.00014257  0.83588846  1
  I  I75  1  0.83285844  0.33462617  0.16628397  1
  I  I76  1  0.83546663  0.33717647  0.49870225  1
  I  I77  1  0.83898156  0.33771127  0.83614120  1
  I  I78  1  0.83861687  0.66487005  0.16613056  1
  I  I79  1  0.84133131  0.66181438  0.49941424  1
  I  I80  1  0.83291404  0.66296711  0.83603690  1
  I  I81  1  0.16587922  0.16807971  0.00008293  1
  I  I82  1  0.16694292  0.17453934  0.33618793  1
  I  I83  1  0.16920331  0.17394752  0.66399662  1
  I  I84  1  0.16016156  0.50354336  -0.00033937  1
  I  I85  1  0.15874903  0.49322301  0.33328405  1
  I  I86  1  0.16104144  0.49996329  0.66706185  1
  I  I87  1  0.17019657  0.82823429  -0.00378382  1
  I  I88  1  0.16614965  0.83277250  0.33305779  1
  I  I89  1  0.17047002  0.82694025  0.67063060  1
  I  I90  1  0.50281463  0.16448561  -0.00005026  1
  I  I91  1  0.50502143  0.16998522  0.33028304  1
  I  I92  1  0.49753691  0.16404246  0.66951420  1
  I  I93  1  0.50028615  0.50064828  -0.00008247  1
  I  I94  1  0.50022078  0.49719885  0.33311684  1
  I  I95  1  0.50115890  0.49800051  0.66689749  1
  I  I96  1  0.49608867  0.83382933  -0.00329012  1
  I  I97  1  0.50026194  0.83368686  0.33283860  1
  I  I98  1  0.49656601  0.83798445  0.67157581  1
  I  I99  1  0.83333946  0.17001059  0.00335670  1
  I  I100  1  0.82650363  0.16939663  0.32912708  1
  I  I101  1  0.83199378  0.16799023  0.66648526  1
  I  I102  1  0.83890640  0.49999452  0.00074433  1
  I  I103  1  0.84020503  0.49930070  0.33238172  1
  I  I104  1  0.83959654  0.50055366  0.66697210  1
  I  I105  1  0.83326688  0.82952906  0.00290010  1
  I  I106  1  0.83380703  0.83187215  0.32903301  1
  I  I107  1  0.83263173  0.83165076  0.66688573  1
  I  I108  1  -0.00282138  0.16704269  0.16798987  1
  I  I109  1  0.00332185  0.17028050  0.50010420  1
  I  I110  1  -0.00009652  0.16435505  0.83426361  1
  I  I111  1  -0.00104240  0.49776538  0.16605650  1
  I  I112  1  0.00049079  0.49614113  0.49975441  1
  I  I113  1  0.00080016  0.50509728  0.83388044  1
  I  I114  1  -0.00328247  0.83744108  0.16417015  1
  I  I115  1  0.00002096  0.83640976  0.50287011  1
  I  I116  1  0.00250908  0.82922282  0.83417904  1
  I  I117  1  0.33576016  0.17014446  0.16317215  1
  I  I118  1  0.32988797  0.17609830  0.49934234  1
  I  I119  1  0.33622356  0.16779597  0.83954161  1
  I  I120  1  0.33003158  0.49713653  0.16554587  1
  I  I121  1  0.32921637  0.49518331  0.50169025  1
  I  I122  1  0.32995499  0.50092873  0.83306787  1
  I  I123  1  0.33334137  0.83288330  0.16768720  1
  I  I124  1  0.33304531  0.83099501  0.49673845  1
  I  I125  1  0.33292947  0.82969844  0.83373173  1
  I  I126  1  0.66752502  0.16997433  0.16225447  1
  I  I127  1  0.66691410  0.16841050  0.50146207  1
  I  I128  1  0.66314698  0.16239197  0.83479874  1
  I  I129  1  0.67039862  0.50158893  0.16582399  1
  I  I130  1  0.67023092  0.50022396  0.50008800  1
  I  I131  1  0.66967131  0.50021066  0.83490101  1
  I  I132  1  0.67013270  0.82549728  0.16370073  1
  I  I133  1  0.66704816  0.83170744  0.50218545  1
  I  I134  1  0.66431343  0.83479851  0.83585895  1
