# generated using pymatgen
data_Cs27Sn14Pb13I81
_symmetry_space_group_name_H-M   'P 1'
_cell_length_a   18.95912500
_cell_length_b   18.95907739
_cell_length_c   18.96333444
_cell_angle_alpha   89.99845180
_cell_angle_beta   89.99810027
_cell_angle_gamma   90.00044118
_symmetry_Int_Tables_number   1
_chemical_formula_structural   Cs27Sn14Pb13I81
_chemical_formula_sum   'Cs27 Sn14 Pb13 I81'
_cell_volume   6816.32349554
_cell_formula_units_Z   1
loop_
 _symmetry_equiv_pos_site_id
 _symmetry_equiv_pos_as_xyz
  1  'x, y, z'
loop_
 _atom_site_type_symbol
 _atom_site_label
 _atom_site_symmetry_multiplicity
 _atom_site_fract_x
 _atom_site_fract_y
 _atom_site_fract_z
 _atom_site_occupancy
  Cs  Cs0  1  -0.00311500  0.00035196  -0.00146239  1
  Cs  Cs1  1  0.00301834  0.00370953  0.33229795  1
  Cs  Cs2  1  0.00045129  -0.01015137  0.66953960  1
  Cs  Cs3  1  -0.00086267  0.33138573  0.00207447  1
  Cs  Cs4  1  0.00573704  0.33310877  0.33254254  1
  Cs  Cs5  1  -0.00048623  0.33398876  0.66537152  1
  Cs  Cs6  1  0.00103908  0.66751357  0.00085124  1
  Cs  Cs7  1  -0.00063689  0.66374745  0.33195332  1
  Cs  Cs8  1  0.00094817  0.67370465  0.66704328  1
  Cs  Cs9  1  0.33532015  -0.00176377  -0.00131887  1
  Cs  Cs10  1  0.33638577  -0.00030641  0.33564180  1
  Cs  Cs11  1  0.33103603  0.00045517  0.66764246  1
  Cs  Cs12  1  0.33392512  0.33397162  -0.00208996  1
  Cs  Cs13  1  0.32806209  0.33263837  0.33419152  1
  Cs  Cs14  1  0.33575364  0.33246863  0.66810195  1
  Cs  Cs15  1  0.33396728  0.66721770  -0.00052644  1
  Cs  Cs16  1  0.33222860  0.66840949  0.33295640  1
  Cs  Cs17  1  0.32984799  0.66884821  0.66897546  1
  Cs  Cs18  1  0.66747738  0.00236299  0.00038565  1
  Cs  Cs19  1  0.66347388  -0.00153152  0.33401911  1
  Cs  Cs20  1  0.66939131  0.00028811  0.66526904  1
  Cs  Cs21  1  0.66691523  0.33359886  -0.00060546  1
  Cs  Cs22  1  0.66700976  0.33435395  0.33564116  1
  Cs  Cs23  1  0.66501389  0.33456398  0.66524272  1
  Cs  Cs24  1  0.66492664  0.66319805  0.00342936  1
  Cs  Cs25  1  0.66738732  0.66800438  0.33204406  1
  Cs  Cs26  1  0.66839679  0.66270718  0.66394917  1
  Sn  Sn27  1  0.50013280  0.16790567  0.16681298  1
  Sn  Sn28  1  0.83293426  0.16734116  0.50018821  1
  Sn  Sn29  1  0.50086987  0.83422421  0.83295208  1
  Sn  Sn30  1  0.16577737  0.83350123  0.16675366  1
  Sn  Sn31  1  0.49965333  0.16558781  0.83318659  1
  Sn  Sn32  1  0.83427226  0.83306847  0.16667709  1
  Sn  Sn33  1  0.50073895  0.16775986  0.49998687  1
  Sn  Sn34  1  0.50035359  0.49885763  0.16788308  1
  Sn  Sn35  1  0.16673951  0.16744621  0.83327388  1
  Sn  Sn36  1  0.16534071  0.49913455  0.83340076  1
  Sn  Sn37  1  0.83468580  0.49974268  0.83330245  1
  Sn  Sn38  1  0.83278483  0.50021751  0.16685068  1
  Sn  Sn39  1  0.83284101  0.49903481  0.49978163  1
  Sn  Sn40  1  0.50028227  0.49930061  0.49876964  1
  Pb  Pb41  1  0.16664530  0.16664649  0.50269582  1
  Pb  Pb42  1  0.16667987  0.83334035  0.49673892  1
  Pb  Pb43  1  0.16821920  0.83350676  0.83503504  1
  Pb  Pb44  1  0.50041513  0.83302443  0.16533240  1
  Pb  Pb45  1  0.83309615  0.16852865  0.83104866  1
  Pb  Pb46  1  0.50013299  0.83296460  0.50274065  1
  Pb  Pb47  1  0.83141919  0.16728686  0.16896124  1
  Pb  Pb48  1  0.50027322  0.49945180  0.83311001  1
  Pb  Pb49  1  0.83326006  0.83313128  0.49728862  1
  Pb  Pb50  1  0.16667688  0.50001982  0.50261219  1
  Pb  Pb51  1  0.83065101  0.83054625  0.83566455  1
  Pb  Pb52  1  0.16950054  0.16441675  0.16421163  1
  Pb  Pb53  1  0.16689418  0.50105048  0.16461968  1
  I  I54  1  0.16145333  -0.00323161  0.16377679  1
  I  I55  1  0.16688514  0.00034695  0.50281643  1
  I  I56  1  0.17116762  0.00261172  0.83419723  1
  I  I57  1  0.16521788  0.33309667  0.16633678  1
  I  I58  1  0.16656666  0.33335471  0.49754770  1
  I  I59  1  0.17056165  0.33332595  0.83423950  1
  I  I60  1  0.16814076  0.66889982  0.16275803  1
  I  I61  1  0.16803899  0.66629533  0.50438534  1
  I  I62  1  0.16556663  0.66419827  0.83435157  1
  I  I63  1  0.49967702  0.00259020  0.16788320  1
  I  I64  1  0.50353624  0.00358849  0.49716303  1
  I  I65  1  0.49397993  0.00209788  0.83466787  1
  I  I66  1  0.50534545  0.33398503  0.16388356  1
  I  I67  1  0.50452215  0.33312009  0.50196216  1
  I  I68  1  0.49875152  0.33075117  0.83351366  1
  I  I69  1  0.50136359  0.66364515  0.16812171  1
  I  I70  1  0.50491979  0.66296000  0.49671924  1
  I  I71  1  0.49976446  0.66780371  0.83528427  1
  I  I72  1  0.83481156  -0.00201474  0.16765901  1
  I  I73  1  0.82794589  0.00297453  0.49903145  1
  I  I74  1  0.83522306  0.00002371  0.83318522  1
  I  I75  1  0.83005119  0.33671424  0.16429531  1
  I  I76  1  0.82783761  0.33470883  0.49917817  1
  I  I77  1  0.83177182  0.33697864  0.83839289  1
  I  I78  1  0.83060004  0.66473471  0.16761554  1
  I  I79  1  0.82849998  0.66284041  0.50166235  1
  I  I80  1  0.83683899  0.66221916  0.82858885  1
  I  I81  1  0.17213493  0.17060309  -0.00373440  1
  I  I82  1  0.16779522  0.16445971  0.33318232  1
  I  I83  1  0.17349527  0.17067864  0.67061340  1
  I  I84  1  0.16470971  0.49740408  -0.00340420  1
  I  I85  1  0.16539542  0.50241908  0.33315416  1
  I  I86  1  0.16537900  0.49696087  0.67079827  1
  I  I87  1  0.16417629  0.83239936  0.00258921  1
  I  I88  1  0.16481521  0.83191820  0.32879322  1
  I  I89  1  0.16847279  0.83321572  0.66716724  1
  I  I90  1  0.49580609  0.16684895  -0.00028576  1
  I  I91  1  0.50492212  0.17001996  0.33363651  1
  I  I92  1  0.49955032  0.16782427  0.66657527  1
  I  I93  1  0.50306258  0.49814716  0.00215509  1
  I  I94  1  0.50745021  0.49411146  0.33294974  1
  I  I95  1  0.50327651  0.49727030  0.66436190  1
  I  I96  1  0.49965601  0.83624577  -0.00245650  1
  I  I97  1  0.49933134  0.83570983  0.33319266  1
  I  I98  1  0.49823656  0.83584586  0.67060675  1
  I  I99  1  0.83195153  0.16754379  0.00001952  1
  I  I100  1  0.82745360  0.17089490  0.33685144  1
  I  I101  1  0.82721175  0.17308326  0.66323854  1
  I  I102  1  0.83172472  0.50452054  0.00066302  1
  I  I103  1  0.82748357  0.50146012  0.33310293  1
  I  I104  1  0.83099614  0.49485010  0.66609081  1
  I  I105  1  0.83567372  0.82852881  0.00355926  1
  I  I106  1  0.83467455  0.82706377  0.32939746  1
  I  I107  1  0.83235475  0.83243735  0.66683178  1
  I  I108  1  -0.00005266  0.16788210  0.16686701  1
  I  I109  1  -0.00306921  0.17222578  0.49959914  1
  I  I110  1  0.00217265  0.16975858  0.83242485  1
  I  I111  1  -0.00302843  0.50297275  0.16847600  1
  I  I112  1  -0.00369087  0.49552913  0.49673163  1
  I  I113  1  -0.00057457  0.49499762  0.83413576  1
  I  I114  1  -0.00102714  0.82666746  0.16547559  1
  I  I115  1  -0.00036938  0.83364335  0.50410654  1
  I  I116  1  -0.00030814  0.83530686  0.83320848  1
  I  I117  1  0.33790878  0.17075001  0.17063928  1
  I  I118  1  0.33708061  0.17079545  0.49861702  1
  I  I119  1  0.33490462  0.16910924  0.83218796  1
  I  I120  1  0.33654670  0.49853026  0.16842791  1
  I  I121  1  0.33687447  0.49556437  0.49700182  1
  I  I122  1  0.33184848  0.49968393  0.83412577  1
  I  I123  1  0.33189795  0.83327010  0.16329266  1
  I  I124  1  0.33380000  0.83271211  0.49783156  1
  I  I125  1  0.33610208  0.83176192  0.83697848  1
  I  I126  1  0.66298606  0.16567358  0.16095969  1
  I  I127  1  0.66514728  0.17099096  0.50245528  1
  I  I128  1  0.66345692  0.16478797  0.83499241  1
  I  I129  1  0.66686694  0.50255898  0.16448125  1
  I  I130  1  0.66679369  0.49630023  0.50201563  1
  I  I131  1  0.66895995  0.50055393  0.83389709  1
  I  I132  1  0.66897341  0.83046802  0.16517072  1
  I  I133  1  0.66662796  0.83354809  0.49807076  1
  I  I134  1  0.66306073  0.83899228  0.83592362  1
