# generated using pymatgen
data_Cs27Sn13Pb14I81
_symmetry_space_group_name_H-M   'P 1'
_cell_length_a   18.98403001
_cell_length_b   18.97489143
_cell_length_c   18.97438551
_cell_angle_alpha   89.99880883
_cell_angle_beta   90.00070284
_cell_angle_gamma   89.99797634
_symmetry_Int_Tables_number   1
_chemical_formula_structural   Cs27Sn13Pb14I81
_chemical_formula_sum   'Cs27 Sn13 Pb14 I81'
_cell_volume   6834.95140366
_cell_formula_units_Z   1
loop_
 _symmetry_equiv_pos_site_id
 _symmetry_equiv_pos_as_xyz
  1  'x, y, z'
loop_
 _atom_site_type_symbol
 _atom_site_label
 _atom_site_symmetry_multiplicity
 _atom_site_fract_x
 _atom_site_fract_y
 _atom_site_fract_z
 _atom_site_occupancy
  Cs  Cs0  1  0.00072721  0.00615725  -0.00208859  1
  Cs  Cs1  1  0.00572046  -0.00033914  0.33187157  1
  Cs  Cs2  1  -0.00357825  -0.00355466  0.66917986  1
  Cs  Cs3  1  -0.00000913  0.33055923  -0.00303817  1
  Cs  Cs4  1  -0.00043492  0.33348969  0.33415865  1
  Cs  Cs5  1  0.00282512  0.33290807  0.66701917  1
  Cs  Cs6  1  -0.00047711  0.66427358  0.00029950  1
  Cs  Cs7  1  0.00049488  0.66735773  0.33410967  1
  Cs  Cs8  1  -0.00321865  0.67001389  0.66561481  1
  Cs  Cs9  1  0.33110490  0.00002493  0.00142199  1
  Cs  Cs10  1  0.33089254  -0.00126247  0.33346323  1
  Cs  Cs11  1  0.33503921  -0.00135707  0.66434152  1
  Cs  Cs12  1  0.33200130  0.33499570  -0.00384813  1
  Cs  Cs13  1  0.33389779  0.33248454  0.33399651  1
  Cs  Cs14  1  0.33209164  0.33439517  0.66884137  1
  Cs  Cs15  1  0.33273938  0.66506564  -0.00167417  1
  Cs  Cs16  1  0.33134392  0.66973567  0.33299062  1
  Cs  Cs17  1  0.34003346  0.66822238  0.67138552  1
  Cs  Cs18  1  0.66864231  -0.00084067  -0.00157266  1
  Cs  Cs19  1  0.66469257  0.00306496  0.33165395  1
  Cs  Cs20  1  0.66826910  -0.00511086  0.67055625  1
  Cs  Cs21  1  0.66840729  0.33296232  0.00236817  1
  Cs  Cs22  1  0.66705647  0.33359760  0.33373783  1
  Cs  Cs23  1  0.66466867  0.33459016  0.66133495  1
  Cs  Cs24  1  0.66766400  0.66796113  0.00109628  1
  Cs  Cs25  1  0.66845779  0.66434373  0.33375040  1
  Cs  Cs26  1  0.66404316  0.67295586  0.66340561  1
  Sn  Sn27  1  0.83284915  0.49995079  0.83319431  1
  Sn  Sn28  1  0.16694614  0.49972591  0.49956576  1
  Sn  Sn29  1  0.50074204  0.83319288  0.16671781  1
  Sn  Sn30  1  0.83314390  0.83315202  0.16677959  1
  Sn  Sn31  1  0.16653631  0.49953892  0.16728784  1
  Sn  Sn32  1  0.49985315  0.16675361  0.16621135  1
  Sn  Sn33  1  0.83348239  0.16641879  0.49985203  1
  Sn  Sn34  1  0.50001621  0.16682341  0.50031307  1
  Sn  Sn35  1  0.16659549  0.83320017  0.83358496  1
  Sn  Sn36  1  0.83351582  0.50048538  0.16590089  1
  Sn  Sn37  1  0.50017090  0.16701625  0.83345773  1
  Sn  Sn38  1  0.49987358  0.50014973  0.16681958  1
  Sn  Sn39  1  0.16657675  0.16737264  0.49983030  1
  Pb  Pb40  1  0.49859692  0.83543113  0.83612820  1
  Pb  Pb41  1  0.49772522  0.49841171  0.49790857  1
  Pb  Pb42  1  0.83512569  0.49863138  0.49962296  1
  Pb  Pb43  1  0.83487500  0.83124476  0.83598134  1
  Pb  Pb44  1  0.83104222  0.16888465  0.83085702  1
  Pb  Pb45  1  0.16908101  0.16920701  0.16827258  1
  Pb  Pb46  1  0.16637815  0.83112700  0.16510401  1
  Pb  Pb47  1  0.50012652  0.83573016  0.49730752  1
  Pb  Pb48  1  0.83331506  0.83597639  0.49692179  1
  Pb  Pb49  1  0.83171930  0.16687473  0.16811874  1
  Pb  Pb50  1  0.50251368  0.49833518  0.83543929  1
  Pb  Pb51  1  0.16856857  0.16482666  0.83056096  1
  Pb  Pb52  1  0.16676866  0.83276137  0.50229103  1
  Pb  Pb53  1  0.16493505  0.50145668  0.83292341  1
  I  I54  1  0.16695983  0.00008814  0.16743245  1
  I  I55  1  0.16825725  0.00317291  0.50094343  1
  I  I56  1  0.16680597  -0.00264669  0.83426291  1
  I  I57  1  0.16543145  0.33743252  0.16731852  1
  I  I58  1  0.16721502  0.33280289  0.49565314  1
  I  I59  1  0.16683780  0.33336028  0.83472280  1
  I  I60  1  0.17065617  0.66292454  0.17205806  1
  I  I61  1  0.16480837  0.66343108  0.49503596  1
  I  I62  1  0.16686004  0.66892486  0.83323191  1
  I  I63  1  0.50485890  0.00047956  0.16761940  1
  I  I64  1  0.49643003  0.00468176  0.49702643  1
  I  I65  1  0.49967491  0.00358085  0.83422086  1
  I  I66  1  0.50030959  0.33329792  0.16784155  1
  I  I67  1  0.50191030  0.32963547  0.49660874  1
  I  I68  1  0.49883165  0.33012375  0.83505960  1
  I  I69  1  0.50043370  0.66599255  0.16600939  1
  I  I70  1  0.49802119  0.66657527  0.49909994  1
  I  I71  1  0.49886360  0.66672116  0.83487261  1
  I  I72  1  0.82785242  -0.00225695  0.16933940  1
  I  I73  1  0.83482457  0.00432557  0.49906939  1
  I  I74  1  0.83381813  0.00007833  0.83356398  1
  I  I75  1  0.83224762  0.33644170  0.16513546  1
  I  I76  1  0.83044478  0.33043917  0.49684880  1
  I  I77  1  0.83487668  0.33639588  0.84234043  1
  I  I78  1  0.82831928  0.66533178  0.16361476  1
  I  I79  1  0.83618084  0.66654770  0.50147670  1
  I  I80  1  0.83438653  0.66334376  0.83549038  1
  I  I81  1  0.16861521  0.16702474  -0.00008207  1
  I  I82  1  0.16879153  0.16700162  0.33649075  1
  I  I83  1  0.16939635  0.17386451  0.66253804  1
  I  I84  1  0.16893244  0.50267594  0.00296994  1
  I  I85  1  0.16522240  0.49639156  0.33227849  1
  I  I86  1  0.16401179  0.49541628  0.66384006  1
  I  I87  1  0.16788354  0.83127687  -0.00220061  1
  I  I88  1  0.16697703  0.83507502  0.33313409  1
  I  I89  1  0.16646174  0.83264174  0.66972564  1
  I  I90  1  0.50052446  0.16701095  0.00129820  1
  I  I91  1  0.50022297  0.16701556  0.33305163  1
  I  I92  1  0.49899133  0.16762021  0.66571432  1
  I  I93  1  0.49479645  0.49697940  0.00432272  1
  I  I94  1  0.50517402  0.49729334  0.32907225  1
  I  I95  1  0.49961155  0.49708045  0.66664724  1
  I  I96  1  0.50298897  0.83548503  0.00430086  1
  I  I97  1  0.50158796  0.83477471  0.32879618  1
  I  I98  1  0.49832415  0.83516853  0.66693339  1
  I  I99  1  0.83113801  0.16524210  0.00007568  1
  I  I100  1  0.83067030  0.16902769  0.33608564  1
  I  I101  1  0.83178843  0.16958328  0.66292568  1
  I  I102  1  0.83493383  0.50272821  0.00242279  1
  I  I103  1  0.83128154  0.50188324  0.32985398  1
  I  I104  1  0.83697378  0.49578169  0.66866313  1
  I  I105  1  0.82874418  0.83215567  0.00392809  1
  I  I106  1  0.83027996  0.82564481  0.32898650  1
  I  I107  1  0.83500859  0.83236628  0.66684874  1
  I  I108  1  0.00017713  0.16579241  0.16920485  1
  I  I109  1  0.00059789  0.17162709  0.49887204  1
  I  I110  1  -0.00010481  0.16600193  0.83194676  1
  I  I111  1  -0.00047527  0.50557346  0.16741881  1
  I  I112  1  0.00302062  0.49285628  0.49400557  1
  I  I113  1  -0.00265530  0.49973733  0.84028604  1
  I  I114  1  -0.00256617  0.82782453  0.16610720  1
  I  I115  1  0.00009513  0.83687871  0.49766850  1
  I  I116  1  0.00244824  0.83354479  0.83479111  1
  I  I117  1  0.33755193  0.16541497  0.16924542  1
  I  I118  1  0.33372695  0.17057976  0.49881490  1
  I  I119  1  0.33659051  0.16744730  0.83343877  1
  I  I120  1  0.33366457  0.49904506  0.17168020  1
  I  I121  1  0.32972634  0.49388191  0.49499595  1
  I  I122  1  0.33346088  0.50000040  0.83432705  1
  I  I123  1  0.33610604  0.83378199  0.16556524  1
  I  I124  1  0.33336573  0.83604053  0.49726161  1
  I  I125  1  0.33099953  0.83216211  0.83498105  1
  I  I126  1  0.66319001  0.17085097  0.17012043  1
  I  I127  1  0.66569148  0.16693301  0.49802204  1
  I  I128  1  0.66311701  0.16656507  0.83297315  1
  I  I129  1  0.66658633  0.49977291  0.16220796  1
  I  I130  1  0.66660589  0.49638923  0.49844976  1
  I  I131  1  0.67010762  0.49858969  0.83965042  1
  I  I132  1  0.66599646  0.82922179  0.16646529  1
  I  I133  1  0.66669899  0.83458148  0.50282361  1
  I  I134  1  0.66665912  0.83409644  0.83282958  1
