# generated using pymatgen
data_Cs27Sn13Pb14I81
_symmetry_space_group_name_H-M   'P 1'
_cell_length_a   18.98015904
_cell_length_b   18.97927131
_cell_length_c   18.96926620
_cell_angle_alpha   89.99861865
_cell_angle_beta   89.99732879
_cell_angle_gamma   90.00106687
_symmetry_Int_Tables_number   1
_chemical_formula_structural   Cs27Sn13Pb14I81
_chemical_formula_sum   'Cs27 Sn13 Pb14 I81'
_cell_volume   6833.29093372
_cell_formula_units_Z   1
loop_
 _symmetry_equiv_pos_site_id
 _symmetry_equiv_pos_as_xyz
  1  'x, y, z'
loop_
 _atom_site_type_symbol
 _atom_site_label
 _atom_site_symmetry_multiplicity
 _atom_site_fract_x
 _atom_site_fract_y
 _atom_site_fract_z
 _atom_site_occupancy
  Cs  Cs0  1  0.00213607  0.00333025  -0.00417770  1
  Cs  Cs1  1  -0.00371273  -0.00023160  0.33564329  1
  Cs  Cs2  1  0.00004244  -0.00090266  0.66752293  1
  Cs  Cs3  1  0.00188023  0.33657312  0.00882504  1
  Cs  Cs4  1  -0.00023444  0.33280258  0.32854206  1
  Cs  Cs5  1  -0.00055394  0.33405311  0.66581130  1
  Cs  Cs6  1  -0.00210387  0.66265789  0.00306860  1
  Cs  Cs7  1  0.00189951  0.66651563  0.33501888  1
  Cs  Cs8  1  0.00030809  0.66818950  0.66534997  1
  Cs  Cs9  1  0.33324658  0.00323753  -0.00240331  1
  Cs  Cs10  1  0.33622683  -0.00184274  0.33166537  1
  Cs  Cs11  1  0.33106651  -0.00230129  0.66965348  1
  Cs  Cs12  1  0.32952837  0.33237912  0.00388464  1
  Cs  Cs13  1  0.33531236  0.33256250  0.33120857  1
  Cs  Cs14  1  0.33579934  0.33619316  0.66527527  1
  Cs  Cs15  1  0.33386662  0.66675606  0.00172003  1
  Cs  Cs16  1  0.33248859  0.66687839  0.33399687  1
  Cs  Cs17  1  0.33312688  0.66683290  0.66603988  1
  Cs  Cs18  1  0.66491821  -0.00175113  0.00222370  1
  Cs  Cs19  1  0.66619835  0.00483267  0.32640603  1
  Cs  Cs20  1  0.66802244  0.00070724  0.66710633  1
  Cs  Cs21  1  0.67032621  0.33838905  -0.00465557  1
  Cs  Cs22  1  0.66333822  0.32063099  0.33587173  1
  Cs  Cs23  1  0.66374569  0.33339643  0.66816737  1
  Cs  Cs24  1  0.66880618  0.66518831  0.00112459  1
  Cs  Cs25  1  0.66629802  0.67002356  0.33144067  1
  Cs  Cs26  1  0.66652315  0.66514677  0.66786158  1
  Sn  Sn27  1  0.50080042  0.83380205  0.83254152  1
  Sn  Sn28  1  0.50056642  0.16608369  0.83288503  1
  Sn  Sn29  1  0.83281971  0.83267555  0.50071232  1
  Sn  Sn30  1  0.16680507  0.16665295  0.50020721  1
  Sn  Sn31  1  0.16656557  0.50015655  0.83272994  1
  Sn  Sn32  1  0.50055269  0.50017437  0.16710341  1
  Sn  Sn33  1  0.16639296  0.83360652  0.16725347  1
  Sn  Sn34  1  0.83253033  0.83392665  0.83258019  1
  Sn  Sn35  1  0.83292490  0.16609845  0.83292871  1
  Sn  Sn36  1  0.83349472  0.50034729  0.49984583  1
  Sn  Sn37  1  0.16668666  0.83345086  0.49908080  1
  Sn  Sn38  1  0.50046631  0.83336255  0.50060602  1
  Sn  Sn39  1  0.16593902  0.49970985  0.50080954  1
  Pb  Pb40  1  0.49832344  0.83231389  0.16610527  1
  Pb  Pb41  1  0.50030578  0.50197852  0.49828038  1
  Pb  Pb42  1  0.16632218  0.83174286  0.83309588  1
  Pb  Pb43  1  0.49799453  0.50050943  0.83473256  1
  Pb  Pb44  1  0.83504914  0.16635346  0.50180068  1
  Pb  Pb45  1  0.50005535  0.16922201  0.16325190  1
  Pb  Pb46  1  0.16644739  0.16930856  0.83143907  1
  Pb  Pb47  1  0.16670844  0.16355046  0.16980165  1
  Pb  Pb48  1  0.83548268  0.50032365  0.83143046  1
  Pb  Pb49  1  0.49769664  0.16357235  0.50226429  1
  Pb  Pb50  1  0.83037008  0.50009469  0.17089503  1
  Pb  Pb51  1  0.16788083  0.50174726  0.16783793  1
  Pb  Pb52  1  0.83575851  0.83339405  0.16643060  1
  Pb  Pb53  1  0.83335127  0.16645532  0.16298870  1
  I  I54  1  0.16833723  -0.00433189  0.17036081  1
  I  I55  1  0.16659603  -0.00164725  0.49620709  1
  I  I56  1  0.16704053  -0.00005188  0.83302674  1
  I  I57  1  0.16814292  0.33339611  0.16613235  1
  I  I58  1  0.16223259  0.33452428  0.50637290  1
  I  I59  1  0.16771330  0.33684298  0.82738952  1
  I  I60  1  0.16813112  0.66933694  0.17213395  1
  I  I61  1  0.16611784  0.66736021  0.50006335  1
  I  I62  1  0.16753549  0.66419438  0.82753896  1
  I  I63  1  0.49828483  0.00001743  0.16833742  1
  I  I64  1  0.49975622  -0.00470677  0.50075470  1
  I  I65  1  0.50203128  -0.00139116  0.82935815  1
  I  I66  1  0.49693970  0.33666564  0.16766733  1
  I  I67  1  0.49925595  0.33314495  0.49999201  1
  I  I68  1  0.50308369  0.33101096  0.83518714  1
  I  I69  1  0.49726937  0.66479033  0.16491886  1
  I  I70  1  0.49507296  0.67033116  0.50575861  1
  I  I71  1  0.50235314  0.66990979  0.83050115  1
  I  I72  1  0.83338011  -0.00035677  0.17253631  1
  I  I73  1  0.83594412  -0.00339516  0.50279600  1
  I  I74  1  0.83105655  -0.00144896  0.82710240  1
  I  I75  1  0.83457483  0.33357249  0.16621602  1
  I  I76  1  0.83913129  0.33578301  0.50140164  1
  I  I77  1  0.82922925  0.33111922  0.83081158  1
  I  I78  1  0.83337220  0.66670504  0.16116516  1
  I  I79  1  0.83869708  0.66829644  0.50583390  1
  I  I80  1  0.83022508  0.66974536  0.83074106  1
  I  I81  1  0.16667676  0.16716893  -0.00025561  1
  I  I82  1  0.16620663  0.17225871  0.33797468  1
  I  I83  1  0.16647622  0.16067474  0.66366357  1
  I  I84  1  0.16864440  0.50228176  -0.00182731  1
  I  I85  1  0.16416713  0.50000362  0.33718873  1
  I  I86  1  0.16513702  0.50320348  0.66466777  1
  I  I87  1  0.16776552  0.82943719  0.00155579  1
  I  I88  1  0.16758592  0.83056052  0.33627591  1
  I  I89  1  0.16690237  0.83397634  0.66342767  1
  I  I90  1  0.50157974  0.15861431  -0.00463318  1
  I  I91  1  0.49847512  0.16638989  0.33357089  1
  I  I92  1  0.50325332  0.16667136  0.67011112  1
  I  I93  1  0.49591302  0.50223936  0.00214098  1
  I  I94  1  0.49663145  0.50432796  0.33103432  1
  I  I95  1  0.49981663  0.49902922  0.66650084  1
  I  I96  1  0.50202825  0.83522832  -0.00345487  1
  I  I97  1  0.50024141  0.82989850  0.33627226  1
  I  I98  1  0.49731840  0.83519650  0.66657968  1
  I  I99  1  0.83070260  0.16007568  -0.00540076  1
  I  I100  1  0.83487663  0.16694461  0.33377403  1
  I  I101  1  0.83043718  0.16447278  0.66971494  1
  I  I102  1  0.83551151  0.49984877  -0.00002827  1
  I  I103  1  0.84244640  0.50824090  0.33859994  1
  I  I104  1  0.83544511  0.50273812  0.66339540  1
  I  I105  1  0.83001905  0.83714562  -0.00365565  1
  I  I106  1  0.83239001  0.82854257  0.33707342  1
  I  I107  1  0.83541792  0.83330403  0.66592573  1
  I  I108  1  0.00035279  0.16787540  0.16373023  1
  I  I109  1  0.00291585  0.16204514  0.50387983  1
  I  I110  1  -0.00251505  0.16096615  0.83034081  1
  I  I111  1  -0.00005999  0.50098666  0.16407555  1
  I  I112  1  0.00131726  0.50567765  0.50447039  1
  I  I113  1  0.00323321  0.50134623  0.83106852  1
  I  I114  1  0.00359246  0.83076993  0.17158211  1
  I  I115  1  0.00029328  0.83233160  0.50047336  1
  I  I116  1  -0.00269590  0.83660427  0.82971911  1
  I  I117  1  0.33325820  0.16698516  0.16384487  1
  I  I118  1  0.32984221  0.16785787  0.50297273  1
  I  I119  1  0.33568740  0.16208011  0.83173710  1
  I  I120  1  0.33529064  0.50229540  0.16745044  1
  I  I121  1  0.33028512  0.50192280  0.50230703  1
  I  I122  1  0.33030385  0.50123642  0.82674163  1
  I  I123  1  0.33054657  0.83082700  0.17196911  1
  I  I124  1  0.33267470  0.83281770  0.50053520  1
  I  I125  1  0.33568105  0.83561198  0.83028096  1
  I  I126  1  0.66645860  0.16602000  0.17204454  1
  I  I127  1  0.66658283  0.16817329  0.49941715  1
  I  I128  1  0.66664539  0.16314817  0.83191309  1
  I  I129  1  0.66325763  0.50355910  0.16365755  1
  I  I130  1  0.66945053  0.50604409  0.49920829  1
  I  I131  1  0.66680548  0.49943089  0.83337786  1
  I  I132  1  0.66661561  0.83188336  0.16931546  1
  I  I133  1  0.66723169  0.82673619  0.50583883  1
  I  I134  1  0.66658727  0.83601565  0.82572119  1
