# generated using pymatgen
data_Cs27Sn13Pb14I81
_symmetry_space_group_name_H-M   'P 1'
_cell_length_a   18.98925096
_cell_length_b   18.96538455
_cell_length_c   18.97659374
_cell_angle_alpha   90.00105829
_cell_angle_beta   89.99976048
_cell_angle_gamma   89.99976455
_symmetry_Int_Tables_number   1
_chemical_formula_structural   Cs27Sn13Pb14I81
_chemical_formula_sum   'Cs27 Sn13 Pb14 I81'
_cell_volume   6834.20099233
_cell_formula_units_Z   1
loop_
 _symmetry_equiv_pos_site_id
 _symmetry_equiv_pos_as_xyz
  1  'x, y, z'
loop_
 _atom_site_type_symbol
 _atom_site_label
 _atom_site_symmetry_multiplicity
 _atom_site_fract_x
 _atom_site_fract_y
 _atom_site_fract_z
 _atom_site_occupancy
  Cs  Cs0  1  -0.00130686  -0.00002727  0.00104510  1
  Cs  Cs1  1  0.00121818  0.00103513  0.33334913  1
  Cs  Cs2  1  0.00108480  0.00133330  0.66587797  1
  Cs  Cs3  1  0.00115355  0.33281109  -0.00064302  1
  Cs  Cs4  1  0.00825230  0.32477201  0.34057503  1
  Cs  Cs5  1  0.00076157  0.33098279  0.66248974  1
  Cs  Cs6  1  -0.00222516  0.66698810  -0.00096104  1
  Cs  Cs7  1  -0.00104553  0.66842086  0.33150270  1
  Cs  Cs8  1  -0.00143246  0.66665651  0.66915942  1
  Cs  Cs9  1  0.33653132  0.00034405  -0.00380714  1
  Cs  Cs10  1  0.33372899  -0.00027041  0.33521860  1
  Cs  Cs11  1  0.33555857  -0.00200544  0.66805602  1
  Cs  Cs12  1  0.33353524  0.33347811  0.00589453  1
  Cs  Cs13  1  0.32796340  0.33864452  0.32688435  1
  Cs  Cs14  1  0.32994524  0.33549767  0.66550078  1
  Cs  Cs15  1  0.33216715  0.66671457  -0.00229152  1
  Cs  Cs16  1  0.33448355  0.66392287  0.33239960  1
  Cs  Cs17  1  0.33359239  0.66742880  0.66971799  1
  Cs  Cs18  1  0.66479355  0.00686572  -0.00068621  1
  Cs  Cs19  1  0.66561154  -0.00228168  0.33327854  1
  Cs  Cs20  1  0.66337420  0.00202847  0.66700888  1
  Cs  Cs21  1  0.66494071  0.32677976  -0.00027906  1
  Cs  Cs22  1  0.66428087  0.33335041  0.33496127  1
  Cs  Cs23  1  0.66934957  0.33384326  0.66565877  1
  Cs  Cs24  1  0.67100160  0.66687529  0.00064290  1
  Cs  Cs25  1  0.66629799  0.66801794  0.33326114  1
  Cs  Cs26  1  0.66777738  0.66520783  0.66657554  1
  Sn  Sn27  1  0.16676105  0.83310309  0.16721588  1
  Sn  Sn28  1  0.83327850  0.83311134  0.50008197  1
  Sn  Sn29  1  0.83310774  0.50053732  0.83435520  1
  Sn  Sn30  1  0.83376126  0.49996851  0.16646978  1
  Sn  Sn31  1  0.16665999  0.16750633  0.83356371  1
  Sn  Sn32  1  0.16680837  0.83293359  0.49932509  1
  Sn  Sn33  1  0.50055074  0.50012751  0.83353062  1
  Sn  Sn34  1  0.49960060  0.16675823  0.49967158  1
  Sn  Sn35  1  0.83299609  0.83335207  0.83342391  1
  Sn  Sn36  1  0.50013256  0.83305772  0.16694310  1
  Sn  Sn37  1  0.49996847  0.83367165  0.49937507  1
  Sn  Sn38  1  0.83309859  0.83303524  0.16643843  1
  Sn  Sn39  1  0.16620430  0.49892474  0.83343232  1
  Pb  Pb40  1  0.50248468  0.50234256  0.16445844  1
  Pb  Pb41  1  0.16392964  0.50228297  0.16462441  1
  Pb  Pb42  1  0.83352988  0.50163177  0.49937672  1
  Pb  Pb43  1  0.16917546  0.16409707  0.50177565  1
  Pb  Pb44  1  0.49993355  0.50045651  0.50147399  1
  Pb  Pb45  1  0.50275410  0.83195559  0.83335626  1
  Pb  Pb46  1  0.16466490  0.83302577  0.83349992  1
  Pb  Pb47  1  0.83108723  0.16391619  0.49994735  1
  Pb  Pb48  1  0.49986202  0.16444849  0.16933142  1
  Pb  Pb49  1  0.16673011  0.16384472  0.16439719  1
  Pb  Pb50  1  0.83513236  0.16736776  0.83328125  1
  Pb  Pb51  1  0.83340906  0.16721479  0.16690555  1
  Pb  Pb52  1  0.16656287  0.50271329  0.50199645  1
  Pb  Pb53  1  0.49774672  0.16972304  0.83124999  1
  I  I54  1  0.16283345  -0.00489244  0.16808197  1
  I  I55  1  0.16362198  -0.00441247  0.49954751  1
  I  I56  1  0.16477492  0.00134064  0.83274666  1
  I  I57  1  0.16521833  0.33366015  0.16715612  1
  I  I58  1  0.16830204  0.33313879  0.50020145  1
  I  I59  1  0.16459175  0.33461385  0.83245317  1
  I  I60  1  0.16790290  0.67080458  0.16804829  1
  I  I61  1  0.16906469  0.67141430  0.49912973  1
  I  I62  1  0.16726012  0.66428721  0.83277325  1
  I  I63  1  0.50337470  -0.00470040  0.16602988  1
  I  I64  1  0.50062929  -0.00277926  0.49783651  1
  I  I65  1  0.49928876  -0.00013796  0.83498961  1
  I  I66  1  0.50192736  0.33371482  0.16748113  1
  I  I67  1  0.50096777  0.33081667  0.50507953  1
  I  I68  1  0.50657481  0.33753298  0.83108702  1
  I  I69  1  0.49876687  0.67088241  0.17363741  1
  I  I70  1  0.50088641  0.67069777  0.49744635  1
  I  I71  1  0.49513540  0.66417211  0.83099697  1
  I  I72  1  0.83346810  -0.00454211  0.16586347  1
  I  I73  1  0.83604477  -0.00535900  0.50010835  1
  I  I74  1  0.83563440  -0.00317262  0.83397888  1
  I  I75  1  0.83190631  0.33704914  0.15743298  1
  I  I76  1  0.83100142  0.33328520  0.50132432  1
  I  I77  1  0.83118346  0.33728953  0.83868865  1
  I  I78  1  0.83337173  0.66891634  0.16481006  1
  I  I79  1  0.83019609  0.67103230  0.50097667  1
  I  I80  1  0.83596619  0.66694611  0.83342412  1
  I  I81  1  0.16665621  0.16844602  -0.00355355  1
  I  I82  1  0.16678549  0.16706463  0.33350748  1
  I  I83  1  0.16624192  0.16853396  0.66963759  1
  I  I84  1  0.16834997  0.50004535  -0.00377615  1
  I  I85  1  0.16589397  0.49936798  0.33292541  1
  I  I86  1  0.16373485  0.49953329  0.67076342  1
  I  I87  1  0.16622321  0.83296193  0.00243400  1
  I  I88  1  0.16215795  0.83395897  0.33343095  1
  I  I89  1  0.16678691  0.83315173  0.66437765  1
  I  I90  1  0.49942753  0.16513822  -0.00012123  1
  I  I91  1  0.50079544  0.16276641  0.33719759  1
  I  I92  1  0.49965775  0.15652311  0.66387609  1
  I  I93  1  0.49756497  0.50280918  -0.00363573  1
  I  I94  1  0.50213505  0.49889867  0.33299752  1
  I  I95  1  0.50276969  0.50363290  0.66992468  1
  I  I96  1  0.49895466  0.83024594  0.00258905  1
  I  I97  1  0.50413331  0.83648855  0.33375920  1
  I  I98  1  0.49952114  0.83533148  0.66385798  1
  I  I99  1  0.83282273  0.15993914  -0.00010391  1
  I  I100  1  0.83405763  0.16695935  0.33347082  1
  I  I101  1  0.83359686  0.16520283  0.66671346  1
  I  I102  1  0.83395786  0.51101110  -0.00127701  1
  I  I103  1  0.83123012  0.50766565  0.33000359  1
  I  I104  1  0.83311576  0.50536473  0.67010235  1
  I  I105  1  0.83491593  0.82854751  0.00034923  1
  I  I106  1  0.83299050  0.82968319  0.33290464  1
  I  I107  1  0.83409564  0.82919845  0.66677674  1
  I  I108  1  0.00014896  0.16289881  0.16627825  1
  I  I109  1  0.00044396  0.16554405  0.50133406  1
  I  I110  1  0.00287671  0.16990327  0.83218267  1
  I  I111  1  -0.00377997  0.50951015  0.15908273  1
  I  I112  1  -0.00004744  0.50243125  0.50354443  1
  I  I113  1  -0.00084206  0.50208232  0.83702948  1
  I  I114  1  -0.00084153  0.82998964  0.16849579  1
  I  I115  1  -0.00039263  0.83114937  0.49837269  1
  I  I116  1  -0.00323652  0.82855285  0.83318139  1
  I  I117  1  0.33332257  0.16462835  0.16516837  1
  I  I118  1  0.33648732  0.15755938  0.50297075  1
  I  I119  1  0.33011404  0.16869820  0.83219725  1
  I  I120  1  0.33316778  0.50238931  0.16421114  1
  I  I121  1  0.33331689  0.50403009  0.50414053  1
  I  I122  1  0.33291748  0.49730415  0.83048290  1
  I  I123  1  0.33343396  0.83443272  0.17324766  1
  I  I124  1  0.33371153  0.83694170  0.49480575  1
  I  I125  1  0.33334305  0.83183180  0.83321781  1
  I  I126  1  0.66652199  0.16366676  0.16519208  1
  I  I127  1  0.66333270  0.16014676  0.50170391  1
  I  I128  1  0.66642148  0.16630503  0.83229074  1
  I  I129  1  0.67029902  0.50838441  0.16054046  1
  I  I130  1  0.66676596  0.50250309  0.50399478  1
  I  I131  1  0.66793954  0.50717030  0.83542174  1
  I  I132  1  0.66734276  0.82936519  0.16992162  1
  I  I133  1  0.66671044  0.83636005  0.49779785  1
  I  I134  1  0.67073042  0.82762990  0.83283999  1
