# generated using pymatgen
data_Cs27Sn13Pb14I81
_symmetry_space_group_name_H-M   'P 1'
_cell_length_a   18.99438093
_cell_length_b   18.99543429
_cell_length_c   18.98325570
_cell_angle_alpha   90.00100890
_cell_angle_beta   90.00136572
_cell_angle_gamma   90.00005278
_symmetry_Int_Tables_number   1
_chemical_formula_structural   Cs27Sn13Pb14I81
_chemical_formula_sum   'Cs27 Sn13 Pb14 I81'
_cell_volume   6849.28232517
_cell_formula_units_Z   1
loop_
 _symmetry_equiv_pos_site_id
 _symmetry_equiv_pos_as_xyz
  1  'x, y, z'
loop_
 _atom_site_type_symbol
 _atom_site_label
 _atom_site_symmetry_multiplicity
 _atom_site_fract_x
 _atom_site_fract_y
 _atom_site_fract_z
 _atom_site_occupancy
  Cs  Cs0  1  0.00044719  -0.00002584  -0.00072185  1
  Cs  Cs1  1  0.00057966  -0.00013683  0.33362186  1
  Cs  Cs2  1  0.00403838  0.00060812  0.66707408  1
  Cs  Cs3  1  -0.00105835  0.33486199  -0.00185876  1
  Cs  Cs4  1  0.00425362  0.33203587  0.33588991  1
  Cs  Cs5  1  -0.00326052  0.33785286  0.66925740  1
  Cs  Cs6  1  -0.00386514  0.66670706  0.00236166  1
  Cs  Cs7  1  0.00351739  0.66771431  0.33132975  1
  Cs  Cs8  1  -0.00654876  0.66217662  0.66499314  1
  Cs  Cs9  1  0.33198456  -0.00129552  -0.00297977  1
  Cs  Cs10  1  0.33058641  0.00216531  0.33270766  1
  Cs  Cs11  1  0.33047946  -0.00393368  0.67074521  1
  Cs  Cs12  1  0.33516212  0.33477206  -0.00116158  1
  Cs  Cs13  1  0.33158351  0.33498104  0.33693674  1
  Cs  Cs14  1  0.33402724  0.33418022  0.66814257  1
  Cs  Cs15  1  0.33538754  0.66667545  0.00059567  1
  Cs  Cs16  1  0.33054063  0.66284876  0.33153013  1
  Cs  Cs17  1  0.33830924  0.66897920  0.66734631  1
  Cs  Cs18  1  0.66773399  0.00114270  0.00165452  1
  Cs  Cs19  1  0.66738014  0.00829114  0.33849407  1
  Cs  Cs20  1  0.66549555  -0.00311808  0.66019086  1
  Cs  Cs21  1  0.66573742  0.33313358  -0.00085220  1
  Cs  Cs22  1  0.66371825  0.32023382  0.33733712  1
  Cs  Cs23  1  0.66866871  0.33597942  0.66534281  1
  Cs  Cs24  1  0.66725889  0.66511586  0.00014980  1
  Cs  Cs25  1  0.66598426  0.66895027  0.33361844  1
  Cs  Cs26  1  0.66800643  0.66773767  0.65820730  1
  Sn  Sn27  1  0.50114491  0.16679905  0.83370752  1
  Sn  Sn28  1  0.50039721  0.83320337  0.16639111  1
  Sn  Sn29  1  0.83209834  0.16527946  0.83368571  1
  Sn  Sn30  1  0.50156582  0.50032549  0.16628414  1
  Sn  Sn31  1  0.16663536  0.83362125  0.49943586  1
  Sn  Sn32  1  0.16761042  0.50063152  0.83377060  1
  Sn  Sn33  1  0.83311676  0.83429595  0.83395424  1
  Sn  Sn34  1  0.16673737  0.16626500  0.16663260  1
  Sn  Sn35  1  0.83265119  0.83302062  0.16612607  1
  Sn  Sn36  1  0.83177493  0.49996477  0.16676661  1
  Sn  Sn37  1  0.49951501  0.49962134  0.83402332  1
  Sn  Sn38  1  0.16667551  0.16600405  0.49969946  1
  Sn  Sn39  1  0.16681522  0.83425241  0.16690786  1
  Pb  Pb40  1  0.83308356  0.49995867  0.49510851  1
  Pb  Pb41  1  0.50272136  0.83291690  0.83521671  1
  Pb  Pb42  1  0.83552910  0.16656367  0.16511835  1
  Pb  Pb43  1  0.16444855  0.83064689  0.83366373  1
  Pb  Pb44  1  0.16678519  0.50049631  0.50301576  1
  Pb  Pb45  1  0.49708065  0.83336729  0.49628263  1
  Pb  Pb46  1  0.83200063  0.50042514  0.83472273  1
  Pb  Pb47  1  0.83613384  0.16656051  0.50339974  1
  Pb  Pb48  1  0.16695910  0.50023562  0.16517838  1
  Pb  Pb49  1  0.49699827  0.16652020  0.50361881  1
  Pb  Pb50  1  0.83567492  0.83333411  0.49894675  1
  Pb  Pb51  1  0.50018198  0.49997432  0.49930591  1
  Pb  Pb52  1  0.49761526  0.16680156  0.16491048  1
  Pb  Pb53  1  0.16668479  0.16819989  0.83337108  1
  I  I54  1  0.16639862  -0.00124664  0.16940803  1
  I  I55  1  0.16612394  -0.00024781  0.49571402  1
  I  I56  1  0.16844702  -0.00029890  0.83327497  1
  I  I57  1  0.16610780  0.33115458  0.16890787  1
  I  I58  1  0.16672313  0.33056506  0.49496720  1
  I  I59  1  0.16538760  0.33579120  0.83479670  1
  I  I60  1  0.16607884  0.66967883  0.16957302  1
  I  I61  1  0.16599476  0.66974480  0.49386113  1
  I  I62  1  0.17183838  0.66333982  0.83496707  1
  I  I63  1  0.50128044  -0.00276820  0.16446382  1
  I  I64  1  0.50163660  -0.00005099  0.50034166  1
  I  I65  1  0.50080541  0.00215933  0.83540915  1
  I  I66  1  0.50299680  0.33618930  0.16299008  1
  I  I67  1  0.49624103  0.33309666  0.49462791  1
  I  I68  1  0.50033418  0.33404656  0.84009070  1
  I  I69  1  0.49773588  0.66666530  0.16030921  1
  I  I70  1  0.49698137  0.66684903  0.50612621  1
  I  I71  1  0.49536115  0.66383287  0.83669381  1
  I  I72  1  0.83230757  -0.00315168  0.16354429  1
  I  I73  1  0.83205132  -0.00002494  0.49615524  1
  I  I74  1  0.83042880  -0.00023511  0.84075506  1
  I  I75  1  0.83113555  0.33576791  0.16294419  1
  I  I76  1  0.83753084  0.33314303  0.50150969  1
  I  I77  1  0.83451417  0.33157493  0.83501391  1
  I  I78  1  0.83621375  0.66800742  0.15944233  1
  I  I79  1  0.83717514  0.66685704  0.50804768  1
  I  I80  1  0.83638783  0.66904661  0.83681243  1
  I  I81  1  0.16637026  0.16255486  0.00222643  1
  I  I82  1  0.16624535  0.16326276  0.33237708  1
  I  I83  1  0.16680021  0.16250445  0.66453328  1
  I  I84  1  0.16780478  0.49853734  -0.00247300  1
  I  I85  1  0.16618947  0.49907570  0.33320950  1
  I  I86  1  0.17146458  0.49842953  0.67086849  1
  I  I87  1  0.16774991  0.83714646  0.00336211  1
  I  I88  1  0.16457488  0.83671179  0.33139055  1
  I  I89  1  0.16481086  0.83795488  0.66461300  1
  I  I90  1  0.50005978  0.16868855  -0.00286787  1
  I  I91  1  0.50076597  0.16728596  0.33321595  1
  I  I92  1  0.50231102  0.17383516  0.67159917  1
  I  I93  1  0.49879650  0.49994974  0.00021749  1
  I  I94  1  0.50269410  0.50591575  0.32911030  1
  I  I95  1  0.49443889  0.49527575  0.67020560  1
  I  I96  1  0.49363267  0.83198150  0.00338665  1
  I  I97  1  0.50495513  0.82678087  0.32784395  1
  I  I98  1  0.49962864  0.83289455  0.66677080  1
  I  I99  1  0.83384826  0.16561462  -0.00279664  1
  I  I100  1  0.83268363  0.16737074  0.33328015  1
  I  I101  1  0.83176719  0.16180114  0.67160478  1
  I  I102  1  0.83363606  0.50224713  0.00264088  1
  I  I103  1  0.83048292  0.50876154  0.32717842  1
  I  I104  1  0.83495750  0.50018412  0.66691444  1
  I  I105  1  0.83712755  0.83319464  0.00143822  1
  I  I106  1  0.83278994  0.82741483  0.32925662  1
  I  I107  1  0.83549421  0.83686992  0.66935885  1
  I  I108  1  0.00338849  0.16323720  0.16693380  1
  I  I109  1  0.00388984  0.16218063  0.49692510  1
  I  I110  1  -0.00193978  0.16502281  0.83384835  1
  I  I111  1  -0.00185809  0.50348195  0.16305230  1
  I  I112  1  0.00026721  0.49944349  0.50290925  1
  I  I113  1  0.00105888  0.49888847  0.83482304  1
  I  I114  1  0.00001726  0.83238867  0.16643841  1
  I  I115  1  0.00352179  0.83744995  0.49439298  1
  I  I116  1  -0.00306034  0.83781678  0.83944043  1
  I  I117  1  0.32980215  0.16279729  0.16703964  1
  I  I118  1  0.32931957  0.16273717  0.49670917  1
  I  I119  1  0.33529764  0.17041189  0.83372541  1
  I  I120  1  0.33586930  0.50336573  0.16332280  1
  I  I121  1  0.33314140  0.49991938  0.49573962  1
  I  I122  1  0.33455585  0.49377997  0.83946946  1
  I  I123  1  0.33291221  0.83238721  0.17087333  1
  I  I124  1  0.32906619  0.83757007  0.49686055  1
  I  I125  1  0.33340895  0.83555991  0.83380504  1
  I  I126  1  0.66656541  0.16472265  0.16651366  1
  I  I127  1  0.66658388  0.16747714  0.49807539  1
  I  I128  1  0.66660403  0.16995084  0.83709504  1
  I  I129  1  0.66603100  0.50994303  0.15801333  1
  I  I130  1  0.66666676  0.50104207  0.50767789  1
  I  I131  1  0.66366123  0.49757854  0.83758035  1
  I  I132  1  0.66708271  0.82638546  0.15895178  1
  I  I133  1  0.66668104  0.83192393  0.50084733  1
  I  I134  1  0.67038422  0.83288871  0.84052646  1
