# generated using pymatgen
data_Cs27Sn14Pb13I81
_symmetry_space_group_name_H-M   'P 1'
_cell_length_a   18.97725573
_cell_length_b   18.97279902
_cell_length_c   18.97487442
_cell_angle_alpha   89.99883370
_cell_angle_beta   90.00103682
_cell_angle_gamma   89.99755788
_symmetry_Int_Tables_number   1
_chemical_formula_structural   Cs27Sn14Pb13I81
_chemical_formula_sum   'Cs27 Sn14 Pb13 I81'
_cell_volume   6831.93500497
_cell_formula_units_Z   1
loop_
 _symmetry_equiv_pos_site_id
 _symmetry_equiv_pos_as_xyz
  1  'x, y, z'
loop_
 _atom_site_type_symbol
 _atom_site_label
 _atom_site_symmetry_multiplicity
 _atom_site_fract_x
 _atom_site_fract_y
 _atom_site_fract_z
 _atom_site_occupancy
  Cs  Cs0  1  0.00064079  -0.00198528  -0.00021483  1
  Cs  Cs1  1  -0.00473346  0.00029276  0.33128985  1
  Cs  Cs2  1  0.00293426  0.00251439  0.66858885  1
  Cs  Cs3  1  0.00203883  0.33285762  -0.00072527  1
  Cs  Cs4  1  -0.00116956  0.33564498  0.33404586  1
  Cs  Cs5  1  0.00097246  0.32954500  0.66712797  1
  Cs  Cs6  1  -0.00294013  0.67094985  -0.00213310  1
  Cs  Cs7  1  -0.00078240  0.66508488  0.33274833  1
  Cs  Cs8  1  0.00259001  0.66885128  0.67057806  1
  Cs  Cs9  1  0.33525565  0.00182011  0.00016701  1
  Cs  Cs10  1  0.33539217  -0.00035978  0.33211235  1
  Cs  Cs11  1  0.33370730  -0.00056406  0.66730004  1
  Cs  Cs12  1  0.33284231  0.33403430  0.00472873  1
  Cs  Cs13  1  0.33082691  0.34002583  0.32518046  1
  Cs  Cs14  1  0.33165964  0.33233592  0.66808606  1
  Cs  Cs15  1  0.33529880  0.66637801  0.00091261  1
  Cs  Cs16  1  0.33174770  0.66081084  0.34337319  1
  Cs  Cs17  1  0.33251646  0.66620009  0.65496655  1
  Cs  Cs18  1  0.66495839  -0.00053027  0.00099511  1
  Cs  Cs19  1  0.66876294  -0.00134281  0.33331779  1
  Cs  Cs20  1  0.66452510  0.00325076  0.66545349  1
  Cs  Cs21  1  0.66408318  0.33565701  -0.00159307  1
  Cs  Cs22  1  0.66996965  0.33352950  0.33234533  1
  Cs  Cs23  1  0.66597220  0.33129529  0.66872935  1
  Cs  Cs24  1  0.66837487  0.66575643  -0.00227810  1
  Cs  Cs25  1  0.66789205  0.66924484  0.33395636  1
  Cs  Cs26  1  0.66541214  0.66203542  0.66852628  1
  Sn  Sn27  1  0.83333156  0.50026740  0.16690383  1
  Sn  Sn28  1  0.49830592  0.16691116  0.49988649  1
  Sn  Sn29  1  0.83319848  0.83316927  0.16709180  1
  Sn  Sn30  1  0.83320869  0.16632568  0.83459918  1
  Sn  Sn31  1  0.16713969  0.16732631  0.83302642  1
  Sn  Sn32  1  0.83332702  0.16677699  0.16525897  1
  Sn  Sn33  1  0.83333590  0.50125494  0.50008711  1
  Sn  Sn34  1  0.16827862  0.16649890  0.49971129  1
  Sn  Sn35  1  0.49964782  0.16604113  0.83286646  1
  Sn  Sn36  1  0.83344631  0.83233134  0.50017678  1
  Sn  Sn37  1  0.49970843  0.83318806  0.16631531  1
  Sn  Sn38  1  0.16693994  0.49992994  0.83339763  1
  Sn  Sn39  1  0.49988898  0.83360883  0.83357282  1
  Sn  Sn40  1  0.16710374  0.83324310  0.16703497  1
  Pb  Pb41  1  0.16411538  0.83584746  0.49765623  1
  Pb  Pb42  1  0.50217407  0.16531361  0.16665568  1
  Pb  Pb43  1  0.49714678  0.49985380  0.83321368  1
  Pb  Pb44  1  0.16426718  0.50284601  0.16452200  1
  Pb  Pb45  1  0.83337487  0.16660017  0.50005390  1
  Pb  Pb46  1  0.50209422  0.83509733  0.50003964  1
  Pb  Pb47  1  0.16457668  0.16514423  0.16651176  1
  Pb  Pb48  1  0.83500321  0.49756331  0.83332307  1
  Pb  Pb49  1  0.16412115  0.49741847  0.50193010  1
  Pb  Pb50  1  0.16950140  0.83368509  0.83487576  1
  Pb  Pb51  1  0.50258525  0.49644891  0.49999641  1
  Pb  Pb52  1  0.50250518  0.50350977  0.16672524  1
  Pb  Pb53  1  0.83130255  0.83552575  0.83315123  1
  I  I54  1  0.16227349  -0.00278397  0.16436826  1
  I  I55  1  0.16654924  0.00359604  0.50805700  1
  I  I56  1  0.16431626  0.00331088  0.83089299  1
  I  I57  1  0.16404296  0.33335477  0.16821878  1
  I  I58  1  0.16671402  0.32936377  0.50161407  1
  I  I59  1  0.16644987  0.33091504  0.82977259  1
  I  I60  1  0.16367403  0.67064706  0.16362074  1
  I  I61  1  0.16715347  0.66669323  0.50147920  1
  I  I62  1  0.16516455  0.66482348  0.83726099  1
  I  I63  1  0.50400726  -0.00290105  0.16519607  1
  I  I64  1  0.50065424  0.00310048  0.50219234  1
  I  I65  1  0.49895688  0.00144276  0.83404523  1
  I  I66  1  0.50238487  0.33336081  0.16608385  1
  I  I67  1  0.50009137  0.32841130  0.50841161  1
  I  I68  1  0.50336490  0.32960513  0.82863162  1
  I  I69  1  0.50306055  0.67178852  0.15923031  1
  I  I70  1  0.49977254  0.66675017  0.50050341  1
  I  I71  1  0.50092931  0.66961463  0.83970628  1
  I  I72  1  0.83340997  -0.00091903  0.16782705  1
  I  I73  1  0.83278695  -0.00176246  0.49521986  1
  I  I74  1  0.83811098  0.00382994  0.83638111  1
  I  I75  1  0.83385857  0.33296722  0.16805105  1
  I  I76  1  0.83354688  0.33499326  0.49614384  1
  I  I77  1  0.82901214  0.32920507  0.83600469  1
  I  I78  1  0.83331260  0.66774997  0.17191612  1
  I  I79  1  0.83296829  0.66716860  0.49071236  1
  I  I80  1  0.83387812  0.66674890  0.83511752  1
  I  I81  1  0.16820289  0.16885075  -0.00307610  1
  I  I82  1  0.16807659  0.16311837  0.33564239  1
  I  I83  1  0.16334668  0.16922836  0.66799868  1
  I  I84  1  0.16469472  0.49102455  -0.00298008  1
  I  I85  1  0.16708789  0.49899892  0.33332049  1
  I  I86  1  0.16374697  0.49867145  0.66973418  1
  I  I87  1  0.15967362  0.83559595  0.00282007  1
  I  I88  1  0.16978525  0.83572729  0.32963509  1
  I  I89  1  0.16569617  0.83180777  0.66661087  1
  I  I90  1  0.49840685  0.16393366  -0.00300026  1
  I  I91  1  0.49910423  0.16400393  0.33568748  1
  I  I92  1  0.50292640  0.16068676  0.66822098  1
  I  I93  1  0.50255041  0.49594554  -0.00004729  1
  I  I94  1  0.49729253  0.49876884  0.33333114  1
  I  I95  1  0.50391249  0.50538712  0.66670510  1
  I  I96  1  0.50264098  0.84008648  0.00035526  1
  I  I97  1  0.50132543  0.83633104  0.33061251  1
  I  I98  1  0.50200259  0.83722832  0.66914384  1
  I  I99  1  0.83378047  0.16572492  0.00003662  1
  I  I100  1  0.83322699  0.16552474  0.33104985  1
  I  I101  1  0.83331587  0.16656115  0.66901695  1
  I  I102  1  0.83485654  0.50312087  0.00277264  1
  I  I103  1  0.83378166  0.49766318  0.33248306  1
  I  I104  1  0.83456998  0.50281621  0.66425919  1
  I  I105  1  0.83469052  0.83163776  0.00311456  1
  I  I106  1  0.83127231  0.83627228  0.33145948  1
  I  I107  1  0.83148934  0.83116212  0.66422852  1
  I  I108  1  -0.00383078  0.16308303  0.16388163  1
  I  I109  1  0.00166163  0.16644775  0.50391225  1
  I  I110  1  0.00021722  0.17073897  0.83233245  1
  I  I111  1  -0.00395782  0.50115552  0.17018268  1
  I  I112  1  -0.00367549  0.50062434  0.49506360  1
  I  I113  1  0.00258963  0.49371190  0.83354863  1
  I  I114  1  -0.00171276  0.83421921  0.17052645  1
  I  I115  1  -0.00391651  0.83313037  0.49421910  1
  I  I116  1  0.00000604  0.83488768  0.83459019  1
  I  I117  1  0.33338170  0.16338120  0.16516318  1
  I  I118  1  0.33335579  0.16418707  0.50981470  1
  I  I119  1  0.33341307  0.16575493  0.82756350  1
  I  I120  1  0.33305013  0.50052025  0.16519233  1
  I  I121  1  0.33301759  0.50171592  0.50151758  1
  I  I122  1  0.32961489  0.49343801  0.83441752  1
  I  I123  1  0.33395782  0.83726503  0.15923277  1
  I  I124  1  0.33333935  0.83318513  0.49857619  1
  I  I125  1  0.33705646  0.83994667  0.83993847  1
  I  I126  1  0.67059827  0.16389953  0.16423571  1
  I  I127  1  0.66502075  0.16612145  0.50372325  1
  I  I128  1  0.66637089  0.16191318  0.83231991  1
  I  I129  1  0.67112313  0.50021817  0.16886761  1
  I  I130  1  0.67073055  0.50167168  0.49648908  1
  I  I131  1  0.66679863  0.49874061  0.83367433  1
  I  I132  1  0.66787452  0.83440091  0.16672462  1
  I  I133  1  0.67003321  0.83396051  0.49349822  1
  I  I134  1  0.66360407  0.83966825  0.83883087  1
