# generated using pymatgen
data_Cs27Sn14Pb13I81
_symmetry_space_group_name_H-M   'P 1'
_cell_length_a   18.95968781
_cell_length_b   18.96072500
_cell_length_c   18.96432803
_cell_angle_alpha   90.00248981
_cell_angle_beta   90.00028252
_cell_angle_gamma   90.00032247
_symmetry_Int_Tables_number   1
_chemical_formula_structural   Cs27Sn14Pb13I81
_chemical_formula_sum   'Cs27 Sn14 Pb13 I81'
_cell_volume   6817.47540449
_cell_formula_units_Z   1
loop_
 _symmetry_equiv_pos_site_id
 _symmetry_equiv_pos_as_xyz
  1  'x, y, z'
loop_
 _atom_site_type_symbol
 _atom_site_label
 _atom_site_symmetry_multiplicity
 _atom_site_fract_x
 _atom_site_fract_y
 _atom_site_fract_z
 _atom_site_occupancy
  Cs  Cs0  1  0.00118919  -0.00118683  -0.00015394  1
  Cs  Cs1  1  -0.00325998  -0.00324080  0.33119626  1
  Cs  Cs2  1  0.00066865  0.00111224  0.66870838  1
  Cs  Cs3  1  -0.00058799  0.33268256  -0.00170911  1
  Cs  Cs4  1  0.00021960  0.33478893  0.33371005  1
  Cs  Cs5  1  0.00175161  0.33428057  0.66727453  1
  Cs  Cs6  1  -0.00030981  0.66872656  0.00152040  1
  Cs  Cs7  1  -0.00018215  0.66758943  0.33095558  1
  Cs  Cs8  1  0.00055530  0.66398941  0.66662160  1
  Cs  Cs9  1  0.33056219  -0.00095803  -0.00096844  1
  Cs  Cs10  1  0.33291894  -0.00037157  0.33417502  1
  Cs  Cs11  1  0.33391238  -0.00042072  0.66658031  1
  Cs  Cs12  1  0.33589687  0.33422852  0.00070650  1
  Cs  Cs13  1  0.33489625  0.33330021  0.33219908  1
  Cs  Cs14  1  0.32859687  0.33459043  0.66728728  1
  Cs  Cs15  1  0.33942503  0.66683255  0.00063624  1
  Cs  Cs16  1  0.33218091  0.66651526  0.33111075  1
  Cs  Cs17  1  0.33476485  0.66538307  0.66747140  1
  Cs  Cs18  1  0.66737549  0.00176598  -0.00025990  1
  Cs  Cs19  1  0.67011584  0.00432365  0.33983575  1
  Cs  Cs20  1  0.66372640  -0.00263862  0.66168800  1
  Cs  Cs21  1  0.66523403  0.33397190  0.00294764  1
  Cs  Cs22  1  0.66368904  0.32934781  0.33210024  1
  Cs  Cs23  1  0.66949289  0.33233831  0.66477260  1
  Cs  Cs24  1  0.66227143  0.66464655  -0.00121206  1
  Cs  Cs25  1  0.66700782  0.66660956  0.33611467  1
  Cs  Cs26  1  0.66489003  0.66941409  0.66559345  1
  Sn  Sn27  1  0.50058073  0.49982708  0.50026501  1
  Sn  Sn28  1  0.83391508  0.83327501  0.83327757  1
  Sn  Sn29  1  0.50070139  0.83420440  0.16710126  1
  Sn  Sn30  1  0.16636610  0.16751762  0.16653875  1
  Sn  Sn31  1  0.83300546  0.16637808  0.83325261  1
  Sn  Sn32  1  0.83396295  0.49984427  0.16648473  1
  Sn  Sn33  1  0.16618718  0.49928961  0.16614519  1
  Sn  Sn34  1  0.16632634  0.16566381  0.49987624  1
  Sn  Sn35  1  0.16636573  0.83393647  0.50092135  1
  Sn  Sn36  1  0.83239979  0.49988932  0.49994048  1
  Sn  Sn37  1  0.16671677  0.16613184  0.83343710  1
  Sn  Sn38  1  0.16616579  0.83361458  0.83237497  1
  Sn  Sn39  1  0.83364028  0.50022340  0.83348300  1
  Sn  Sn40  1  0.49987064  0.16678764  0.83322466  1
  Pb  Pb41  1  0.16618937  0.50009275  0.49808615  1
  Pb  Pb42  1  0.49988548  0.83535073  0.83443227  1
  Pb  Pb43  1  0.49785374  0.16430414  0.16500930  1
  Pb  Pb44  1  0.50282257  0.49767167  0.83119613  1
  Pb  Pb45  1  0.83568345  0.83127479  0.50225915  1
  Pb  Pb46  1  0.83064601  0.83130456  0.16448021  1
  Pb  Pb47  1  0.49759982  0.83172110  0.49792258  1
  Pb  Pb48  1  0.16513173  0.50041305  0.83572373  1
  Pb  Pb49  1  0.49757131  0.16858402  0.50215230  1
  Pb  Pb50  1  0.16757832  0.83349469  0.16617507  1
  Pb  Pb51  1  0.83536582  0.16852320  0.16471333  1
  Pb  Pb52  1  0.83572682  0.16859258  0.50212471  1
  Pb  Pb53  1  0.50040114  0.50113591  0.16852240  1
  I  I54  1  0.16963188  0.00267468  0.16532849  1
  I  I55  1  0.16774133  0.00056715  0.49976423  1
  I  I56  1  0.16227010  0.00103931  0.83498756  1
  I  I57  1  0.16355533  0.33292661  0.16649209  1
  I  I58  1  0.16625240  0.33086949  0.50343909  1
  I  I59  1  0.16553935  0.33028930  0.83072232  1
  I  I60  1  0.16420103  0.66441755  0.16776134  1
  I  I61  1  0.16647444  0.66886391  0.50335615  1
  I  I62  1  0.16194245  0.66949878  0.83003933  1
  I  I63  1  0.49606456  -0.00296231  0.16465067  1
  I  I64  1  0.50003101  0.00019588  0.49983568  1
  I  I65  1  0.50241724  0.00325478  0.83431567  1
  I  I66  1  0.50031723  0.33313706  0.16639656  1
  I  I67  1  0.50228759  0.33644984  0.49908508  1
  I  I68  1  0.49663905  0.32974340  0.83400958  1
  I  I69  1  0.49608894  0.66867560  0.16488840  1
  I  I70  1  0.50169593  0.66370536  0.50046949  1
  I  I71  1  0.49946242  0.66664553  0.83390752  1
  I  I72  1  0.83453214  0.00004228  0.16424389  1
  I  I73  1  0.83250461  0.00001666  0.50115079  1
  I  I74  1  0.83589400  0.00044581  0.83436909  1
  I  I75  1  0.83461714  0.33709917  0.16408948  1
  I  I76  1  0.83317720  0.33697470  0.50274274  1
  I  I77  1  0.83459884  0.33323770  0.83304315  1
  I  I78  1  0.84056638  0.66278157  0.16460286  1
  I  I79  1  0.83301173  0.66292176  0.50256672  1
  I  I80  1  0.83902950  0.66645612  0.83340655  1
  I  I81  1  0.16602028  0.16642301  -0.00139940  1
  I  I82  1  0.16762304  0.16771380  0.33331422  1
  I  I83  1  0.16638951  0.16295121  0.66789385  1
  I  I84  1  0.16184171  0.49672590  0.00352620  1
  I  I85  1  0.16216609  0.49722823  0.33030587  1
  I  I86  1  0.16587541  0.49788934  0.66676919  1
  I  I87  1  0.16387564  0.83659810  -0.00296722  1
  I  I88  1  0.16981808  0.83517463  0.33530397  1
  I  I89  1  0.16384097  0.84012434  0.66779402  1
  I  I90  1  0.49811910  0.16744786  -0.00331026  1
  I  I91  1  0.49748453  0.16720410  0.33352328  1
  I  I92  1  0.49846677  0.16629685  0.67031267  1
  I  I93  1  0.50010056  0.50036491  -0.00009353  1
  I  I94  1  0.50396195  0.50073358  0.33614507  1
  I  I95  1  0.50277874  0.50054336  0.66356526  1
  I  I96  1  0.49651781  0.83137710  0.00194246  1
  I  I97  1  0.49597150  0.83118633  0.33052729  1
  I  I98  1  0.50081797  0.83290930  0.66665358  1
  I  I99  1  0.83620531  0.16901387  -0.00409543  1
  I  I100  1  0.83509735  0.16901957  0.33341180  1
  I  I101  1  0.83648556  0.16965708  0.67080326  1
  I  I102  1  0.83927906  0.49950179  -0.00056032  1
  I  I103  1  0.83483456  0.50072799  0.33319148  1
  I  I104  1  0.82971062  0.49930229  0.66735398  1
  I  I105  1  0.84063989  0.83228083  -0.00403880  1
  I  I106  1  0.83485831  0.83019415  0.33347637  1
  I  I107  1  0.83427872  0.83170888  0.67077392  1
  I  I108  1  0.00398351  0.16736281  0.16410379  1
  I  I109  1  0.00406662  0.16643796  0.50266860  1
  I  I110  1  0.00073546  0.16685331  0.83331096  1
  I  I111  1  -0.00022641  0.49715397  0.16845626  1
  I  I112  1  -0.00257918  0.49949861  0.50228371  1
  I  I113  1  -0.00327185  0.49588699  0.82861178  1
  I  I114  1  -0.00009826  0.83348867  0.16756617  1
  I  I115  1  0.00382479  0.83480474  0.50026959  1
  I  I116  1  0.00057219  0.83727496  0.83103231  1
  I  I117  1  0.32920591  0.17295951  0.16376590  1
  I  I118  1  0.32922668  0.16651622  0.50275260  1
  I  I119  1  0.33137081  0.16177605  0.83344062  1
  I  I120  1  0.33088213  0.49787538  0.16905344  1
  I  I121  1  0.33470585  0.49973987  0.49740960  1
  I  I122  1  0.33337988  0.49988439  0.83313768  1
  I  I123  1  0.33485416  0.83046375  0.16425021  1
  I  I124  1  0.32947240  0.83419766  0.50628859  1
  I  I125  1  0.33021103  0.83839944  0.83180809  1
  I  I126  1  0.66677988  0.16800770  0.16350886  1
  I  I127  1  0.66684491  0.16702105  0.50215534  1
  I  I128  1  0.66775296  0.16806417  0.83417744  1
  I  I129  1  0.66973968  0.50276192  0.16356620  1
  I  I130  1  0.66798943  0.50052439  0.49932833  1
  I  I131  1  0.67128686  0.50074419  0.83865760  1
  I  I132  1  0.66356066  0.82989636  0.16331958  1
  I  I133  1  0.66689503  0.83254888  0.50078026  1
  I  I134  1  0.66957050  0.83292359  0.83648667  1
