# generated using pymatgen
data_Cs27Sn14Pb13I81
_symmetry_space_group_name_H-M   'P 1'
_cell_length_a   18.98018428
_cell_length_b   18.96421007
_cell_length_c   18.98702837
_cell_angle_alpha   90.00153784
_cell_angle_beta   89.99943398
_cell_angle_gamma   89.99874558
_symmetry_Int_Tables_number   1
_chemical_formula_structural   Cs27Sn14Pb13I81
_chemical_formula_sum   'Cs27 Sn14 Pb13 I81'
_cell_volume   6834.27077116
_cell_formula_units_Z   1
loop_
 _symmetry_equiv_pos_site_id
 _symmetry_equiv_pos_as_xyz
  1  'x, y, z'
loop_
 _atom_site_type_symbol
 _atom_site_label
 _atom_site_symmetry_multiplicity
 _atom_site_fract_x
 _atom_site_fract_y
 _atom_site_fract_z
 _atom_site_occupancy
  Cs  Cs0  1  -0.00106956  -0.00208221  -0.00150823  1
  Cs  Cs1  1  -0.00196119  0.00357721  0.33520462  1
  Cs  Cs2  1  -0.00104838  -0.00196913  0.66676801  1
  Cs  Cs3  1  0.00049084  0.33521132  0.00209908  1
  Cs  Cs4  1  -0.00103099  0.33130452  0.33345413  1
  Cs  Cs5  1  0.00038842  0.33344829  0.66397249  1
  Cs  Cs6  1  0.00030171  0.66701267  0.00070324  1
  Cs  Cs7  1  0.00133781  0.66662902  0.33323807  1
  Cs  Cs8  1  0.00041513  0.66796135  0.66607414  1
  Cs  Cs9  1  0.33617128  0.00523938  -0.00073524  1
  Cs  Cs10  1  0.34305569  0.00488780  0.33229088  1
  Cs  Cs11  1  0.33423537  0.00548943  0.66834307  1
  Cs  Cs12  1  0.33340791  0.32618347  -0.00135913  1
  Cs  Cs13  1  0.33273791  0.33181184  0.33490122  1
  Cs  Cs14  1  0.34127095  0.32612480  0.66815333  1
  Cs  Cs15  1  0.32879147  0.66787917  0.00307556  1
  Cs  Cs16  1  0.33258454  0.66607568  0.33276266  1
  Cs  Cs17  1  0.33096202  0.66678772  0.66399878  1
  Cs  Cs18  1  0.66686278  -0.00058828  0.00162229  1
  Cs  Cs19  1  0.66177087  0.00614623  0.33262432  1
  Cs  Cs20  1  0.66914153  -0.00097340  0.66520856  1
  Cs  Cs21  1  0.66484798  0.33457890  -0.00331011  1
  Cs  Cs22  1  0.66923137  0.32799764  0.33503054  1
  Cs  Cs23  1  0.65756359  0.33547059  0.66928615  1
  Cs  Cs24  1  0.66857839  0.66589920  -0.00018465  1
  Cs  Cs25  1  0.66585970  0.66751176  0.33299225  1
  Cs  Cs26  1  0.66614306  0.66471767  0.66667956  1
  Sn  Sn27  1  0.83322440  0.83377036  0.83334501  1
  Sn  Sn28  1  0.83401614  0.83228847  0.49937045  1
  Sn  Sn29  1  0.16587544  0.50061174  0.50013928  1
  Sn  Sn30  1  0.16605967  0.83321802  0.49945324  1
  Sn  Sn31  1  0.49971288  0.83220850  0.83325772  1
  Sn  Sn32  1  0.83404347  0.83264326  0.16730289  1
  Sn  Sn33  1  0.16661636  0.50063389  0.16679829  1
  Sn  Sn34  1  0.16598298  0.83351367  0.16718217  1
  Sn  Sn35  1  0.16662890  0.50049015  0.83299461  1
  Sn  Sn36  1  0.16701064  0.83256111  0.83338372  1
  Sn  Sn37  1  0.83333565  0.50108317  0.16762004  1
  Sn  Sn38  1  0.83410686  0.16628541  0.83328354  1
  Sn  Sn39  1  0.49995841  0.50047363  0.16670853  1
  Sn  Sn40  1  0.83407067  0.50110844  0.49934489  1
  Pb  Pb41  1  0.83368191  0.16658095  0.16452832  1
  Pb  Pb42  1  0.16622683  0.16586493  0.16676387  1
  Pb  Pb43  1  0.50314491  0.16355160  0.83354666  1
  Pb  Pb44  1  0.49646995  0.50257072  0.83558359  1
  Pb  Pb45  1  0.50025148  0.17030290  0.16635307  1
  Pb  Pb46  1  0.49976568  0.83304159  0.50218710  1
  Pb  Pb47  1  0.49992492  0.83175939  0.16482476  1
  Pb  Pb48  1  0.83508948  0.50065355  0.83299620  1
  Pb  Pb49  1  0.49983215  0.50042822  0.49771651  1
  Pb  Pb50  1  0.83353996  0.16700379  0.50245238  1
  Pb  Pb51  1  0.16639124  0.16625757  0.49998019  1
  Pb  Pb52  1  0.16434088  0.16625239  0.83332559  1
  Pb  Pb53  1  0.50022434  0.16664043  0.50009433  1
  I  I54  1  0.16066667  -0.00464166  0.16485295  1
  I  I55  1  0.16108303  -0.00448440  0.50201194  1
  I  I56  1  0.16842599  -0.00431713  0.83335912  1
  I  I57  1  0.16593691  0.33756945  0.16601962  1
  I  I58  1  0.16180647  0.33743417  0.49867585  1
  I  I59  1  0.16384789  0.33651992  0.83486750  1
  I  I60  1  0.16581366  0.66645407  0.16552746  1
  I  I61  1  0.16262301  0.66684923  0.50056654  1
  I  I62  1  0.16381151  0.66792021  0.83411162  1
  I  I63  1  0.49983659  -0.00019859  0.16565351  1
  I  I64  1  0.49991840  -0.00062897  0.49947438  1
  I  I65  1  0.49305545  -0.00434498  0.83488893  1
  I  I66  1  0.49937693  0.33853486  0.16545985  1
  I  I67  1  0.50033575  0.33400746  0.50064627  1
  I  I68  1  0.50067785  0.33354008  0.83422797  1
  I  I69  1  0.49957135  0.66383316  0.16567424  1
  I  I70  1  0.50091057  0.66670314  0.50145069  1
  I  I71  1  0.50738793  0.67010940  0.83316313  1
  I  I72  1  0.83844243  -0.00400562  0.16816248  1
  I  I73  1  0.83789413  -0.00382693  0.49875885  1
  I  I74  1  0.83537456  -0.00336001  0.83351909  1
  I  I75  1  0.83448958  0.33727327  0.16961544  1
  I  I76  1  0.83824530  0.33711991  0.49546406  1
  I  I77  1  0.83654663  0.33204747  0.83439425  1
  I  I78  1  0.83446544  0.66688270  0.16410397  1
  I  I79  1  0.83737037  0.66739688  0.50172621  1
  I  I80  1  0.83201870  0.67022577  0.83388786  1
  I  I81  1  0.16606269  0.16817168  -0.00008363  1
  I  I82  1  0.16626931  0.16715209  0.33334360  1
  I  I83  1  0.16582534  0.16760109  0.66678421  1
  I  I84  1  0.16556093  0.50619796  0.00069268  1
  I  I85  1  0.16663593  0.50590779  0.33294623  1
  I  I86  1  0.15987913  0.50746706  0.66619386  1
  I  I87  1  0.16315874  0.82691383  -0.00006522  1
  I  I88  1  0.15881697  0.82583981  0.33308832  1
  I  I89  1  0.16332827  0.82699253  0.66692374  1
  I  I90  1  0.50006463  0.16682103  -0.00033538  1
  I  I91  1  0.50071037  0.16452791  0.33296361  1
  I  I92  1  0.50004535  0.16838951  0.66739980  1
  I  I93  1  0.50317479  0.50199974  0.00322321  1
  I  I94  1  0.49533597  0.50267148  0.32985749  1
  I  I95  1  0.50101492  0.49916514  0.66690859  1
  I  I96  1  0.50065656  0.83137087  -0.00300594  1
  I  I97  1  0.49981719  0.83300417  0.33311024  1
  I  I98  1  0.50071654  0.83298055  0.67028849  1
  I  I99  1  0.83385546  0.16126345  -0.00308643  1
  I  I100  1  0.83221166  0.16468525  0.33341609  1
  I  I101  1  0.83482849  0.16030938  0.66997307  1
  I  I102  1  0.83434146  0.50247539  0.00274371  1
  I  I103  1  0.83730990  0.50712317  0.33271105  1
  I  I104  1  0.83876632  0.50299083  0.66402389  1
  I  I105  1  0.83573142  0.83332222  0.00009863  1
  I  I106  1  0.84061381  0.82752271  0.33311713  1
  I  I107  1  0.83580546  0.83392882  0.66671175  1
  I  I108  1  -0.00017777  0.17183561  0.16560718  1
  I  I109  1  -0.00018690  0.16728978  0.50064844  1
  I  I110  1  -0.00295601  0.15896067  0.83367231  1
  I  I111  1  0.00024506  0.50363430  0.16644854  1
  I  I112  1  0.00029181  0.50392513  0.49600091  1
  I  I113  1  0.00311088  0.50509829  0.83787026  1
  I  I114  1  -0.00020494  0.82573136  0.16148611  1
  I  I115  1  -0.00023900  0.82934295  0.50449193  1
  I  I116  1  0.00007933  0.83397405  0.83363227  1
  I  I117  1  0.33327497  0.16516107  0.16511154  1
  I  I118  1  0.33304641  0.16683199  0.50135017  1
  I  I119  1  0.33344004  0.16687747  0.83319703  1
  I  I120  1  0.33133779  0.50513012  0.16622616  1
  I  I121  1  0.32947105  0.50537180  0.49906874  1
  I  I122  1  0.32826915  0.50602642  0.83248821  1
  I  I123  1  0.32987100  0.82828381  0.16624120  1
  I  I124  1  0.32936660  0.82782619  0.49977601  1
  I  I125  1  0.33163952  0.82694206  0.83384059  1
  I  I126  1  0.66705584  0.16551729  0.16562613  1
  I  I127  1  0.66737653  0.16663566  0.50091714  1
  I  I128  1  0.67077131  0.16261890  0.83347352  1
  I  I129  1  0.66842928  0.50482041  0.17022933  1
  I  I130  1  0.67024753  0.50423272  0.49656694  1
  I  I131  1  0.66668035  0.49968816  0.83371250  1
  I  I132  1  0.67000946  0.82879293  0.16520121  1
  I  I133  1  0.67049041  0.82928586  0.50095210  1
  I  I134  1  0.66822318  0.83862622  0.83403443  1
