# generated using pymatgen
data_Cs27Sn13Pb14I81
_symmetry_space_group_name_H-M   'P 1'
_cell_length_a   18.97670651
_cell_length_b   18.98087827
_cell_length_c   18.97226140
_cell_angle_alpha   89.99914778
_cell_angle_beta   90.00039115
_cell_angle_gamma   90.00023547
_symmetry_Int_Tables_number   1
_chemical_formula_structural   Cs27Sn13Pb14I81
_chemical_formula_sum   'Cs27 Sn13 Pb14 I81'
_cell_volume   6833.70527367
_cell_formula_units_Z   1
loop_
 _symmetry_equiv_pos_site_id
 _symmetry_equiv_pos_as_xyz
  1  'x, y, z'
loop_
 _atom_site_type_symbol
 _atom_site_label
 _atom_site_symmetry_multiplicity
 _atom_site_fract_x
 _atom_site_fract_y
 _atom_site_fract_z
 _atom_site_occupancy
  Cs  Cs0  1  -0.00044998  -0.00037128  -0.00072844  1
  Cs  Cs1  1  -0.00269311  -0.00202864  0.32856268  1
  Cs  Cs2  1  0.00093143  0.00100811  0.66970926  1
  Cs  Cs3  1  -0.00083799  0.33058389  0.00084146  1
  Cs  Cs4  1  0.00252577  0.33450139  0.33368118  1
  Cs  Cs5  1  0.00151568  0.33384330  0.66574664  1
  Cs  Cs6  1  -0.00209670  0.67207485  0.00818666  1
  Cs  Cs7  1  -0.00859678  0.66887787  0.32640740  1
  Cs  Cs8  1  0.00404640  0.66365917  0.66636378  1
  Cs  Cs9  1  0.33453630  -0.00001828  -0.00100682  1
  Cs  Cs10  1  0.33633343  0.00106434  0.33317828  1
  Cs  Cs11  1  0.33411449  -0.00112537  0.66712561  1
  Cs  Cs12  1  0.33616377  0.33313925  0.00261448  1
  Cs  Cs13  1  0.33065510  0.33527065  0.33354815  1
  Cs  Cs14  1  0.33155183  0.33448585  0.66548567  1
  Cs  Cs15  1  0.33557621  0.66810172  0.00203030  1
  Cs  Cs16  1  0.33311836  0.66217563  0.33646854  1
  Cs  Cs17  1  0.33065717  0.66528426  0.66508820  1
  Cs  Cs18  1  0.66547783  0.00166871  -0.00112714  1
  Cs  Cs19  1  0.66534629  -0.00148987  0.33800865  1
  Cs  Cs20  1  0.66492990  0.00073470  0.66469621  1
  Cs  Cs21  1  0.66459479  0.33488603  -0.00187274  1
  Cs  Cs22  1  0.66936764  0.33183827  0.33521432  1
  Cs  Cs23  1  0.67080276  0.33334737  0.66777224  1
  Cs  Cs24  1  0.66497904  0.66049742  0.00014057  1
  Cs  Cs25  1  0.67590330  0.67000571  0.33195353  1
  Cs  Cs26  1  0.66920806  0.66531519  0.66721487  1
  Sn  Sn27  1  0.83235355  0.83387894  0.83293427  1
  Sn  Sn28  1  0.50013422  0.50001253  0.50015812  1
  Sn  Sn29  1  0.49970947  0.83394026  0.16621155  1
  Sn  Sn30  1  0.16702625  0.16757387  0.83267902  1
  Sn  Sn31  1  0.16688130  0.16603094  0.50059147  1
  Sn  Sn32  1  0.16730939  0.50029339  0.50072714  1
  Sn  Sn33  1  0.16679267  0.49940861  0.83377891  1
  Sn  Sn34  1  0.50085600  0.83375651  0.83371856  1
  Sn  Sn35  1  0.83203499  0.16655647  0.16583834  1
  Sn  Sn36  1  0.83307350  0.16591571  0.83389074  1
  Sn  Sn37  1  0.16652908  0.83338660  0.49964945  1
  Sn  Sn38  1  0.49991660  0.16621446  0.83355936  1
  Sn  Sn39  1  0.50101255  0.16591953  0.16615668  1
  Pb  Pb40  1  0.16957241  0.83350591  0.16964303  1
  Pb  Pb41  1  0.49863193  0.83126222  0.50036699  1
  Pb  Pb42  1  0.49806340  0.16838888  0.50023042  1
  Pb  Pb43  1  0.16698819  0.83336651  0.83238758  1
  Pb  Pb44  1  0.16669061  0.50009857  0.16642480  1
  Pb  Pb45  1  0.83642246  0.49997000  0.83353239  1
  Pb  Pb46  1  0.16709068  0.16656577  0.16609075  1
  Pb  Pb47  1  0.83607599  0.83363894  0.50309276  1
  Pb  Pb48  1  0.50013524  0.49971653  0.16944479  1
  Pb  Pb49  1  0.83028887  0.83594481  0.16388194  1
  Pb  Pb50  1  0.49803428  0.49995021  0.83164107  1
  Pb  Pb51  1  0.83306977  0.49656469  0.16622429  1
  Pb  Pb52  1  0.83409723  0.50000532  0.50015674  1
  Pb  Pb53  1  0.83615974  0.16648190  0.50027372  1
  I  I54  1  0.16508104  0.00024396  0.16790815  1
  I  I55  1  0.16681051  0.00088029  0.50551419  1
  I  I56  1  0.16669737  0.00306684  0.82866401  1
  I  I57  1  0.16812804  0.33296089  0.17104105  1
  I  I58  1  0.17028910  0.33326935  0.50450031  1
  I  I59  1  0.16657577  0.33157501  0.82525526  1
  I  I60  1  0.16853400  0.66689507  0.16522448  1
  I  I61  1  0.17231643  0.66571772  0.50630912  1
  I  I62  1  0.16756311  0.66454596  0.82685009  1
  I  I63  1  0.50213106  0.00114442  0.16318772  1
  I  I64  1  0.49664523  0.00006364  0.49966597  1
  I  I65  1  0.49766017  0.00109425  0.83607894  1
  I  I66  1  0.50290931  0.32969270  0.16210697  1
  I  I67  1  0.49236727  0.33595827  0.50024813  1
  I  I68  1  0.50167846  0.32995046  0.83637202  1
  I  I69  1  0.49740192  0.66966144  0.16198403  1
  I  I70  1  0.49133026  0.66374974  0.50119441  1
  I  I71  1  0.50251433  0.66963754  0.83634146  1
  I  I72  1  0.83350327  0.00370267  0.16453006  1
  I  I73  1  0.83518724  0.00017528  0.49851651  1
  I  I74  1  0.83607686  0.00157964  0.83649661  1
  I  I75  1  0.82755189  0.32832697  0.15989823  1
  I  I76  1  0.83497229  0.33302110  0.50123815  1
  I  I77  1  0.83092269  0.32959829  0.83652197  1
  I  I78  1  0.83331722  0.66724158  0.16640638  1
  I  I79  1  0.83517699  0.66689718  0.50138673  1
  I  I80  1  0.82946575  0.66969521  0.83131686  1
  I  I81  1  0.16653281  0.17101083  -0.00371220  1
  I  I82  1  0.16717816  0.16866176  0.33618021  1
  I  I83  1  0.16687995  0.16774385  0.66785941  1
  I  I84  1  0.16675316  0.49321740  -0.00348784  1
  I  I85  1  0.17149529  0.49734996  0.33717644  1
  I  I86  1  0.17033835  0.49855173  0.66602478  1
  I  I87  1  0.16472209  0.83308575  -0.00008647  1
  I  I88  1  0.16879049  0.83368458  0.33788026  1
  I  I89  1  0.16902820  0.83340657  0.66433510  1
  I  I90  1  0.49772247  0.16378762  -0.00127988  1
  I  I91  1  0.50281123  0.16338488  0.33055633  1
  I  I92  1  0.50156915  0.16294825  0.67010174  1
  I  I93  1  0.49781101  0.50009733  -0.00011959  1
  I  I94  1  0.49049613  0.49876264  0.33709533  1
  I  I95  1  0.49531247  0.49993260  0.66394917  1
  I  I96  1  0.50178027  0.83745545  -0.00125776  1
  I  I97  1  0.49620378  0.83778877  0.33086852  1
  I  I98  1  0.50179673  0.83803073  0.66994349  1
  I  I99  1  0.83592017  0.16319636  -0.00166225  1
  I  I100  1  0.82971927  0.16762486  0.33042935  1
  I  I101  1  0.83104328  0.16380163  0.67044395  1
  I  I102  1  0.83527919  0.50211306  -0.00047118  1
  I  I103  1  0.83553662  0.49901421  0.33327075  1
  I  I104  1  0.83171757  0.49737069  0.66701290  1
  I  I105  1  0.83591297  0.83567456  -0.00391780  1
  I  I106  1  0.83365937  0.83381296  0.33296563  1
  I  I107  1  0.82630887  0.84076775  0.67098320  1
  I  I108  1  -0.00244401  0.16762479  0.16376152  1
  I  I109  1  0.00451099  0.17031518  0.50429639  1
  I  I110  1  0.00016831  0.16637513  0.83300712  1
  I  I111  1  -0.00006855  0.49906006  0.16910649  1
  I  I112  1  0.00424684  0.49825901  0.50523428  1
  I  I113  1  0.00440122  0.49535379  0.82451479  1
  I  I114  1  -0.00049865  0.83365120  0.16678752  1
  I  I115  1  0.00436133  0.83121842  0.50252591  1
  I  I116  1  -0.00195691  0.83704853  0.82975752  1
  I  I117  1  0.33659565  0.16344827  0.16353614  1
  I  I118  1  0.32985300  0.16574707  0.50416393  1
  I  I119  1  0.33358471  0.16596493  0.83316850  1
  I  I120  1  0.33357766  0.49704688  0.16587445  1
  I  I121  1  0.33157124  0.49977742  0.50357155  1
  I  I122  1  0.33005179  0.49592707  0.82959221  1
  I  I123  1  0.33737963  0.84073123  0.15859276  1
  I  I124  1  0.33048547  0.83499478  0.50315339  1
  I  I125  1  0.33617161  0.83701155  0.83528929  1
  I  I126  1  0.66574266  0.16394215  0.15862095  1
  I  I127  1  0.66651628  0.16933437  0.50208107  1
  I  I128  1  0.66620816  0.16231139  0.83793234  1
  I  I129  1  0.66631483  0.50197988  0.16905882  1
  I  I130  1  0.66401037  0.49948148  0.49980035  1
  I  I131  1  0.66654180  0.49779907  0.83079878  1
  I  I132  1  0.66266638  0.83506169  0.16753497  1
  I  I133  1  0.66658687  0.83087657  0.49819163  1
  I  I134  1  0.66568334  0.84135751  0.83561948  1
