# generated using pymatgen
data_Cs27Sn13Pb14I81
_symmetry_space_group_name_H-M   'P 1'
_cell_length_a   18.98110751
_cell_length_b   18.97779098
_cell_length_c   18.97447023
_cell_angle_alpha   90.00126588
_cell_angle_beta   90.00048341
_cell_angle_gamma   89.99965681
_symmetry_Int_Tables_number   1
_chemical_formula_structural   Cs27Sn13Pb14I81
_chemical_formula_sum   'Cs27 Sn13 Pb14 I81'
_cell_volume   6834.97400558
_cell_formula_units_Z   1
loop_
 _symmetry_equiv_pos_site_id
 _symmetry_equiv_pos_as_xyz
  1  'x, y, z'
loop_
 _atom_site_type_symbol
 _atom_site_label
 _atom_site_symmetry_multiplicity
 _atom_site_fract_x
 _atom_site_fract_y
 _atom_site_fract_z
 _atom_site_occupancy
  Cs  Cs0  1  -0.00007714  0.00070143  -0.00005582  1
  Cs  Cs1  1  -0.00126641  -0.00200825  0.33299076  1
  Cs  Cs2  1  -0.00074619  -0.00041728  0.66662518  1
  Cs  Cs3  1  0.00033902  0.33126274  -0.00046683  1
  Cs  Cs4  1  0.00046306  0.33406126  0.33233137  1
  Cs  Cs5  1  0.00029696  0.33387928  0.66817700  1
  Cs  Cs6  1  -0.00099679  0.66789065  0.00149600  1
  Cs  Cs7  1  0.00124699  0.66667973  0.33264222  1
  Cs  Cs8  1  -0.00013181  0.66557427  0.66674078  1
  Cs  Cs9  1  0.33336665  0.00118466  -0.00107090  1
  Cs  Cs10  1  0.33659319  0.00139921  0.33608645  1
  Cs  Cs11  1  0.33453404  -0.00391230  0.66686108  1
  Cs  Cs12  1  0.33293061  0.33276872  0.00006451  1
  Cs  Cs13  1  0.33348478  0.33435925  0.33203407  1
  Cs  Cs14  1  0.32840711  0.33373673  0.66735070  1
  Cs  Cs15  1  0.34050829  0.66709458  -0.00147639  1
  Cs  Cs16  1  0.33040763  0.66401329  0.33555958  1
  Cs  Cs17  1  0.33679208  0.66941999  0.66592721  1
  Cs  Cs18  1  0.66695491  -0.00119661  0.00031491  1
  Cs  Cs19  1  0.66259283  -0.00355088  0.33906700  1
  Cs  Cs20  1  0.66591419  0.00198724  0.66292579  1
  Cs  Cs21  1  0.66691900  0.33369494  0.00033244  1
  Cs  Cs22  1  0.66516944  0.33175272  0.33523537  1
  Cs  Cs23  1  0.66941282  0.33192876  0.66470391  1
  Cs  Cs24  1  0.65871542  0.66917109  -0.00172802  1
  Cs  Cs25  1  0.66886866  0.67031537  0.32944118  1
  Cs  Cs26  1  0.66197420  0.66522478  0.67188202  1
  Sn  Sn27  1  0.16578722  0.49999739  0.16685431  1
  Sn  Sn28  1  0.16609262  0.16722464  0.49904926  1
  Sn  Sn29  1  0.50012239  0.49972477  0.49968990  1
  Sn  Sn30  1  0.16576242  0.16658730  0.16756866  1
  Sn  Sn31  1  0.16555216  0.83312464  0.83430401  1
  Sn  Sn32  1  0.50111873  0.16712409  0.83353638  1
  Sn  Sn33  1  0.83342061  0.50003476  0.49906026  1
  Sn  Sn34  1  0.83400898  0.49921401  0.16717365  1
  Sn  Sn35  1  0.16622673  0.49897504  0.49942518  1
  Sn  Sn36  1  0.83373448  0.16696196  0.16651194  1
  Sn  Sn37  1  0.16648803  0.83333490  0.16564182  1
  Sn  Sn38  1  0.83431403  0.83408292  0.83340049  1
  Sn  Sn39  1  0.83261299  0.16585096  0.83404070  1
  Pb  Pb40  1  0.83351771  0.49988623  0.83433900  1
  Pb  Pb41  1  0.16593049  0.16494130  0.83344784  1
  Pb  Pb42  1  0.16665767  0.50280185  0.83386633  1
  Pb  Pb43  1  0.50033931  0.49973907  0.16869182  1
  Pb  Pb44  1  0.49991398  0.49701517  0.83102751  1
  Pb  Pb45  1  0.50042814  0.16674715  0.16519365  1
  Pb  Pb46  1  0.50016886  0.83061586  0.49986732  1
  Pb  Pb47  1  0.49672878  0.83352705  0.16684664  1
  Pb  Pb48  1  0.83532226  0.16830297  0.49948982  1
  Pb  Pb49  1  0.16644832  0.83315970  0.49963206  1
  Pb  Pb50  1  0.83340289  0.83013750  0.50285685  1
  Pb  Pb51  1  0.49710773  0.16868522  0.50213700  1
  Pb  Pb52  1  0.83485706  0.83340765  0.16496585  1
  Pb  Pb53  1  0.50028963  0.83585017  0.83338609  1
  I  I54  1  0.16262778  0.00099119  0.16601983  1
  I  I55  1  0.16644493  0.00279891  0.49757419  1
  I  I56  1  0.16575619  -0.00278760  0.83682888  1
  I  I57  1  0.16313618  0.33335492  0.17174427  1
  I  I58  1  0.16703073  0.33436779  0.49383097  1
  I  I59  1  0.16672779  0.33318859  0.83419669  1
  I  I60  1  0.16225616  0.66550596  0.16782964  1
  I  I61  1  0.16686167  0.66311324  0.49723453  1
  I  I62  1  0.16040730  0.67070969  0.83610075  1
  I  I63  1  0.49962167  0.00028391  0.16629203  1
  I  I64  1  0.49754237  0.00055010  0.50151626  1
  I  I65  1  0.50022482  0.00335754  0.83258506  1
  I  I66  1  0.49491693  0.33328536  0.16473229  1
  I  I67  1  0.50128704  0.33663727  0.50095971  1
  I  I68  1  0.50544634  0.32945526  0.83417526  1
  I  I69  1  0.50089829  0.66642921  0.16603932  1
  I  I70  1  0.49522990  0.66205956  0.50128715  1
  I  I71  1  0.50031488  0.66677381  0.83194815  1
  I  I72  1  0.83916181  0.00305988  0.16236909  1
  I  I73  1  0.83565058  0.00016325  0.49837407  1
  I  I74  1  0.83424401  0.00119594  0.83928516  1
  I  I75  1  0.84137115  0.33315934  0.16408969  1
  I  I76  1  0.83272810  0.33665811  0.50178357  1
  I  I77  1  0.82991747  0.33035247  0.83400670  1
  I  I78  1  0.83838830  0.66367670  0.17029116  1
  I  I79  1  0.83781797  0.66166027  0.49455467  1
  I  I80  1  0.83881350  0.66916441  0.83172618  1
  I  I81  1  0.16603211  0.16954825  0.00304256  1
  I  I82  1  0.16190824  0.16602590  0.33200127  1
  I  I83  1  0.16698826  0.17084679  0.66449388  1
  I  I84  1  0.16065641  0.49620422  0.00386300  1
  I  I85  1  0.16647706  0.50140127  0.33312356  1
  I  I86  1  0.16573643  0.49587487  0.66334320  1
  I  I87  1  0.16212208  0.83415419  0.00063935  1
  I  I88  1  0.16646634  0.83250449  0.33007900  1
  I  I89  1  0.16405418  0.83412642  0.66929599  1
  I  I90  1  0.49850398  0.16642971  -0.00292939  1
  I  I91  1  0.50122477  0.16744810  0.33367526  1
  I  I92  1  0.50526262  0.16748372  0.66992538  1
  I  I93  1  0.49953780  0.50097336  0.00011484  1
  I  I94  1  0.49804669  0.49782076  0.33663342  1
  I  I95  1  0.49929657  0.50024924  0.66286047  1
  I  I96  1  0.50070026  0.83105652  -0.00025724  1
  I  I97  1  0.49923186  0.83516606  0.33337499  1
  I  I98  1  0.49608260  0.83225103  0.66699401  1
  I  I99  1  0.83629224  0.16947794  0.00049156  1
  I  I100  1  0.83740075  0.17004303  0.33016190  1
  I  I101  1  0.83175566  0.16483915  0.66917598  1
  I  I102  1  0.84067349  0.49810468  0.00355136  1
  I  I103  1  0.83500092  0.49440602  0.33270233  1
  I  I104  1  0.83461035  0.50020542  0.66396133  1
  I  I105  1  0.83689983  0.83300776  -0.00303976  1
  I  I106  1  0.83483476  0.83518811  0.33311832  1
  I  I107  1  0.84058091  0.83885181  0.67099009  1
  I  I108  1  0.00066518  0.16837990  0.16361957  1
  I  I109  1  0.00336285  0.17276315  0.50152796  1
  I  I110  1  -0.00270130  0.16468522  0.83467721  1
  I  I111  1  0.00077804  0.49937895  0.17445730  1
  I  I112  1  0.00085631  0.49673024  0.49622490  1
  I  I113  1  0.00004475  0.49637297  0.82740682  1
  I  I114  1  0.00335193  0.83280527  0.16439334  1
  I  I115  1  0.00016811  0.83076484  0.50050580  1
  I  I116  1  0.00013184  0.83921633  0.83655025  1
  I  I117  1  0.32954995  0.16778797  0.16832411  1
  I  I118  1  0.32908123  0.17199606  0.49588752  1
  I  I119  1  0.33450865  0.16571304  0.83224325  1
  I  I120  1  0.32966535  0.49947874  0.17032278  1
  I  I121  1  0.33160138  0.49636278  0.49654491  1
  I  I122  1  0.33308184  0.49955924  0.83309887  1
  I  I123  1  0.32759374  0.83254828  0.15974236  1
  I  I124  1  0.33276411  0.83169083  0.50284628  1
  I  I125  1  0.33049740  0.83423809  0.83683544  1
  I  I126  1  0.67048805  0.17281840  0.16313780  1
  I  I127  1  0.66680167  0.16911952  0.49909567  1
  I  I128  1  0.66872143  0.16189126  0.83813309  1
  I  I129  1  0.67037633  0.49483339  0.17016206  1
  I  I130  1  0.66756785  0.50022233  0.49747977  1
  I  I131  1  0.66695128  0.50488910  0.83297254  1
  I  I132  1  0.66712682  0.83188038  0.16429362  1
  I  I133  1  0.66695534  0.83301026  0.50201702  1
  I  I134  1  0.66978107  0.83393987  0.83274193  1
