# generated using pymatgen
data_Cs27Sn13Pb14I81
_symmetry_space_group_name_H-M   'P 1'
_cell_length_a   18.97410311
_cell_length_b   18.97923217
_cell_length_c   18.97843621
_cell_angle_alpha   89.99973083
_cell_angle_beta   89.99576683
_cell_angle_gamma   89.99936031
_symmetry_Int_Tables_number   1
_chemical_formula_structural   Cs27Sn13Pb14I81
_chemical_formula_sum   'Cs27 Sn13 Pb14 I81'
_cell_volume   6834.39881384
_cell_formula_units_Z   1
loop_
 _symmetry_equiv_pos_site_id
 _symmetry_equiv_pos_as_xyz
  1  'x, y, z'
loop_
 _atom_site_type_symbol
 _atom_site_label
 _atom_site_symmetry_multiplicity
 _atom_site_fract_x
 _atom_site_fract_y
 _atom_site_fract_z
 _atom_site_occupancy
  Cs  Cs0  1  0.00057481  0.00331484  0.00144081  1
  Cs  Cs1  1  -0.00004355  -0.00153880  0.33235851  1
  Cs  Cs2  1  0.00012149  -0.00201269  0.66731096  1
  Cs  Cs3  1  -0.00170338  0.33090414  0.00293751  1
  Cs  Cs4  1  0.00056337  0.33361912  0.33160858  1
  Cs  Cs5  1  -0.00130989  0.33458739  0.66707261  1
  Cs  Cs6  1  -0.00101128  0.66658590  -0.00060918  1
  Cs  Cs7  1  -0.00089213  0.66833897  0.33549963  1
  Cs  Cs8  1  0.00580655  0.66835129  0.66605081  1
  Cs  Cs9  1  0.33032008  -0.00406691  0.00028398  1
  Cs  Cs10  1  0.33288668  0.00558348  0.33277448  1
  Cs  Cs11  1  0.33726118  -0.00128021  0.66880813  1
  Cs  Cs12  1  0.33328755  0.33790925  0.00263492  1
  Cs  Cs13  1  0.33296436  0.33062717  0.33300169  1
  Cs  Cs14  1  0.33517261  0.33494724  0.66705602  1
  Cs  Cs15  1  0.34063022  0.66788194  -0.00602947  1
  Cs  Cs16  1  0.33479087  0.66599008  0.33414865  1
  Cs  Cs17  1  0.32447578  0.66800009  0.67237959  1
  Cs  Cs18  1  0.66555712  -0.00315431  -0.00335207  1
  Cs  Cs19  1  0.66659139  -0.00342353  0.33429844  1
  Cs  Cs20  1  0.66418124  0.00560496  0.66759363  1
  Cs  Cs21  1  0.66816820  0.33481897  -0.00259886  1
  Cs  Cs22  1  0.66655255  0.33486697  0.33515259  1
  Cs  Cs23  1  0.66729096  0.32953237  0.66516949  1
  Cs  Cs24  1  0.66076589  0.66790737  0.00233233  1
  Cs  Cs25  1  0.66652936  0.66859617  0.33224551  1
  Cs  Cs26  1  0.66879671  0.66629701  0.66376307  1
  Sn  Sn27  1  0.83444370  0.16722265  0.49890019  1
  Sn  Sn28  1  0.49989931  0.83198017  0.50001422  1
  Sn  Sn29  1  0.50175219  0.16679272  0.16637347  1
  Sn  Sn30  1  0.16561137  0.16690139  0.50151378  1
  Sn  Sn31  1  0.83336396  0.83229906  0.83327449  1
  Sn  Sn32  1  0.16650283  0.83145826  0.16697213  1
  Sn  Sn33  1  0.83390284  0.49963234  0.16680120  1
  Sn  Sn34  1  0.83181974  0.16710356  0.16758569  1
  Sn  Sn35  1  0.83291647  0.49955301  0.49987476  1
  Sn  Sn36  1  0.16658317  0.16711893  0.83203597  1
  Sn  Sn37  1  0.16619196  0.50174905  0.16681080  1
  Sn  Sn38  1  0.50028341  0.50126359  0.50009174  1
  Sn  Sn39  1  0.83349300  0.50121411  0.83329221  1
  Pb  Pb40  1  0.83446446  0.16712014  0.83331094  1
  Pb  Pb41  1  0.50047810  0.16713139  0.49877945  1
  Pb  Pb42  1  0.16625585  0.49822957  0.49820380  1
  Pb  Pb43  1  0.50056873  0.49853640  0.16855086  1
  Pb  Pb44  1  0.16425671  0.49805730  0.83599609  1
  Pb  Pb45  1  0.49760097  0.83552702  0.16849660  1
  Pb  Pb46  1  0.50246801  0.83317955  0.83056503  1
  Pb  Pb47  1  0.50273602  0.49986353  0.83010449  1
  Pb  Pb48  1  0.83451599  0.83315270  0.16502479  1
  Pb  Pb49  1  0.16605739  0.16718842  0.16684840  1
  Pb  Pb50  1  0.83214029  0.83344673  0.50184157  1
  Pb  Pb51  1  0.16461115  0.83515794  0.83549242  1
  Pb  Pb52  1  0.16892953  0.83591488  0.49822677  1
  Pb  Pb53  1  0.49696037  0.16689362  0.83662215  1
  I  I54  1  0.16704368  -0.00120954  0.16661198  1
  I  I55  1  0.16195159  0.00399149  0.49917485  1
  I  I56  1  0.16273345  0.00303220  0.83319979  1
  I  I57  1  0.16463223  0.33539825  0.16681510  1
  I  I58  1  0.16693207  0.33012813  0.49936093  1
  I  I59  1  0.16348371  0.33030367  0.83238867  1
  I  I60  1  0.15935005  0.66554621  0.16834425  1
  I  I61  1  0.16481456  0.66655722  0.49933108  1
  I  I62  1  0.16648632  0.66645821  0.83311254  1
  I  I63  1  0.50349716  0.00346756  0.17070321  1
  I  I64  1  0.49964402  -0.00139981  0.49760150  1
  I  I65  1  0.50372167  0.00010361  0.83024655  1
  I  I66  1  0.49797208  0.33063598  0.17057324  1
  I  I67  1  0.50215520  0.33564248  0.49789514  1
  I  I68  1  0.50235992  0.33332334  0.83060381  1
  I  I69  1  0.50143549  0.66658403  0.16726640  1
  I  I70  1  0.50786959  0.66551612  0.49716924  1
  I  I71  1  0.49801368  0.66648472  0.83681560  1
  I  I72  1  0.83305672  0.00304870  0.16963076  1
  I  I73  1  0.83513170  0.00319812  0.49676900  1
  I  I74  1  0.83561231  -0.00144271  0.83363605  1
  I  I75  1  0.83638248  0.33366994  0.16568918  1
  I  I76  1  0.83104163  0.33368308  0.50098776  1
  I  I77  1  0.83527029  0.33605817  0.83372251  1
  I  I78  1  0.83658057  0.66329099  0.16961118  1
  I  I79  1  0.83020044  0.66342430  0.49691430  1
  I  I80  1  0.83406332  0.66522973  0.83340479  1
  I  I81  1  0.16548820  0.16620548  -0.00133214  1
  I  I82  1  0.16596231  0.16681472  0.33528834  1
  I  I83  1  0.15989254  0.16677448  0.66547880  1
  I  I84  1  0.16112712  0.49853240  0.00404199  1
  I  I85  1  0.16068926  0.49915670  0.33022174  1
  I  I86  1  0.16630296  0.49940163  0.66662234  1
  I  I87  1  0.16595967  0.83426169  0.00336109  1
  I  I88  1  0.16464944  0.83341200  0.33039396  1
  I  I89  1  0.16715913  0.83381791  0.66666860  1
  I  I90  1  0.50525971  0.16707494  0.00451349  1
  I  I91  1  0.49811239  0.16709337  0.33099991  1
  I  I92  1  0.50190388  0.16604552  0.66653657  1
  I  I93  1  0.49991978  0.49784265  0.00014874  1
  I  I94  1  0.50624419  0.50164691  0.33638182  1
  I  I95  1  0.50486873  0.50064987  0.66189326  1
  I  I96  1  0.49927582  0.83562289  0.00002997  1
  I  I97  1  0.50215222  0.83052583  0.33616602  1
  I  I98  1  0.49994831  0.83200309  0.66270508  1
  I  I99  1  0.83314806  0.16983427  0.00276231  1
  I  I100  1  0.83591697  0.17380772  0.33345398  1
  I  I101  1  0.83538616  0.16961422  0.66383673  1
  I  I102  1  0.83951231  0.49779675  0.00108783  1
  I  I103  1  0.83349817  0.49388603  0.33332669  1
  I  I104  1  0.82778700  0.49814481  0.66565668  1
  I  I105  1  0.83519268  0.83121887  -0.00276918  1
  I  I106  1  0.83344683  0.83258379  0.33340685  1
  I  I107  1  0.83309895  0.83033461  0.66955463  1
  I  I108  1  -0.00278810  0.16828342  0.16744494  1
  I  I109  1  -0.00142650  0.17192181  0.49683902  1
  I  I110  1  0.00213458  0.16683731  0.83518548  1
  I  I111  1  -0.00166587  0.49619775  0.16866188  1
  I  I112  1  -0.00349088  0.49649555  0.50079732  1
  I  I113  1  -0.00402637  0.50245638  0.82807586  1
  I  I114  1  0.00240654  0.83602007  0.16685326  1
  I  I115  1  0.00007477  0.83246669  0.50027896  1
  I  I116  1  -0.00309751  0.82976803  0.83193319  1
  I  I117  1  0.33462713  0.16642423  0.16815406  1
  I  I118  1  0.33131009  0.16649874  0.49967127  1
  I  I119  1  0.32910671  0.16549544  0.82820318  1
  I  I120  1  0.33103638  0.49883994  0.16962602  1
  I  I121  1  0.33549445  0.50025086  0.49581280  1
  I  I122  1  0.33306413  0.49811312  0.83402828  1
  I  I123  1  0.32970734  0.83139682  0.16708772  1
  I  I124  1  0.33667115  0.82917746  0.49831214  1
  I  I125  1  0.33317848  0.83583082  0.83395966  1
  I  I126  1  0.66887462  0.17204769  0.17298080  1
  I  I127  1  0.66977293  0.16805204  0.49769516  1
  I  I128  1  0.66688626  0.16614322  0.83121397  1
  I  I129  1  0.67030512  0.49653237  0.16534461  1
  I  I130  1  0.66860390  0.49723601  0.49807336  1
  I  I131  1  0.67138906  0.50158951  0.83972224  1
  I  I132  1  0.66662012  0.83273473  0.16590554  1
  I  I133  1  0.66431311  0.83457768  0.49944636  1
  I  I134  1  0.67044335  0.83130861  0.83574104  1
