# generated using pymatgen
data_Cs27Sn14Pb13I81
_symmetry_space_group_name_H-M   'P 1'
_cell_length_a   18.97456771
_cell_length_b   18.97882918
_cell_length_c   18.97453303
_cell_angle_alpha   90.00160749
_cell_angle_beta   89.99763619
_cell_angle_gamma   89.99886703
_symmetry_Int_Tables_number   1
_chemical_formula_structural   Cs27Sn14Pb13I81
_chemical_formula_sum   'Cs27 Sn14 Pb13 I81'
_cell_volume   6833.01545631
_cell_formula_units_Z   1
loop_
 _symmetry_equiv_pos_site_id
 _symmetry_equiv_pos_as_xyz
  1  'x, y, z'
loop_
 _atom_site_type_symbol
 _atom_site_label
 _atom_site_symmetry_multiplicity
 _atom_site_fract_x
 _atom_site_fract_y
 _atom_site_fract_z
 _atom_site_occupancy
  Cs  Cs0  1  0.00040493  0.00606204  0.00349948  1
  Cs  Cs1  1  0.00367819  0.00541360  0.33206856  1
  Cs  Cs2  1  0.00213403  -0.00540017  0.66421913  1
  Cs  Cs3  1  -0.00770375  0.33048100  -0.00241076  1
  Cs  Cs4  1  0.00202668  0.33164019  0.33102387  1
  Cs  Cs5  1  -0.00377917  0.33648950  0.67092061  1
  Cs  Cs6  1  0.00100197  0.66326471  -0.00323513  1
  Cs  Cs7  1  -0.00051229  0.66557260  0.33467560  1
  Cs  Cs8  1  0.00210954  0.66922661  0.66841042  1
  Cs  Cs9  1  0.33311979  0.00086414  0.00124476  1
  Cs  Cs10  1  0.32861063  0.00463918  0.33226079  1
  Cs  Cs11  1  0.33088241  0.00233920  0.66604959  1
  Cs  Cs12  1  0.33374156  0.33311566  0.00196825  1
  Cs  Cs13  1  0.33313606  0.33362629  0.33198047  1
  Cs  Cs14  1  0.33679870  0.33200829  0.66691693  1
  Cs  Cs15  1  0.33364876  0.66682718  -0.00008777  1
  Cs  Cs16  1  0.33496004  0.66470339  0.33195978  1
  Cs  Cs17  1  0.33203736  0.66714969  0.66816377  1
  Cs  Cs18  1  0.66849605  -0.00218352  -0.00046840  1
  Cs  Cs19  1  0.66757692  -0.00657335  0.33349988  1
  Cs  Cs20  1  0.66619544  0.00037894  0.66745901  1
  Cs  Cs21  1  0.67204638  0.33100968  -0.00320575  1
  Cs  Cs22  1  0.66482277  0.33671841  0.33625055  1
  Cs  Cs23  1  0.66523222  0.32938666  0.66692012  1
  Cs  Cs24  1  0.66591895  0.66933006  0.00307029  1
  Cs  Cs25  1  0.66617037  0.66750154  0.33367809  1
  Cs  Cs26  1  0.66570776  0.66850677  0.66420766  1
  Sn  Sn27  1  0.83281997  0.83339351  0.50063112  1
  Sn  Sn28  1  0.49960724  0.49885218  0.16642157  1
  Sn  Sn29  1  0.16690156  0.16698251  0.83296180  1
  Sn  Sn30  1  0.49968895  0.50077961  0.50026017  1
  Sn  Sn31  1  0.16709636  0.50094027  0.16703068  1
  Sn  Sn32  1  0.16699414  0.50018093  0.49966081  1
  Sn  Sn33  1  0.50048268  0.83259799  0.83244901  1
  Sn  Sn34  1  0.83313096  0.16644762  0.49983137  1
  Sn  Sn35  1  0.16658870  0.83208382  0.16677732  1
  Sn  Sn36  1  0.50065961  0.16760353  0.16685929  1
  Sn  Sn37  1  0.50017034  0.50061511  0.83334476  1
  Sn  Sn38  1  0.83331425  0.50002529  0.49990783  1
  Sn  Sn39  1  0.83276426  0.83300032  0.83289281  1
  Sn  Sn40  1  0.49988088  0.83282466  0.50080679  1
  Pb  Pb41  1  0.83632360  0.83308170  0.16698880  1
  Pb  Pb42  1  0.83528299  0.16372762  0.83087603  1
  Pb  Pb43  1  0.83012209  0.16671693  0.16919569  1
  Pb  Pb44  1  0.50152309  0.16619765  0.49819687  1
  Pb  Pb45  1  0.83317474  0.50010540  0.16866066  1
  Pb  Pb46  1  0.83028387  0.50240805  0.83074882  1
  Pb  Pb47  1  0.16436953  0.17001570  0.50207719  1
  Pb  Pb48  1  0.49851998  0.83278272  0.16699192  1
  Pb  Pb49  1  0.16812379  0.16811523  0.16507097  1
  Pb  Pb50  1  0.16705198  0.83134868  0.49814514  1
  Pb  Pb51  1  0.49908537  0.16615817  0.83516271  1
  Pb  Pb52  1  0.16696423  0.83473149  0.83550771  1
  Pb  Pb53  1  0.16874977  0.49834076  0.83375323  1
  I  I54  1  0.16865357  -0.00144961  0.16484284  1
  I  I55  1  0.16643409  0.00001022  0.49817087  1
  I  I56  1  0.16853106  0.00219220  0.83578961  1
  I  I57  1  0.17050803  0.33689829  0.17115378  1
  I  I58  1  0.16907657  0.33801748  0.49303719  1
  I  I59  1  0.16912620  0.33098155  0.83410196  1
  I  I60  1  0.17330151  0.66499563  0.16974154  1
  I  I61  1  0.16353501  0.66316779  0.49937689  1
  I  I62  1  0.16513389  0.66650778  0.83257925  1
  I  I63  1  0.49741434  0.00140052  0.16677917  1
  I  I64  1  0.50524900  -0.00324133  0.50281736  1
  I  I65  1  0.50225521  -0.00335171  0.83027010  1
  I  I66  1  0.49309664  0.33583205  0.16812574  1
  I  I67  1  0.50092739  0.33671107  0.50184832  1
  I  I68  1  0.49661035  0.33617891  0.83033573  1
  I  I69  1  0.49747930  0.66357523  0.16741591  1
  I  I70  1  0.50455451  0.66560314  0.49807554  1
  I  I71  1  0.50216299  0.66668564  0.83429498  1
  I  I72  1  0.83379174  -0.00017382  0.16946431  1
  I  I73  1  0.82761717  -0.00152309  0.50391309  1
  I  I74  1  0.82635589  -0.00391044  0.82746653  1
  I  I75  1  0.83813772  0.33344137  0.16817507  1
  I  I76  1  0.83292469  0.33460066  0.49779975  1
  I  I77  1  0.83350921  0.33345745  0.83204624  1
  I  I78  1  0.82885681  0.66666276  0.16935905  1
  I  I79  1  0.83179370  0.66677455  0.50303794  1
  I  I80  1  0.83396141  0.67013532  0.82748481  1
  I  I81  1  0.16791347  0.16674529  -0.00235139  1
  I  I82  1  0.16596934  0.16448419  0.33342585  1
  I  I83  1  0.16896245  0.16577262  0.66926463  1
  I  I84  1  0.17324875  0.50300677  0.00295713  1
  I  I85  1  0.17135536  0.50345005  0.33348076  1
  I  I86  1  0.16720348  0.49813511  0.66387304  1
  I  I87  1  0.16843943  0.82702655  0.00309814  1
  I  I88  1  0.16796289  0.83243687  0.33042845  1
  I  I89  1  0.16643169  0.83341698  0.66656510  1
  I  I90  1  0.49728487  0.17078567  0.00298724  1
  I  I91  1  0.49886448  0.17110282  0.33044585  1
  I  I92  1  0.49956805  0.16944789  0.66655421  1
  I  I93  1  0.49313530  0.50086057  0.00045988  1
  I  I94  1  0.49984837  0.50007406  0.33422963  1
  I  I95  1  0.49968829  0.50453111  0.66554545  1
  I  I96  1  0.50267277  0.83058193  -0.00249517  1
  I  I97  1  0.50446807  0.82992186  0.33627968  1
  I  I98  1  0.50349118  0.82557553  0.66614509  1
  I  I99  1  0.83466685  0.16511371  -0.00030450  1
  I  I100  1  0.83486365  0.16397341  0.33729900  1
  I  I101  1  0.83171258  0.17059013  0.66311764  1
  I  I102  1  0.83420687  0.50124856  -0.00043990  1
  I  I103  1  0.82837249  0.50378305  0.33753370  1
  I  I104  1  0.83514350  0.49772919  0.66224765  1
  I  I105  1  0.82812047  0.83385590  -0.00284162  1
  I  I106  1  0.82802497  0.83214760  0.33718855  1
  I  I107  1  0.82984954  0.83301722  0.66520490  1
  I  I108  1  -0.00001607  0.16598015  0.16597478  1
  I  I109  1  -0.00351171  0.16421536  0.50007478  1
  I  I110  1  0.00278328  0.16710065  0.83509790  1
  I  I111  1  0.00319735  0.50430842  0.17199436  1
  I  I112  1  -0.00013624  0.49995419  0.49457545  1
  I  I113  1  -0.00023065  0.49999814  0.83315829  1
  I  I114  1  0.00403538  0.82758113  0.16685262  1
  I  I115  1  -0.00286412  0.83172758  0.50354921  1
  I  I116  1  -0.00243406  0.83544883  0.82838611  1
  I  I117  1  0.33596453  0.16780446  0.16768944  1
  I  I118  1  0.33328935  0.16588237  0.49954418  1
  I  I119  1  0.33143960  0.16472285  0.83359997  1
  I  I120  1  0.33423014  0.50024134  0.17232034  1
  I  I121  1  0.33471171  0.50482447  0.49887034  1
  I  I122  1  0.33696119  0.50593475  0.82878635  1
  I  I123  1  0.33094721  0.83179980  0.16650197  1
  I  I124  1  0.33648628  0.82814110  0.50333354  1
  I  I125  1  0.33658656  0.83047642  0.82989242  1
  I  I126  1  0.66235974  0.17313324  0.16488293  1
  I  I127  1  0.66943153  0.17135737  0.49984743  1
  I  I128  1  0.66681215  0.16843288  0.83423593  1
  I  I129  1  0.66299748  0.49650620  0.16790971  1
  I  I130  1  0.66575183  0.50069653  0.49942010  1
  I  I131  1  0.66204613  0.49955531  0.83512497  1
  I  I132  1  0.66659755  0.83386425  0.16668739  1
  I  I133  1  0.66640367  0.82893044  0.50238292  1
  I  I134  1  0.66555580  0.83023181  0.82965315  1
