# generated using pymatgen
data_Cs27Sn13Pb14I81
_symmetry_space_group_name_H-M   'P 1'
_cell_length_a   18.98155088
_cell_length_b   18.97059310
_cell_length_c   18.98093793
_cell_angle_alpha   90.00026985
_cell_angle_beta   90.00023957
_cell_angle_gamma   90.00370997
_symmetry_Int_Tables_number   1
_chemical_formula_structural   Cs27Sn13Pb14I81
_chemical_formula_sum   'Cs27 Sn13 Pb14 I81'
_cell_volume   6834.87018463
_cell_formula_units_Z   1
loop_
 _symmetry_equiv_pos_site_id
 _symmetry_equiv_pos_as_xyz
  1  'x, y, z'
loop_
 _atom_site_type_symbol
 _atom_site_label
 _atom_site_symmetry_multiplicity
 _atom_site_fract_x
 _atom_site_fract_y
 _atom_site_fract_z
 _atom_site_occupancy
  Cs  Cs0  1  0.00111875  0.00376981  0.00063896  1
  Cs  Cs1  1  -0.00200612  -0.00020291  0.33631992  1
  Cs  Cs2  1  -0.00089832  -0.00079490  0.66296281  1
  Cs  Cs3  1  0.00200939  0.32847984  0.00190784  1
  Cs  Cs4  1  0.00394003  0.33209896  0.32723727  1
  Cs  Cs5  1  -0.00158196  0.33223767  0.67167134  1
  Cs  Cs6  1  -0.00142931  0.66590270  -0.00154721  1
  Cs  Cs7  1  0.00168897  0.66809972  0.33497249  1
  Cs  Cs8  1  -0.00054001  0.66840586  0.66783442  1
  Cs  Cs9  1  0.33541642  -0.00220786  -0.00247543  1
  Cs  Cs10  1  0.33408323  -0.00330754  0.33401207  1
  Cs  Cs11  1  0.33551693  0.00384261  0.66786070  1
  Cs  Cs12  1  0.32941186  0.33262665  0.00199005  1
  Cs  Cs13  1  0.33216684  0.33501809  0.33505096  1
  Cs  Cs14  1  0.33655408  0.33023491  0.66278223  1
  Cs  Cs15  1  0.33416567  0.66887682  -0.00011646  1
  Cs  Cs16  1  0.33065833  0.66576296  0.33662043  1
  Cs  Cs17  1  0.33130497  0.66590373  0.66488488  1
  Cs  Cs18  1  0.66277707  -0.00147879  -0.00062285  1
  Cs  Cs19  1  0.66801597  0.00139377  0.33521369  1
  Cs  Cs20  1  0.66370853  0.00904542  0.66305951  1
  Cs  Cs21  1  0.66905244  0.33686156  0.00182603  1
  Cs  Cs22  1  0.66470707  0.33192199  0.33381390  1
  Cs  Cs23  1  0.66391283  0.33019125  0.66361475  1
  Cs  Cs24  1  0.66702026  0.66636231  0.00052581  1
  Cs  Cs25  1  0.66718262  0.66679586  0.33094214  1
  Cs  Cs26  1  0.66950843  0.66452571  0.66874457  1
  Sn  Sn27  1  0.83365553  0.50000627  0.49967340  1
  Sn  Sn28  1  0.49998924  0.16761398  0.16621065  1
  Sn  Sn29  1  0.16579486  0.83255901  0.83427846  1
  Sn  Sn30  1  0.83432867  0.83256307  0.16573706  1
  Sn  Sn31  1  0.16562269  0.83286668  0.16595066  1
  Sn  Sn32  1  0.50043330  0.83267127  0.50040671  1
  Sn  Sn33  1  0.49994388  0.50019390  0.83400885  1
  Sn  Sn34  1  0.16667495  0.50063201  0.83358012  1
  Sn  Sn35  1  0.83383534  0.83317080  0.83412196  1
  Sn  Sn36  1  0.83296380  0.50090570  0.16678617  1
  Sn  Sn37  1  0.50026963  0.49930209  0.16601855  1
  Sn  Sn38  1  0.16628131  0.16684472  0.49985495  1
  Sn  Sn39  1  0.83337063  0.50057466  0.83349042  1
  Pb  Pb40  1  0.49999860  0.17003861  0.83598068  1
  Pb  Pb41  1  0.16893710  0.16348755  0.16820796  1
  Pb  Pb42  1  0.50177438  0.50138498  0.49965728  1
  Pb  Pb43  1  0.83320857  0.16613587  0.83355146  1
  Pb  Pb44  1  0.16808723  0.83453924  0.50080191  1
  Pb  Pb45  1  0.49839191  0.16467628  0.49755627  1
  Pb  Pb46  1  0.16661428  0.16607294  0.83179087  1
  Pb  Pb47  1  0.83145887  0.16628591  0.16648493  1
  Pb  Pb48  1  0.83560414  0.16993238  0.49971888  1
  Pb  Pb49  1  0.83152417  0.83176361  0.50034909  1
  Pb  Pb50  1  0.50048637  0.83231807  0.16782652  1
  Pb  Pb51  1  0.16401223  0.49822486  0.50283086  1
  Pb  Pb52  1  0.50052536  0.83127515  0.83121241  1
  Pb  Pb53  1  0.16657801  0.50197773  0.16471065  1
  I  I54  1  0.16319979  -0.00448374  0.16108766  1
  I  I55  1  0.16854642  0.00211941  0.50066473  1
  I  I56  1  0.16212437  -0.00386865  0.83585874  1
  I  I57  1  0.16468860  0.33353188  0.16609918  1
  I  I58  1  0.16770452  0.33080299  0.50042971  1
  I  I59  1  0.16537111  0.33660695  0.83165079  1
  I  I60  1  0.16830268  0.66994960  0.16658827  1
  I  I61  1  0.16786698  0.66659689  0.49855749  1
  I  I62  1  0.16569862  0.66674940  0.83606604  1
  I  I63  1  0.49912951  0.00122370  0.17093708  1
  I  I64  1  0.50063792  -0.00302962  0.49855740  1
  I  I65  1  0.49943814  -0.00019219  0.83311238  1
  I  I66  1  0.50569074  0.33546170  0.16365083  1
  I  I67  1  0.50020754  0.33353080  0.50188129  1
  I  I68  1  0.50100287  0.33855470  0.83218423  1
  I  I69  1  0.50234157  0.66355617  0.16369076  1
  I  I70  1  0.49838669  0.66886568  0.49697721  1
  I  I71  1  0.50088781  0.66308000  0.84003234  1
  I  I72  1  0.83524932  -0.00380923  0.16247989  1
  I  I73  1  0.83199874  -0.00012874  0.49996455  1
  I  I74  1  0.83896081  -0.00417323  0.83813597  1
  I  I75  1  0.83102814  0.33702838  0.16565319  1
  I  I76  1  0.83119003  0.33814779  0.50164588  1
  I  I77  1  0.83422713  0.33762402  0.83398626  1
  I  I78  1  0.83024256  0.66579250  0.16558337  1
  I  I79  1  0.83299197  0.66367791  0.50046946  1
  I  I80  1  0.83406845  0.66556324  0.83411140  1
  I  I81  1  0.16767364  0.16801656  0.00011608  1
  I  I82  1  0.16730129  0.16584931  0.33574137  1
  I  I83  1  0.16813258  0.16537723  0.66418058  1
  I  I84  1  0.16342987  0.50100234  -0.00347093  1
  I  I85  1  0.16683829  0.50084295  0.33322541  1
  I  I86  1  0.16717216  0.50652936  0.67104085  1
  I  I87  1  0.16449193  0.82973728  -0.00057792  1
  I  I88  1  0.16438541  0.83519080  0.33095166  1
  I  I89  1  0.16317157  0.83006136  0.67014731  1
  I  I90  1  0.49941002  0.16521651  0.00370685  1
  I  I91  1  0.49958466  0.17344320  0.33008513  1
  I  I92  1  0.49896853  0.16646265  0.66656664  1
  I  I93  1  0.50517957  0.49750857  0.00020117  1
  I  I94  1  0.50526426  0.49821897  0.33019466  1
  I  I95  1  0.50109878  0.50374190  0.66945612  1
  I  I96  1  0.49902388  0.83569339  -0.00013199  1
  I  I97  1  0.49937480  0.83185882  0.33522649  1
  I  I98  1  0.49909203  0.83097665  0.66401931  1
  I  I99  1  0.83394448  0.17131096  0.00014853  1
  I  I100  1  0.83317064  0.16605517  0.33310025  1
  I  I101  1  0.83281142  0.16645149  0.66657753  1
  I  I102  1  0.83087438  0.50441280  -0.00006365  1
  I  I103  1  0.82751628  0.50400736  0.33166667  1
  I  I104  1  0.83368727  0.50415340  0.66840507  1
  I  I105  1  0.83620073  0.82467318  0.00010038  1
  I  I106  1  0.83562720  0.82863176  0.33039147  1
  I  I107  1  0.83755708  0.82719795  0.66990741  1
  I  I108  1  0.00018357  0.16911242  0.16799956  1
  I  I109  1  0.00299716  0.16375470  0.50002727  1
  I  I110  1  0.00003750  0.17230335  0.83330258  1
  I  I111  1  -0.00317357  0.50236897  0.16664400  1
  I  I112  1  -0.00389867  0.50136562  0.49858326  1
  I  I113  1  -0.00081425  0.50414048  0.83195700  1
  I  I114  1  -0.00094295  0.82765904  0.16438752  1
  I  I115  1  -0.00019089  0.83427490  0.49935946  1
  I  I116  1  -0.00019156  0.82446870  0.83618961  1
  I  I117  1  0.33653782  0.17281243  0.16771607  1
  I  I118  1  0.33088811  0.16663034  0.50034661  1
  I  I119  1  0.33334933  0.16609242  0.83263732  1
  I  I120  1  0.33592214  0.49823361  0.16225601  1
  I  I121  1  0.33317487  0.50005527  0.50028927  1
  I  I122  1  0.33330004  0.50438253  0.83812093  1
  I  I123  1  0.33131789  0.83395083  0.16411635  1
  I  I124  1  0.33569446  0.83291491  0.49806695  1
  I  I125  1  0.33063742  0.82906103  0.83640728  1
  I  I126  1  0.66361483  0.16661598  0.16820718  1
  I  I127  1  0.66659936  0.16567228  0.49972494  1
  I  I128  1  0.66647110  0.16472212  0.83143531  1
  I  I129  1  0.66747833  0.50194009  0.16223038  1
  I  I130  1  0.66964140  0.50179210  0.50434547  1
  I  I131  1  0.66767345  0.50426288  0.83452065  1
  I  I132  1  0.66965149  0.83166567  0.16356628  1
  I  I133  1  0.66414128  0.83223557  0.49827707  1
  I  I134  1  0.66990449  0.82772798  0.83779461  1
