# generated using pymatgen
data_Cs27Sn14Pb13I81
_symmetry_space_group_name_H-M   'P 1'
_cell_length_a   18.96094263
_cell_length_b   18.95885860
_cell_length_c   18.96393126
_cell_angle_alpha   90.00075744
_cell_angle_beta   90.00020127
_cell_angle_gamma   90.00168055
_symmetry_Int_Tables_number   1
_chemical_formula_structural   Cs27Sn14Pb13I81
_chemical_formula_sum   'Cs27 Sn14 Pb13 I81'
_cell_volume   6817.11286010
_cell_formula_units_Z   1
loop_
 _symmetry_equiv_pos_site_id
 _symmetry_equiv_pos_as_xyz
  1  'x, y, z'
loop_
 _atom_site_type_symbol
 _atom_site_label
 _atom_site_symmetry_multiplicity
 _atom_site_fract_x
 _atom_site_fract_y
 _atom_site_fract_z
 _atom_site_occupancy
  Cs  Cs0  1  -0.00139055  -0.00087234  -0.00136525  1
  Cs  Cs1  1  -0.00005626  0.00104977  0.33210998  1
  Cs  Cs2  1  -0.00067532  0.00067756  0.66897293  1
  Cs  Cs3  1  0.00129569  0.33259956  0.00099273  1
  Cs  Cs4  1  0.00150453  0.33413190  0.33240710  1
  Cs  Cs5  1  -0.00203484  0.33282361  0.66606278  1
  Cs  Cs6  1  0.00240611  0.66658554  0.00000325  1
  Cs  Cs7  1  -0.00178434  0.66523516  0.33281772  1
  Cs  Cs8  1  0.00110602  0.66617382  0.66692631  1
  Cs  Cs9  1  0.33494928  0.00009510  0.00203401  1
  Cs  Cs10  1  0.33191763  0.00572379  0.33837250  1
  Cs  Cs11  1  0.33207441  0.00070466  0.65894131  1
  Cs  Cs12  1  0.33996378  0.33727232  0.00423665  1
  Cs  Cs13  1  0.33079198  0.32547846  0.32741427  1
  Cs  Cs14  1  0.33807650  0.33383617  0.66872407  1
  Cs  Cs15  1  0.33126196  0.66307168  -0.00277483  1
  Cs  Cs16  1  0.33495057  0.66862428  0.33640126  1
  Cs  Cs17  1  0.32831928  0.66634832  0.66669721  1
  Cs  Cs18  1  0.66821646  -0.00202288  -0.00034686  1
  Cs  Cs19  1  0.66715284  -0.00257848  0.33292574  1
  Cs  Cs20  1  0.66745071  0.00051451  0.66800204  1
  Cs  Cs21  1  0.66052406  0.33486354  -0.00022558  1
  Cs  Cs22  1  0.66691031  0.33657020  0.33246999  1
  Cs  Cs23  1  0.66751088  0.33319605  0.66718974  1
  Cs  Cs24  1  0.66696449  0.66972332  0.00193935  1
  Cs  Cs25  1  0.66726517  0.66706397  0.33344713  1
  Cs  Cs26  1  0.66787851  0.66611564  0.66507685  1
  Sn  Sn27  1  0.83343947  0.83344405  0.50026244  1
  Sn  Sn28  1  0.83280312  0.83301831  0.83330085  1
  Sn  Sn29  1  0.83397388  0.16699313  0.83378016  1
  Sn  Sn30  1  0.50037557  0.83350629  0.83350598  1
  Sn  Sn31  1  0.16655668  0.16681088  0.83359635  1
  Sn  Sn32  1  0.49960303  0.83331033  0.16604795  1
  Sn  Sn33  1  0.83341232  0.49994707  0.50082632  1
  Sn  Sn34  1  0.16682486  0.83330973  0.16677037  1
  Sn  Sn35  1  0.49987512  0.49975841  0.49977732  1
  Sn  Sn36  1  0.16668953  0.49961821  0.49987472  1
  Sn  Sn37  1  0.83325188  0.16615600  0.16631570  1
  Sn  Sn38  1  0.83350436  0.83399587  0.16651167  1
  Sn  Sn39  1  0.83341710  0.50013221  0.83305558  1
  Sn  Sn40  1  0.83337721  0.16673809  0.49979124  1
  Pb  Pb41  1  0.83334591  0.49998144  0.16630886  1
  Pb  Pb42  1  0.49995676  0.50264938  0.16910096  1
  Pb  Pb43  1  0.16435922  0.16899454  0.50202619  1
  Pb  Pb44  1  0.50264222  0.16935319  0.50000790  1
  Pb  Pb45  1  0.50188036  0.83196722  0.50031464  1
  Pb  Pb46  1  0.16456070  0.49741681  0.83174342  1
  Pb  Pb47  1  0.16668091  0.50209695  0.16889415  1
  Pb  Pb48  1  0.50236201  0.50274274  0.83152360  1
  Pb  Pb49  1  0.50274551  0.16401442  0.16667348  1
  Pb  Pb50  1  0.50031971  0.16416532  0.83328894  1
  Pb  Pb51  1  0.16390657  0.83193421  0.49793003  1
  Pb  Pb52  1  0.16450281  0.16469623  0.16427500  1
  Pb  Pb53  1  0.16674703  0.83501832  0.83486407  1
  I  I54  1  0.16654103  -0.00357190  0.16725948  1
  I  I55  1  0.16543480  0.00023521  0.49972004  1
  I  I56  1  0.15811260  0.00260881  0.83362902  1
  I  I57  1  0.16387087  0.33296649  0.16757062  1
  I  I58  1  0.16229813  0.33692142  0.50048206  1
  I  I59  1  0.15782129  0.32978792  0.83190181  1
  I  I60  1  0.16132863  0.67063683  0.16547690  1
  I  I61  1  0.16270497  0.66382908  0.50039576  1
  I  I62  1  0.16543384  0.66665442  0.83348043  1
  I  I63  1  0.50035032  -0.00440521  0.16374896  1
  I  I64  1  0.50179485  -0.00014439  0.49977641  1
  I  I65  1  0.50796170  -0.00391443  0.83671473  1
  I  I66  1  0.50160550  0.33325861  0.16765854  1
  I  I67  1  0.50403744  0.33743718  0.50187544  1
  I  I68  1  0.50165610  0.33354527  0.83141480  1
  I  I69  1  0.50584035  0.67103748  0.16380176  1
  I  I70  1  0.50493039  0.66402103  0.49937175  1
  I  I71  1  0.50633819  0.67066248  0.83719731  1
  I  I72  1  0.83314507  -0.00139748  0.16712548  1
  I  I73  1  0.83308649  -0.00034565  0.50171959  1
  I  I74  1  0.83328963  -0.00043234  0.83136442  1
  I  I75  1  0.83466759  0.33024531  0.16751163  1
  I  I76  1  0.83315614  0.33382607  0.50306123  1
  I  I77  1  0.83810965  0.33285135  0.82923754  1
  I  I78  1  0.83250155  0.67036484  0.16740718  1
  I  I79  1  0.83300605  0.66645609  0.50181983  1
  I  I80  1  0.82915300  0.66752726  0.83028695  1
  I  I81  1  0.15754512  0.16540792  -0.00325207  1
  I  I82  1  0.16493105  0.16691496  0.33329112  1
  I  I83  1  0.15876411  0.16474712  0.66965467  1
  I  I84  1  0.16385306  0.50049389  -0.00020680  1
  I  I85  1  0.16056861  0.50084220  0.33727350  1
  I  I86  1  0.16600613  0.50211720  0.66349852  1
  I  I87  1  0.16043394  0.83417114  0.00288180  1
  I  I88  1  0.16570349  0.83241131  0.32987999  1
  I  I89  1  0.16658313  0.83312860  0.66657787  1
  I  I90  1  0.50259618  0.16900253  -0.00010980  1
  I  I91  1  0.50168772  0.16445461  0.33335741  1
  I  I92  1  0.50253771  0.16342549  0.66672656  1
  I  I93  1  0.50207317  0.49928891  -0.00019584  1
  I  I94  1  0.50642240  0.50334724  0.33720945  1
  I  I95  1  0.50075026  0.50289751  0.66348308  1
  I  I96  1  0.50723867  0.83378695  0.00017885  1
  I  I97  1  0.50321663  0.83056955  0.33076653  1
  I  I98  1  0.50682017  0.83222720  0.66927123  1
  I  I99  1  0.83721424  0.16238192  -0.00070722  1
  I  I100  1  0.83206743  0.16351077  0.33366661  1
  I  I101  1  0.83638468  0.16473928  0.66697660  1
  I  I102  1  0.83363674  0.50085863  -0.00324127  1
  I  I103  1  0.83307631  0.50081149  0.33679054  1
  I  I104  1  0.83319992  0.50079624  0.66563827  1
  I  I105  1  0.83251174  0.83575181  0.00001697  1
  I  I106  1  0.83312210  0.83488773  0.33300357  1
  I  I107  1  0.82886687  0.83459178  0.66714139  1
  I  I108  1  -0.00417875  0.16050842  0.16872873  1
  I  I109  1  -0.00460596  0.16790402  0.49848565  1
  I  I110  1  -0.00338091  0.16401143  0.83257984  1
  I  I111  1  -0.00049215  0.50361543  0.16961026  1
  I  I112  1  -0.00218367  0.50066827  0.50343116  1
  I  I113  1  -0.00428529  0.50540500  0.82732411  1
  I  I114  1  -0.00206700  0.83655993  0.16712036  1
  I  I115  1  -0.00493084  0.83121708  0.50119421  1
  I  I116  1  -0.00377454  0.83213649  0.83356896  1
  I  I117  1  0.33319997  0.16487552  0.16568941  1
  I  I118  1  0.33307392  0.16754112  0.50183033  1
  I  I119  1  0.33077838  0.16419273  0.83242387  1
  I  I120  1  0.33338721  0.50222782  0.16811190  1
  I  I121  1  0.33335168  0.50382981  0.49940413  1
  I  I122  1  0.33345345  0.50048652  0.83030236  1
  I  I123  1  0.33391334  0.83007081  0.16101463  1
  I  I124  1  0.33325081  0.83011788  0.49994386  1
  I  I125  1  0.33595981  0.83459091  0.83841429  1
  I  I126  1  0.67149661  0.16140634  0.16434244  1
  I  I127  1  0.67179856  0.16745228  0.50333982  1
  I  I128  1  0.67095610  0.16779729  0.83262834  1
  I  I129  1  0.66708829  0.50183231  0.16964386  1
  I  I130  1  0.66884795  0.50061503  0.50336669  1
  I  I131  1  0.67104672  0.49576308  0.82740281  1
  I  I132  1  0.66835321  0.83654013  0.16605000  1
  I  I133  1  0.67091156  0.83103233  0.49635216  1
  I  I134  1  0.66938008  0.83460165  0.83729436  1
