# generated using pymatgen
data_Cs27Sn13Pb14I81
_symmetry_space_group_name_H-M   'P 1'
_cell_length_a   18.97531626
_cell_length_b   18.97609913
_cell_length_c   18.98014680
_cell_angle_alpha   89.99832912
_cell_angle_beta   90.00179572
_cell_angle_gamma   89.99890742
_symmetry_Int_Tables_number   1
_chemical_formula_structural   Cs27Sn13Pb14I81
_chemical_formula_sum   'Cs27 Sn13 Pb14 I81'
_cell_volume   6834.32346355
_cell_formula_units_Z   1
loop_
 _symmetry_equiv_pos_site_id
 _symmetry_equiv_pos_as_xyz
  1  'x, y, z'
loop_
 _atom_site_type_symbol
 _atom_site_label
 _atom_site_symmetry_multiplicity
 _atom_site_fract_x
 _atom_site_fract_y
 _atom_site_fract_z
 _atom_site_occupancy
  Cs  Cs0  1  -0.00063373  -0.00048614  0.00215190  1
  Cs  Cs1  1  0.00379003  -0.00509119  0.33918136  1
  Cs  Cs2  1  -0.00094886  0.00080575  0.65924133  1
  Cs  Cs3  1  -0.00375201  0.33603501  -0.00221457  1
  Cs  Cs4  1  0.00386161  0.33193735  0.33766081  1
  Cs  Cs5  1  -0.00070482  0.33446290  0.66562429  1
  Cs  Cs6  1  0.00049113  0.66441249  0.00183733  1
  Cs  Cs7  1  -0.00157717  0.67167531  0.33166415  1
  Cs  Cs8  1  0.00517227  0.66353838  0.66762887  1
  Cs  Cs9  1  0.33323894  0.00091245  0.00160689  1
  Cs  Cs10  1  0.32773709  0.00241019  0.32980503  1
  Cs  Cs11  1  0.33560967  -0.00112692  0.66773904  1
  Cs  Cs12  1  0.33340741  0.33030648  0.00256753  1
  Cs  Cs13  1  0.33224374  0.33541779  0.32903722  1
  Cs  Cs14  1  0.33481626  0.33392290  0.66717408  1
  Cs  Cs15  1  0.33050044  0.66968961  -0.00366075  1
  Cs  Cs16  1  0.33440596  0.66182322  0.33470718  1
  Cs  Cs17  1  0.33385811  0.66702427  0.66735467  1
  Cs  Cs18  1  0.66534661  0.00154957  -0.00217867  1
  Cs  Cs19  1  0.66920540  -0.00199758  0.33483041  1
  Cs  Cs20  1  0.66586030  0.00094718  0.66827729  1
  Cs  Cs21  1  0.66911496  0.33231462  0.00164698  1
  Cs  Cs22  1  0.66429825  0.33696048  0.33106768  1
  Cs  Cs23  1  0.66657668  0.33191395  0.66671201  1
  Cs  Cs24  1  0.66989217  0.66739989  0.00155712  1
  Cs  Cs25  1  0.66797773  0.66476063  0.33029189  1
  Cs  Cs26  1  0.66328412  0.66771606  0.66656935  1
  Sn  Sn27  1  0.16573710  0.50000154  0.49936811  1
  Sn  Sn28  1  0.50036829  0.49976208  0.83385481  1
  Sn  Sn29  1  0.83387714  0.50018768  0.50023837  1
  Sn  Sn30  1  0.83355770  0.16634034  0.16692812  1
  Sn  Sn31  1  0.16644682  0.50003547  0.16692957  1
  Sn  Sn32  1  0.49995945  0.83347903  0.16671132  1
  Sn  Sn33  1  0.50001040  0.83447578  0.49949855  1
  Sn  Sn34  1  0.83300980  0.83384148  0.83293449  1
  Sn  Sn35  1  0.16633280  0.16636369  0.83308158  1
  Sn  Sn36  1  0.50001318  0.16605392  0.50008005  1
  Sn  Sn37  1  0.83359513  0.16562766  0.83391962  1
  Sn  Sn38  1  0.50088534  0.83335203  0.83345733  1
  Sn  Sn39  1  0.50001045  0.16691783  0.83282038  1
  Pb  Pb40  1  0.16385290  0.16817834  0.16453381  1
  Pb  Pb41  1  0.16878165  0.49794381  0.83325759  1
  Pb  Pb42  1  0.16625724  0.83608218  0.83319695  1
  Pb  Pb43  1  0.83134086  0.50006847  0.83188529  1
  Pb  Pb44  1  0.49846240  0.50227755  0.16353241  1
  Pb  Pb45  1  0.83543411  0.49800471  0.16902914  1
  Pb  Pb46  1  0.83113223  0.83103301  0.50261414  1
  Pb  Pb47  1  0.16879958  0.83121934  0.16654820  1
  Pb  Pb48  1  0.50152413  0.16483719  0.16675281  1
  Pb  Pb49  1  0.16945402  0.16850133  0.50202995  1
  Pb  Pb50  1  0.83122706  0.16799104  0.50023943  1
  Pb  Pb51  1  0.49987612  0.49983160  0.50139737  1
  Pb  Pb52  1  0.16942245  0.83094456  0.50014994  1
  Pb  Pb53  1  0.83156873  0.83553980  0.16451738  1
  I  I54  1  0.16739728  0.00016787  0.16472554  1
  I  I55  1  0.16594385  0.00021251  0.50108833  1
  I  I56  1  0.17257457  0.00398033  0.83415095  1
  I  I57  1  0.16902532  0.33606793  0.17060711  1
  I  I58  1  0.16626889  0.33646361  0.49769765  1
  I  I59  1  0.16751750  0.33012091  0.83290865  1
  I  I60  1  0.16720719  0.66312563  0.16907468  1
  I  I61  1  0.16549041  0.66277390  0.49853390  1
  I  I62  1  0.16823780  0.66648974  0.83313689  1
  I  I63  1  0.50082187  -0.00300435  0.16144773  1
  I  I64  1  0.50154234  -0.00005898  0.50694337  1
  I  I65  1  0.50084517  0.00022076  0.83209837  1
  I  I66  1  0.50008919  0.33330663  0.16657635  1
  I  I67  1  0.50059332  0.33102897  0.50703344  1
  I  I68  1  0.49983775  0.33173495  0.82726895  1
  I  I69  1  0.50003747  0.67018721  0.16739748  1
  I  I70  1  0.49953372  0.66909865  0.50301362  1
  I  I71  1  0.50360710  0.66804552  0.83202940  1
  I  I72  1  0.83185014  0.00339059  0.16371006  1
  I  I73  1  0.83321177  -0.00008523  0.49874678  1
  I  I74  1  0.82694477  0.00108101  0.83661246  1
  I  I75  1  0.83098018  0.33033636  0.15787464  1
  I  I76  1  0.83356485  0.33578260  0.50308698  1
  I  I77  1  0.83120327  0.33018408  0.83534709  1
  I  I78  1  0.83311488  0.66675935  0.16560412  1
  I  I79  1  0.83443311  0.66335273  0.50177830  1
  I  I80  1  0.82623277  0.66921268  0.83089792  1
  I  I81  1  0.17335100  0.16930309  -0.00354227  1
  I  I82  1  0.16738702  0.16723716  0.33346482  1
  I  I83  1  0.16328561  0.16944645  0.67010232  1
  I  I84  1  0.17014172  0.49842933  0.00185974  1
  I  I85  1  0.16508075  0.49880157  0.33413523  1
  I  I86  1  0.16485463  0.49860816  0.66435945  1
  I  I87  1  0.17030842  0.82980667  -0.00033715  1
  I  I88  1  0.16855357  0.83588942  0.33343162  1
  I  I89  1  0.16975525  0.82968017  0.66681164  1
  I  I90  1  0.49865013  0.16606923  -0.00352611  1
  I  I91  1  0.50272654  0.16327895  0.33597492  1
  I  I92  1  0.50175023  0.16328783  0.66863681  1
  I  I93  1  0.49870141  0.49798609  -0.00443780  1
  I  I94  1  0.50114149  0.50020004  0.33327310  1
  I  I95  1  0.49810270  0.50304211  0.66937823  1
  I  I96  1  0.50303438  0.83307225  -0.00180153  1
  I  I97  1  0.49899487  0.83719491  0.33406383  1
  I  I98  1  0.50328644  0.83377394  0.66796499  1
  I  I99  1  0.83019679  0.16476943  -0.00247403  1
  I  I100  1  0.82933759  0.17068696  0.33134541  1
  I  I101  1  0.83320092  0.16464488  0.67014130  1
  I  I102  1  0.83400845  0.50124432  -0.00014873  1
  I  I103  1  0.83153145  0.49784625  0.33679141  1
  I  I104  1  0.83850436  0.49769081  0.66423434  1
  I  I105  1  0.82610069  0.83400626  -0.00375864  1
  I  I106  1  0.83041235  0.83362328  0.33353099  1
  I  I107  1  0.82600212  0.84044248  0.67057567  1
  I  I108  1  -0.00381017  0.16829639  0.15945575  1
  I  I109  1  0.00000256  0.16810725  0.50196305  1
  I  I110  1  -0.00119108  0.16397628  0.83862456  1
  I  I111  1  0.00318863  0.49917103  0.16565399  1
  I  I112  1  0.00038388  0.49762887  0.49866868  1
  I  I113  1  0.00000041  0.49975365  0.83374259  1
  I  I114  1  -0.00027227  0.83275618  0.16403600  1
  I  I115  1  -0.00023154  0.83380051  0.50169282  1
  I  I116  1  -0.00335718  0.83712067  0.83377402  1
  I  I117  1  0.33334148  0.16676618  0.16556769  1
  I  I118  1  0.33754331  0.16493031  0.50635004  1
  I  I119  1  0.33515978  0.16765014  0.82866216  1
  I  I120  1  0.33083273  0.49893874  0.17387017  1
  I  I121  1  0.33137906  0.50022484  0.49815969  1
  I  I122  1  0.33688221  0.50106355  0.83044982  1
  I  I123  1  0.33741306  0.83474310  0.16239100  1
  I  I124  1  0.33802810  0.83452519  0.50514526  1
  I  I125  1  0.33712153  0.83325842  0.83279871  1
  I  I126  1  0.66914291  0.16715388  0.15973715  1
  I  I127  1  0.66325649  0.16610143  0.50699713  1
  I  I128  1  0.66580946  0.16578591  0.83300188  1
  I  I129  1  0.66672416  0.49999042  0.16804512  1
  I  I130  1  0.66809772  0.49947960  0.50366860  1
  I  I131  1  0.66327371  0.49664123  0.83000144  1
  I  I132  1  0.66323416  0.83230157  0.16752020  1
  I  I133  1  0.66275760  0.83398555  0.50014875  1
  I  I134  1  0.66477254  0.83768500  0.83304630  1
