# generated using pymatgen
data_Cs27Sn13Pb14I81
_symmetry_space_group_name_H-M   'P 1'
_cell_length_a   18.97611000
_cell_length_b   18.97500439
_cell_length_c   18.98058180
_cell_angle_alpha   89.99938723
_cell_angle_beta   89.99795858
_cell_angle_gamma   89.99854999
_symmetry_Int_Tables_number   1
_chemical_formula_structural   Cs27Sn13Pb14I81
_chemical_formula_sum   'Cs27 Sn13 Pb14 I81'
_cell_volume   6834.37168808
_cell_formula_units_Z   1
loop_
 _symmetry_equiv_pos_site_id
 _symmetry_equiv_pos_as_xyz
  1  'x, y, z'
loop_
 _atom_site_type_symbol
 _atom_site_label
 _atom_site_symmetry_multiplicity
 _atom_site_fract_x
 _atom_site_fract_y
 _atom_site_fract_z
 _atom_site_occupancy
  Cs  Cs0  1  -0.00375522  0.00030766  -0.00362752  1
  Cs  Cs1  1  -0.00141707  0.00194015  0.33629364  1
  Cs  Cs2  1  -0.00045486  -0.00211999  0.66674265  1
  Cs  Cs3  1  0.00047851  0.33265359  -0.00117469  1
  Cs  Cs4  1  -0.00106787  0.33382688  0.33275766  1
  Cs  Cs5  1  0.00215498  0.33283980  0.66785736  1
  Cs  Cs6  1  0.00321681  0.66694057  -0.00049543  1
  Cs  Cs7  1  -0.00188055  0.66392432  0.32914559  1
  Cs  Cs8  1  0.00181042  0.66722781  0.66927958  1
  Cs  Cs9  1  0.33599304  0.00010066  0.00237198  1
  Cs  Cs10  1  0.33423150  -0.00104738  0.33475661  1
  Cs  Cs11  1  0.33331725  0.00035797  0.66435825  1
  Cs  Cs12  1  0.33358579  0.33250679  -0.00162993  1
  Cs  Cs13  1  0.33323579  0.33144546  0.33076748  1
  Cs  Cs14  1  0.33196083  0.33345194  0.66803486  1
  Cs  Cs15  1  0.33222760  0.66748785  0.00806278  1
  Cs  Cs16  1  0.33081511  0.66806046  0.32191157  1
  Cs  Cs17  1  0.33522711  0.66551980  0.66766428  1
  Cs  Cs18  1  0.66822787  0.00082967  0.00046684  1
  Cs  Cs19  1  0.66676204  0.00011865  0.33391071  1
  Cs  Cs20  1  0.66742631  -0.00009101  0.66669343  1
  Cs  Cs21  1  0.66358243  0.33288711  -0.00015704  1
  Cs  Cs22  1  0.66827095  0.33740794  0.33399494  1
  Cs  Cs23  1  0.66513442  0.33489068  0.66616808  1
  Cs  Cs24  1  0.66364657  0.66426727  0.00091378  1
  Cs  Cs25  1  0.66986818  0.66321596  0.33633646  1
  Cs  Cs26  1  0.66307009  0.66584554  0.66345212  1
  Sn  Sn27  1  0.16688616  0.50029125  0.50047734  1
  Sn  Sn28  1  0.83410048  0.16595187  0.16745702  1
  Sn  Sn29  1  0.50088696  0.16611270  0.50089238  1
  Sn  Sn30  1  0.16573302  0.16632939  0.16572138  1
  Sn  Sn31  1  0.83321872  0.83416241  0.16725946  1
  Sn  Sn32  1  0.50051350  0.83403561  0.50073761  1
  Sn  Sn33  1  0.16586759  0.49937777  0.83233824  1
  Sn  Sn34  1  0.83263899  0.16629812  0.49960525  1
  Sn  Sn35  1  0.16730772  0.16670432  0.83392165  1
  Sn  Sn36  1  0.49984624  0.83427978  0.83274106  1
  Sn  Sn37  1  0.83383322  0.49993744  0.83298035  1
  Sn  Sn38  1  0.83289562  0.83403585  0.49949954  1
  Sn  Sn39  1  0.49914391  0.16560450  0.83226457  1
  Pb  Pb40  1  0.50063652  0.16664323  0.16711689  1
  Pb  Pb41  1  0.50279222  0.83366650  0.16744825  1
  Pb  Pb42  1  0.16673887  0.83052845  0.49996221  1
  Pb  Pb43  1  0.49902930  0.49996978  0.83330396  1
  Pb  Pb44  1  0.83522771  0.50002429  0.50197924  1
  Pb  Pb45  1  0.16349209  0.83683084  0.16669345  1
  Pb  Pb46  1  0.16952348  0.83359244  0.83326980  1
  Pb  Pb47  1  0.16643276  0.49735410  0.16597036  1
  Pb  Pb48  1  0.49713988  0.50020676  0.49980803  1
  Pb  Pb49  1  0.83103119  0.83092250  0.83298200  1
  Pb  Pb50  1  0.83340483  0.49958967  0.16396355  1
  Pb  Pb51  1  0.50015476  0.49990639  0.16701108  1
  Pb  Pb52  1  0.83303429  0.16794571  0.83295471  1
  Pb  Pb53  1  0.16667706  0.16782334  0.50027315  1
  I  I54  1  0.16611451  0.00471063  0.16121914  1
  I  I55  1  0.16641457  0.00008980  0.50024407  1
  I  I56  1  0.16819957  0.00354868  0.83699684  1
  I  I57  1  0.16016933  0.32950404  0.16562919  1
  I  I58  1  0.16598104  0.33549604  0.50228397  1
  I  I59  1  0.16848870  0.33247621  0.83332648  1
  I  I60  1  0.16679633  0.66671552  0.16614028  1
  I  I61  1  0.16595494  0.66279362  0.50821156  1
  I  I62  1  0.16332176  0.66365253  0.82884934  1
  I  I63  1  0.49675504  0.00024836  0.16475852  1
  I  I64  1  0.50344531  0.00062697  0.50476860  1
  I  I65  1  0.49534076  0.00131855  0.82930029  1
  I  I66  1  0.50231351  0.33248150  0.16594966  1
  I  I67  1  0.50370047  0.32987186  0.50437828  1
  I  I68  1  0.49918065  0.33006069  0.82963316  1
  I  I69  1  0.50086946  0.66733271  0.16495135  1
  I  I70  1  0.50524163  0.67021344  0.50566500  1
  I  I71  1  0.50246154  0.66946973  0.82841680  1
  I  I72  1  0.83727700  0.00104544  0.16981929  1
  I  I73  1  0.83033638  0.00058780  0.49672364  1
  I  I74  1  0.83571822  -0.00001070  0.83377784  1
  I  I75  1  0.83694908  0.32970434  0.17057942  1
  I  I76  1  0.82999570  0.33021427  0.49662136  1
  I  I77  1  0.83338858  0.33561206  0.83303671  1
  I  I78  1  0.83078695  0.66956130  0.17117951  1
  I  I79  1  0.82941517  0.66968298  0.49687186  1
  I  I80  1  0.83852571  0.66342406  0.83333997  1
  I  I81  1  0.16673839  0.17269959  -0.00117415  1
  I  I82  1  0.16550543  0.16891706  0.33142663  1
  I  I83  1  0.16780834  0.17024896  0.66936558  1
  I  I84  1  0.16317878  0.49738001  -0.00346222  1
  I  I85  1  0.16751876  0.49892903  0.33554633  1
  I  I86  1  0.16295241  0.49327341  0.66826129  1
  I  I87  1  0.16703092  0.82844089  -0.00007136  1
  I  I88  1  0.17239838  0.83205372  0.33335618  1
  I  I89  1  0.16132622  0.83727414  0.66666062  1
  I  I90  1  0.49914338  0.16425246  -0.00302809  1
  I  I91  1  0.49955264  0.16229750  0.33675406  1
  I  I92  1  0.49991257  0.16324280  0.66669949  1
  I  I93  1  0.49950794  0.49996411  -0.00065698  1
  I  I94  1  0.49810915  0.49899414  0.33403456  1
  I  I95  1  0.50175345  0.49989559  0.66667896  1
  I  I96  1  0.50064518  0.83656671  -0.00263354  1
  I  I97  1  0.50105748  0.83860600  0.33703235  1
  I  I98  1  0.50602368  0.83733134  0.66589173  1
  I  I99  1  0.83452842  0.16421536  0.00216809  1
  I  I100  1  0.83410814  0.16351855  0.33385980  1
  I  I101  1  0.83285289  0.16369834  0.66384704  1
  I  I102  1  0.83925477  0.49946571  -0.00370811  1
  I  I103  1  0.83497386  0.49997400  0.33352675  1
  I  I104  1  0.83592479  0.49891639  0.66957731  1
  I  I105  1  0.83255776  0.83732259  0.00225612  1
  I  I106  1  0.82789199  0.83699854  0.33447040  1
  I  I107  1  0.83128420  0.83731532  0.66355378  1
  I  I108  1  -0.00078161  0.16373601  0.16658710  1
  I  I109  1  -0.00276840  0.16405104  0.49917665  1
  I  I110  1  0.00226943  0.17063411  0.83435837  1
  I  I111  1  -0.00009125  0.50190068  0.16796664  1
  I  I112  1  0.00283176  0.49830444  0.50324363  1
  I  I113  1  0.00128890  0.49417466  0.82989362  1
  I  I114  1  -0.00439971  0.83400039  0.17277081  1
  I  I115  1  -0.00348918  0.83767040  0.49628060  1
  I  I116  1  -0.00022123  0.83458238  0.83315298  1
  I  I117  1  0.33089025  0.16999791  0.16546434  1
  I  I118  1  0.33598487  0.16401043  0.50098424  1
  I  I119  1  0.33325596  0.16957515  0.83347737  1
  I  I120  1  0.33273626  0.49901261  0.16525043  1
  I  I121  1  0.32968221  0.49771698  0.50839301  1
  I  I122  1  0.33007249  0.49723877  0.82902007  1
  I  I123  1  0.33344878  0.83209675  0.16668709  1
  I  I124  1  0.33683223  0.83806821  0.50561166  1
  I  I125  1  0.33756504  0.83331677  0.82618087  1
  I  I126  1  0.67001459  0.16262695  0.16652215  1
  I  I127  1  0.66688301  0.16364543  0.50052859  1
  I  I128  1  0.66404466  0.16523798  0.83286493  1
  I  I129  1  0.66739060  0.49692902  0.16368191  1
  I  I130  1  0.66674055  0.49956222  0.50174036  1
  I  I131  1  0.66852827  0.49938174  0.83433665  1
  I  I132  1  0.67045493  0.84148036  0.16669428  1
  I  I133  1  0.66694267  0.83709956  0.50046886  1
  I  I134  1  0.66335697  0.83880320  0.83226943  1
