# generated using pymatgen
data_Cs27Sn13Pb14I81
_symmetry_space_group_name_H-M   'P 1'
_cell_length_a   18.98353181
_cell_length_b   19.00711386
_cell_length_c   18.98353825
_cell_angle_alpha   89.99992470
_cell_angle_beta   90.00111111
_cell_angle_gamma   90.00029957
_symmetry_Int_Tables_number   1
_chemical_formula_structural   Cs27Sn13Pb14I81
_chemical_formula_sum   'Cs27 Sn13 Pb14 I81'
_cell_volume   6849.68109231
_cell_formula_units_Z   1
loop_
 _symmetry_equiv_pos_site_id
 _symmetry_equiv_pos_as_xyz
  1  'x, y, z'
loop_
 _atom_site_type_symbol
 _atom_site_label
 _atom_site_symmetry_multiplicity
 _atom_site_fract_x
 _atom_site_fract_y
 _atom_site_fract_z
 _atom_site_occupancy
  Cs  Cs0  1  0.00191735  0.00250074  -0.00265463  1
  Cs  Cs1  1  0.00047253  0.00036337  0.33166651  1
  Cs  Cs2  1  -0.00333692  0.00235924  0.67184854  1
  Cs  Cs3  1  0.00103591  0.33259487  0.00006165  1
  Cs  Cs4  1  0.00149378  0.33295498  0.33150394  1
  Cs  Cs5  1  -0.00302418  0.33307462  0.66889624  1
  Cs  Cs6  1  -0.00018635  0.66643306  -0.00198886  1
  Cs  Cs7  1  -0.00157400  0.66695503  0.33170649  1
  Cs  Cs8  1  -0.00092887  0.66601433  0.66938093  1
  Cs  Cs9  1  0.33926165  -0.00169577  -0.00695692  1
  Cs  Cs10  1  0.33198269  0.00113645  0.33540636  1
  Cs  Cs11  1  0.33215123  -0.00294819  0.66650464  1
  Cs  Cs12  1  0.34029798  0.33313446  0.00019714  1
  Cs  Cs13  1  0.33107554  0.33178148  0.33553017  1
  Cs  Cs14  1  0.33318368  0.33552053  0.66269062  1
  Cs  Cs15  1  0.33858306  0.66780332  -0.00341600  1
  Cs  Cs16  1  0.33020611  0.66735690  0.33795291  1
  Cs  Cs17  1  0.33348589  0.66696999  0.66520608  1
  Cs  Cs18  1  0.65658485  0.00035239  0.00191084  1
  Cs  Cs19  1  0.66792739  -0.00377278  0.33164427  1
  Cs  Cs20  1  0.67275460  0.00394314  0.66629290  1
  Cs  Cs21  1  0.65477565  0.33314210  0.00068734  1
  Cs  Cs22  1  0.66869548  0.33557082  0.33148941  1
  Cs  Cs23  1  0.67028941  0.33081508  0.66772058  1
  Cs  Cs24  1  0.66267328  0.66751835  0.00520668  1
  Cs  Cs25  1  0.67629527  0.66849424  0.32608262  1
  Cs  Cs26  1  0.66897497  0.66621191  0.66700360  1
  Sn  Sn27  1  0.83368179  0.50075410  0.83397697  1
  Sn  Sn28  1  0.49927894  0.16661171  0.49965455  1
  Sn  Sn29  1  0.16663900  0.83341384  0.49961276  1
  Sn  Sn30  1  0.49986129  0.83297386  0.49991882  1
  Sn  Sn31  1  0.16670695  0.83362103  0.16675249  1
  Sn  Sn32  1  0.16622545  0.49980086  0.83336392  1
  Sn  Sn33  1  0.16659930  0.50007782  0.50002872  1
  Sn  Sn34  1  0.16687056  0.16652179  0.49967739  1
  Sn  Sn35  1  0.16621867  0.16633670  0.16700577  1
  Sn  Sn36  1  0.16665956  0.50012443  0.16643166  1
  Sn  Sn37  1  0.49991499  0.50042059  0.49967261  1
  Sn  Sn38  1  0.83338090  0.83266805  0.83390219  1
  Sn  Sn39  1  0.83394097  0.16680724  0.16628575  1
  Pb  Pb40  1  0.50293275  0.83310595  0.83011400  1
  Pb  Pb41  1  0.49875993  0.16658550  0.16953972  1
  Pb  Pb42  1  0.49686019  0.83316034  0.16963132  1
  Pb  Pb43  1  0.49962451  0.16664001  0.82962538  1
  Pb  Pb44  1  0.83552649  0.49800129  0.16371056  1
  Pb  Pb45  1  0.83392010  0.16672493  0.49764290  1
  Pb  Pb46  1  0.16692140  0.16938735  0.83330073  1
  Pb  Pb47  1  0.16562084  0.83116634  0.83308148  1
  Pb  Pb48  1  0.83415794  0.83330940  0.50143770  1
  Pb  Pb49  1  0.83602245  0.83549312  0.16397928  1
  Pb  Pb50  1  0.49696314  0.50031376  0.17016916  1
  Pb  Pb51  1  0.83387353  0.49999202  0.50154927  1
  Pb  Pb52  1  0.49993892  0.50014144  0.83066711  1
  Pb  Pb53  1  0.83332669  0.16724090  0.83681565  1
  I  I54  1  0.16150964  0.00031188  0.17621111  1
  I  I55  1  0.17285960  0.00005356  0.49249197  1
  I  I56  1  0.16387567  -0.00012537  0.83265645  1
  I  I57  1  0.16207539  0.33330682  0.17050838  1
  I  I58  1  0.17229747  0.33358681  0.49771093  1
  I  I59  1  0.15958508  0.33756593  0.83140675  1
  I  I60  1  0.16729844  0.66640180  0.17119566  1
  I  I61  1  0.17251984  0.66636201  0.49783730  1
  I  I62  1  0.16442533  0.66319267  0.83205791  1
  I  I63  1  0.49947234  -0.00001998  0.16858896  1
  I  I64  1  0.49224385  -0.00001937  0.50007455  1
  I  I65  1  0.50210537  -0.00026566  0.83192450  1
  I  I66  1  0.49941564  0.33337896  0.16803154  1
  I  I67  1  0.49205097  0.33346244  0.50019972  1
  I  I68  1  0.50250149  0.33362809  0.83170624  1
  I  I69  1  0.49996442  0.66668442  0.16849708  1
  I  I70  1  0.49054457  0.66656735  0.50189281  1
  I  I71  1  0.49733078  0.66656034  0.82980549  1
  I  I72  1  0.84081131  0.00295189  0.16641284  1
  I  I73  1  0.83302663  0.00004459  0.50423251  1
  I  I74  1  0.83433739  -0.00222712  0.83158528  1
  I  I75  1  0.84093918  0.33050545  0.16720788  1
  I  I76  1  0.83285907  0.33331946  0.50334308  1
  I  I77  1  0.83905421  0.33637597  0.83189361  1
  I  I78  1  0.83438458  0.66666252  0.16798371  1
  I  I79  1  0.83319539  0.66663481  0.49855839  1
  I  I80  1  0.83961609  0.66572960  0.83085980  1
  I  I81  1  0.16046064  0.16644234  0.00342009  1
  I  I82  1  0.16649897  0.17085955  0.33406021  1
  I  I83  1  0.17133666  0.16604129  0.66298279  1
  I  I84  1  0.15927473  0.49981047  0.00033779  1
  I  I85  1  0.17174205  0.49930830  0.33391980  1
  I  I86  1  0.16698914  0.50026037  0.66543670  1
  I  I87  1  0.16239516  0.83381939  0.00273980  1
  I  I88  1  0.16960984  0.82966736  0.33432484  1
  I  I89  1  0.16975625  0.83328974  0.66319046  1
  I  I90  1  0.50045599  0.16693708  0.00042243  1
  I  I91  1  0.49696256  0.16721184  0.33753036  1
  I  I92  1  0.49346472  0.16747080  0.66122865  1
  I  I93  1  0.49919053  0.49919067  0.00010320  1
  I  I94  1  0.49355446  0.49849100  0.33823741  1
  I  I95  1  0.49247667  0.49961165  0.66259224  1
  I  I96  1  0.49912712  0.83400392  0.00003904  1
  I  I97  1  0.49879275  0.83410373  0.33791464  1
  I  I98  1  0.49062238  0.83311257  0.66204164  1
  I  I99  1  0.84437761  0.16669801  0.00403194  1
  I  I100  1  0.83688361  0.16657317  0.33023203  1
  I  I101  1  0.83262562  0.16651114  0.66693418  1
  I  I102  1  0.84131821  0.50383881  -0.00397472  1
  I  I103  1  0.83296606  0.49899191  0.33288276  1
  I  I104  1  0.83986723  0.50230880  0.66946772  1
  I  I105  1  0.83727848  0.82791862  -0.00342763  1
  I  I106  1  0.83098310  0.83452136  0.33293410  1
  I  I107  1  0.83559008  0.82993703  0.66925220  1
  I  I108  1  0.00263017  0.16726221  0.17295881  1
  I  I109  1  0.00383715  0.16725083  0.49848264  1
  I  I110  1  0.00009676  0.16537125  0.82735532  1
  I  I111  1  0.00426569  0.50163341  0.17342714  1
  I  I112  1  0.00420403  0.49989143  0.49821502  1
  I  I113  1  0.00143523  0.50358554  0.83005684  1
  I  I114  1  0.00416773  0.83059143  0.17479731  1
  I  I115  1  0.00404887  0.83250202  0.49697830  1
  I  I116  1  -0.00211767  0.83069365  0.83028342  1
  I  I117  1  0.32926179  0.16823092  0.16991637  1
  I  I118  1  0.33162892  0.16762368  0.49450048  1
  I  I119  1  0.33299103  0.16771300  0.83940348  1
  I  I120  1  0.32814087  0.49598151  0.16089684  1
  I  I121  1  0.33125095  0.49949347  0.50199869  1
  I  I122  1  0.33000560  0.49913482  0.83482225  1
  I  I123  1  0.32838812  0.83589205  0.16704991  1
  I  I124  1  0.33176023  0.83317088  0.49688899  1
  I  I125  1  0.33336191  0.83265379  0.83552909  1
  I  I126  1  0.66881319  0.16682598  0.16690216  1
  I  I127  1  0.66366667  0.16688675  0.50004791  1
  I  I128  1  0.66682925  0.16908764  0.83312779  1
  I  I129  1  0.66666266  0.49748727  0.16686422  1
  I  I130  1  0.66366770  0.49869673  0.50364666  1
  I  I131  1  0.66951735  0.50288459  0.82992188  1
  I  I132  1  0.66676316  0.83554805  0.16753150  1
  I  I133  1  0.66373725  0.83416323  0.50373209  1
  I  I134  1  0.67058977  0.82620402  0.83181391  1
