# generated using pymatgen
data_Cs27Sn14Pb13I81
_symmetry_space_group_name_H-M   'P 1'
_cell_length_a   18.98545406
_cell_length_b   18.97110303
_cell_length_c   18.97157150
_cell_angle_alpha   89.99547376
_cell_angle_beta   89.99940061
_cell_angle_gamma   90.00041027
_symmetry_Int_Tables_number   1
_chemical_formula_structural   Cs27Sn14Pb13I81
_chemical_formula_sum   'Cs27 Sn14 Pb13 I81'
_cell_volume   6833.08583923
_cell_formula_units_Z   1
loop_
 _symmetry_equiv_pos_site_id
 _symmetry_equiv_pos_as_xyz
  1  'x, y, z'
loop_
 _atom_site_type_symbol
 _atom_site_label
 _atom_site_symmetry_multiplicity
 _atom_site_fract_x
 _atom_site_fract_y
 _atom_site_fract_z
 _atom_site_occupancy
  Cs  Cs0  1  0.00038953  -0.00112119  -0.00030593  1
  Cs  Cs1  1  0.00077833  0.00271493  0.32987508  1
  Cs  Cs2  1  -0.00235730  -0.00346918  0.67054983  1
  Cs  Cs3  1  -0.00086679  0.33574870  0.00091424  1
  Cs  Cs4  1  -0.00034912  0.33069455  0.33431429  1
  Cs  Cs5  1  0.00179234  0.33494827  0.66569597  1
  Cs  Cs6  1  0.00173765  0.66248392  -0.00074162  1
  Cs  Cs7  1  -0.00500972  0.66749186  0.33724509  1
  Cs  Cs8  1  0.00046483  0.66829152  0.66493738  1
  Cs  Cs9  1  0.33104356  -0.00219506  0.00159589  1
  Cs  Cs10  1  0.32926792  -0.00089883  0.33196914  1
  Cs  Cs11  1  0.33462343  -0.00238654  0.66610936  1
  Cs  Cs12  1  0.33383557  0.33653349  -0.00015664  1
  Cs  Cs13  1  0.33280595  0.33021523  0.33960920  1
  Cs  Cs14  1  0.33497835  0.33016155  0.66061678  1
  Cs  Cs15  1  0.33375943  0.66505936  -0.00201704  1
  Cs  Cs16  1  0.33570176  0.66935663  0.33491004  1
  Cs  Cs17  1  0.33268900  0.66869866  0.66857691  1
  Cs  Cs18  1  0.66970525  0.00232836  -0.00071833  1
  Cs  Cs19  1  0.66934846  -0.00115571  0.33005251  1
  Cs  Cs20  1  0.66759527  0.00269219  0.66995146  1
  Cs  Cs21  1  0.66703193  0.33346017  0.00109056  1
  Cs  Cs22  1  0.66715871  0.33325257  0.33209899  1
  Cs  Cs23  1  0.66303009  0.32874889  0.66451689  1
  Cs  Cs24  1  0.66373161  0.66399007  0.00167090  1
  Cs  Cs25  1  0.66861718  0.66839282  0.33501923  1
  Cs  Cs26  1  0.66638377  0.66809397  0.66302747  1
  Sn  Sn27  1  0.16696896  0.50006253  0.16683822  1
  Sn  Sn28  1  0.83289118  0.49997232  0.83344938  1
  Sn  Sn29  1  0.49998980  0.50037821  0.83347137  1
  Sn  Sn30  1  0.16700185  0.16706192  0.83355278  1
  Sn  Sn31  1  0.49967555  0.49899624  0.16635566  1
  Sn  Sn32  1  0.49959061  0.83271488  0.83286388  1
  Sn  Sn33  1  0.16703182  0.49962344  0.83361384  1
  Sn  Sn34  1  0.83264333  0.16765517  0.16718830  1
  Sn  Sn35  1  0.16724233  0.83325370  0.50051362  1
  Sn  Sn36  1  0.50009631  0.16745599  0.16619098  1
  Sn  Sn37  1  0.16748528  0.83322622  0.83282928  1
  Sn  Sn38  1  0.83324526  0.49927073  0.16597361  1
  Sn  Sn39  1  0.83333704  0.16676101  0.49967236  1
  Sn  Sn40  1  0.49947066  0.83350547  0.50077084  1
  Pb  Pb41  1  0.16472168  0.16394030  0.50258438  1
  Pb  Pb42  1  0.50003109  0.83314859  0.16590788  1
  Pb  Pb43  1  0.83320505  0.49783912  0.49993801  1
  Pb  Pb44  1  0.49796517  0.16671984  0.83543096  1
  Pb  Pb45  1  0.83532876  0.16932135  0.83414039  1
  Pb  Pb46  1  0.49996109  0.50186654  0.49997974  1
  Pb  Pb47  1  0.16676635  0.50210923  0.50024347  1
  Pb  Pb48  1  0.16655666  0.83027268  0.16614948  1
  Pb  Pb49  1  0.83298205  0.83033379  0.83360866  1
  Pb  Pb50  1  0.50166131  0.16365987  0.49717188  1
  Pb  Pb51  1  0.83343349  0.83291233  0.16626852  1
  Pb  Pb52  1  0.83330346  0.83598757  0.50020238  1
  Pb  Pb53  1  0.16661659  0.16912277  0.16479493  1
  I  I54  1  0.16629838  0.00007555  0.16510658  1
  I  I55  1  0.17074201  -0.00392579  0.50518022  1
  I  I56  1  0.17052925  -0.00113259  0.82893769  1
  I  I57  1  0.16614665  0.33721079  0.15946774  1
  I  I58  1  0.16502422  0.33309822  0.50145087  1
  I  I59  1  0.16543290  0.33499590  0.83932684  1
  I  I60  1  0.16726234  0.66208659  0.16016612  1
  I  I61  1  0.16961360  0.67003908  0.50556718  1
  I  I62  1  0.16711260  0.66603335  0.83369394  1
  I  I63  1  0.50585361  0.00264596  0.16690551  1
  I  I64  1  0.49618794  -0.00401569  0.50630652  1
  I  I65  1  0.49477094  -0.00274807  0.83103584  1
  I  I66  1  0.50164100  0.33493598  0.16025419  1
  I  I67  1  0.50154411  0.33294090  0.50259937  1
  I  I68  1  0.49944443  0.33660598  0.83676742  1
  I  I69  1  0.50075750  0.66317896  0.16527363  1
  I  I70  1  0.49673502  0.66990073  0.49931730  1
  I  I71  1  0.49573269  0.66571719  0.83570815  1
  I  I72  1  0.82845678  0.00358561  0.17098070  1
  I  I73  1  0.83368005  0.00357333  0.49286798  1
  I  I74  1  0.83452543  0.00027290  0.83345463  1
  I  I75  1  0.83244649  0.33435722  0.16635087  1
  I  I76  1  0.83359090  0.33020842  0.49813829  1
  I  I77  1  0.83329419  0.33739410  0.83541974  1
  I  I78  1  0.83243621  0.66238784  0.16217965  1
  I  I79  1  0.83379129  0.66683719  0.49896741  1
  I  I80  1  0.83780486  0.66218123  0.83984972  1
  I  I81  1  0.16455488  0.16128350  -0.00314547  1
  I  I82  1  0.16779924  0.16613631  0.33318947  1
  I  I83  1  0.16522158  0.17328787  0.67053888  1
  I  I84  1  0.16601964  0.50235455  -0.00126883  1
  I  I85  1  0.16561440  0.50123069  0.33021633  1
  I  I86  1  0.16613340  0.49871791  0.67060840  1
  I  I87  1  0.17142131  0.83454549  -0.00379291  1
  I  I88  1  0.17132057  0.83198391  0.33596384  1
  I  I89  1  0.17034249  0.83106978  0.66841175  1
  I  I90  1  0.50726732  0.16640948  0.00321609  1
  I  I91  1  0.50055479  0.17281029  0.32930738  1
  I  I92  1  0.50131833  0.16918316  0.66678184  1
  I  I93  1  0.49997168  0.50271269  -0.00043329  1
  I  I94  1  0.50112288  0.49808383  0.32975086  1
  I  I95  1  0.49911115  0.50235910  0.67026667  1
  I  I96  1  0.49435289  0.83095324  -0.00331995  1
  I  I97  1  0.49571365  0.83349503  0.33568121  1
  I  I98  1  0.49560955  0.82742745  0.66811884  1
  I  I99  1  0.83019114  0.16923051  0.00309775  1
  I  I100  1  0.83026765  0.17200578  0.33154349  1
  I  I101  1  0.83611373  0.16688714  0.66508122  1
  I  I102  1  0.83399456  0.49481232  0.00050090  1
  I  I103  1  0.83336170  0.49903716  0.32972050  1
  I  I104  1  0.83509071  0.49959103  0.66989108  1
  I  I105  1  0.83371635  0.83992249  -0.00029645  1
  I  I106  1  0.83293589  0.82814923  0.33346782  1
  I  I107  1  0.83356734  0.83381838  0.66691874  1
  I  I108  1  -0.00268654  0.17076294  0.16949884  1
  I  I109  1  -0.00284819  0.16569764  0.49186419  1
  I  I110  1  0.00321010  0.16552756  0.83476513  1
  I  I111  1  -0.00035719  0.49703288  0.15922395  1
  I  I112  1  0.00001412  0.50334029  0.50047210  1
  I  I113  1  0.00081975  0.49965053  0.83936804  1
  I  I114  1  0.00026529  0.83396498  0.16746391  1
  I  I115  1  0.00287725  0.83283932  0.50555860  1
  I  I116  1  0.00333786  0.83267078  0.82905953  1
  I  I117  1  0.33567528  0.17039513  0.16374245  1
  I  I118  1  0.33334093  0.16763973  0.49893641  1
  I  I119  1  0.33020182  0.17073869  0.83557521  1
  I  I120  1  0.33391180  0.49738100  0.15900091  1
  I  I121  1  0.33334674  0.49697612  0.49781221  1
  I  I122  1  0.33321258  0.50248315  0.84064149  1
  I  I123  1  0.33334346  0.83494912  0.16812085  1
  I  I124  1  0.33328145  0.83278800  0.50495481  1
  I  I125  1  0.33292356  0.82816751  0.82943662  1
  I  I126  1  0.66711673  0.17401572  0.16938467  1
  I  I127  1  0.66949031  0.16539079  0.49996700  1
  I  I128  1  0.66667081  0.16563320  0.83148412  1
  I  I129  1  0.66654280  0.49610697  0.15970225  1
  I  I130  1  0.66659063  0.50400141  0.50124843  1
  I  I131  1  0.66580672  0.50489376  0.83997083  1
  I  I132  1  0.66641649  0.82947424  0.16779418  1
  I  I133  1  0.66370487  0.83298352  0.50421932  1
  I  I134  1  0.66315675  0.82925283  0.82933126  1
