# generated using pymatgen
data_Cs27Sn13Pb14I81
_symmetry_space_group_name_H-M   'P 1'
_cell_length_a   18.98157677
_cell_length_b   18.97703173
_cell_length_c   18.97214680
_cell_angle_alpha   90.00030911
_cell_angle_beta   90.00119088
_cell_angle_gamma   90.00049485
_symmetry_Int_Tables_number   1
_chemical_formula_structural   Cs27Sn13Pb14I81
_chemical_formula_sum   'Cs27 Sn13 Pb14 I81'
_cell_volume   6834.03259591
_cell_formula_units_Z   1
loop_
 _symmetry_equiv_pos_site_id
 _symmetry_equiv_pos_as_xyz
  1  'x, y, z'
loop_
 _atom_site_type_symbol
 _atom_site_label
 _atom_site_symmetry_multiplicity
 _atom_site_fract_x
 _atom_site_fract_y
 _atom_site_fract_z
 _atom_site_occupancy
  Cs  Cs0  1  -0.00323424  0.00240539  0.00080985  1
  Cs  Cs1  1  0.00020039  -0.00683268  0.33374922  1
  Cs  Cs2  1  -0.00000488  -0.00045269  0.66561719  1
  Cs  Cs3  1  -0.00020195  0.33420219  -0.00526241  1
  Cs  Cs4  1  0.00195356  0.33472527  0.33381592  1
  Cs  Cs5  1  0.00039832  0.33370396  0.67052441  1
  Cs  Cs6  1  0.00058655  0.66340155  -0.00081176  1
  Cs  Cs7  1  0.00083587  0.66980435  0.33352636  1
  Cs  Cs8  1  -0.00127394  0.66725582  0.66733534  1
  Cs  Cs9  1  0.33651235  -0.00510436  -0.00045183  1
  Cs  Cs10  1  0.32898561  0.00186603  0.33411769  1
  Cs  Cs11  1  0.33562847  0.00106435  0.66710388  1
  Cs  Cs12  1  0.33035352  0.33310392  0.00132151  1
  Cs  Cs13  1  0.33298910  0.33466112  0.33422554  1
  Cs  Cs14  1  0.33261874  0.33197539  0.66563294  1
  Cs  Cs15  1  0.33684242  0.67219020  -0.00099209  1
  Cs  Cs16  1  0.33045780  0.66235776  0.33037165  1
  Cs  Cs17  1  0.33619938  0.66801697  0.66793676  1
  Cs  Cs18  1  0.66623629  -0.00038293  0.00804745  1
  Cs  Cs19  1  0.67164874  0.00153208  0.32926207  1
  Cs  Cs20  1  0.66294750  -0.00112699  0.66624540  1
  Cs  Cs21  1  0.67016214  0.33002769  0.00308856  1
  Cs  Cs22  1  0.66519607  0.33483774  0.33314662  1
  Cs  Cs23  1  0.66716484  0.33362279  0.66512941  1
  Cs  Cs24  1  0.66169868  0.67021781  -0.00266462  1
  Cs  Cs25  1  0.66937273  0.66161874  0.33238208  1
  Cs  Cs26  1  0.66509173  0.66782280  0.66781729  1
  Sn  Sn27  1  0.83435482  0.49919236  0.49967108  1
  Sn  Sn28  1  0.16659948  0.16734507  0.16730782  1
  Sn  Sn29  1  0.16580745  0.49942135  0.49993900  1
  Sn  Sn30  1  0.83423418  0.49986490  0.16715571  1
  Sn  Sn31  1  0.83367815  0.16731708  0.50032820  1
  Sn  Sn32  1  0.16563907  0.49900709  0.16725278  1
  Sn  Sn33  1  0.16619638  0.16738524  0.49950407  1
  Sn  Sn34  1  0.83429724  0.83368119  0.83317844  1
  Sn  Sn35  1  0.49992840  0.49818966  0.83332644  1
  Sn  Sn36  1  0.16523030  0.83353464  0.83296277  1
  Sn  Sn37  1  0.50007418  0.16795070  0.83308127  1
  Sn  Sn38  1  0.49991774  0.83407319  0.49936075  1
  Sn  Sn39  1  0.50017471  0.16561617  0.50041898  1
  Pb  Pb40  1  0.50034178  0.83425415  0.83223231  1
  Pb  Pb41  1  0.83137477  0.83296889  0.50120634  1
  Pb  Pb42  1  0.16853105  0.50153900  0.83319946  1
  Pb  Pb43  1  0.83625309  0.16897249  0.16935989  1
  Pb  Pb44  1  0.16840180  0.83308764  0.50153508  1
  Pb  Pb45  1  0.16651675  0.83312508  0.16425909  1
  Pb  Pb46  1  0.83125332  0.50118612  0.83308935  1
  Pb  Pb47  1  0.49758209  0.16674397  0.16750355  1
  Pb  Pb48  1  0.49986763  0.49942155  0.50114319  1
  Pb  Pb49  1  0.83073166  0.16452097  0.83112596  1
  Pb  Pb50  1  0.49996913  0.83342279  0.17096456  1
  Pb  Pb51  1  0.16843251  0.16473862  0.83316324  1
  Pb  Pb52  1  0.49970214  0.49973100  0.16382147  1
  Pb  Pb53  1  0.83353928  0.83027335  0.16410559  1
  I  I54  1  0.16865351  0.00303133  0.17119994  1
  I  I55  1  0.16543985  0.00324801  0.49724351  1
  I  I56  1  0.16649260  -0.00289194  0.83208938  1
  I  I57  1  0.16461575  0.33410524  0.17073845  1
  I  I58  1  0.16908412  0.33302987  0.49710873  1
  I  I59  1  0.16777573  0.33321232  0.83322253  1
  I  I60  1  0.16349137  0.66305751  0.17102065  1
  I  I61  1  0.16426827  0.66344687  0.49718064  1
  I  I62  1  0.16715562  0.66924983  0.83238243  1
  I  I63  1  0.49796550  0.00029199  0.15982036  1
  I  I64  1  0.49893485  0.00204176  0.50797755  1
  I  I65  1  0.49854234  0.00268911  0.82880801  1
  I  I66  1  0.50131324  0.33334797  0.16965190  1
  I  I67  1  0.49952835  0.33031423  0.50299082  1
  I  I68  1  0.49893350  0.33254406  0.82583765  1
  I  I69  1  0.49744628  0.66632124  0.16438886  1
  I  I70  1  0.49999894  0.66802445  0.50470586  1
  I  I71  1  0.49984910  0.66529642  0.83137348  1
  I  I72  1  0.83380806  0.00029220  0.16685728  1
  I  I73  1  0.83510881  0.00290489  0.50307193  1
  I  I74  1  0.83576411  -0.00314128  0.83013145  1
  I  I75  1  0.83417060  0.33690765  0.16682312  1
  I  I76  1  0.83108096  0.33360775  0.49765048  1
  I  I77  1  0.83266951  0.33319529  0.83424879  1
  I  I78  1  0.83976819  0.66227172  0.17438111  1
  I  I79  1  0.83592875  0.66337816  0.49794472  1
  I  I80  1  0.83359828  0.66897493  0.83090893  1
  I  I81  1  0.16880003  0.17037471  0.00248828  1
  I  I82  1  0.17022609  0.17042412  0.33514648  1
  I  I83  1  0.16635360  0.16997867  0.66315107  1
  I  I84  1  0.16325696  0.49635177  0.00287741  1
  I  I85  1  0.16475160  0.49708360  0.33424307  1
  I  I86  1  0.16394919  0.49631097  0.66350949  1
  I  I87  1  0.16565885  0.83269335  -0.00363010  1
  I  I88  1  0.16947951  0.83328122  0.33346484  1
  I  I89  1  0.16509484  0.83280401  0.66927990  1
  I  I90  1  0.49783226  0.17002886  -0.00264471  1
  I  I91  1  0.50134720  0.16254758  0.33726980  1
  I  I92  1  0.49730597  0.16640971  0.66518876  1
  I  I93  1  0.49977214  0.49677648  -0.00406892  1
  I  I94  1  0.50009207  0.50117741  0.33334560  1
  I  I95  1  0.49977467  0.49987990  0.66890384  1
  I  I96  1  0.49961871  0.83268362  -0.00015197  1
  I  I97  1  0.49928678  0.83937552  0.33867374  1
  I  I98  1  0.49956353  0.83478484  0.66444448  1
  I  I99  1  0.83281491  0.16687022  0.00015729  1
  I  I100  1  0.82653087  0.16711419  0.33774330  1
  I  I101  1  0.83810805  0.17314228  0.66261615  1
  I  I102  1  0.83713643  0.50246449  0.00247622  1
  I  I103  1  0.83551120  0.49720170  0.33471712  1
  I  I104  1  0.83632271  0.49765337  0.66344774  1
  I  I105  1  0.83545339  0.83215578  -0.00386339  1
  I  I106  1  0.83081480  0.83477238  0.33344830  1
  I  I107  1  0.83566612  0.83054621  0.66898692  1
  I  I108  1  0.00409152  0.16806140  0.17062193  1
  I  I109  1  0.00062983  0.17115746  0.49620194  1
  I  I110  1  -0.00002467  0.16606056  0.83235988  1
  I  I111  1  0.00088196  0.49676953  0.17032755  1
  I  I112  1  0.00030423  0.49354085  0.49768613  1
  I  I113  1  0.00002333  0.50136289  0.83306054  1
  I  I114  1  0.00009131  0.83543366  0.16902305  1
  I  I115  1  -0.00001424  0.83562123  0.50126231  1
  I  I116  1  0.00015747  0.83155175  0.83099101  1
  I  I117  1  0.32965558  0.17339580  0.17204156  1
  I  I118  1  0.33297756  0.16669272  0.50054770  1
  I  I119  1  0.33625888  0.16741784  0.82677421  1
  I  I120  1  0.32977598  0.49669360  0.17149582  1
  I  I121  1  0.33053260  0.49763364  0.49732427  1
  I  I122  1  0.33618170  0.49991712  0.83141587  1
  I  I123  1  0.33301704  0.83050897  0.16147603  1
  I  I124  1  0.33611649  0.83707854  0.50542703  1
  I  I125  1  0.33187974  0.83267422  0.83218365  1
  I  I126  1  0.66702330  0.16749600  0.16648678  1
  I  I127  1  0.66645012  0.16686709  0.50626456  1
  I  I128  1  0.66279114  0.16848164  0.82673355  1
  I  I129  1  0.66956179  0.50120794  0.17130369  1
  I  I130  1  0.66923446  0.49790504  0.49759877  1
  I  I131  1  0.66359837  0.50018835  0.83133876  1
  I  I132  1  0.66686527  0.83175513  0.16201664  1
  I  I133  1  0.66365211  0.83655666  0.50547625  1
  I  I134  1  0.66838353  0.83125323  0.83036044  1
