# generated using pymatgen
data_Cs27Sn13Pb14I81
_symmetry_space_group_name_H-M   'P 1'
_cell_length_a   18.98170293
_cell_length_b   18.97756855
_cell_length_c   18.97373119
_cell_angle_alpha   90.00349668
_cell_angle_beta   89.99981606
_cell_angle_gamma   89.99967922
_symmetry_Int_Tables_number   1
_chemical_formula_structural   Cs27Sn13Pb14I81
_chemical_formula_sum   'Cs27 Sn13 Pb14 I81'
_cell_volume   6834.84206891
_cell_formula_units_Z   1
loop_
 _symmetry_equiv_pos_site_id
 _symmetry_equiv_pos_as_xyz
  1  'x, y, z'
loop_
 _atom_site_type_symbol
 _atom_site_label
 _atom_site_symmetry_multiplicity
 _atom_site_fract_x
 _atom_site_fract_y
 _atom_site_fract_z
 _atom_site_occupancy
  Cs  Cs0  1  0.00043764  -0.00261135  0.00203964  1
  Cs  Cs1  1  -0.00094014  0.00126571  0.33131321  1
  Cs  Cs2  1  0.00222180  0.00081992  0.66790147  1
  Cs  Cs3  1  -0.00159256  0.33259846  -0.00177776  1
  Cs  Cs4  1  0.00113547  0.33210086  0.33296860  1
  Cs  Cs5  1  -0.00341229  0.33429557  0.66951399  1
  Cs  Cs6  1  0.00055589  0.66986960  0.00011795  1
  Cs  Cs7  1  0.00170601  0.66598437  0.33730568  1
  Cs  Cs8  1  -0.00079715  0.66596998  0.66250174  1
  Cs  Cs9  1  0.33630765  -0.00020108  -0.00293435  1
  Cs  Cs10  1  0.33308257  0.00028506  0.33467492  1
  Cs  Cs11  1  0.33461570  -0.00117543  0.66853251  1
  Cs  Cs12  1  0.33559113  0.33525358  0.00036213  1
  Cs  Cs13  1  0.33342160  0.33500887  0.33270519  1
  Cs  Cs14  1  0.33472939  0.33292667  0.66699196  1
  Cs  Cs15  1  0.33286438  0.66459261  -0.00008705  1
  Cs  Cs16  1  0.33168274  0.66346342  0.33363406  1
  Cs  Cs17  1  0.33304411  0.66717825  0.66710623  1
  Cs  Cs18  1  0.66168747  -0.00149267  -0.00048138  1
  Cs  Cs19  1  0.66765986  0.00092915  0.33326858  1
  Cs  Cs20  1  0.66231815  -0.00175013  0.66655384  1
  Cs  Cs21  1  0.66745176  0.33235572  -0.00084255  1
  Cs  Cs22  1  0.66564568  0.33070610  0.33309216  1
  Cs  Cs23  1  0.66769608  0.33587632  0.66722695  1
  Cs  Cs24  1  0.66730033  0.66835924  0.00111656  1
  Cs  Cs25  1  0.66702868  0.67068347  0.33325492  1
  Cs  Cs26  1  0.66733776  0.66498936  0.66458237  1
  Sn  Sn27  1  0.83354822  0.16660760  0.49978641  1
  Sn  Sn28  1  0.83410438  0.16667289  0.16707919  1
  Sn  Sn29  1  0.49998881  0.49945999  0.50040593  1
  Sn  Sn30  1  0.16609442  0.83402953  0.16608059  1
  Sn  Sn31  1  0.16562728  0.83231980  0.83412919  1
  Sn  Sn32  1  0.16614502  0.16597381  0.16704596  1
  Sn  Sn33  1  0.83417400  0.83354511  0.83368537  1
  Sn  Sn34  1  0.49996239  0.16745902  0.49995070  1
  Sn  Sn35  1  0.83358277  0.50006042  0.16685861  1
  Sn  Sn36  1  0.83435672  0.83336567  0.16592500  1
  Sn  Sn37  1  0.16685970  0.50062964  0.83342834  1
  Sn  Sn38  1  0.16648970  0.16671426  0.49944510  1
  Sn  Sn39  1  0.49948828  0.50013272  0.83280365  1
  Pb  Pb40  1  0.83336794  0.16378964  0.83399289  1
  Pb  Pb41  1  0.16468045  0.49982124  0.16478362  1
  Pb  Pb42  1  0.50015296  0.16930066  0.83079087  1
  Pb  Pb43  1  0.16829826  0.49736632  0.50241728  1
  Pb  Pb44  1  0.49961500  0.16658267  0.16862385  1
  Pb  Pb45  1  0.49983770  0.83298590  0.49988429  1
  Pb  Pb46  1  0.16659458  0.83548778  0.49982952  1
  Pb  Pb47  1  0.16654771  0.16635058  0.83415815  1
  Pb  Pb48  1  0.83345696  0.50232287  0.83510889  1
  Pb  Pb49  1  0.83132919  0.49766645  0.49755813  1
  Pb  Pb50  1  0.50245738  0.49999500  0.16683978  1
  Pb  Pb51  1  0.49970204  0.83072086  0.83340356  1
  Pb  Pb52  1  0.49926178  0.83339223  0.16667049  1
  Pb  Pb53  1  0.83351621  0.83576297  0.49967202  1
  I  I54  1  0.15875676  0.00011147  0.16560170  1
  I  I55  1  0.16891031  0.00399196  0.50082257  1
  I  I56  1  0.16178747  -0.00305301  0.83377290  1
  I  I57  1  0.16254884  0.33039249  0.16959266  1
  I  I58  1  0.16478307  0.32921974  0.49454230  1
  I  I59  1  0.17150184  0.33579644  0.83276030  1
  I  I60  1  0.16252352  0.66949994  0.16362409  1
  I  I61  1  0.16959012  0.66643827  0.49744175  1
  I  I62  1  0.16756629  0.66753657  0.83955244  1
  I  I63  1  0.50437226  0.00015952  0.16902627  1
  I  I64  1  0.50061482  0.00367622  0.49812404  1
  I  I65  1  0.49964766  -0.00022414  0.83187750  1
  I  I66  1  0.50042228  0.33331731  0.16414306  1
  I  I67  1  0.50025758  0.33245021  0.50432123  1
  I  I68  1  0.49415998  0.33727277  0.83271003  1
  I  I69  1  0.50108922  0.66650007  0.16991574  1
  I  I70  1  0.50062639  0.66310832  0.50436429  1
  I  I71  1  0.49886087  0.66305272  0.82599240  1
  I  I72  1  0.83772300  0.00019277  0.16768591  1
  I  I73  1  0.83073838  0.00409257  0.49463103  1
  I  I74  1  0.84036985  -0.00401035  0.83773788  1
  I  I75  1  0.83624062  0.33193682  0.17132177  1
  I  I76  1  0.83548080  0.32940092  0.49509474  1
  I  I77  1  0.83324740  0.33343435  0.83457801  1
  I  I78  1  0.83534560  0.66789207  0.16091576  1
  I  I79  1  0.83011713  0.66657785  0.49869067  1
  I  I80  1  0.83409252  0.67010021  0.83982556  1
  I  I81  1  0.15973770  0.16588491  0.00342089  1
  I  I82  1  0.16591288  0.16154960  0.33266903  1
  I  I83  1  0.16688208  0.16698816  0.66393246  1
  I  I84  1  0.17302770  0.49909343  -0.00315228  1
  I  I85  1  0.16802921  0.50255733  0.33324229  1
  I  I86  1  0.16717589  0.50494687  0.67042299  1
  I  I87  1  0.16201863  0.83544784  0.00036694  1
  I  I88  1  0.16155254  0.83578220  0.32983686  1
  I  I89  1  0.16320235  0.83096405  0.66995596  1
  I  I90  1  0.50036576  0.16782308  0.00003031  1
  I  I91  1  0.50020374  0.17392941  0.33691974  1
  I  I92  1  0.49974945  0.16721164  0.66227539  1
  I  I93  1  0.49668191  0.50206976  -0.00287530  1
  I  I94  1  0.50185359  0.49454369  0.33636209  1
  I  I95  1  0.49679144  0.49501528  0.66673488  1
  I  I96  1  0.50119826  0.83161830  -0.00015279  1
  I  I97  1  0.50108017  0.83055559  0.33330041  1
  I  I98  1  0.50036476  0.83667288  0.66685975  1
  I  I99  1  0.83939536  0.16884906  0.00382871  1
  I  I100  1  0.83316086  0.16486283  0.33244863  1
  I  I101  1  0.83369432  0.16576224  0.66369348  1
  I  I102  1  0.83127713  0.49429739  0.00307117  1
  I  I103  1  0.83248730  0.50499145  0.32954171  1
  I  I104  1  0.83421396  0.49977999  0.66665318  1
  I  I105  1  0.83738583  0.83498614  0.00126109  1
  I  I106  1  0.83721441  0.83185920  0.32953862  1
  I  I107  1  0.83703675  0.83413342  0.66951611  1
  I  I108  1  -0.00044975  0.16581920  0.17503709  1
  I  I109  1  -0.00003079  0.16474261  0.49488207  1
  I  I110  1  0.00006106  0.17263066  0.82675536  1
  I  I111  1  -0.00322430  0.49900850  0.16441422  1
  I  I112  1  -0.00007811  0.49852966  0.50128986  1
  I  I113  1  0.00247932  0.50134023  0.83580218  1
  I  I114  1  -0.00044503  0.83530891  0.16157415  1
  I  I115  1  0.00002591  0.83400657  0.50169248  1
  I  I116  1  0.00088661  0.82830295  0.83803065  1
  I  I117  1  0.32970539  0.16208026  0.17008311  1
  I  I118  1  0.33306201  0.17036067  0.49615054  1
  I  I119  1  0.33313634  0.16237905  0.83343301  1
  I  I120  1  0.33308174  0.50005097  0.16766216  1
  I  I121  1  0.33638246  0.49394997  0.50030684  1
  I  I122  1  0.33292090  0.50520082  0.83036475  1
  I  I123  1  0.32908623  0.83871972  0.16242385  1
  I  I124  1  0.33304271  0.83703811  0.49981230  1
  I  I125  1  0.32987863  0.83239346  0.83757652  1
  I  I126  1  0.67010253  0.16590514  0.17043261  1
  I  I127  1  0.66699118  0.17013725  0.49583900  1
  I  I128  1  0.66688720  0.16627875  0.83386804  1
  I  I129  1  0.67062860  0.49948287  0.16493999  1
  I  I130  1  0.66343863  0.49373941  0.50705622  1
  I  I131  1  0.66437179  0.50038815  0.83006934  1
  I  I132  1  0.67050839  0.83432876  0.16279331  1
  I  I133  1  0.66691730  0.83622773  0.50010521  1
  I  I134  1  0.66954492  0.83381252  0.83823726  1
