# generated using pymatgen
data_Cs27Sn14Pb13I81
_symmetry_space_group_name_H-M   'P 1'
_cell_length_a   18.97752065
_cell_length_b   18.97084401
_cell_length_c   18.97721618
_cell_angle_alpha   89.99789177
_cell_angle_beta   90.00100399
_cell_angle_gamma   89.99961402
_symmetry_Int_Tables_number   1
_chemical_formula_structural   Cs27Sn14Pb13I81
_chemical_formula_sum   'Cs27 Sn14 Pb13 I81'
_cell_volume   6832.16946903
_cell_formula_units_Z   1
loop_
 _symmetry_equiv_pos_site_id
 _symmetry_equiv_pos_as_xyz
  1  'x, y, z'
loop_
 _atom_site_type_symbol
 _atom_site_label
 _atom_site_symmetry_multiplicity
 _atom_site_fract_x
 _atom_site_fract_y
 _atom_site_fract_z
 _atom_site_occupancy
  Cs  Cs0  1  0.00166760  -0.00058147  -0.00020874  1
  Cs  Cs1  1  -0.00008075  -0.00210404  0.33517574  1
  Cs  Cs2  1  0.00050986  0.00011168  0.66517207  1
  Cs  Cs3  1  -0.00048791  0.33366804  -0.00461459  1
  Cs  Cs4  1  -0.00051334  0.33259703  0.33606126  1
  Cs  Cs5  1  -0.00081022  0.33522898  0.66908478  1
  Cs  Cs6  1  0.00053994  0.66825632  0.00707658  1
  Cs  Cs7  1  0.00096582  0.66909672  0.32143152  1
  Cs  Cs8  1  0.00029292  0.66398707  0.66805200  1
  Cs  Cs9  1  0.33534392  0.00187805  0.00116318  1
  Cs  Cs10  1  0.33181554  0.00204836  0.33084798  1
  Cs  Cs11  1  0.33248385  -0.00178821  0.66668341  1
  Cs  Cs12  1  0.33285551  0.33139134  -0.00195370  1
  Cs  Cs13  1  0.33526032  0.33523661  0.33504349  1
  Cs  Cs14  1  0.32910739  0.33423270  0.66636478  1
  Cs  Cs15  1  0.33114880  0.66866628  0.00358642  1
  Cs  Cs16  1  0.33262830  0.65574513  0.33457643  1
  Cs  Cs17  1  0.33529076  0.66808662  0.66175528  1
  Cs  Cs18  1  0.66251150  0.00246240  -0.00130738  1
  Cs  Cs19  1  0.66827341  0.00093902  0.33605471  1
  Cs  Cs20  1  0.66686232  -0.00290091  0.66514349  1
  Cs  Cs21  1  0.66737343  0.33240752  -0.00048820  1
  Cs  Cs22  1  0.66461746  0.33249169  0.33160473  1
  Cs  Cs23  1  0.67048709  0.33308901  0.66906391  1
  Cs  Cs24  1  0.66866178  0.66360968  -0.00226303  1
  Cs  Cs25  1  0.66701149  0.66446450  0.33372402  1
  Cs  Cs26  1  0.66494212  0.66848968  0.66786919  1
  Sn  Sn27  1  0.50019488  0.83369006  0.16711571  1
  Sn  Sn28  1  0.50012767  0.49916359  0.83330746  1
  Sn  Sn29  1  0.16658168  0.83367186  0.50040321  1
  Sn  Sn30  1  0.83268155  0.16614111  0.83389230  1
  Sn  Sn31  1  0.16734381  0.16597676  0.49950435  1
  Sn  Sn32  1  0.16610144  0.83361778  0.83260219  1
  Sn  Sn33  1  0.83424220  0.83362865  0.83328552  1
  Sn  Sn34  1  0.83353242  0.50038256  0.50024461  1
  Sn  Sn35  1  0.16653612  0.16650625  0.16748885  1
  Sn  Sn36  1  0.83347158  0.16638342  0.16592066  1
  Sn  Sn37  1  0.50001987  0.16573197  0.16686118  1
  Sn  Sn38  1  0.50069431  0.16742002  0.83254304  1
  Sn  Sn39  1  0.49938609  0.16641077  0.50057757  1
  Sn  Sn40  1  0.83259693  0.50018019  0.83242702  1
  Pb  Pb41  1  0.49780410  0.83529740  0.49713030  1
  Pb  Pb42  1  0.16876517  0.83539586  0.16699594  1
  Pb  Pb43  1  0.16676657  0.49622141  0.16652039  1
  Pb  Pb44  1  0.83353473  0.16769827  0.50037195  1
  Pb  Pb45  1  0.16411056  0.49993344  0.50008990  1
  Pb  Pb46  1  0.16678804  0.50324999  0.83332817  1
  Pb  Pb47  1  0.83325074  0.49739917  0.16601857  1
  Pb  Pb48  1  0.50011633  0.49932404  0.16403990  1
  Pb  Pb49  1  0.83075555  0.83611015  0.16425391  1
  Pb  Pb50  1  0.49993427  0.83339556  0.83455139  1
  Pb  Pb51  1  0.16676179  0.16506179  0.83297209  1
  Pb  Pb52  1  0.50224684  0.49730570  0.50270029  1
  Pb  Pb53  1  0.83558039  0.83058697  0.50188176  1
  I  I54  1  0.16551461  0.00370974  0.16717321  1
  I  I55  1  0.16937544  0.00133977  0.50059504  1
  I  I56  1  0.16289281  -0.00261540  0.83258998  1
  I  I57  1  0.17003823  0.32764018  0.17181241  1
  I  I58  1  0.17005971  0.32992785  0.49506925  1
  I  I59  1  0.16447570  0.33310462  0.83385183  1
  I  I60  1  0.16864651  0.66712644  0.16684129  1
  I  I61  1  0.16563347  0.66951674  0.50635820  1
  I  I62  1  0.16407077  0.67123323  0.82760307  1
  I  I63  1  0.49953378  0.00296381  0.16244545  1
  I  I64  1  0.50039063  0.00406423  0.50562757  1
  I  I65  1  0.50302250  0.00329611  0.83310414  1
  I  I66  1  0.50033898  0.32915856  0.16826260  1
  I  I67  1  0.49373940  0.32886835  0.49425963  1
  I  I68  1  0.50773037  0.33140382  0.83556781  1
  I  I69  1  0.49865180  0.66908575  0.16313475  1
  I  I70  1  0.49868659  0.66649401  0.49963473  1
  I  I71  1  0.50383203  0.66450934  0.83608219  1
  I  I72  1  0.83498566  0.00438210  0.16205141  1
  I  I73  1  0.83210706  0.00000839  0.50088872  1
  I  I74  1  0.83277971  0.00103644  0.83830956  1
  I  I75  1  0.83025418  0.32891884  0.16099847  1
  I  I76  1  0.83496540  0.33522995  0.50673722  1
  I  I77  1  0.82871490  0.33254213  0.83390645  1
  I  I78  1  0.83225519  0.66691505  0.16620729  1
  I  I79  1  0.83347595  0.66295314  0.50731931  1
  I  I80  1  0.83204609  0.66624831  0.82735630  1
  I  I81  1  0.16899369  0.16478397  0.00207353  1
  I  I82  1  0.16897265  0.16124099  0.33359382  1
  I  I83  1  0.16976572  0.16442472  0.66416103  1
  I  I84  1  0.16454866  0.50047399  -0.00036445  1
  I  I85  1  0.16399348  0.50508842  0.33350645  1
  I  I86  1  0.16757461  0.49427854  0.66683489  1
  I  I87  1  0.16380055  0.83420213  -0.00226648  1
  I  I88  1  0.16803007  0.83715516  0.33582943  1
  I  I89  1  0.16364172  0.84062354  0.66684314  1
  I  I90  1  0.50048291  0.16655568  -0.00017330  1
  I  I91  1  0.49992632  0.16155793  0.33268917  1
  I  I92  1  0.50026281  0.17112213  0.66756287  1
  I  I93  1  0.50766836  0.49406233  -0.00389453  1
  I  I94  1  0.50118490  0.49966607  0.33352265  1
  I  I95  1  0.50229279  0.49553970  0.67062239  1
  I  I96  1  0.49795828  0.84085246  0.00204994  1
  I  I97  1  0.49908525  0.84140360  0.32954478  1
  I  I98  1  0.50088768  0.83439722  0.66661982  1
  I  I99  1  0.83057360  0.16849376  -0.00119469  1
  I  I100  1  0.83079926  0.16962937  0.33104473  1
  I  I101  1  0.83042463  0.16583690  0.66995326  1
  I  I102  1  0.82912001  0.50084349  -0.00378435  1
  I  I103  1  0.83511987  0.49632118  0.33560074  1
  I  I104  1  0.83043043  0.49607023  0.66895187  1
  I  I105  1  0.84010615  0.82842276  -0.00412983  1
  I  I106  1  0.83435064  0.83281620  0.33310219  1
  I  I107  1  0.83296455  0.83973578  0.67054204  1
  I  I108  1  -0.00012979  0.16788957  0.16611682  1
  I  I109  1  0.00257292  0.16460220  0.49660323  1
  I  I110  1  -0.00281481  0.16909948  0.83624300  1
  I  I111  1  -0.00026547  0.49962621  0.16430172  1
  I  I112  1  -0.00336765  0.49533326  0.50922544  1
  I  I113  1  -0.00346046  0.49520216  0.82954410  1
  I  I114  1  0.00002595  0.83458242  0.16749612  1
  I  I115  1  0.00341344  0.84215406  0.50134988  1
  I  I116  1  -0.00072350  0.83497091  0.83004649  1
  I  I117  1  0.33418533  0.16242172  0.16590986  1
  I  I118  1  0.33341193  0.16351991  0.49742875  1
  I  I119  1  0.33617733  0.16916260  0.83613804  1
  I  I120  1  0.33368636  0.49914252  0.16471246  1
  I  I121  1  0.33342212  0.50129208  0.50106180  1
  I  I122  1  0.33631881  0.49388553  0.83512343  1
  I  I123  1  0.33614187  0.84176388  0.16196914  1
  I  I124  1  0.32991776  0.83561767  0.50870995  1
  I  I125  1  0.33116136  0.83488132  0.83158825  1
  I  I126  1  0.66597363  0.16363426  0.16530397  1
  I  I127  1  0.66422130  0.16936117  0.49761836  1
  I  I128  1  0.66677685  0.16590626  0.83649785  1
  I  I129  1  0.66670860  0.49795062  0.16870269  1
  I  I130  1  0.66986247  0.49735760  0.50282609  1
  I  I131  1  0.66772359  0.50024035  0.83011391  1
  I  I132  1  0.66332114  0.84085365  0.16398405  1
  I  I133  1  0.66661985  0.83456456  0.50095165  1
  I  I134  1  0.66925749  0.83362974  0.83607639  1
