# generated using pymatgen
data_Cs27Sn14Pb13I81
_symmetry_space_group_name_H-M   'P 1'
_cell_length_a   18.97638628
_cell_length_b   18.98854724
_cell_length_c   18.96505439
_cell_angle_alpha   89.99999994
_cell_angle_beta   90.00091453
_cell_angle_gamma   89.99999995
_symmetry_Int_Tables_number   1
_chemical_formula_structural   Cs27Sn14Pb13I81
_chemical_formula_sum   'Cs27 Sn14 Pb13 I81'
_cell_volume   6833.75404390
_cell_formula_units_Z   1
loop_
 _symmetry_equiv_pos_site_id
 _symmetry_equiv_pos_as_xyz
  1  'x, y, z'
loop_
 _atom_site_type_symbol
 _atom_site_label
 _atom_site_symmetry_multiplicity
 _atom_site_fract_x
 _atom_site_fract_y
 _atom_site_fract_z
 _atom_site_occupancy
  Cs  Cs0  1  -0.00193530  0.00000005  0.00137402  1
  Cs  Cs1  1  0.00012451  0.00000001  0.33135000  1
  Cs  Cs2  1  0.00763065  -0.00000000  0.67470964  1
  Cs  Cs3  1  -0.00116469  0.33283945  0.00046721  1
  Cs  Cs4  1  -0.00176876  0.33269281  0.33309381  1
  Cs  Cs5  1  0.00472540  0.33156077  0.66723673  1
  Cs  Cs6  1  -0.00116474  0.66716050  0.00046728  1
  Cs  Cs7  1  -0.00176887  0.66730711  0.33309382  1
  Cs  Cs8  1  0.00472535  0.66843933  0.66723676  1
  Cs  Cs9  1  0.33592508  0.00000003  0.00066194  1
  Cs  Cs10  1  0.33576481  -0.00000003  0.33253780  1
  Cs  Cs11  1  0.32570377  -0.00000003  0.67330906  1
  Cs  Cs12  1  0.33510749  0.34303264  -0.00492751  1
  Cs  Cs13  1  0.33369588  0.33330569  0.33268515  1
  Cs  Cs14  1  0.32474838  0.33218192  0.67292915  1
  Cs  Cs15  1  0.33510734  0.65696747  -0.00492754  1
  Cs  Cs16  1  0.33369583  0.66669435  0.33268516  1
  Cs  Cs17  1  0.32474842  0.66781814  0.67292883  1
  Cs  Cs18  1  0.66669345  -0.00000000  -0.00219258  1
  Cs  Cs19  1  0.66553578  0.00000000  0.33370249  1
  Cs  Cs20  1  0.66605556  -0.00000012  0.66862520  1
  Cs  Cs21  1  0.66595384  0.33348965  -0.00171693  1
  Cs  Cs22  1  0.66691080  0.33206001  0.33532304  1
  Cs  Cs23  1  0.66733718  0.33324029  0.66209764  1
  Cs  Cs24  1  0.66595384  0.66651028  -0.00171690  1
  Cs  Cs25  1  0.66691079  0.66793981  0.33532297  1
  Cs  Cs26  1  0.66733718  0.66675982  0.66209759  1
  Sn  Sn27  1  0.83280230  0.49999998  0.16685222  1
  Sn  Sn28  1  0.49999863  0.16634211  0.16713668  1
  Sn  Sn29  1  0.83301529  0.83417668  0.49937730  1
  Sn  Sn30  1  0.50002023  0.49999999  0.49989415  1
  Sn  Sn31  1  0.83276215  0.16646131  0.16758003  1
  Sn  Sn32  1  0.50035667  0.16633485  0.49968709  1
  Sn  Sn33  1  0.16728358  0.83384078  0.16719498  1
  Sn  Sn34  1  0.83276213  0.83353870  0.16758003  1
  Sn  Sn35  1  0.16728360  0.16615922  0.16719497  1
  Sn  Sn36  1  0.49999864  0.83365790  0.16713670  1
  Sn  Sn37  1  0.50035669  0.83366518  0.49968708  1
  Sn  Sn38  1  0.83301529  0.16582333  0.49937734  1
  Sn  Sn39  1  0.83267731  0.50000000  0.83258078  1
  Sn  Sn40  1  0.83299424  0.49999999  0.50007638  1
  Pb  Pb41  1  0.50250100  0.50000001  0.16857988  1
  Pb  Pb42  1  0.16662674  0.50000000  0.49952135  1
  Pb  Pb43  1  0.16333408  0.49999999  0.83346016  1
  Pb  Pb44  1  0.50042152  0.16665163  0.83287777  1
  Pb  Pb45  1  0.16657784  0.83337727  0.83766173  1
  Pb  Pb46  1  0.16687244  0.83353698  0.49768781  1
  Pb  Pb47  1  0.83304007  0.16862855  0.83280660  1
  Pb  Pb48  1  0.16687246  0.16646301  0.49768781  1
  Pb  Pb49  1  0.16657783  0.16662271  0.83766173  1
  Pb  Pb50  1  0.50042154  0.83334835  0.83287777  1
  Pb  Pb51  1  0.50269795  0.50000002  0.82919238  1
  Pb  Pb52  1  0.83304007  0.83137143  0.83280664  1
  Pb  Pb53  1  0.16409130  0.50000002  0.16709488  1
  I  I54  1  0.16125651  0.00000001  0.16800964  1
  I  I55  1  0.16481031  0.00000002  0.50131286  1
  I  I56  1  0.16519703  0.00000002  0.82928782  1
  I  I57  1  0.16574482  0.33013719  0.16744130  1
  I  I58  1  0.16568169  0.33316272  0.49700228  1
  I  I59  1  0.16645424  0.33336897  0.83498598  1
  I  I60  1  0.16574487  0.66986281  0.16744123  1
  I  I61  1  0.16568188  0.66683731  0.49700228  1
  I  I62  1  0.16645441  0.66663108  0.83498615  1
  I  I63  1  0.50347975  -0.00000002  0.17335503  1
  I  I64  1  0.50818404  0.00000000  0.49371393  1
  I  I65  1  0.50045142  0.00000001  0.83039940  1
  I  I66  1  0.49999154  0.33034285  0.17059700  1
  I  I67  1  0.50856959  0.33262845  0.49458368  1
  I  I68  1  0.50079109  0.33345910  0.83627396  1
  I  I69  1  0.49999145  0.66965714  0.17059696  1
  I  I70  1  0.50856930  0.66737153  0.49458385  1
  I  I71  1  0.50079155  0.66654088  0.83627403  1
  I  I72  1  0.83440408  0.00000001  0.17225163  1
  I  I73  1  0.82672260  -0.00000000  0.49082466  1
  I  I74  1  0.83456404  -0.00000003  0.83403307  1
  I  I75  1  0.83437516  0.33270137  0.16884433  1
  I  I76  1  0.82763709  0.33319998  0.49651580  1
  I  I77  1  0.83288457  0.33661294  0.83463248  1
  I  I78  1  0.83437530  0.66729865  0.16884439  1
  I  I79  1  0.82763729  0.66680009  0.49651595  1
  I  I80  1  0.83288403  0.66338702  0.83463213  1
  I  I81  1  0.16377365  0.16147155  0.00583361  1
  I  I82  1  0.16488787  0.16282047  0.32946598  1
  I  I83  1  0.16619216  0.16797782  0.66673981  1
  I  I84  1  0.16561479  0.49999992  0.00045083  1
  I  I85  1  0.16299445  0.50000005  0.33299512  1
  I  I86  1  0.16555485  0.50000001  0.66659737  1
  I  I87  1  0.16377385  0.83852842  0.00583361  1
  I  I88  1  0.16488814  0.83717960  0.32946600  1
  I  I89  1  0.16619183  0.83202214  0.66673983  1
  I  I90  1  0.50125446  0.16095224  0.00427184  1
  I  I91  1  0.50173957  0.16588307  0.33289832  1
  I  I92  1  0.50774930  0.16646296  0.66221541  1
  I  I93  1  0.50104698  0.49999998  0.00001940  1
  I  I94  1  0.50694405  0.50000011  0.33662364  1
  I  I95  1  0.50782819  0.50000003  0.66110108  1
  I  I96  1  0.50125439  0.83904776  0.00427185  1
  I  I97  1  0.50173965  0.83411683  0.33289833  1
  I  I98  1  0.50774920  0.83353708  0.66221539  1
  I  I99  1  0.83379897  0.16646025  0.00397518  1
  I  I100  1  0.83312637  0.17070766  0.33239218  1
  I  I101  1  0.82724216  0.16711814  0.66258321  1
  I  I102  1  0.83563865  0.50000017  0.00137824  1
  I  I103  1  0.83088733  0.50000008  0.33368086  1
  I  I104  1  0.82820014  0.49999983  0.66489425  1
  I  I105  1  0.83379890  0.83353966  0.00397517  1
  I  I106  1  0.83312616  0.82929230  0.33239220  1
  I  I107  1  0.82724254  0.83288193  0.66258324  1
  I  I108  1  -0.00159954  0.16481324  0.16979091  1
  I  I109  1  -0.00359763  0.16888432  0.49555907  1
  I  I110  1  -0.00024510  0.16842702  0.83223725  1
  I  I111  1  -0.00493787  0.50000002  0.16952202  1
  I  I112  1  -0.00462093  0.49999993  0.49970642  1
  I  I113  1  -0.00461516  0.50000023  0.83157485  1
  I  I114  1  -0.00159951  0.83518672  0.16979099  1
  I  I115  1  -0.00359762  0.83111571  0.49555877  1
  I  I116  1  -0.00024510  0.83157279  0.83223756  1
  I  I117  1  0.33451491  0.15787846  0.17180660  1
  I  I118  1  0.33704995  0.16711976  0.49492838  1
  I  I119  1  0.33334871  0.16786411  0.83134949  1
  I  I120  1  0.33376245  0.49999995  0.16786797  1
  I  I121  1  0.33686640  0.49999988  0.49743370  1
  I  I122  1  0.33348509  0.50000003  0.83322058  1
  I  I123  1  0.33451491  0.84212155  0.17180654  1
  I  I124  1  0.33704995  0.83288025  0.49492853  1
  I  I125  1  0.33334871  0.83213578  0.83134918  1
  I  I126  1  0.66724197  0.16462494  0.17015616  1
  I  I127  1  0.66736455  0.16811550  0.49233202  1
  I  I128  1  0.66685573  0.16694158  0.83955657  1
  I  I129  1  0.67103514  0.50000020  0.16519049  1
  I  I130  1  0.66819835  0.50000016  0.49940497  1
  I  I131  1  0.67040061  0.49999966  0.83748643  1
  I  I132  1  0.66724196  0.83537502  0.17015608  1
  I  I133  1  0.66736455  0.83188439  0.49233231  1
  I  I134  1  0.66685572  0.83305868  0.83955634  1
