# generated using pymatgen
data_Cs27Sn14Pb13I81
_symmetry_space_group_name_H-M   'P 1'
_cell_length_a   18.97509124
_cell_length_b   18.96897636
_cell_length_c   18.98414632
_cell_angle_alpha   89.99795250
_cell_angle_beta   90.00047979
_cell_angle_gamma   89.99854467
_symmetry_Int_Tables_number   1
_chemical_formula_structural   Cs27Sn14Pb13I81
_chemical_formula_sum   'Cs27 Sn14 Pb13 I81'
_cell_volume   6833.11673400
_cell_formula_units_Z   1
loop_
 _symmetry_equiv_pos_site_id
 _symmetry_equiv_pos_as_xyz
  1  'x, y, z'
loop_
 _atom_site_type_symbol
 _atom_site_label
 _atom_site_symmetry_multiplicity
 _atom_site_fract_x
 _atom_site_fract_y
 _atom_site_fract_z
 _atom_site_occupancy
  Cs  Cs0  1  -0.00248460  -0.00114942  0.00218384  1
  Cs  Cs1  1  -0.00125828  -0.00225819  0.33210037  1
  Cs  Cs2  1  -0.00037627  0.00105381  0.66589067  1
  Cs  Cs3  1  0.00245293  0.33960568  -0.00226383  1
  Cs  Cs4  1  -0.00142669  0.33409347  0.33312804  1
  Cs  Cs5  1  0.00277472  0.33324227  0.66921494  1
  Cs  Cs6  1  0.00119509  0.66451521  0.00094767  1
  Cs  Cs7  1  0.00172020  0.66841685  0.33419000  1
  Cs  Cs8  1  -0.00025623  0.66563497  0.66468197  1
  Cs  Cs9  1  0.33297606  -0.00183153  0.00078846  1
  Cs  Cs10  1  0.33345736  0.00271713  0.33335438  1
  Cs  Cs11  1  0.33385808  0.00145525  0.66465313  1
  Cs  Cs12  1  0.33370996  0.33755920  -0.00069119  1
  Cs  Cs13  1  0.34334726  0.33143367  0.33306173  1
  Cs  Cs14  1  0.32939860  0.32736433  0.66791241  1
  Cs  Cs15  1  0.33147470  0.66768547  0.00023157  1
  Cs  Cs16  1  0.33091269  0.66542281  0.33407755  1
  Cs  Cs17  1  0.33677809  0.67058577  0.66448573  1
  Cs  Cs18  1  0.66806969  0.00087598  -0.00070558  1
  Cs  Cs19  1  0.67032149  0.00097946  0.33047531  1
  Cs  Cs20  1  0.66757495  -0.00175929  0.66956667  1
  Cs  Cs21  1  0.66462131  0.33271742  -0.00080282  1
  Cs  Cs22  1  0.65811157  0.33999277  0.33370382  1
  Cs  Cs23  1  0.66780249  0.33729715  0.66877836  1
  Cs  Cs24  1  0.66753381  0.66713288  -0.00189694  1
  Cs  Cs25  1  0.66561467  0.65942726  0.33679165  1
  Cs  Cs26  1  0.66295630  0.66451343  0.66547732  1
  Sn  Sn27  1  0.50041843  0.83341313  0.16721875  1
  Sn  Sn28  1  0.16652990  0.50010033  0.49980175  1
  Sn  Sn29  1  0.16584137  0.83292094  0.49999133  1
  Sn  Sn30  1  0.49978099  0.49910533  0.83338160  1
  Sn  Sn31  1  0.83392615  0.83409899  0.50003427  1
  Sn  Sn32  1  0.83325359  0.16617553  0.49973579  1
  Sn  Sn33  1  0.16581334  0.16615447  0.16653950  1
  Sn  Sn34  1  0.83309350  0.83336550  0.16679904  1
  Sn  Sn35  1  0.83422267  0.16662255  0.16674277  1
  Sn  Sn36  1  0.83295151  0.16602353  0.83353893  1
  Sn  Sn37  1  0.16566737  0.83380066  0.83317042  1
  Sn  Sn38  1  0.83435634  0.83386031  0.83326144  1
  Sn  Sn39  1  0.50054920  0.16715161  0.83341087  1
  Sn  Sn40  1  0.16658812  0.83417049  0.16676712  1
  Pb  Pb41  1  0.83200397  0.50021528  0.83332872  1
  Pb  Pb42  1  0.83344214  0.49963952  0.16663516  1
  Pb  Pb43  1  0.49989713  0.50303766  0.16434961  1
  Pb  Pb44  1  0.16593639  0.16445204  0.83571544  1
  Pb  Pb45  1  0.83525869  0.50001146  0.50010455  1
  Pb  Pb46  1  0.50043746  0.16482086  0.16464155  1
  Pb  Pb47  1  0.16877899  0.50311396  0.83113172  1
  Pb  Pb48  1  0.50035353  0.83397185  0.83488668  1
  Pb  Pb49  1  0.16455172  0.16601677  0.49734234  1
  Pb  Pb50  1  0.49686922  0.49994251  0.50260083  1
  Pb  Pb51  1  0.50353706  0.16615163  0.50278062  1
  Pb  Pb52  1  0.16664881  0.49973553  0.16887417  1
  Pb  Pb53  1  0.50052571  0.83370665  0.49702742  1
  I  I54  1  0.16570850  -0.00209295  0.16847007  1
  I  I55  1  0.16469268  -0.00352554  0.50141044  1
  I  I56  1  0.16831835  -0.00385120  0.82854935  1
  I  I57  1  0.16058462  0.33003194  0.16704321  1
  I  I58  1  0.16467915  0.33503755  0.49926841  1
  I  I59  1  0.16488845  0.33317373  0.83316661  1
  I  I60  1  0.16571964  0.67065595  0.16452921  1
  I  I61  1  0.16121710  0.66959699  0.49833614  1
  I  I62  1  0.16257587  0.67141946  0.83927601  1
  I  I63  1  0.49961169  -0.00312245  0.16300692  1
  I  I64  1  0.49329985  -0.00014800  0.50375519  1
  I  I65  1  0.50277603  0.00235428  0.83528584  1
  I  I66  1  0.49954296  0.33310879  0.16741747  1
  I  I67  1  0.49941424  0.33308599  0.49661544  1
  I  I68  1  0.50667478  0.33209688  0.83394329  1
  I  I69  1  0.49979006  0.67120056  0.16375173  1
  I  I70  1  0.50488429  0.66694737  0.50288561  1
  I  I71  1  0.49904572  0.66533893  0.83551821  1
  I  I72  1  0.83401983  -0.00107219  0.16628486  1
  I  I73  1  0.83914819  -0.00125323  0.50016588  1
  I  I74  1  0.83046353  -0.00050345  0.83361067  1
  I  I75  1  0.83887000  0.32908602  0.16566766  1
  I  I76  1  0.83521403  0.32999147  0.50067982  1
  I  I77  1  0.83082370  0.32978566  0.83347940  1
  I  I78  1  0.83467438  0.67116748  0.16622454  1
  I  I79  1  0.83498932  0.67046219  0.49964237  1
  I  I80  1  0.83519903  0.67060641  0.83391111  1
  I  I81  1  0.16198798  0.15969121  0.00341122  1
  I  I82  1  0.16150454  0.16030827  0.32963161  1
  I  I83  1  0.16703693  0.16625898  0.66667533  1
  I  I84  1  0.16807048  0.50126872  -0.00019230  1
  I  I85  1  0.16510198  0.50823353  0.33636241  1
  I  I86  1  0.16627122  0.50550298  0.66350310  1
  I  I87  1  0.16500245  0.83785884  0.00064605  1
  I  I88  1  0.16395220  0.83231660  0.33295821  1
  I  I89  1  0.16068579  0.82865140  0.66644991  1
  I  I90  1  0.50630134  0.16854571  -0.00309527  1
  I  I91  1  0.49975717  0.16593682  0.33307084  1
  I  I92  1  0.50320154  0.16851066  0.67095297  1
  I  I93  1  0.49954373  0.49568581  -0.00321836  1
  I  I94  1  0.49999404  0.50067983  0.33346298  1
  I  I95  1  0.50167417  0.49885217  0.67020619  1
  I  I96  1  0.49945775  0.83358849  0.00265136  1
  I  I97  1  0.49956724  0.83441371  0.32908878  1
  I  I98  1  0.49924427  0.83236358  0.66678222  1
  I  I99  1  0.83204497  0.15927113  -0.00000156  1
  I  I100  1  0.84000208  0.15846076  0.33269648  1
  I  I101  1  0.82852656  0.15992094  0.66714953  1
  I  I102  1  0.83350539  0.50176706  -0.00011035  1
  I  I103  1  0.83287120  0.50033073  0.33343001  1
  I  I104  1  0.83273315  0.50042061  0.66671964  1
  I  I105  1  0.83504165  0.83854809  0.00014011  1
  I  I106  1  0.83657080  0.83951219  0.33308247  1
  I  I107  1  0.84009455  0.83936055  0.66684710  1
  I  I108  1  -0.00120941  0.15760417  0.16518390  1
  I  I109  1  -0.00357147  0.16475894  0.50570882  1
  I  I110  1  -0.00342078  0.16332706  0.83128538  1
  I  I111  1  0.00017904  0.50362536  0.16522070  1
  I  I112  1  0.00286790  0.50404654  0.50081926  1
  I  I113  1  0.00039990  0.49789948  0.83251667  1
  I  I114  1  -0.00019452  0.83716964  0.16667220  1
  I  I115  1  -0.00021815  0.83300499  0.49665201  1
  I  I116  1  -0.00094160  0.83838755  0.83686422  1
  I  I117  1  0.33093622  0.16088216  0.16552305  1
  I  I118  1  0.33313478  0.16703748  0.49981968  1
  I  I119  1  0.33517083  0.16858111  0.83592883  1
  I  I120  1  0.33320488  0.50044119  0.16671343  1
  I  I121  1  0.32927057  0.50911428  0.49957359  1
  I  I122  1  0.33642427  0.49445225  0.83335091  1
  I  I123  1  0.33174744  0.83667133  0.16484549  1
  I  I124  1  0.33000961  0.82853831  0.50085156  1
  I  I125  1  0.33085812  0.83262571  0.83441748  1
  I  I126  1  0.67020049  0.16094847  0.16731595  1
  I  I127  1  0.67183441  0.15931958  0.49418804  1
  I  I128  1  0.66850183  0.16392939  0.83529415  1
  I  I129  1  0.66658764  0.50095459  0.16779470  1
  I  I130  1  0.66653679  0.50072006  0.50020722  1
  I  I131  1  0.66404965  0.50170912  0.83308585  1
  I  I132  1  0.66844106  0.83789687  0.16447569  1
  I  I133  1  0.67063216  0.83784105  0.50154994  1
  I  I134  1  0.66990398  0.83417240  0.83379752  1
