# generated using pymatgen
data_Cs27Sn13Pb14I81
_symmetry_space_group_name_H-M   'P 1'
_cell_length_a   18.99764180
_cell_length_b   18.98671490
_cell_length_c   18.98773390
_cell_angle_alpha   89.99861813
_cell_angle_beta   90.00190123
_cell_angle_gamma   90.00044624
_symmetry_Int_Tables_number   1
_chemical_formula_structural   Cs27Sn13Pb14I81
_chemical_formula_sum   'Cs27 Sn13 Pb14 I81'
_cell_volume   6848.92893916
_cell_formula_units_Z   1
loop_
 _symmetry_equiv_pos_site_id
 _symmetry_equiv_pos_as_xyz
  1  'x, y, z'
loop_
 _atom_site_type_symbol
 _atom_site_label
 _atom_site_symmetry_multiplicity
 _atom_site_fract_x
 _atom_site_fract_y
 _atom_site_fract_z
 _atom_site_occupancy
  Cs  Cs0  1  0.00002967  0.00107632  0.00042567  1
  Cs  Cs1  1  -0.00029597  -0.00130639  0.33207650  1
  Cs  Cs2  1  0.00163998  -0.00067821  0.66712885  1
  Cs  Cs3  1  -0.00261570  0.32965675  0.00195122  1
  Cs  Cs4  1  -0.00322243  0.34705283  0.33175716  1
  Cs  Cs5  1  0.00306365  0.33465112  0.66703702  1
  Cs  Cs6  1  0.00186068  0.66940845  -0.00422507  1
  Cs  Cs7  1  0.00164312  0.65926418  0.33623866  1
  Cs  Cs8  1  -0.00097091  0.66817320  0.66763695  1
  Cs  Cs9  1  0.33039134  -0.00123384  0.00463815  1
  Cs  Cs10  1  0.33350392  0.00155541  0.33231804  1
  Cs  Cs11  1  0.33232427  0.00624277  0.66288045  1
  Cs  Cs12  1  0.33606071  0.33662610  -0.00122437  1
  Cs  Cs13  1  0.32934693  0.33017189  0.33405440  1
  Cs  Cs14  1  0.33857706  0.32097354  0.66683544  1
  Cs  Cs15  1  0.33493696  0.66536736  0.00005787  1
  Cs  Cs16  1  0.33259144  0.66378027  0.33164496  1
  Cs  Cs17  1  0.33370182  0.66792065  0.66795248  1
  Cs  Cs18  1  0.67090715  -0.00124859  0.00245849  1
  Cs  Cs19  1  0.66598245  -0.00072019  0.33426912  1
  Cs  Cs20  1  0.66673344  -0.00096972  0.66389199  1
  Cs  Cs21  1  0.66698599  0.33239099  -0.00013321  1
  Cs  Cs22  1  0.67308805  0.33404836  0.33369174  1
  Cs  Cs23  1  0.66052693  0.33178040  0.66728123  1
  Cs  Cs24  1  0.66104878  0.66803316  -0.00203804  1
  Cs  Cs25  1  0.66530851  0.66649815  0.33444575  1
  Cs  Cs26  1  0.66762988  0.66712110  0.66653341  1
  Sn  Sn27  1  0.16619192  0.50061273  0.83295383  1
  Sn  Sn28  1  0.50028919  0.83241353  0.50059347  1
  Sn  Sn29  1  0.16567542  0.83364246  0.16626278  1
  Sn  Sn30  1  0.83406655  0.16596168  0.50015223  1
  Sn  Sn31  1  0.49962454  0.50088164  0.49996376  1
  Sn  Sn32  1  0.83432637  0.83295545  0.16698588  1
  Sn  Sn33  1  0.49964290  0.83381921  0.83247928  1
  Sn  Sn34  1  0.16697112  0.83300670  0.83391193  1
  Sn  Sn35  1  0.83289435  0.83406379  0.49982467  1
  Sn  Sn36  1  0.83382523  0.50069677  0.83333559  1
  Sn  Sn37  1  0.49971775  0.16647767  0.16648429  1
  Sn  Sn38  1  0.83326296  0.83285957  0.83326963  1
  Sn  Sn39  1  0.16705813  0.16614723  0.16683905  1
  Pb  Pb40  1  0.83394590  0.16473698  0.16878511  1
  Pb  Pb41  1  0.50018919  0.16307193  0.83606214  1
  Pb  Pb42  1  0.50002302  0.49704706  0.16941183  1
  Pb  Pb43  1  0.83336236  0.16632509  0.83102056  1
  Pb  Pb44  1  0.16656453  0.16638619  0.83556460  1
  Pb  Pb45  1  0.16977774  0.50006620  0.50372780  1
  Pb  Pb46  1  0.50179172  0.16596787  0.49781881  1
  Pb  Pb47  1  0.83312655  0.50373713  0.16338789  1
  Pb  Pb48  1  0.16318673  0.16665547  0.49664534  1
  Pb  Pb49  1  0.49973486  0.83421535  0.16709224  1
  Pb  Pb50  1  0.83179033  0.50072632  0.50273687  1
  Pb  Pb51  1  0.16668710  0.83328325  0.49991339  1
  Pb  Pb52  1  0.16666942  0.50054668  0.16402446  1
  Pb  Pb53  1  0.49982338  0.50194801  0.83160939  1
  I  I54  1  0.16660234  -0.00165547  0.16041004  1
  I  I55  1  0.17114226  -0.00019457  0.50504256  1
  I  I56  1  0.16505926  -0.00374625  0.83541039  1
  I  I57  1  0.17205269  0.33063237  0.16627445  1
  I  I58  1  0.16673810  0.33331716  0.50017883  1
  I  I59  1  0.16071943  0.33630521  0.83392626  1
  I  I60  1  0.16236470  0.67022167  0.16465221  1
  I  I61  1  0.16277809  0.66685413  0.49428777  1
  I  I62  1  0.16569447  0.66887265  0.83915005  1
  I  I63  1  0.49859118  0.00179806  0.16832812  1
  I  I64  1  0.50309221  -0.00325876  0.50320748  1
  I  I65  1  0.50090457  -0.00523789  0.82563140  1
  I  I66  1  0.49324355  0.32914293  0.16793427  1
  I  I67  1  0.50188229  0.33518941  0.49920015  1
  I  I68  1  0.49987792  0.33336524  0.83146931  1
  I  I69  1  0.50007099  0.66695983  0.16516510  1
  I  I70  1  0.50690692  0.66886139  0.50350398  1
  I  I71  1  0.50084088  0.67049323  0.83331296  1
  I  I72  1  0.83405206  -0.00372085  0.16127911  1
  I  I73  1  0.82671857  -0.00279743  0.50171259  1
  I  I74  1  0.83388380  -0.00412640  0.83547047  1
  I  I75  1  0.83328014  0.33342553  0.16790655  1
  I  I76  1  0.83109155  0.33152963  0.50006639  1
  I  I77  1  0.83873320  0.33630543  0.83107084  1
  I  I78  1  0.83894604  0.67198826  0.17313226  1
  I  I79  1  0.83079197  0.67030256  0.49873730  1
  I  I80  1  0.83447540  0.66910323  0.83140522  1
  I  I81  1  0.16893153  0.16321817  0.00333517  1
  I  I82  1  0.17253212  0.15745914  0.32903589  1
  I  I83  1  0.16672113  0.16647147  0.66657568  1
  I  I84  1  0.16375049  0.50298898  -0.00372455  1
  I  I85  1  0.16753549  0.49986272  0.33340308  1
  I  I86  1  0.16068884  0.50944041  0.67129006  1
  I  I87  1  0.16373600  0.83392189  -0.00062201  1
  I  I88  1  0.16424873  0.83878026  0.33020666  1
  I  I89  1  0.16392592  0.82837221  0.66993386  1
  I  I90  1  0.49694067  0.16505882  0.00365048  1
  I  I91  1  0.49587128  0.16277677  0.33049102  1
  I  I92  1  0.50110432  0.16867802  0.66640830  1
  I  I93  1  0.50007435  0.50035736  -0.00040304  1
  I  I94  1  0.50168073  0.50949912  0.33712948  1
  I  I95  1  0.50123671  0.50213966  0.66387248  1
  I  I96  1  0.50294657  0.83524157  -0.00255199  1
  I  I97  1  0.50436094  0.83190115  0.33604080  1
  I  I98  1  0.50416743  0.82944882  0.66670029  1
  I  I99  1  0.83309924  0.16618314  0.00027064  1
  I  I100  1  0.83165789  0.15934492  0.33640797  1
  I  I101  1  0.83074323  0.15940816  0.66339394  1
  I  I102  1  0.83633399  0.50427031  -0.00451193  1
  I  I103  1  0.83195525  0.49968033  0.33356158  1
  I  I104  1  0.83692659  0.50738049  0.67010700  1
  I  I105  1  0.83312413  0.82969025  -0.00068420  1
  I  I106  1  0.83166936  0.84003222  0.33374095  1
  I  I107  1  0.83241784  0.83320233  0.66709906  1
  I  I108  1  0.00268306  0.16232942  0.16642365  1
  I  I109  1  -0.00428712  0.15730859  0.50052704  1
  I  I110  1  -0.00006315  0.16260380  0.83530193  1
  I  I111  1  -0.00016348  0.49403120  0.17112442  1
  I  I112  1  -0.00005627  0.49925415  0.49835235  1
  I  I113  1  -0.00020880  0.50973173  0.83262661  1
  I  I114  1  0.00006239  0.84026053  0.16252930  1
  I  I115  1  -0.00325830  0.83798615  0.50250164  1
  I  I116  1  -0.00037782  0.82967253  0.83391383  1
  I  I117  1  0.33254336  0.15848829  0.16723110  1
  I  I118  1  0.33329259  0.16696633  0.50090792  1
  I  I119  1  0.33341559  0.16762162  0.82993954  1
  I  I120  1  0.33328524  0.50534556  0.16396722  1
  I  I121  1  0.33734560  0.50822540  0.50041117  1
  I  I122  1  0.33072342  0.50607911  0.83362405  1
  I  I123  1  0.33070564  0.83586631  0.16279711  1
  I  I124  1  0.33645687  0.82958374  0.50328293  1
  I  I125  1  0.33284571  0.82866943  0.83481918  1
  I  I126  1  0.66505535  0.16413730  0.16860643  1
  I  I127  1  0.66927805  0.16367448  0.49698030  1
  I  I128  1  0.66670932  0.16808134  0.83692650  1
  I  I129  1  0.66675889  0.49899817  0.16358859  1
  I  I130  1  0.66421584  0.50205659  0.50301383  1
  I  I131  1  0.66916176  0.50534646  0.83175520  1
  I  I132  1  0.66912047  0.83571835  0.16391958  1
  I  I133  1  0.66729257  0.83380641  0.50293121  1
  I  I134  1  0.66755092  0.82952995  0.83353291  1
