# generated using pymatgen
data_Cs27Sn14Pb13I81
_symmetry_space_group_name_H-M   'P 1'
_cell_length_a   18.96737077
_cell_length_b   18.98415273
_cell_length_c   18.97480208
_cell_angle_alpha   90.00126691
_cell_angle_beta   90.00015163
_cell_angle_gamma   89.99886771
_symmetry_Int_Tables_number   1
_chemical_formula_structural   Cs27Sn14Pb13I81
_chemical_formula_sum   'Cs27 Sn14 Pb13 I81'
_cell_volume   6832.43655318
_cell_formula_units_Z   1
loop_
 _symmetry_equiv_pos_site_id
 _symmetry_equiv_pos_as_xyz
  1  'x, y, z'
loop_
 _atom_site_type_symbol
 _atom_site_label
 _atom_site_symmetry_multiplicity
 _atom_site_fract_x
 _atom_site_fract_y
 _atom_site_fract_z
 _atom_site_occupancy
  Cs  Cs0  1  -0.00135047  -0.00140858  -0.00015358  1
  Cs  Cs1  1  0.00017505  0.00265261  0.33472226  1
  Cs  Cs2  1  0.00175516  0.00505862  0.66606362  1
  Cs  Cs3  1  -0.00203204  0.33579599  0.00084164  1
  Cs  Cs4  1  0.00388402  0.33497264  0.33575302  1
  Cs  Cs5  1  0.00132139  0.33314721  0.66417497  1
  Cs  Cs6  1  -0.00049150  0.66507136  0.00152057  1
  Cs  Cs7  1  0.00684014  0.66274146  0.33152105  1
  Cs  Cs8  1  -0.00270691  0.66333692  0.66750410  1
  Cs  Cs9  1  0.32890917  0.00177428  -0.00354738  1
  Cs  Cs10  1  0.33629537  -0.00288348  0.33214638  1
  Cs  Cs11  1  0.32592399  -0.00824416  0.67383041  1
  Cs  Cs12  1  0.33838945  0.32926666  -0.00308423  1
  Cs  Cs13  1  0.33698842  0.33468978  0.33287140  1
  Cs  Cs14  1  0.33094379  0.33234904  0.67013597  1
  Cs  Cs15  1  0.33078091  0.66923558  -0.00245939  1
  Cs  Cs16  1  0.32717695  0.66753688  0.33546165  1
  Cs  Cs17  1  0.33411286  0.67523964  0.66536912  1
  Cs  Cs18  1  0.66844619  0.00133288  0.00317489  1
  Cs  Cs19  1  0.66648356  0.00155676  0.33212107  1
  Cs  Cs20  1  0.66854510  -0.00379475  0.66463725  1
  Cs  Cs21  1  0.66593559  0.33354261  0.00130579  1
  Cs  Cs22  1  0.66532406  0.33281769  0.33301608  1
  Cs  Cs23  1  0.66687317  0.33557526  0.66523955  1
  Cs  Cs24  1  0.66869856  0.66567116  -0.00012674  1
  Cs  Cs25  1  0.66682750  0.66647095  0.33408419  1
  Cs  Cs26  1  0.66655786  0.66642476  0.66600014  1
  Sn  Sn27  1  0.50069148  0.49927373  0.49927235  1
  Sn  Sn28  1  0.49986055  0.16676094  0.50025280  1
  Sn  Sn29  1  0.83265340  0.16702416  0.83383742  1
  Sn  Sn30  1  0.83302001  0.83336595  0.83336626  1
  Sn  Sn31  1  0.83260747  0.50063880  0.50027765  1
  Sn  Sn32  1  0.83265845  0.83374582  0.16734641  1
  Sn  Sn33  1  0.83386042  0.49966115  0.83260810  1
  Sn  Sn34  1  0.83321334  0.83233195  0.49918315  1
  Sn  Sn35  1  0.49986610  0.16642395  0.16739663  1
  Sn  Sn36  1  0.16658702  0.16699719  0.16705493  1
  Sn  Sn37  1  0.83368259  0.16634564  0.16627460  1
  Sn  Sn38  1  0.16620119  0.49992484  0.83336514  1
  Sn  Sn39  1  0.50074410  0.83325888  0.16652036  1
  Sn  Sn40  1  0.50022366  0.50047413  0.16732302  1
  Pb  Pb41  1  0.50029024  0.50006236  0.83259930  1
  Pb  Pb42  1  0.17078647  0.16674251  0.49774055  1
  Pb  Pb43  1  0.50253807  0.83354335  0.83630354  1
  Pb  Pb44  1  0.83204150  0.49993732  0.16709458  1
  Pb  Pb45  1  0.50223983  0.16639792  0.83279168  1
  Pb  Pb46  1  0.16621302  0.83558013  0.16665243  1
  Pb  Pb47  1  0.16298271  0.83344798  0.49981356  1
  Pb  Pb48  1  0.16332004  0.83093924  0.83356812  1
  Pb  Pb49  1  0.16371172  0.16860787  0.83546719  1
  Pb  Pb50  1  0.17031011  0.49760790  0.16437732  1
  Pb  Pb51  1  0.16747095  0.49986236  0.50222619  1
  Pb  Pb52  1  0.83184289  0.16705751  0.49960398  1
  Pb  Pb53  1  0.50175062  0.83331155  0.49796127  1
  I  I54  1  0.17036588  0.00349344  0.16543700  1
  I  I55  1  0.16588871  0.00024882  0.50050030  1
  I  I56  1  0.16663936  0.00009263  0.83415795  1
  I  I57  1  0.16362501  0.32995173  0.16572350  1
  I  I58  1  0.16022472  0.33332704  0.50010471  1
  I  I59  1  0.15993216  0.33622467  0.83407717  1
  I  I60  1  0.16646543  0.66641118  0.16566086  1
  I  I61  1  0.17128469  0.66643015  0.49915959  1
  I  I62  1  0.16132984  0.66320825  0.83462594  1
  I  I63  1  0.50235812  0.00088198  0.17082951  1
  I  I64  1  0.50370507  0.00242306  0.49345305  1
  I  I65  1  0.50176680  0.00000792  0.83221308  1
  I  I66  1  0.50092189  0.33261887  0.16996764  1
  I  I67  1  0.50749689  0.33407723  0.49037932  1
  I  I68  1  0.50365251  0.33337099  0.83899664  1
  I  I69  1  0.50740569  0.66672138  0.16904306  1
  I  I70  1  0.50310905  0.66380630  0.49625576  1
  I  I71  1  0.50194192  0.66659310  0.83464394  1
  I  I72  1  0.82889101  0.00034830  0.16350442  1
  I  I73  1  0.83116844  -0.00217909  0.50196115  1
  I  I74  1  0.83052182  -0.00006902  0.83506979  1
  I  I75  1  0.83140409  0.33055744  0.16285821  1
  I  I76  1  0.83092821  0.33601433  0.50354824  1
  I  I77  1  0.83640919  0.33368707  0.83429516  1
  I  I78  1  0.82766678  0.66919315  0.16378846  1
  I  I79  1  0.82708328  0.66594776  0.50385007  1
  I  I80  1  0.83674308  0.66645379  0.83344037  1
  I  I81  1  0.17278545  0.16719803  0.00339790  1
  I  I82  1  0.15888035  0.16766531  0.32944626  1
  I  I83  1  0.16625505  0.16754831  0.66694287  1
  I  I84  1  0.15814176  0.50016861  -0.00293179  1
  I  I85  1  0.16353349  0.49918682  0.33318949  1
  I  I86  1  0.16430915  0.49816158  0.66997226  1
  I  I87  1  0.16556780  0.83260964  0.00013022  1
  I  I88  1  0.16390089  0.83214917  0.33290485  1
  I  I89  1  0.16818535  0.83412722  0.66691414  1
  I  I90  1  0.49921315  0.16808881  0.00371352  1
  I  I91  1  0.50342973  0.16800064  0.33136031  1
  I  I92  1  0.50456308  0.17488250  0.66346061  1
  I  I93  1  0.50119260  0.49807363  0.00284724  1
  I  I94  1  0.50696107  0.49783639  0.33320554  1
  I  I95  1  0.50254645  0.49402843  0.66327669  1
  I  I96  1  0.50618895  0.83346840  0.00482358  1
  I  I97  1  0.50766836  0.83480320  0.32975561  1
  I  I98  1  0.50150859  0.83243108  0.66638959  1
  I  I99  1  0.83119334  0.16442049  0.00122192  1
  I  I100  1  0.83346285  0.16310435  0.33009276  1
  I  I101  1  0.83087552  0.16447697  0.66895272  1
  I  I102  1  0.83493847  0.50174085  -0.00226974  1
  I  I103  1  0.82980374  0.50255798  0.33596271  1
  I  I104  1  0.83129085  0.50280280  0.66679187  1
  I  I105  1  0.82944089  0.83401904  0.00043025  1
  I  I106  1  0.82794346  0.83472898  0.33239632  1
  I  I107  1  0.83364250  0.83252554  0.66681095  1
  I  I108  1  -0.00167049  0.16147008  0.16095782  1
  I  I109  1  -0.00016684  0.16637691  0.49909034  1
  I  I110  1  -0.00474422  0.16372417  0.83814603  1
  I  I111  1  0.00003627  0.49962121  0.16872133  1
  I  I112  1  -0.00318325  0.50426568  0.50207616  1
  I  I113  1  -0.00291126  0.50017637  0.82876256  1
  I  I114  1  -0.00404669  0.83769509  0.16559211  1
  I  I115  1  -0.00588534  0.82741324  0.49687057  1
  I  I116  1  -0.00522101  0.83602725  0.83713372  1
  I  I117  1  0.33490703  0.16790521  0.17170319  1
  I  I118  1  0.33882659  0.17499267  0.49323188  1
  I  I119  1  0.33317814  0.17033635  0.83489871  1
  I  I120  1  0.33846211  0.50066886  0.17158520  1
  I  I121  1  0.33708348  0.49469085  0.49599993  1
  I  I122  1  0.33117935  0.49755400  0.83604435  1
  I  I123  1  0.33657869  0.83372415  0.16803042  1
  I  I124  1  0.33373037  0.83261089  0.49810864  1
  I  I125  1  0.33312423  0.83128854  0.83426575  1
  I  I126  1  0.66667884  0.16555164  0.16601330  1
  I  I127  1  0.66413756  0.16843615  0.49312922  1
  I  I128  1  0.67081897  0.16996088  0.84046833  1
  I  I129  1  0.66397586  0.49535262  0.16530967  1
  I  I130  1  0.66725755  0.49997557  0.50236848  1
  I  I131  1  0.67020669  0.50056253  0.83259563  1
  I  I132  1  0.66782681  0.83849499  0.16598011  1
  I  I133  1  0.67023714  0.83177499  0.50235927  1
  I  I134  1  0.67125555  0.82944703  0.83142137  1
