# generated using pymatgen
data_Cs27Sn13Pb14I81
_symmetry_space_group_name_H-M   'P 1'
_cell_length_a   18.96941704
_cell_length_b   18.97907005
_cell_length_c   18.98083366
_cell_angle_alpha   90.00029041
_cell_angle_beta   89.99808456
_cell_angle_gamma   90.00323684
_symmetry_Int_Tables_number   1
_chemical_formula_structural   Cs27Sn13Pb14I81
_chemical_formula_sum   'Cs27 Sn13 Pb14 I81'
_cell_volume   6833.51568147
_cell_formula_units_Z   1
loop_
 _symmetry_equiv_pos_site_id
 _symmetry_equiv_pos_as_xyz
  1  'x, y, z'
loop_
 _atom_site_type_symbol
 _atom_site_label
 _atom_site_symmetry_multiplicity
 _atom_site_fract_x
 _atom_site_fract_y
 _atom_site_fract_z
 _atom_site_occupancy
  Cs  Cs0  1  0.00057895  0.00075293  -0.00202599  1
  Cs  Cs1  1  -0.00014568  0.00063002  0.33669243  1
  Cs  Cs2  1  -0.00343807  -0.00451044  0.66627611  1
  Cs  Cs3  1  -0.00209419  0.33285822  0.00442309  1
  Cs  Cs4  1  0.00029137  0.33457672  0.32918178  1
  Cs  Cs5  1  -0.00108824  0.33143473  0.66627385  1
  Cs  Cs6  1  0.00357089  0.66451617  -0.00220071  1
  Cs  Cs7  1  0.00851702  0.66122899  0.33437439  1
  Cs  Cs8  1  0.00663756  0.67463954  0.66749799  1
  Cs  Cs9  1  0.33321507  -0.00006503  0.00576763  1
  Cs  Cs10  1  0.33456960  0.00023632  0.32911187  1
  Cs  Cs11  1  0.33568739  0.00318875  0.66666942  1
  Cs  Cs12  1  0.33241952  0.33237675  -0.00593094  1
  Cs  Cs13  1  0.33316533  0.33093990  0.33561022  1
  Cs  Cs14  1  0.33457872  0.33375519  0.66886167  1
  Cs  Cs15  1  0.32706067  0.67075822  -0.00314656  1
  Cs  Cs16  1  0.33263593  0.67094373  0.33444075  1
  Cs  Cs17  1  0.32755500  0.66416080  0.66735471  1
  Cs  Cs18  1  0.66645154  -0.00067472  0.00052772  1
  Cs  Cs19  1  0.66621309  0.00024681  0.33381442  1
  Cs  Cs20  1  0.66863261  -0.00078475  0.66591520  1
  Cs  Cs21  1  0.66745696  0.33368649  -0.00165501  1
  Cs  Cs22  1  0.66750098  0.33450087  0.33432570  1
  Cs  Cs23  1  0.66546044  0.33288100  0.66683146  1
  Cs  Cs24  1  0.66805109  0.66747542  0.00294320  1
  Cs  Cs25  1  0.66441592  0.66320494  0.33058495  1
  Cs  Cs26  1  0.66677409  0.66718316  0.66684157  1
  Sn  Sn27  1  0.16730324  0.16687872  0.50091506  1
  Sn  Sn28  1  0.49988689  0.49899748  0.16686480  1
  Sn  Sn29  1  0.83395107  0.16726609  0.83380504  1
  Sn  Sn30  1  0.50069974  0.50003980  0.49940595  1
  Sn  Sn31  1  0.83294100  0.50021198  0.50125678  1
  Sn  Sn32  1  0.49950938  0.16676768  0.49934125  1
  Sn  Sn33  1  0.16549474  0.16666251  0.83233395  1
  Sn  Sn34  1  0.83221966  0.16543673  0.16608115  1
  Sn  Sn35  1  0.83350947  0.83383781  0.16716928  1
  Sn  Sn36  1  0.50117328  0.16809483  0.16735366  1
  Sn  Sn37  1  0.83300164  0.49972555  0.83193533  1
  Sn  Sn38  1  0.50055135  0.83317747  0.50118458  1
  Sn  Sn39  1  0.50031337  0.83330621  0.83260789  1
  Pb  Pb40  1  0.16717766  0.49749252  0.50007732  1
  Pb  Pb41  1  0.16958759  0.83644867  0.49992945  1
  Pb  Pb42  1  0.16946183  0.83660052  0.83323621  1
  Pb  Pb43  1  0.17101758  0.49966628  0.16670309  1
  Pb  Pb44  1  0.83132335  0.83003899  0.49741707  1
  Pb  Pb45  1  0.83186602  0.83335856  0.83482247  1
  Pb  Pb46  1  0.16663497  0.16675439  0.16671964  1
  Pb  Pb47  1  0.16326283  0.49735436  0.83314071  1
  Pb  Pb48  1  0.83301151  0.16807502  0.49984054  1
  Pb  Pb49  1  0.16278634  0.83356381  0.16675988  1
  Pb  Pb50  1  0.50100930  0.83331027  0.16698471  1
  Pb  Pb51  1  0.50167363  0.50226938  0.83326472  1
  Pb  Pb52  1  0.50060626  0.16528265  0.83349328  1
  Pb  Pb53  1  0.83204211  0.49973762  0.16675748  1
  I  I54  1  0.17315308  0.00055119  0.16658587  1
  I  I55  1  0.17046853  0.00455939  0.50324365  1
  I  I56  1  0.15933838  0.00441473  0.82911273  1
  I  I57  1  0.16093065  0.33283182  0.16710356  1
  I  I58  1  0.17323548  0.32956451  0.50342382  1
  I  I59  1  0.16873918  0.32927620  0.82969824  1
  I  I60  1  0.16622939  0.66662269  0.16657275  1
  I  I61  1  0.16664401  0.66662644  0.49935529  1
  I  I62  1  0.16630756  0.66683620  0.83425415  1
  I  I63  1  0.50185090  0.00290451  0.16942712  1
  I  I64  1  0.49543822  0.00101792  0.49944403  1
  I  I65  1  0.50194258  -0.00227762  0.82963671  1
  I  I66  1  0.50643394  0.33206435  0.17435214  1
  I  I67  1  0.50008415  0.33294684  0.49495706  1
  I  I68  1  0.49864571  0.33322723  0.83200661  1
  I  I69  1  0.50411983  0.66436393  0.17034908  1
  I  I70  1  0.50677764  0.66585459  0.49864042  1
  I  I71  1  0.50397091  0.66979991  0.83076797  1
  I  I72  1  0.82618487  0.00220843  0.16117134  1
  I  I73  1  0.83242656  0.00001534  0.50164564  1
  I  I74  1  0.83542541  0.00315371  0.83602097  1
  I  I75  1  0.83106377  0.33048511  0.16518778  1
  I  I76  1  0.82713547  0.33586389  0.49949153  1
  I  I77  1  0.83509856  0.33221455  0.83592419  1
  I  I78  1  0.82845682  0.66819631  0.16657083  1
  I  I79  1  0.82618596  0.66219374  0.50401389  1
  I  I80  1  0.82823741  0.66411411  0.83214401  1
  I  I81  1  0.16601587  0.16661879  -0.00267580  1
  I  I82  1  0.16887889  0.16694694  0.33606763  1
  I  I83  1  0.16822085  0.16760423  0.66640217  1
  I  I84  1  0.16635341  0.49744566  -0.00019231  1
  I  I85  1  0.15979930  0.49651693  0.33358791  1
  I  I86  1  0.17167252  0.49924825  0.66662488  1
  I  I87  1  0.17189432  0.83603736  -0.00019225  1
  I  I88  1  0.16958489  0.83583903  0.33354613  1
  I  I89  1  0.16398802  0.83280763  0.66655565  1
  I  I90  1  0.50102622  0.16877775  0.00270356  1
  I  I91  1  0.49991988  0.16516716  0.33391146  1
  I  I92  1  0.49923645  0.16867369  0.66389456  1
  I  I93  1  0.50336699  0.49577028  0.00255219  1
  I  I94  1  0.50689414  0.50012072  0.33460758  1
  I  I95  1  0.50263261  0.49660967  0.66344057  1
  I  I96  1  0.50255696  0.83468952  -0.00158630  1
  I  I97  1  0.50181582  0.83375365  0.33609090  1
  I  I98  1  0.50197322  0.83513291  0.66542083  1
  I  I99  1  0.83278187  0.16899211  -0.00005267  1
  I  I100  1  0.83171230  0.16491479  0.33082638  1
  I  I101  1  0.83332539  0.16960875  0.66900337  1
  I  I102  1  0.83091546  0.49806398  -0.00200638  1
  I  I103  1  0.82942462  0.49919961  0.33567112  1
  I  I104  1  0.82570067  0.49265213  0.66655166  1
  I  I105  1  0.82744577  0.83370026  0.00257969  1
  I  I106  1  0.82893529  0.84093591  0.32996996  1
  I  I107  1  0.83244316  0.83563264  0.66637889  1
  I  I108  1  -0.00327793  0.16300021  0.16582262  1
  I  I109  1  0.00183157  0.16956657  0.50034707  1
  I  I110  1  -0.00126212  0.17060673  0.83375568  1
  I  I111  1  -0.00027178  0.50003705  0.16744339  1
  I  I112  1  -0.00294742  0.49719539  0.50267701  1
  I  I113  1  -0.00505553  0.49964894  0.82888885  1
  I  I114  1  -0.00523334  0.84072098  0.16504828  1
  I  I115  1  -0.00016065  0.83342995  0.49837545  1
  I  I116  1  -0.00005792  0.83150929  0.83570530  1
  I  I117  1  0.33673766  0.16996286  0.16758331  1
  I  I118  1  0.33529682  0.16818541  0.50022307  1
  I  I119  1  0.33176954  0.16379353  0.83245936  1
  I  I120  1  0.33926254  0.49389463  0.17348956  1
  I  I121  1  0.33726644  0.50160994  0.49517380  1
  I  I122  1  0.33339355  0.49976179  0.83404861  1
  I  I123  1  0.33364726  0.83359142  0.16621667  1
  I  I124  1  0.33826872  0.82771834  0.50218445  1
  I  I125  1  0.33747723  0.83344824  0.83067835  1
  I  I126  1  0.66628050  0.16661788  0.16666314  1
  I  I127  1  0.66353116  0.16576372  0.49902657  1
  I  I128  1  0.66944684  0.16898413  0.83471985  1
  I  I129  1  0.66394078  0.49813728  0.16901376  1
  I  I130  1  0.66525192  0.49661484  0.49963251  1
  I  I131  1  0.66955024  0.49223853  0.83224152  1
  I  I132  1  0.66864762  0.83584170  0.16607831  1
  I  I133  1  0.66291643  0.83980124  0.50294689  1
  I  I134  1  0.66402065  0.83673236  0.83001162  1
