# generated using pymatgen
data_Cs27Sn13Pb14I81
_symmetry_space_group_name_H-M   'P 1'
_cell_length_a   18.98472748
_cell_length_b   18.97581279
_cell_length_c   18.97175966
_cell_angle_alpha   90.00072598
_cell_angle_beta   89.99923298
_cell_angle_gamma   89.99962920
_symmetry_Int_Tables_number   1
_chemical_formula_structural   Cs27Sn13Pb14I81
_chemical_formula_sum   'Cs27 Sn13 Pb14 I81'
_cell_volume   6834.58845021
_cell_formula_units_Z   1
loop_
 _symmetry_equiv_pos_site_id
 _symmetry_equiv_pos_as_xyz
  1  'x, y, z'
loop_
 _atom_site_type_symbol
 _atom_site_label
 _atom_site_symmetry_multiplicity
 _atom_site_fract_x
 _atom_site_fract_y
 _atom_site_fract_z
 _atom_site_occupancy
  Cs  Cs0  1  0.00071542  -0.00033211  -0.00028636  1
  Cs  Cs1  1  -0.00071017  -0.00358857  0.33084705  1
  Cs  Cs2  1  0.00047689  0.00022276  0.66779725  1
  Cs  Cs3  1  0.00017003  0.33474269  0.00021741  1
  Cs  Cs4  1  -0.00044403  0.33321291  0.32914121  1
  Cs  Cs5  1  -0.00070815  0.33273388  0.66862841  1
  Cs  Cs6  1  0.00127143  0.66493621  -0.00010543  1
  Cs  Cs7  1  -0.00040060  0.66894861  0.33820868  1
  Cs  Cs8  1  0.00156805  0.66670873  0.66131928  1
  Cs  Cs9  1  0.33193305  -0.00208780  0.00109722  1
  Cs  Cs10  1  0.33271871  0.00245248  0.33591455  1
  Cs  Cs11  1  0.33477392  0.00076872  0.66583559  1
  Cs  Cs12  1  0.33283175  0.33631392  0.00266492  1
  Cs  Cs13  1  0.33763634  0.33229047  0.33026491  1
  Cs  Cs14  1  0.33264233  0.33433402  0.66717699  1
  Cs  Cs15  1  0.33740786  0.66644727  -0.00171172  1
  Cs  Cs16  1  0.33183086  0.66352122  0.33509709  1
  Cs  Cs17  1  0.33290220  0.65932324  0.66719702  1
  Cs  Cs18  1  0.66630993  -0.00439207  0.00326010  1
  Cs  Cs19  1  0.66711928  -0.00284388  0.32861186  1
  Cs  Cs20  1  0.66400826  0.00303827  0.66737360  1
  Cs  Cs21  1  0.66982454  0.33430350  0.00189021  1
  Cs  Cs22  1  0.66322904  0.33547281  0.33343572  1
  Cs  Cs23  1  0.66800079  0.32953112  0.66492712  1
  Cs  Cs24  1  0.66077627  0.66934601  0.00047431  1
  Cs  Cs25  1  0.66830716  0.66638966  0.33366217  1
  Cs  Cs26  1  0.66549777  0.66484967  0.66564051  1
  Sn  Sn27  1  0.83430340  0.50024683  0.16585679  1
  Sn  Sn28  1  0.49987360  0.83399094  0.50038866  1
  Sn  Sn29  1  0.16603975  0.83376484  0.83368492  1
  Sn  Sn30  1  0.16563951  0.50133251  0.16646664  1
  Sn  Sn31  1  0.16683572  0.16600197  0.83270183  1
  Sn  Sn32  1  0.49991803  0.16658755  0.83338642  1
  Sn  Sn33  1  0.83397169  0.83336926  0.83304534  1
  Sn  Sn34  1  0.16655179  0.83230489  0.16604905  1
  Sn  Sn35  1  0.83352339  0.16638174  0.50019929  1
  Sn  Sn36  1  0.83359716  0.50035624  0.83392164  1
  Sn  Sn37  1  0.16630437  0.16660074  0.50072682  1
  Sn  Sn38  1  0.50014726  0.16545777  0.50090681  1
  Sn  Sn39  1  0.83326698  0.16624273  0.83299425  1
  Pb  Pb40  1  0.50022809  0.50023693  0.16645365  1
  Pb  Pb41  1  0.83353583  0.49767010  0.50020550  1
  Pb  Pb42  1  0.50017828  0.16635306  0.16647236  1
  Pb  Pb43  1  0.16482569  0.50000111  0.83469087  1
  Pb  Pb44  1  0.83541198  0.83077455  0.16431116  1
  Pb  Pb45  1  0.16656293  0.16645395  0.16614665  1
  Pb  Pb46  1  0.50000273  0.49942095  0.50026212  1
  Pb  Pb47  1  0.83137837  0.83595470  0.50262527  1
  Pb  Pb48  1  0.16826315  0.83527817  0.50079502  1
  Pb  Pb49  1  0.49692155  0.83339863  0.16947791  1
  Pb  Pb50  1  0.50317826  0.49687233  0.83329658  1
  Pb  Pb51  1  0.16645941  0.49673205  0.49710660  1
  Pb  Pb52  1  0.83330195  0.16833330  0.16623246  1
  Pb  Pb53  1  0.49948737  0.83521296  0.83163086  1
  I  I54  1  0.16769018  -0.00254710  0.16502604  1
  I  I55  1  0.16521922  0.00369369  0.49940906  1
  I  I56  1  0.16201484  0.00082028  0.83562046  1
  I  I57  1  0.16280353  0.33571823  0.16716459  1
  I  I58  1  0.16909182  0.32833006  0.50590182  1
  I  I59  1  0.16601622  0.33004739  0.83092028  1
  I  I60  1  0.16288170  0.66708112  0.16094406  1
  I  I61  1  0.16964052  0.66682022  0.50215491  1
  I  I62  1  0.16241304  0.66962186  0.83563586  1
  I  I63  1  0.49860497  -0.00018528  0.16513157  1
  I  I64  1  0.49933715  0.00229605  0.50452741  1
  I  I65  1  0.50390971  0.00358552  0.83040068  1
  I  I66  1  0.49703887  0.33332565  0.16901084  1
  I  I67  1  0.50055194  0.32900858  0.50331263  1
  I  I68  1  0.49801630  0.32837460  0.82626903  1
  I  I69  1  0.50194295  0.66688766  0.16852130  1
  I  I70  1  0.49926580  0.66957160  0.49931910  1
  I  I71  1  0.49992434  0.66681695  0.83133407  1
  I  I72  1  0.83469546  -0.00038131  0.16646381  1
  I  I73  1  0.83575816  0.00427195  0.50569193  1
  I  I74  1  0.83457056  0.00103012  0.82815265  1
  I  I75  1  0.84038753  0.33628085  0.16098562  1
  I  I76  1  0.83080273  0.32910976  0.50566861  1
  I  I77  1  0.83308965  0.33202503  0.83341633  1
  I  I78  1  0.83509116  0.66285139  0.16167446  1
  I  I79  1  0.83071344  0.66693235  0.50095183  1
  I  I80  1  0.83843282  0.66696652  0.83850897  1
  I  I81  1  0.16550636  0.16607495  -0.00364453  1
  I  I82  1  0.16783873  0.16733237  0.33620817  1
  I  I83  1  0.16633144  0.16155086  0.66793631  1
  I  I84  1  0.16372430  0.49761721  0.00267977  1
  I  I85  1  0.15988165  0.50535517  0.32911679  1
  I  I86  1  0.16573054  0.50208304  0.66676034  1
  I  I87  1  0.16292703  0.83683506  -0.00134093  1
  I  I88  1  0.16913833  0.83119845  0.33112681  1
  I  I89  1  0.16328373  0.83711659  0.67003643  1
  I  I90  1  0.50008921  0.16761549  -0.00379163  1
  I  I91  1  0.49901892  0.16433977  0.33720302  1
  I  I92  1  0.50054693  0.16322511  0.66662769  1
  I  I93  1  0.49845966  0.49762315  -0.00029052  1
  I  I94  1  0.50162451  0.49642443  0.33334706  1
  I  I95  1  0.50067763  0.50201268  0.66695008  1
  I  I96  1  0.50174563  0.83487131  -0.00029062  1
  I  I97  1  0.49949563  0.84219133  0.33723625  1
  I  I98  1  0.49874501  0.83804472  0.66395844  1
  I  I99  1  0.83425153  0.16582031  -0.00406148  1
  I  I100  1  0.83304553  0.16910247  0.33640297  1
  I  I101  1  0.83313324  0.16911343  0.66812461  1
  I  I102  1  0.83782566  0.49556391  -0.00108940  1
  I  I103  1  0.83689724  0.49713155  0.33041512  1
  I  I104  1  0.83267964  0.49994054  0.67007384  1
  I  I105  1  0.83369823  0.84043439  -0.00404621  1
  I  I106  1  0.83362814  0.83363764  0.33342739  1
  I  I107  1  0.84066946  0.82891680  0.67093704  1
  I  I108  1  0.00010130  0.16604559  0.16842730  1
  I  I109  1  -0.00001827  0.16850623  0.50677412  1
  I  I110  1  -0.00020356  0.16640337  0.82782921  1
  I  I111  1  -0.00004989  0.50141717  0.16190612  1
  I  I112  1  -0.00005133  0.49855382  0.50122718  1
  I  I113  1  -0.00317433  0.49392967  0.83566580  1
  I  I114  1  0.00337430  0.83331482  0.16626205  1
  I  I115  1  0.00007922  0.83505646  0.49800094  1
  I  I116  1  0.00028994  0.83924370  0.83686224  1
  I  I117  1  0.33306344  0.16989315  0.16705233  1
  I  I118  1  0.33338980  0.16291425  0.50547204  1
  I  I119  1  0.33238034  0.16157625  0.82745758  1
  I  I120  1  0.32998072  0.50219851  0.16749651  1
  I  I121  1  0.33313673  0.49750131  0.49785731  1
  I  I122  1  0.33321745  0.49963106  0.83512828  1
  I  I123  1  0.32895454  0.82792609  0.15859441  1
  I  I124  1  0.33584801  0.84163878  0.50055856  1
  I  I125  1  0.33011559  0.83894161  0.83648049  1
  I  I126  1  0.66686372  0.16980419  0.16671911  1
  I  I127  1  0.66666789  0.16439729  0.50743479  1
  I  I128  1  0.66760702  0.16795040  0.82696180  1
  I  I129  1  0.67014064  0.49681146  0.16279410  1
  I  I130  1  0.66690346  0.49750542  0.49764902  1
  I  I131  1  0.67154232  0.50095974  0.83956915  1
  I  I132  1  0.66683229  0.83242729  0.16596164  1
  I  I133  1  0.66371018  0.83973480  0.50185097  1
  I  I134  1  0.66940280  0.83421654  0.83126108  1
