# generated using pymatgen
data_Cs27Sn13Pb14I81
_symmetry_space_group_name_H-M   'P 1'
_cell_length_a   18.97683278
_cell_length_b   18.96972578
_cell_length_c   18.98491676
_cell_angle_alpha   89.99848606
_cell_angle_beta   89.99998975
_cell_angle_gamma   89.99800739
_symmetry_Int_Tables_number   1
_chemical_formula_structural   Cs27Sn13Pb14I81
_chemical_formula_sum   'Cs27 Sn13 Pb14 I81'
_cell_volume   6834.29121587
_cell_formula_units_Z   1
loop_
 _symmetry_equiv_pos_site_id
 _symmetry_equiv_pos_as_xyz
  1  'x, y, z'
loop_
 _atom_site_type_symbol
 _atom_site_label
 _atom_site_symmetry_multiplicity
 _atom_site_fract_x
 _atom_site_fract_y
 _atom_site_fract_z
 _atom_site_occupancy
  Cs  Cs0  1  -0.00218300  -0.00160918  -0.00097923  1
  Cs  Cs1  1  0.00211235  -0.00377883  0.33557549  1
  Cs  Cs2  1  -0.00440197  -0.00196088  0.66442053  1
  Cs  Cs3  1  -0.00004143  0.33314633  0.00013152  1
  Cs  Cs4  1  0.00071991  0.33418816  0.33392006  1
  Cs  Cs5  1  -0.00013522  0.33224609  0.66586197  1
  Cs  Cs6  1  0.00111383  0.67103201  0.00417323  1
  Cs  Cs7  1  -0.00247747  0.67056043  0.33247843  1
  Cs  Cs8  1  0.00322865  0.66927379  0.66452870  1
  Cs  Cs9  1  0.33402626  0.00042252  0.00140921  1
  Cs  Cs10  1  0.33486460  0.00044055  0.33230110  1
  Cs  Cs11  1  0.33268988  -0.00095774  0.66723137  1
  Cs  Cs12  1  0.33143202  0.33283280  0.00102205  1
  Cs  Cs13  1  0.33348936  0.33218832  0.33347933  1
  Cs  Cs14  1  0.33322499  0.33605484  0.66530596  1
  Cs  Cs15  1  0.33340481  0.66725485  -0.00696314  1
  Cs  Cs16  1  0.33395427  0.66767773  0.33305974  1
  Cs  Cs17  1  0.33537883  0.66520494  0.67715745  1
  Cs  Cs18  1  0.66661390  0.00148629  -0.00674924  1
  Cs  Cs19  1  0.66210728  0.00050726  0.33420609  1
  Cs  Cs20  1  0.67052003  -0.00178119  0.67154100  1
  Cs  Cs21  1  0.67143409  0.33133269  0.00248592  1
  Cs  Cs22  1  0.66537336  0.33356811  0.33439104  1
  Cs  Cs23  1  0.66861976  0.33496098  0.66398543  1
  Cs  Cs24  1  0.66667605  0.66852316  0.00310002  1
  Cs  Cs25  1  0.66800181  0.66645905  0.33148143  1
  Cs  Cs26  1  0.66225713  0.66664166  0.66817953  1
  Sn  Sn27  1  0.16559817  0.16732950  0.16692267  1
  Sn  Sn28  1  0.83440415  0.16671507  0.16806507  1
  Sn  Sn29  1  0.83405370  0.16741491  0.49865184  1
  Sn  Sn30  1  0.49966353  0.83308431  0.49965631  1
  Sn  Sn31  1  0.16604753  0.16735890  0.49988087  1
  Sn  Sn32  1  0.83420970  0.49939245  0.50086831  1
  Sn  Sn33  1  0.49915366  0.16773880  0.83296630  1
  Sn  Sn34  1  0.83376426  0.50005984  0.83247753  1
  Sn  Sn35  1  0.49892567  0.50051787  0.16693891  1
  Sn  Sn36  1  0.49967685  0.83239419  0.16746583  1
  Sn  Sn37  1  0.16612984  0.49952461  0.49912913  1
  Sn  Sn38  1  0.16747248  0.49942593  0.16754122  1
  Sn  Sn39  1  0.16741991  0.16705091  0.83312218  1
  Pb  Pb40  1  0.83409162  0.49856114  0.16742830  1
  Pb  Pb41  1  0.83348846  0.82933390  0.83320762  1
  Pb  Pb42  1  0.16877692  0.83323240  0.16679192  1
  Pb  Pb43  1  0.83112696  0.83302019  0.49991605  1
  Pb  Pb44  1  0.16467645  0.49809756  0.83344447  1
  Pb  Pb45  1  0.83061300  0.83710528  0.16690922  1
  Pb  Pb46  1  0.49979897  0.16685327  0.16527668  1
  Pb  Pb47  1  0.16901782  0.83274005  0.49997345  1
  Pb  Pb48  1  0.83419378  0.16785850  0.83279086  1
  Pb  Pb49  1  0.49991831  0.83550795  0.83374165  1
  Pb  Pb50  1  0.50001706  0.16520582  0.50217650  1
  Pb  Pb51  1  0.49960051  0.50177985  0.49829158  1
  Pb  Pb52  1  0.16637290  0.83653341  0.83329191  1
  Pb  Pb53  1  0.50221178  0.49747549  0.83630467  1
  I  I54  1  0.16478815  0.00375959  0.16697362  1
  I  I55  1  0.16357526  0.00367212  0.49963867  1
  I  I56  1  0.17033302  0.00556034  0.83409438  1
  I  I57  1  0.16958598  0.33265557  0.16735717  1
  I  I58  1  0.16368416  0.33254188  0.49909257  1
  I  I59  1  0.16989490  0.32976102  0.83402575  1
  I  I60  1  0.16782041  0.66305706  0.17170283  1
  I  I61  1  0.16178208  0.66278216  0.49388020  1
  I  I62  1  0.16566458  0.66604795  0.83311827  1
  I  I63  1  0.50068558  -0.00179412  0.16870684  1
  I  I64  1  0.49939428  -0.00245466  0.49313826  1
  I  I65  1  0.49749157  0.00347478  0.83615689  1
  I  I66  1  0.49901562  0.33555741  0.16473088  1
  I  I67  1  0.50070643  0.33340037  0.49931563  1
  I  I68  1  0.49573402  0.32990289  0.83442616  1
  I  I69  1  0.49588875  0.66588442  0.17058337  1
  I  I70  1  0.50080112  0.66947189  0.49744632  1
  I  I71  1  0.50194364  0.66634978  0.83216269  1
  I  I72  1  0.83863259  0.00533462  0.17110298  1
  I  I73  1  0.83714804  0.00346465  0.49667320  1
  I  I74  1  0.83203012  0.00039122  0.83387607  1
  I  I75  1  0.83138000  0.33042959  0.16706878  1
  I  I76  1  0.83592322  0.33286616  0.50017322  1
  I  I77  1  0.83261296  0.33539899  0.83225347  1
  I  I78  1  0.83479487  0.66660155  0.16582143  1
  I  I79  1  0.83720813  0.66301091  0.50389090  1
  I  I80  1  0.83206363  0.66139486  0.82753515  1
  I  I81  1  0.16724456  0.17064035  0.00111212  1
  I  I82  1  0.16244213  0.17060493  0.33334968  1
  I  I83  1  0.16718242  0.17048629  0.66558516  1
  I  I84  1  0.16908100  0.49515789  0.00296948  1
  I  I85  1  0.16574764  0.49139864  0.33341416  1
  I  I86  1  0.16445999  0.49554391  0.66365649  1
  I  I87  1  0.16981144  0.83248294  0.00025025  1
  I  I88  1  0.16724476  0.83835329  0.33336506  1
  I  I89  1  0.17094866  0.83250721  0.66639280  1
  I  I90  1  0.49730383  0.16543186  -0.00234965  1
  I  I91  1  0.49911181  0.16686287  0.33334874  1
  I  I92  1  0.49664947  0.16442742  0.66967412  1
  I  I93  1  0.49544667  0.50531052  0.00416094  1
  I  I94  1  0.50099474  0.49946451  0.33025121  1
  I  I95  1  0.49824604  0.50181944  0.66668788  1
  I  I96  1  0.49982039  0.83064116  0.00301416  1
  I  I97  1  0.50005242  0.83185000  0.33244384  1
  I  I98  1  0.50027360  0.83544612  0.66438313  1
  I  I99  1  0.83486610  0.16907008  0.00195359  1
  I  I100  1  0.83877411  0.17243671  0.33411895  1
  I  I101  1  0.83550417  0.16863347  0.66366336  1
  I  I102  1  0.83177175  0.49613665  -0.00117660  1
  I  I103  1  0.83357631  0.49702428  0.33623714  1
  I  I104  1  0.83720345  0.49241387  0.66476852  1
  I  I105  1  0.83019112  0.83421204  0.00024122  1
  I  I106  1  0.83330016  0.82933204  0.33333760  1
  I  I107  1  0.82928411  0.84013947  0.66636388  1
  I  I108  1  0.00131359  0.17339410  0.16440104  1
  I  I109  1  0.00055405  0.17022319  0.50134586  1
  I  I110  1  0.00293823  0.16909661  0.83427347  1
  I  I111  1  0.00301492  0.49562114  0.16680403  1
  I  I112  1  0.00039043  0.49498471  0.49837441  1
  I  I113  1  -0.00284126  0.49467932  0.83394021  1
  I  I114  1  0.00004393  0.83089610  0.16560320  1
  I  I115  1  0.00009244  0.83410174  0.50104914  1
  I  I116  1  -0.00012091  0.83701824  0.83332494  1
  I  I117  1  0.33033159  0.16742064  0.16867224  1
  I  I118  1  0.32997488  0.16967879  0.49729774  1
  I  I119  1  0.33210676  0.16678145  0.83460402  1
  I  I120  1  0.33213133  0.49645658  0.17212017  1
  I  I121  1  0.33013082  0.49503662  0.49676051  1
  I  I122  1  0.33312864  0.50056480  0.83122962  1
  I  I123  1  0.33668906  0.83564672  0.17106321  1
  I  I124  1  0.33655794  0.83556968  0.49464810  1
  I  I125  1  0.33351377  0.83091517  0.83261084  1
  I  I126  1  0.66887692  0.16746784  0.16861637  1
  I  I127  1  0.66969525  0.17005279  0.49675565  1
  I  I128  1  0.66533541  0.16714099  0.83516030  1
  I  I129  1  0.66487594  0.50154407  0.16611370  1
  I  I130  1  0.66940649  0.49611409  0.50184671  1
  I  I131  1  0.66976645  0.49569654  0.82784103  1
  I  I132  1  0.66271872  0.82734805  0.17057639  1
  I  I133  1  0.66342658  0.83437897  0.49538363  1
  I  I134  1  0.66640398  0.83859328  0.83345449  1
