# generated using pymatgen
data_Cs27Sn14Pb13I81
_symmetry_space_group_name_H-M   'P 1'
_cell_length_a   18.97248692
_cell_length_b   18.97721794
_cell_length_c   18.97703044
_cell_angle_alpha   90.00138610
_cell_angle_beta   90.00000654
_cell_angle_gamma   89.99694619
_symmetry_Int_Tables_number   1
_chemical_formula_structural   Cs27Sn14Pb13I81
_chemical_formula_sum   'Cs27 Sn14 Pb13 I81'
_cell_volume   6832.58527909
_cell_formula_units_Z   1
loop_
 _symmetry_equiv_pos_site_id
 _symmetry_equiv_pos_as_xyz
  1  'x, y, z'
loop_
 _atom_site_type_symbol
 _atom_site_label
 _atom_site_symmetry_multiplicity
 _atom_site_fract_x
 _atom_site_fract_y
 _atom_site_fract_z
 _atom_site_occupancy
  Cs  Cs0  1  0.00033382  -0.00488620  0.00274232  1
  Cs  Cs1  1  0.00153471  0.00109486  0.33168054  1
  Cs  Cs2  1  -0.00170591  -0.00011531  0.66566758  1
  Cs  Cs3  1  0.00122973  0.34146499  -0.00624687  1
  Cs  Cs4  1  0.00378538  0.33113305  0.33512707  1
  Cs  Cs5  1  -0.00493759  0.33603286  0.66772912  1
  Cs  Cs6  1  0.00951020  0.66474986  0.00688865  1
  Cs  Cs7  1  -0.00662810  0.66765025  0.32936327  1
  Cs  Cs8  1  0.00217166  0.66432504  0.66697170  1
  Cs  Cs9  1  0.33358038  0.00003437  -0.00221274  1
  Cs  Cs10  1  0.33309697  0.00335919  0.33527426  1
  Cs  Cs11  1  0.33459706  -0.00028581  0.66597166  1
  Cs  Cs12  1  0.33533326  0.33495018  0.00223571  1
  Cs  Cs13  1  0.33107480  0.33177507  0.33235854  1
  Cs  Cs14  1  0.33433785  0.33210503  0.66522429  1
  Cs  Cs15  1  0.32725085  0.66376283  -0.00070251  1
  Cs  Cs16  1  0.33605630  0.66318124  0.33732885  1
  Cs  Cs17  1  0.33284360  0.66772253  0.66601591  1
  Cs  Cs18  1  0.66685263  0.00161351  -0.00035425  1
  Cs  Cs19  1  0.66609413  -0.00078438  0.33323074  1
  Cs  Cs20  1  0.66574562  -0.00072643  0.66703079  1
  Cs  Cs21  1  0.66562947  0.33097788  -0.00184819  1
  Cs  Cs22  1  0.66597376  0.33405697  0.33335811  1
  Cs  Cs23  1  0.66850276  0.33242521  0.66735645  1
  Cs  Cs24  1  0.66605066  0.66844866  0.00677912  1
  Cs  Cs25  1  0.66985671  0.66564617  0.33122067  1
  Cs  Cs26  1  0.66505374  0.66945221  0.66410253  1
  Sn  Sn27  1  0.16537641  0.83258348  0.50006422  1
  Sn  Sn28  1  0.83231957  0.16568182  0.49913298  1
  Sn  Sn29  1  0.16729439  0.50104040  0.50024615  1
  Sn  Sn30  1  0.49911594  0.16662680  0.83327606  1
  Sn  Sn31  1  0.16706354  0.16624428  0.83315087  1
  Sn  Sn32  1  0.49953503  0.83419351  0.16561626  1
  Sn  Sn33  1  0.49950455  0.49878228  0.50100095  1
  Sn  Sn34  1  0.50085781  0.16758297  0.49998120  1
  Sn  Sn35  1  0.50073308  0.83294357  0.83447452  1
  Sn  Sn36  1  0.83301240  0.83294146  0.83309745  1
  Sn  Sn37  1  0.83432789  0.83427291  0.50099198  1
  Sn  Sn38  1  0.50073096  0.16558693  0.16675865  1
  Sn  Sn39  1  0.83284147  0.16692011  0.16719423  1
  Sn  Sn40  1  0.50053215  0.50031934  0.83241405  1
  Pb  Pb41  1  0.16921713  0.49771740  0.83092868  1
  Pb  Pb42  1  0.83147691  0.83517610  0.16665688  1
  Pb  Pb43  1  0.83311951  0.49620952  0.16651804  1
  Pb  Pb44  1  0.83316321  0.16499778  0.83345514  1
  Pb  Pb45  1  0.16625375  0.16672339  0.50173298  1
  Pb  Pb46  1  0.16650571  0.16668289  0.16361053  1
  Pb  Pb47  1  0.50042739  0.83337568  0.50000020  1
  Pb  Pb48  1  0.16680561  0.49980265  0.16999288  1
  Pb  Pb49  1  0.83288578  0.49994265  0.50008506  1
  Pb  Pb50  1  0.50003180  0.49962629  0.16678847  1
  Pb  Pb51  1  0.83049593  0.50409176  0.83338883  1
  Pb  Pb52  1  0.16684201  0.83483315  0.83151895  1
  Pb  Pb53  1  0.17010547  0.83360666  0.16995476  1
  I  I54  1  0.16597025  0.00013922  0.17006941  1
  I  I55  1  0.16676680  -0.00201974  0.50195321  1
  I  I56  1  0.17421039  0.00250874  0.82971367  1
  I  I57  1  0.16894995  0.33290663  0.16931171  1
  I  I58  1  0.16902477  0.33525972  0.50170004  1
  I  I59  1  0.17134877  0.32983696  0.83121204  1
  I  I60  1  0.16862271  0.66695507  0.16269563  1
  I  I61  1  0.16964501  0.66675765  0.50209824  1
  I  I62  1  0.16751928  0.66657944  0.83297096  1
  I  I63  1  0.50368583  0.00135374  0.16436071  1
  I  I64  1  0.50029146  0.00268640  0.50211385  1
  I  I65  1  0.50000391  0.00044958  0.83296929  1
  I  I66  1  0.50365299  0.32972196  0.16456398  1
  I  I67  1  0.49953234  0.33213977  0.50278598  1
  I  I68  1  0.49489634  0.33218527  0.83261966  1
  I  I69  1  0.50005176  0.66946127  0.16459185  1
  I  I70  1  0.49851314  0.66473865  0.50306017  1
  I  I71  1  0.50538616  0.66735326  0.83130154  1
  I  I72  1  0.82931613  0.00312369  0.16856459  1
  I  I73  1  0.83239423  0.00041060  0.50057026  1
  I  I74  1  0.82649984  -0.00271755  0.83069268  1
  I  I75  1  0.82449653  0.32788252  0.17364784  1
  I  I76  1  0.83217504  0.33006968  0.49614436  1
  I  I77  1  0.83366828  0.33322161  0.83307393  1
  I  I78  1  0.83054066  0.66711941  0.16827381  1
  I  I79  1  0.83310250  0.66976616  0.50458785  1
  I  I80  1  0.82768550  0.67196297  0.82428907  1
  I  I81  1  0.17237809  0.16520268  -0.00406442  1
  I  I82  1  0.16933832  0.16724771  0.33359651  1
  I  I83  1  0.17314023  0.16575197  0.66913102  1
  I  I84  1  0.16735698  0.49862649  -0.00050795  1
  I  I85  1  0.17551070  0.50128552  0.33828031  1
  I  I86  1  0.16964918  0.50348581  0.66319344  1
  I  I87  1  0.16375424  0.83513802  -0.00008029  1
  I  I88  1  0.16181796  0.83132043  0.33807096  1
  I  I89  1  0.16870800  0.83130280  0.66348444  1
  I  I90  1  0.50036507  0.16611110  -0.00052895  1
  I  I91  1  0.50421826  0.16586883  0.33398927  1
  I  I92  1  0.49979711  0.16655804  0.66662381  1
  I  I93  1  0.50137981  0.49709592  -0.00308294  1
  I  I94  1  0.49594852  0.49730621  0.33670180  1
  I  I95  1  0.49646059  0.49686444  0.66611319  1
  I  I96  1  0.50647377  0.83738539  -0.00151990  1
  I  I97  1  0.49938169  0.83711724  0.33156276  1
  I  I98  1  0.50054401  0.83603923  0.66898539  1
  I  I99  1  0.82835629  0.16463692  0.00220380  1
  I  I100  1  0.82498423  0.16093535  0.33480924  1
  I  I101  1  0.82998280  0.16461147  0.66396996  1
  I  I102  1  0.83068407  0.49851000  -0.00028142  1
  I  I103  1  0.83028218  0.50568621  0.33377231  1
  I  I104  1  0.83453379  0.49383363  0.66663436  1
  I  I105  1  0.82832973  0.83666487  -0.00253868  1
  I  I106  1  0.83526884  0.83506155  0.33630966  1
  I  I107  1  0.82975770  0.84024106  0.66573324  1
  I  I108  1  -0.00313516  0.16588938  0.17273209  1
  I  I109  1  -0.00285781  0.16560066  0.49734799  1
  I  I110  1  0.00177731  0.16386487  0.83121744  1
  I  I111  1  -0.00001013  0.49933892  0.16756788  1
  I  I112  1  0.00244462  0.49999698  0.49959602  1
  I  I113  1  0.00023441  0.49697151  0.83146915  1
  I  I114  1  -0.00008906  0.83484102  0.16422103  1
  I  I115  1  -0.00120353  0.83469865  0.50633104  1
  I  I116  1  -0.00254472  0.83891421  0.82915123  1
  I  I117  1  0.33708839  0.16371510  0.17002808  1
  I  I118  1  0.33639117  0.16657601  0.49835383  1
  I  I119  1  0.33649360  0.16417045  0.83196144  1
  I  I120  1  0.33389197  0.49775940  0.16527427  1
  I  I121  1  0.33483073  0.50071008  0.50378833  1
  I  I122  1  0.33755471  0.50477255  0.83108609  1
  I  I123  1  0.33810670  0.84062121  0.16117919  1
  I  I124  1  0.33198739  0.83302886  0.50011161  1
  I  I125  1  0.33693586  0.83282595  0.83486145  1
  I  I126  1  0.66477813  0.16256323  0.16598684  1
  I  I127  1  0.66542112  0.16621905  0.50183789  1
  I  I128  1  0.66322194  0.16804561  0.83293606  1
  I  I129  1  0.66604413  0.50327959  0.17054448  1
  I  I130  1  0.66333925  0.49867772  0.50361057  1
  I  I131  1  0.66198300  0.49233609  0.82565412  1
  I  I132  1  0.66332975  0.83565669  0.16771967  1
  I  I133  1  0.66879463  0.83492975  0.50120630  1
  I  I134  1  0.66503902  0.83658530  0.82940439  1
