# generated using pymatgen
data_Cs27Sn14Pb13I81
_symmetry_space_group_name_H-M   'P 1'
_cell_length_a   18.96176116
_cell_length_b   18.95940059
_cell_length_c   18.96171460
_cell_angle_alpha   90.00149926
_cell_angle_beta   89.99794133
_cell_angle_gamma   90.00124329
_symmetry_Int_Tables_number   1
_chemical_formula_structural   Cs27Sn14Pb13I81
_chemical_formula_sum   'Cs27 Sn14 Pb13 I81'
_cell_volume   6816.80514043
_cell_formula_units_Z   1
loop_
 _symmetry_equiv_pos_site_id
 _symmetry_equiv_pos_as_xyz
  1  'x, y, z'
loop_
 _atom_site_type_symbol
 _atom_site_label
 _atom_site_symmetry_multiplicity
 _atom_site_fract_x
 _atom_site_fract_y
 _atom_site_fract_z
 _atom_site_occupancy
  Cs  Cs0  1  0.00255631  0.00176209  0.00160065  1
  Cs  Cs1  1  -0.00141506  -0.00050746  0.33317726  1
  Cs  Cs2  1  0.00029117  0.00059752  0.66542395  1
  Cs  Cs3  1  -0.00025529  0.34021000  -0.00150288  1
  Cs  Cs4  1  -0.00097955  0.33112258  0.33153352  1
  Cs  Cs5  1  -0.00103159  0.33306228  0.66933576  1
  Cs  Cs6  1  -0.00140668  0.65874446  0.00022270  1
  Cs  Cs7  1  0.00121568  0.66854026  0.33808210  1
  Cs  Cs8  1  0.00047331  0.66440352  0.66247590  1
  Cs  Cs9  1  0.33332873  -0.00023630  -0.00022396  1
  Cs  Cs10  1  0.33277177  0.00150042  0.33045025  1
  Cs  Cs11  1  0.33483511  0.00076367  0.66877329  1
  Cs  Cs12  1  0.32971444  0.33241916  0.00042474  1
  Cs  Cs13  1  0.33575167  0.33828797  0.33484837  1
  Cs  Cs14  1  0.33164251  0.33301579  0.66441151  1
  Cs  Cs15  1  0.33604969  0.67092845  0.00194735  1
  Cs  Cs16  1  0.33135054  0.66029296  0.33349298  1
  Cs  Cs17  1  0.33246270  0.66823176  0.66407747  1
  Cs  Cs18  1  0.66454895  0.00018577  -0.00060712  1
  Cs  Cs19  1  0.66864653  0.00057283  0.33163148  1
  Cs  Cs20  1  0.66549227  0.00077251  0.66734002  1
  Cs  Cs21  1  0.66902883  0.33424877  0.00092975  1
  Cs  Cs22  1  0.66509334  0.33420739  0.33561637  1
  Cs  Cs23  1  0.66740118  0.33199406  0.66438870  1
  Cs  Cs24  1  0.66622705  0.66554149  -0.00174761  1
  Cs  Cs25  1  0.66821551  0.66687666  0.33080994  1
  Cs  Cs26  1  0.66738342  0.66855517  0.67030355  1
  Sn  Sn27  1  0.49992721  0.83358723  0.83345737  1
  Sn  Sn28  1  0.49955118  0.49947360  0.83325693  1
  Sn  Sn29  1  0.49925496  0.83430110  0.16690628  1
  Sn  Sn30  1  0.16756711  0.16600836  0.16755020  1
  Sn  Sn31  1  0.83311747  0.49924712  0.50002019  1
  Sn  Sn32  1  0.49995028  0.83350885  0.49944508  1
  Sn  Sn33  1  0.83272263  0.16568341  0.83287375  1
  Sn  Sn34  1  0.16631267  0.83357707  0.83401759  1
  Sn  Sn35  1  0.16615509  0.16614758  0.49913331  1
  Sn  Sn36  1  0.16726570  0.83408487  0.16584590  1
  Sn  Sn37  1  0.83387067  0.83425498  0.83356923  1
  Sn  Sn38  1  0.50064294  0.16696191  0.83416710  1
  Sn  Sn39  1  0.83412791  0.16725944  0.50076334  1
  Sn  Sn40  1  0.49920407  0.16603675  0.16579656  1
  Pb  Pb41  1  0.16655695  0.16520200  0.83380240  1
  Pb  Pb42  1  0.83331966  0.16667363  0.16618552  1
  Pb  Pb43  1  0.50017413  0.16521810  0.49971751  1
  Pb  Pb44  1  0.83147598  0.49966261  0.83188601  1
  Pb  Pb45  1  0.83313239  0.50008609  0.16986493  1
  Pb  Pb46  1  0.83363274  0.83335765  0.16369551  1
  Pb  Pb47  1  0.16880705  0.83537369  0.49958931  1
  Pb  Pb48  1  0.16959810  0.50359931  0.83327918  1
  Pb  Pb49  1  0.16685372  0.50017883  0.16668831  1
  Pb  Pb50  1  0.16438661  0.49671915  0.50012277  1
  Pb  Pb51  1  0.50194375  0.50290206  0.50231365  1
  Pb  Pb52  1  0.50002484  0.49979384  0.16443311  1
  Pb  Pb53  1  0.83136387  0.83413160  0.50206937  1
  I  I54  1  0.17146973  -0.00003782  0.16623226  1
  I  I55  1  0.16021601  0.00323428  0.49918261  1
  I  I56  1  0.17115680  -0.00304592  0.83372789  1
  I  I57  1  0.17105211  0.32951872  0.17073657  1
  I  I58  1  0.16780870  0.32845531  0.49541929  1
  I  I59  1  0.16679992  0.33315132  0.83339807  1
  I  I60  1  0.17195727  0.67063036  0.16182890  1
  I  I61  1  0.16574291  0.66699116  0.50004384  1
  I  I62  1  0.16599765  0.67215439  0.83862158  1
  I  I63  1  0.49657700  -0.00040795  0.16172870  1
  I  I64  1  0.50188545  -0.00265174  0.50551666  1
  I  I65  1  0.50113229  -0.00068289  0.83376488  1
  I  I66  1  0.49654315  0.32961350  0.16274163  1
  I  I67  1  0.49860434  0.33316017  0.50066131  1
  I  I68  1  0.50572284  0.33161399  0.83726680  1
  I  I69  1  0.49639181  0.67043567  0.16566098  1
  I  I70  1  0.50131287  0.67098869  0.50071841  1
  I  I71  1  0.50070133  0.66889952  0.83304747  1
  I  I72  1  0.83287373  0.00006978  0.17184849  1
  I  I73  1  0.83567085  0.00309614  0.50267628  1
  I  I74  1  0.82761695  0.00047723  0.82744712  1
  I  I75  1  0.83351764  0.33282439  0.16127350  1
  I  I76  1  0.83619164  0.33132680  0.50653190  1
  I  I77  1  0.82866540  0.33000368  0.83135479  1
  I  I78  1  0.83236134  0.66711958  0.16601073  1
  I  I79  1  0.82993283  0.66515692  0.50215397  1
  I  I80  1  0.83126890  0.66948850  0.83234757  1
  I  I81  1  0.16855253  0.16328797  0.00262635  1
  I  I82  1  0.16623452  0.16047018  0.33255747  1
  I  I83  1  0.16591677  0.16478917  0.66496800  1
  I  I84  1  0.16471702  0.49466487  -0.00018479  1
  I  I85  1  0.16626066  0.50494038  0.33348801  1
  I  I86  1  0.16765310  0.50037851  0.66673712  1
  I  I87  1  0.17220912  0.83991608  -0.00002058  1
  I  I88  1  0.17156388  0.83571786  0.33027122  1
  I  I89  1  0.16886633  0.83501065  0.66927397  1
  I  I90  1  0.50012743  0.16185769  -0.00092391  1
  I  I91  1  0.49969845  0.16089190  0.33070388  1
  I  I92  1  0.50078455  0.16427360  0.66956985  1
  I  I93  1  0.50192770  0.50515709  -0.00364211  1
  I  I94  1  0.50170370  0.50056215  0.33348847  1
  I  I95  1  0.50122088  0.50000720  0.67034886  1
  I  I96  1  0.49938072  0.83386220  -0.00103709  1
  I  I97  1  0.49663430  0.83901313  0.33200603  1
  I  I98  1  0.50035337  0.83384084  0.66871779  1
  I  I99  1  0.83109897  0.16135057  -0.00341004  1
  I  I100  1  0.83365364  0.17078286  0.33610397  1
  I  I101  1  0.83271472  0.16629343  0.66730095  1
  I  I102  1  0.83275291  0.49979851  -0.00043993  1
  I  I103  1  0.83190216  0.49354049  0.33790493  1
  I  I104  1  0.83146999  0.49812543  0.66421868  1
  I  I105  1  0.82799033  0.83956548  -0.00462721  1
  I  I106  1  0.83188737  0.83251200  0.33344863  1
  I  I107  1  0.83186529  0.83475485  0.67045367  1
  I  I108  1  0.00304993  0.16143914  0.16837197  1
  I  I109  1  -0.00061301  0.16888631  0.50069613  1
  I  I110  1  -0.00254558  0.16145517  0.83154166  1
  I  I111  1  0.00012977  0.49971925  0.16440333  1
  I  I112  1  -0.00362757  0.50122399  0.50253356  1
  I  I113  1  -0.00015476  0.50009015  0.83253600  1
  I  I114  1  0.00357557  0.83841869  0.16299442  1
  I  I115  1  0.00000163  0.83150844  0.50068924  1
  I  I116  1  -0.00008693  0.83972458  0.83663849  1
  I  I117  1  0.33396533  0.16177162  0.16597765  1
  I  I118  1  0.33139124  0.16275488  0.50013909  1
  I  I119  1  0.33634953  0.16490561  0.83315095  1
  I  I120  1  0.33358040  0.49971325  0.16729475  1
  I  I121  1  0.33353533  0.49982515  0.50071450  1
  I  I122  1  0.33773099  0.49828256  0.83276401  1
  I  I123  1  0.33437035  0.83803181  0.16077366  1
  I  I124  1  0.33672669  0.83587380  0.50633994  1
  I  I125  1  0.33475582  0.83372520  0.83388085  1
  I  I126  1  0.66340188  0.16173660  0.16543365  1
  I  I127  1  0.66913516  0.16853718  0.50185422  1
  I  I128  1  0.66575940  0.16182191  0.83245365  1
  I  I129  1  0.66620443  0.50038856  0.16607545  1
  I  I130  1  0.66955397  0.49191912  0.50117331  1
  I  I131  1  0.66362166  0.50528690  0.83254082  1
  I  I132  1  0.66303143  0.83752777  0.16609989  1
  I  I133  1  0.66327569  0.83561260  0.50098944  1
  I  I134  1  0.66523759  0.83374632  0.83242849  1
