# generated using pymatgen
data_Cs27Sn14Pb13I81
_symmetry_space_group_name_H-M   'P 1'
_cell_length_a   18.98536468
_cell_length_b   18.96469418
_cell_length_c   18.98060746
_cell_angle_alpha   89.99999991
_cell_angle_beta   90.00000002
_cell_angle_gamma   90.00228894
_symmetry_Int_Tables_number   1
_chemical_formula_structural   Cs27Sn14Pb13I81
_chemical_formula_sum   'Cs27 Sn14 Pb13 I81'
_cell_volume   6833.99874589
_cell_formula_units_Z   1
loop_
 _symmetry_equiv_pos_site_id
 _symmetry_equiv_pos_as_xyz
  1  'x, y, z'
loop_
 _atom_site_type_symbol
 _atom_site_label
 _atom_site_symmetry_multiplicity
 _atom_site_fract_x
 _atom_site_fract_y
 _atom_site_fract_z
 _atom_site_occupancy
  Cs  Cs0  1  0.00177155  -0.00209161  0.00210551  1
  Cs  Cs1  1  -0.00598796  0.00256616  0.33077210  1
  Cs  Cs2  1  -0.00196848  -0.00508642  0.66477450  1
  Cs  Cs3  1  -0.00000005  0.33333339  0.00259287  1
  Cs  Cs4  1  0.00000012  0.33333328  0.32501475  1
  Cs  Cs5  1  0.00000002  0.33333335  0.66838406  1
  Cs  Cs6  1  -0.00177155  0.66875819  0.00210558  1
  Cs  Cs7  1  0.00598784  0.66410052  0.33077222  1
  Cs  Cs8  1  0.00196862  0.67175319  0.66477458  1
  Cs  Cs9  1  0.33350647  -0.00025767  0.00058612  1
  Cs  Cs10  1  0.33604818  -0.00022109  0.33259470  1
  Cs  Cs11  1  0.33133778  0.00173936  0.66704466  1
  Cs  Cs12  1  0.33404940  0.33173054  -0.00227380  1
  Cs  Cs13  1  0.33237892  0.33360317  0.33516668  1
  Cs  Cs14  1  0.33459181  0.33298893  0.66748294  1
  Cs  Cs15  1  0.33625264  0.67014930  -0.00088537  1
  Cs  Cs16  1  0.33097749  0.66819863  0.33672227  1
  Cs  Cs17  1  0.32848846  0.67014809  0.66342678  1
  Cs  Cs18  1  0.66374727  -0.00348264  -0.00088543  1
  Cs  Cs19  1  0.66902266  -0.00153166  0.33672220  1
  Cs  Cs20  1  0.67151152  -0.00348139  0.66342675  1
  Cs  Cs21  1  0.66595070  0.33493620  -0.00227378  1
  Cs  Cs22  1  0.66762110  0.33306354  0.33516679  1
  Cs  Cs23  1  0.66540812  0.33367778  0.66748289  1
  Cs  Cs24  1  0.66649339  0.66692438  0.00058611  1
  Cs  Cs25  1  0.66395179  0.66688779  0.33259499  1
  Cs  Cs26  1  0.66866208  0.66492738  0.66704464  1
  Sn  Sn27  1  0.83393536  0.83315414  0.16664951  1
  Sn  Sn28  1  0.16670525  0.49947118  0.83341294  1
  Sn  Sn29  1  0.16606462  0.83351249  0.16664953  1
  Sn  Sn30  1  0.49939458  0.16750738  0.50053121  1
  Sn  Sn31  1  0.49969822  0.49962179  0.83290841  1
  Sn  Sn32  1  0.83329477  0.16719545  0.83341296  1
  Sn  Sn33  1  0.50027218  0.16771627  0.16666863  1
  Sn  Sn34  1  0.16645417  0.16752242  0.83247828  1
  Sn  Sn35  1  0.50030179  0.16704486  0.83290840  1
  Sn  Sn36  1  0.16677125  0.16720207  0.50049040  1
  Sn  Sn37  1  0.83322881  0.49946456  0.50049042  1
  Sn  Sn38  1  0.49972785  0.49895042  0.16666862  1
  Sn  Sn39  1  0.50060540  0.49915929  0.50053121  1
  Sn  Sn40  1  0.83354583  0.49914427  0.83247823  1
  Pb  Pb41  1  0.50000003  0.83333336  0.16672532  1
  Pb  Pb42  1  0.16974824  0.50153696  0.16382878  1
  Pb  Pb43  1  0.83114915  0.50125438  0.16644708  1
  Pb  Pb44  1  0.16668722  0.83378324  0.83476129  1
  Pb  Pb45  1  0.50000001  0.83333339  0.50038251  1
  Pb  Pb46  1  0.83331278  0.83288336  0.83476126  1
  Pb  Pb47  1  0.83338761  0.16890854  0.50210865  1
  Pb  Pb48  1  0.16662906  0.83705450  0.49743005  1
  Pb  Pb49  1  0.16885082  0.16541228  0.16644704  1
  Pb  Pb50  1  0.49999999  0.83333338  0.83279983  1
  Pb  Pb51  1  0.83025175  0.16512972  0.16382875  1
  Pb  Pb52  1  0.83337094  0.82961222  0.49743005  1
  Pb  Pb53  1  0.16661239  0.49775817  0.50210866  1
  I  I54  1  0.16564347  -0.00241117  0.16431607  1
  I  I55  1  0.17407558  0.00493647  0.50822228  1
  I  I56  1  0.16800728  0.00394679  0.83128108  1
  I  I57  1  0.16557085  0.33329706  0.16815988  1
  I  I58  1  0.17028240  0.32983073  0.50114862  1
  I  I59  1  0.16799172  0.33258922  0.83097856  1
  I  I60  1  0.16479516  0.66932986  0.16459900  1
  I  I61  1  0.16750788  0.66641351  0.50094138  1
  I  I62  1  0.16763033  0.66340829  0.83527630  1
  I  I63  1  0.49940242  0.00317503  0.16530439  1
  I  I64  1  0.49589552  0.00409732  0.49904957  1
  I  I65  1  0.49933736  0.00439890  0.83537862  1
  I  I66  1  0.49999990  0.33333330  0.16530117  1
  I  I67  1  0.50000031  0.33333333  0.50025740  1
  I  I68  1  0.49999989  0.33333332  0.83417980  1
  I  I69  1  0.50059767  0.66349163  0.16530425  1
  I  I70  1  0.50410420  0.66256934  0.49904944  1
  I  I71  1  0.50066281  0.66226780  0.83537877  1
  I  I72  1  0.83520467  -0.00266316  0.16459930  1
  I  I73  1  0.83249228  0.00025313  0.50094132  1
  I  I74  1  0.83236972  0.00325840  0.83527635  1
  I  I75  1  0.83442926  0.33336960  0.16816008  1
  I  I76  1  0.82971719  0.33683596  0.50114839  1
  I  I77  1  0.83200841  0.33407743  0.83097855  1
  I  I78  1  0.83435679  0.66907783  0.16431565  1
  I  I79  1  0.82592447  0.66173022  0.50822247  1
  I  I80  1  0.83199260  0.66271988  0.83128113  1
  I  I81  1  0.16807088  0.16868326  -0.00336793  1
  I  I82  1  0.17264954  0.16417349  0.33576813  1
  I  I83  1  0.17304671  0.17035824  0.66811181  1
  I  I84  1  0.16566132  0.49312159  -0.00431544  1
  I  I85  1  0.16627394  0.50029584  0.33334281  1
  I  I86  1  0.17134029  0.49862884  0.67035073  1
  I  I87  1  0.16364575  0.83517146  0.00255771  1
  I  I88  1  0.16379834  0.83258741  0.32976179  1
  I  I89  1  0.16756312  0.83154665  0.66650448  1
  I  I90  1  0.49985043  0.17152820  -0.00103514  1
  I  I91  1  0.49441661  0.17187910  0.33394631  1
  I  I92  1  0.49833465  0.17282747  0.66724544  1
  I  I93  1  0.50014956  0.49513838  -0.00103515  1
  I  I94  1  0.50558326  0.49478757  0.33394631  1
  I  I95  1  0.50166552  0.49383933  0.66724539  1
  I  I96  1  0.50000002  0.83333337  0.00007464  1
  I  I97  1  0.49999986  0.83333317  0.33326627  1
  I  I98  1  0.50000013  0.83333302  0.66658289  1
  I  I99  1  0.83433852  0.17354521  -0.00431546  1
  I  I100  1  0.83372593  0.16637073  0.33334278  1
  I  I101  1  0.82865984  0.16803785  0.67035077  1
  I  I102  1  0.83192926  0.49798321  -0.00336792  1
  I  I103  1  0.82735065  0.50249355  0.33576813  1
  I  I104  1  0.82695304  0.49630825  0.66811177  1
  I  I105  1  0.83635427  0.83149555  0.00255766  1
  I  I106  1  0.83620177  0.83407883  0.32976185  1
  I  I107  1  0.83243683  0.83512014  0.66650447  1
  I  I108  1  -0.00014300  0.16569324  0.16702896  1
  I  I109  1  0.00239882  0.16699931  0.50533754  1
  I  I110  1  0.00044594  0.17292184  0.82926130  1
  I  I111  1  0.00014300  0.50097328  0.16702889  1
  I  I112  1  -0.00239879  0.49966734  0.50533774  1
  I  I113  1  -0.00044594  0.49374483  0.82926103  1
  I  I114  1  -0.00000000  0.83333355  0.16449628  1
  I  I115  1  -0.00000004  0.83333323  0.50156811  1
  I  I116  1  0.00000000  0.83333320  0.83423030  1
  I  I117  1  0.33690851  0.16743117  0.16199709  1
  I  I118  1  0.33496230  0.17154776  0.50408523  1
  I  I119  1  0.33401142  0.17171654  0.83341869  1
  I  I120  1  0.33780554  0.49849876  0.16754164  1
  I  I121  1  0.33652541  0.49827488  0.49984924  1
  I  I122  1  0.33434739  0.49428118  0.83474262  1
  I  I123  1  0.33143955  0.83382468  0.16533875  1
  I  I124  1  0.33314098  0.82805788  0.49616891  1
  I  I125  1  0.33323952  0.83245671  0.83854313  1
  I  I126  1  0.66219446  0.16816794  0.16754173  1
  I  I127  1  0.66347457  0.16839127  0.49984913  1
  I  I128  1  0.66565259  0.17238566  0.83474258  1
  I  I129  1  0.66309145  0.49923523  0.16199711  1
  I  I130  1  0.66503771  0.49511928  0.50408500  1
  I  I131  1  0.66598860  0.49494998  0.83341887  1
  I  I132  1  0.66856043  0.83284180  0.16533886  1
  I  I133  1  0.66685901  0.83860892  0.49616878  1
  I  I134  1  0.66676047  0.83421002  0.83854319  1
