# generated using pymatgen
data_Cs27Sn14Pb13I81
_symmetry_space_group_name_H-M   'P 1'
_cell_length_a   18.98770597
_cell_length_b   18.96365192
_cell_length_c   18.97861666
_cell_angle_alpha   90.00024397
_cell_angle_beta   90.00021410
_cell_angle_gamma   90.00111984
_symmetry_Int_Tables_number   1
_chemical_formula_structural   Cs27Sn14Pb13I81
_chemical_formula_sum   'Cs27 Sn14 Pb13 I81'
_cell_volume   6833.74905571
_cell_formula_units_Z   1
loop_
 _symmetry_equiv_pos_site_id
 _symmetry_equiv_pos_as_xyz
  1  'x, y, z'
loop_
 _atom_site_type_symbol
 _atom_site_label
 _atom_site_symmetry_multiplicity
 _atom_site_fract_x
 _atom_site_fract_y
 _atom_site_fract_z
 _atom_site_occupancy
  Cs  Cs0  1  0.00101801  -0.00683930  -0.00138907  1
  Cs  Cs1  1  -0.00115339  -0.00049194  0.33389684  1
  Cs  Cs2  1  0.00240751  0.00031200  0.66711899  1
  Cs  Cs3  1  -0.00117668  0.33425815  0.00085187  1
  Cs  Cs4  1  0.00018944  0.33461174  0.33064173  1
  Cs  Cs5  1  0.00202019  0.33524367  0.66872627  1
  Cs  Cs6  1  -0.00002433  0.66680220  0.00023855  1
  Cs  Cs7  1  0.00043898  0.66562150  0.33337976  1
  Cs  Cs8  1  -0.00153056  0.66383175  0.66640878  1
  Cs  Cs9  1  0.32961685  -0.00472563  -0.00199149  1
  Cs  Cs10  1  0.33421142  -0.00017813  0.33552990  1
  Cs  Cs11  1  0.32994289  0.00110669  0.66513364  1
  Cs  Cs12  1  0.33150700  0.33407547  0.00126594  1
  Cs  Cs13  1  0.33077551  0.33445656  0.33125256  1
  Cs  Cs14  1  0.32882002  0.33405691  0.66701634  1
  Cs  Cs15  1  0.33982151  0.67054125  -0.00061379  1
  Cs  Cs16  1  0.33621290  0.66676709  0.33237893  1
  Cs  Cs17  1  0.33891335  0.66444914  0.66650175  1
  Cs  Cs18  1  0.66882974  0.00021922  -0.00051207  1
  Cs  Cs19  1  0.66714859  0.00192393  0.33590459  1
  Cs  Cs20  1  0.66717716  0.00083812  0.66377395  1
  Cs  Cs21  1  0.66884515  0.33182382  -0.00004136  1
  Cs  Cs22  1  0.66824334  0.33098387  0.33150538  1
  Cs  Cs23  1  0.66809773  0.33291711  0.66932389  1
  Cs  Cs24  1  0.65990548  0.67313477  -0.00179420  1
  Cs  Cs25  1  0.66331639  0.66576824  0.33458819  1
  Cs  Cs26  1  0.66405496  0.66520809  0.66686933  1
  Sn  Sn27  1  0.49991777  0.16669838  0.16644111  1
  Sn  Sn28  1  0.83317161  0.16627559  0.50022898  1
  Sn  Sn29  1  0.83388510  0.49941426  0.83486984  1
  Sn  Sn30  1  0.83308278  0.16711293  0.83341471  1
  Sn  Sn31  1  0.50033203  0.16683050  0.83315085  1
  Sn  Sn32  1  0.16592621  0.49952598  0.16534057  1
  Sn  Sn33  1  0.83373702  0.16689390  0.16632919  1
  Sn  Sn34  1  0.83340210  0.83397828  0.49995279  1
  Sn  Sn35  1  0.50025538  0.83443005  0.49995289  1
  Sn  Sn36  1  0.16649649  0.83314354  0.50001423  1
  Sn  Sn37  1  0.83364214  0.49964264  0.16537120  1
  Sn  Sn38  1  0.50051985  0.16682938  0.50029362  1
  Sn  Sn39  1  0.16602339  0.49998187  0.83453384  1
  Sn  Sn40  1  0.16618865  0.16674298  0.16652929  1
  Pb  Pb41  1  0.83337629  0.83321069  0.83091571  1
  Pb  Pb42  1  0.16611202  0.16808235  0.83591225  1
  Pb  Pb43  1  0.50023772  0.83664007  0.16887300  1
  Pb  Pb44  1  0.16631702  0.16552076  0.49780090  1
  Pb  Pb45  1  0.16649158  0.83259553  0.16836340  1
  Pb  Pb46  1  0.50015845  0.83688246  0.83071135  1
  Pb  Pb47  1  0.50060282  0.49743692  0.83357564  1
  Pb  Pb48  1  0.83329122  0.83293410  0.16880314  1
  Pb  Pb49  1  0.50017915  0.49852881  0.49992256  1
  Pb  Pb50  1  0.50054077  0.49780345  0.16651079  1
  Pb  Pb51  1  0.16655055  0.82970656  0.83089764  1
  Pb  Pb52  1  0.83324012  0.49911466  0.49983730  1
  Pb  Pb53  1  0.16662086  0.50245750  0.49943988  1
  I  I54  1  0.16642218  0.00309677  0.16904774  1
  I  I55  1  0.16672895  -0.00256556  0.49766536  1
  I  I56  1  0.16693613  0.00010150  0.83431031  1
  I  I57  1  0.16637535  0.33295602  0.16536266  1
  I  I58  1  0.16723484  0.33345122  0.50107744  1
  I  I59  1  0.16551069  0.33607180  0.83284208  1
  I  I60  1  0.15990235  0.66290754  0.16541321  1
  I  I61  1  0.16610059  0.67060994  0.49858018  1
  I  I62  1  0.15916579  0.66172486  0.83952840  1
  I  I63  1  0.50094127  0.00534994  0.16510028  1
  I  I64  1  0.50109015  0.00142321  0.49921175  1
  I  I65  1  0.50679056  0.00513103  0.83643805  1
  I  I66  1  0.50031614  0.32903447  0.17102278  1
  I  I67  1  0.50614966  0.32842821  0.49948441  1
  I  I68  1  0.50203091  0.32911959  0.82955161  1
  I  I69  1  0.49921748  0.66674870  0.16965059  1
  I  I70  1  0.50070488  0.66978024  0.49995275  1
  I  I71  1  0.49982827  0.66669559  0.83049420  1
  I  I72  1  0.83323665  0.00392362  0.16479307  1
  I  I73  1  0.83222059  0.00164538  0.49924197  1
  I  I74  1  0.82857475  0.00373354  0.83593738  1
  I  I75  1  0.83364244  0.33167026  0.16927154  1
  I  I76  1  0.82757887  0.32954289  0.49942976  1
  I  I77  1  0.83285193  0.33210590  0.83097114  1
  I  I78  1  0.84045535  0.66306306  0.16460206  1
  I  I79  1  0.83276448  0.66934222  0.49979813  1
  I  I80  1  0.83886105  0.66318761  0.83588851  1
  I  I81  1  0.16775312  0.16814295  0.00402480  1
  I  I82  1  0.16649334  0.17228518  0.32970864  1
  I  I83  1  0.16737817  0.16743364  0.66682132  1
  I  I84  1  0.16145525  0.49401977  0.00085702  1
  I  I85  1  0.16203201  0.49652651  0.32978969  1
  I  I86  1  0.16203587  0.50099359  0.66940461  1
  I  I87  1  0.16645197  0.83601308  0.00000739  1
  I  I88  1  0.16684985  0.83267436  0.33660629  1
  I  I89  1  0.16652365  0.83489953  0.66267496  1
  I  I90  1  0.50386776  0.17026889  0.00028220  1
  I  I91  1  0.50307463  0.16275791  0.33351971  1
  I  I92  1  0.50786858  0.16272951  0.66610647  1
  I  I93  1  0.49908317  0.49870642  0.00003165  1
  I  I94  1  0.49933396  0.49851153  0.33312102  1
  I  I95  1  0.49924682  0.49825853  0.66687792  1
  I  I96  1  0.49870491  0.83332057  -0.00016163  1
  I  I97  1  0.50040054  0.83883278  0.33730875  1
  I  I98  1  0.50056943  0.83858883  0.66240320  1
  I  I99  1  0.82939095  0.17229360  0.00029146  1
  I  I100  1  0.83074723  0.16653637  0.33301996  1
  I  I101  1  0.82612975  0.16661710  0.66664216  1
  I  I102  1  0.83885425  0.48902202  0.00023319  1
  I  I103  1  0.83819389  0.49642596  0.33022378  1
  I  I104  1  0.83755794  0.49677900  0.66955985  1
  I  I105  1  0.83474438  0.83657252  -0.00008390  1
  I  I106  1  0.83277818  0.83819152  0.33718874  1
  I  I107  1  0.83274675  0.83773358  0.66252179  1
  I  I108  1  -0.00104462  0.17096173  0.16879200  1
  I  I109  1  -0.00320613  0.16236236  0.50015093  1
  I  I110  1  -0.00336072  0.16861899  0.83102044  1
  I  I111  1  -0.00045180  0.49089770  0.16405668  1
  I  I112  1  -0.00016585  0.50109515  0.50038833  1
  I  I113  1  -0.00118648  0.49368049  0.83556016  1
  I  I114  1  -0.00011589  0.83930140  0.17227048  1
  I  I115  1  -0.00091740  0.83751116  0.49923631  1
  I  I116  1  -0.00007072  0.83922945  0.82849377  1
  I  I117  1  0.33339093  0.17073028  0.16869744  1
  I  I118  1  0.33609283  0.16235378  0.50017085  1
  I  I119  1  0.33577879  0.16780181  0.83152283  1
  I  I120  1  0.33028099  0.49534577  0.16436571  1
  I  I121  1  0.33319279  0.50008072  0.50047227  1
  I  I122  1  0.33066051  0.49891977  0.83627281  1
  I  I123  1  0.33334802  0.83343458  0.17094079  1
  I  I124  1  0.33424129  0.83808436  0.49941533  1
  I  I125  1  0.33335317  0.83368602  0.83021587  1
  I  I126  1  0.66747236  0.17012194  0.16813078  1
  I  I127  1  0.66723840  0.15913233  0.49589024  1
  I  I128  1  0.66785321  0.17194886  0.83565759  1
  I  I129  1  0.67033185  0.49529862  0.16430487  1
  I  I130  1  0.66697979  0.50575196  0.49987736  1
  I  I131  1  0.67024982  0.49729815  0.83621086  1
  I  I132  1  0.66676327  0.83117834  0.16923844  1
  I  I133  1  0.66669683  0.83922763  0.49962211  1
  I  I134  1  0.66676788  0.82740143  0.83142453  1
