# generated using pymatgen
data_Cs27Sn13Pb14I81
_symmetry_space_group_name_H-M   'P 1'
_cell_length_a   18.98415344
_cell_length_b   18.97622945
_cell_length_c   18.97035746
_cell_angle_alpha   89.99780265
_cell_angle_beta   89.99914572
_cell_angle_gamma   89.99880040
_symmetry_Int_Tables_number   1
_chemical_formula_structural   Cs27Sn13Pb14I81
_chemical_formula_sum   'Cs27 Sn13 Pb14 I81'
_cell_volume   6834.02671711
_cell_formula_units_Z   1
loop_
 _symmetry_equiv_pos_site_id
 _symmetry_equiv_pos_as_xyz
  1  'x, y, z'
loop_
 _atom_site_type_symbol
 _atom_site_label
 _atom_site_symmetry_multiplicity
 _atom_site_fract_x
 _atom_site_fract_y
 _atom_site_fract_z
 _atom_site_occupancy
  Cs  Cs0  1  0.00473004  -0.00168649  -0.00094586  1
  Cs  Cs1  1  -0.00284979  0.00364908  0.33406259  1
  Cs  Cs2  1  0.00169601  0.00168729  0.66683215  1
  Cs  Cs3  1  -0.00242114  0.33544298  0.00445454  1
  Cs  Cs4  1  0.00167792  0.32978846  0.33242614  1
  Cs  Cs5  1  0.00150560  0.33305165  0.66418733  1
  Cs  Cs6  1  -0.00272741  0.66610748  -0.00235228  1
  Cs  Cs7  1  0.00003636  0.66721342  0.33435822  1
  Cs  Cs8  1  0.00029757  0.66595346  0.66753689  1
  Cs  Cs9  1  0.32752571  -0.00556799  -0.00704345  1
  Cs  Cs10  1  0.33253606  -0.00128513  0.33180563  1
  Cs  Cs11  1  0.33376251  0.00196634  0.67392564  1
  Cs  Cs12  1  0.33088946  0.33191025  -0.00166491  1
  Cs  Cs13  1  0.33317546  0.33350539  0.33188521  1
  Cs  Cs14  1  0.33449639  0.33607495  0.66780055  1
  Cs  Cs15  1  0.33326147  0.67324531  0.00882708  1
  Cs  Cs16  1  0.33435601  0.66708113  0.33283925  1
  Cs  Cs17  1  0.33222020  0.66196695  0.66333859  1
  Cs  Cs18  1  0.66549447  0.00140548  -0.00099089  1
  Cs  Cs19  1  0.66899344  0.00175747  0.33379200  1
  Cs  Cs20  1  0.66578163  0.00059436  0.66850661  1
  Cs  Cs21  1  0.66949133  0.33279644  0.00174203  1
  Cs  Cs22  1  0.66657350  0.33112324  0.33258004  1
  Cs  Cs23  1  0.66461851  0.33313430  0.66610946  1
  Cs  Cs24  1  0.66947143  0.66753475  0.00105552  1
  Cs  Cs25  1  0.66525940  0.66767962  0.33378822  1
  Cs  Cs26  1  0.66767805  0.66596345  0.66611649  1
  Sn  Sn27  1  0.83237509  0.16543172  0.16555024  1
  Sn  Sn28  1  0.83338586  0.16674110  0.83419327  1
  Sn  Sn29  1  0.83322778  0.50046156  0.49981236  1
  Sn  Sn30  1  0.49991544  0.83360908  0.50015002  1
  Sn  Sn31  1  0.83314703  0.83409085  0.16740480  1
  Sn  Sn32  1  0.16672919  0.50068311  0.50021690  1
  Sn  Sn33  1  0.49935988  0.50037518  0.83332024  1
  Sn  Sn34  1  0.50012374  0.49989555  0.50031494  1
  Sn  Sn35  1  0.16778783  0.50013399  0.83292082  1
  Sn  Sn36  1  0.49989458  0.16658026  0.49936941  1
  Sn  Sn37  1  0.83338221  0.83269969  0.49948529  1
  Sn  Sn38  1  0.50005021  0.16641385  0.16685843  1
  Sn  Sn39  1  0.16658791  0.83298434  0.50003937  1
  Pb  Pb40  1  0.16387912  0.16954722  0.83321855  1
  Pb  Pb41  1  0.17017634  0.16666897  0.50003003  1
  Pb  Pb42  1  0.83323385  0.49822988  0.83088949  1
  Pb  Pb43  1  0.16681522  0.50016931  0.16689014  1
  Pb  Pb44  1  0.50126407  0.16862976  0.83373678  1
  Pb  Pb45  1  0.16696564  0.16644620  0.16663256  1
  Pb  Pb46  1  0.50010959  0.83009813  0.83105615  1
  Pb  Pb47  1  0.83165314  0.16643020  0.49978767  1
  Pb  Pb48  1  0.16668262  0.83026307  0.83064501  1
  Pb  Pb49  1  0.50204896  0.83599421  0.16873324  1
  Pb  Pb50  1  0.50000190  0.49796334  0.16661607  1
  Pb  Pb51  1  0.16368414  0.83331410  0.16940847  1
  Pb  Pb52  1  0.83318542  0.50004128  0.16954423  1
  Pb  Pb53  1  0.83327575  0.83552685  0.83285685  1
  I  I54  1  0.16787084  -0.00022058  0.16970096  1
  I  I55  1  0.16421155  -0.00319893  0.49766914  1
  I  I56  1  0.16571717  -0.00013129  0.83211896  1
  I  I57  1  0.16340926  0.33331673  0.17019247  1
  I  I58  1  0.16523222  0.33683389  0.50359589  1
  I  I59  1  0.17088724  0.33732356  0.82407882  1
  I  I60  1  0.16512509  0.66682914  0.16535775  1
  I  I61  1  0.16931497  0.66591771  0.50318965  1
  I  I62  1  0.16828259  0.66234719  0.82930226  1
  I  I63  1  0.50389675  0.00394146  0.17373689  1
  I  I64  1  0.50209271  -0.00020786  0.49442171  1
  I  I65  1  0.50211809  0.00009440  0.83106343  1
  I  I66  1  0.50795595  0.32997125  0.17428171  1
  I  I67  1  0.50136432  0.33419816  0.50016314  1
  I  I68  1  0.49752046  0.33645341  0.82522011  1
  I  I69  1  0.50144105  0.66695656  0.16720129  1
  I  I70  1  0.50068985  0.66625754  0.50454950  1
  I  I71  1  0.49847487  0.66195966  0.82608719  1
  I  I72  1  0.82923895  0.00038116  0.17095258  1
  I  I73  1  0.83331903  -0.00278929  0.49895907  1
  I  I74  1  0.83110349  0.00340974  0.83133599  1
  I  I75  1  0.82983434  0.33018459  0.16452345  1
  I  I76  1  0.83303576  0.33574385  0.50089306  1
  I  I77  1  0.83264955  0.33050515  0.83762084  1
  I  I78  1  0.83417506  0.66958341  0.17044930  1
  I  I79  1  0.82956657  0.66699156  0.49570172  1
  I  I80  1  0.83359358  0.66641707  0.83561501  1
  I  I81  1  0.17046894  0.16938800  -0.00014950  1
  I  I82  1  0.16197263  0.16990973  0.33371171  1
  I  I83  1  0.16440088  0.16420879  0.66636951  1
  I  I84  1  0.17112165  0.49675828  -0.00341914  1
  I  I85  1  0.16745899  0.50339052  0.33764248  1
  I  I86  1  0.16742741  0.50342307  0.66462136  1
  I  I87  1  0.16513220  0.83224963  -0.00001441  1
  I  I88  1  0.16974232  0.82567584  0.33795186  1
  I  I89  1  0.16336030  0.83183667  0.66200118  1
  I  I90  1  0.50492706  0.17074269  0.00276056  1
  I  I91  1  0.50656443  0.16892467  0.33460083  1
  I  I92  1  0.50253084  0.16568350  0.66374113  1
  I  I93  1  0.49559523  0.49617228  -0.00311942  1
  I  I94  1  0.49973021  0.50167365  0.33729920  1
  I  I95  1  0.49963992  0.49759620  0.66410550  1
  I  I96  1  0.50235852  0.83278412  0.00021002  1
  I  I97  1  0.49837325  0.82742546  0.33775435  1
  I  I98  1  0.50370861  0.83886007  0.66163685  1
  I  I99  1  0.82671483  0.16334145  0.00141304  1
  I  I100  1  0.83064222  0.16593079  0.33109685  1
  I  I101  1  0.83146481  0.16810192  0.66806197  1
  I  I102  1  0.83370715  0.50164958  -0.00006616  1
  I  I103  1  0.83256214  0.49903436  0.33806925  1
  I  I104  1  0.83262208  0.50362166  0.66251495  1
  I  I105  1  0.83249056  0.83554656  0.00295201  1
  I  I106  1  0.83317313  0.83571158  0.33509281  1
  I  I107  1  0.83309731  0.83054085  0.66267317  1
  I  I108  1  -0.00371790  0.16383429  0.16401018  1
  I  I109  1  -0.00003123  0.16769273  0.49940835  1
  I  I110  1  -0.00402914  0.16800116  0.83779807  1
  I  I111  1  -0.00026909  0.49683388  0.16709418  1
  I  I112  1  0.00012183  0.50630120  0.50352283  1
  I  I113  1  0.00236106  0.49825042  0.82746177  1
  I  I114  1  -0.00437439  0.83990075  0.17313958  1
  I  I115  1  -0.00063973  0.82584077  0.49641467  1
  I  I116  1  -0.00013165  0.83170202  0.83074529  1
  I  I117  1  0.33682270  0.16998510  0.17384630  1
  I  I118  1  0.33834841  0.16769053  0.49479276  1
  I  I119  1  0.33339100  0.16633280  0.83290010  1
  I  I120  1  0.33353070  0.49740380  0.17151080  1
  I  I121  1  0.33380764  0.50208833  0.50393155  1
  I  I122  1  0.33370868  0.49755720  0.82180208  1
  I  I123  1  0.33342150  0.83426103  0.16807208  1
  I  I124  1  0.33380000  0.82957446  0.50076166  1
  I  I125  1  0.33340735  0.83814013  0.83279947  1
  I  I126  1  0.66745548  0.16404268  0.16822368  1
  I  I127  1  0.66371603  0.16821340  0.49912401  1
  I  I128  1  0.66913674  0.16986185  0.83349091  1
  I  I129  1  0.66674994  0.50087230  0.16687072  1
  I  I130  1  0.66597305  0.50212057  0.50337401  1
  I  I131  1  0.66417289  0.49774256  0.82696472  1
  I  I132  1  0.67007262  0.83452993  0.17401272  1
  I  I133  1  0.66682891  0.83007167  0.49637362  1
  I  I134  1  0.66678501  0.83038686  0.82940589  1
