# generated using pymatgen
data_Cs27Sn13Pb14I81
_symmetry_space_group_name_H-M   'P 1'
_cell_length_a   18.97526545
_cell_length_b   18.97898784
_cell_length_c   18.97699293
_cell_angle_alpha   90.00078073
_cell_angle_beta   89.99878303
_cell_angle_gamma   90.00183309
_symmetry_Int_Tables_number   1
_chemical_formula_structural   Cs27Sn13Pb14I81
_chemical_formula_sum   'Cs27 Sn13 Pb14 I81'
_cell_volume   6834.20974105
_cell_formula_units_Z   1
loop_
 _symmetry_equiv_pos_site_id
 _symmetry_equiv_pos_as_xyz
  1  'x, y, z'
loop_
 _atom_site_type_symbol
 _atom_site_label
 _atom_site_symmetry_multiplicity
 _atom_site_fract_x
 _atom_site_fract_y
 _atom_site_fract_z
 _atom_site_occupancy
  Cs  Cs0  1  0.00159296  -0.00118171  -0.00400697  1
  Cs  Cs1  1  -0.00133170  0.00234391  0.33206707  1
  Cs  Cs2  1  -0.00026688  0.00056094  0.66878315  1
  Cs  Cs3  1  -0.00129730  0.33393058  -0.00070255  1
  Cs  Cs4  1  0.00174917  0.33460763  0.32945007  1
  Cs  Cs5  1  -0.00048061  0.33315597  0.66739879  1
  Cs  Cs6  1  0.00394744  0.66683724  0.00327185  1
  Cs  Cs7  1  -0.00755880  0.66391005  0.32967369  1
  Cs  Cs8  1  0.00190568  0.66721966  0.66589248  1
  Cs  Cs9  1  0.33285059  -0.00397601  0.00943501  1
  Cs  Cs10  1  0.33452424  0.00783605  0.33019848  1
  Cs  Cs11  1  0.33203194  -0.00268852  0.66364060  1
  Cs  Cs12  1  0.33650444  0.33402539  0.00079917  1
  Cs  Cs13  1  0.33060694  0.32929616  0.33415673  1
  Cs  Cs14  1  0.33534324  0.33466936  0.66542354  1
  Cs  Cs15  1  0.33074932  0.66898253  0.00220600  1
  Cs  Cs16  1  0.33542693  0.66470178  0.33649037  1
  Cs  Cs17  1  0.33310692  0.66666642  0.66603888  1
  Cs  Cs18  1  0.66574645  0.00069011  0.00184809  1
  Cs  Cs19  1  0.66589246  -0.00285634  0.32931073  1
  Cs  Cs20  1  0.66763908  -0.00024718  0.66647829  1
  Cs  Cs21  1  0.66581370  0.33203485  -0.00543007  1
  Cs  Cs22  1  0.66772247  0.33542381  0.33413985  1
  Cs  Cs23  1  0.66586701  0.33299559  0.66994430  1
  Cs  Cs24  1  0.66453908  0.66724805  0.00073603  1
  Cs  Cs25  1  0.67010855  0.66750216  0.33355567  1
  Cs  Cs26  1  0.66504690  0.66699138  0.66511550  1
  Sn  Sn27  1  0.83247821  0.83302706  0.83292319  1
  Sn  Sn28  1  0.49945604  0.50054653  0.49923630  1
  Sn  Sn29  1  0.83319469  0.16679780  0.50010524  1
  Sn  Sn30  1  0.49992899  0.49997132  0.16789454  1
  Sn  Sn31  1  0.83413758  0.50051579  0.83288483  1
  Sn  Sn32  1  0.83332973  0.16682792  0.16628147  1
  Sn  Sn33  1  0.50038792  0.83355152  0.83263055  1
  Sn  Sn34  1  0.83393787  0.16660372  0.83311094  1
  Sn  Sn35  1  0.16699970  0.83269242  0.50002168  1
  Sn  Sn36  1  0.16700160  0.50092640  0.50071421  1
  Sn  Sn37  1  0.16683139  0.16746402  0.83300020  1
  Sn  Sn38  1  0.49914062  0.83275391  0.50087449  1
  Sn  Sn39  1  0.16605356  0.49903130  0.83249900  1
  Pb  Pb40  1  0.16437161  0.16687521  0.16331788  1
  Pb  Pb41  1  0.16669596  0.83305299  0.17125955  1
  Pb  Pb42  1  0.50226547  0.16942372  0.16665110  1
  Pb  Pb43  1  0.83344316  0.83542990  0.16348123  1
  Pb  Pb44  1  0.49993818  0.83129043  0.16759748  1
  Pb  Pb45  1  0.83346640  0.49823886  0.50192491  1
  Pb  Pb46  1  0.16466274  0.16706040  0.50188448  1
  Pb  Pb47  1  0.83118813  0.49817561  0.16355712  1
  Pb  Pb48  1  0.16865126  0.50005040  0.16688101  1
  Pb  Pb49  1  0.50227480  0.16656914  0.50025074  1
  Pb  Pb50  1  0.83332313  0.83516296  0.50170994  1
  Pb  Pb51  1  0.16684283  0.83310677  0.83213926  1
  Pb  Pb52  1  0.49919715  0.16349848  0.83325098  1
  Pb  Pb53  1  0.49936201  0.50193343  0.83267314  1
  I  I54  1  0.16714175  0.00014803  0.16533397  1
  I  I55  1  0.16969017  -0.00239527  0.50298887  1
  I  I56  1  0.16140771  0.00200846  0.83094600  1
  I  I57  1  0.16741884  0.33342215  0.17097219  1
  I  I58  1  0.17039694  0.33648394  0.50275944  1
  I  I59  1  0.15778152  0.33418879  0.82785090  1
  I  I60  1  0.16611495  0.66635750  0.15890230  1
  I  I61  1  0.17109938  0.66566056  0.50807275  1
  I  I62  1  0.16336379  0.66385867  0.83092316  1
  I  I63  1  0.50102284  -0.00004962  0.16631001  1
  I  I64  1  0.49711048  -0.00338205  0.50543063  1
  I  I65  1  0.50484395  -0.00435046  0.82684279  1
  I  I66  1  0.49997078  0.33719656  0.17157425  1
  I  I67  1  0.49657806  0.33666879  0.49674907  1
  I  I68  1  0.50317083  0.33357330  0.83313544  1
  I  I69  1  0.50119594  0.66355284  0.16688382  1
  I  I70  1  0.49676062  0.66640206  0.50100401  1
  I  I71  1  0.50500471  0.66958909  0.83169533  1
  I  I72  1  0.83244115  0.00370991  0.16543513  1
  I  I73  1  0.83362341  0.00308782  0.50374284  1
  I  I74  1  0.83375325  0.00089164  0.83298160  1
  I  I75  1  0.83225542  0.33019767  0.16407790  1
  I  I76  1  0.83300750  0.33034102  0.50392786  1
  I  I77  1  0.83737345  0.33281139  0.83344327  1
  I  I78  1  0.83245374  0.66639142  0.16565884  1
  I  I79  1  0.83326112  0.66660428  0.50265427  1
  I  I80  1  0.83293965  0.66648432  0.83142415  1
  I  I81  1  0.16087056  0.17175805  -0.00496335  1
  I  I82  1  0.16398594  0.16623953  0.33347763  1
  I  I83  1  0.15867904  0.16774617  0.66978846  1
  I  I84  1  0.16362243  0.49573985  -0.00348234  1
  I  I85  1  0.16887406  0.50407268  0.33702020  1
  I  I86  1  0.16859345  0.49969119  0.66683171  1
  I  I87  1  0.16686588  0.83400255  -0.00031978  1
  I  I88  1  0.17292073  0.82785314  0.33932134  1
  I  I89  1  0.16796495  0.83201329  0.66425166  1
  I  I90  1  0.50258093  0.16797957  -0.00030749  1
  I  I91  1  0.50270910  0.16241437  0.33357408  1
  I  I92  1  0.50459116  0.17129409  0.66683095  1
  I  I93  1  0.50197488  0.50039267  0.00122048  1
  I  I94  1  0.49607352  0.50490120  0.33543654  1
  I  I95  1  0.49917783  0.50245237  0.66396890  1
  I  I96  1  0.50503228  0.83254509  -0.00266886  1
  I  I97  1  0.49628031  0.83144449  0.33720995  1
  I  I98  1  0.50103183  0.82751946  0.66598463  1
  I  I99  1  0.83660888  0.16695874  -0.00184359  1
  I  I100  1  0.83167505  0.16685893  0.33358870  1
  I  I101  1  0.83663014  0.16630395  0.66851277  1
  I  I102  1  0.83677721  0.49783962  -0.00475523  1
  I  I103  1  0.83523337  0.49693198  0.33343926  1
  I  I104  1  0.83196793  0.49679558  0.67023759  1
  I  I105  1  0.82769829  0.83513358  -0.00523570  1
  I  I106  1  0.83298835  0.83617215  0.33352480  1
  I  I107  1  0.83193576  0.83654157  0.67008804  1
  I  I108  1  -0.00379271  0.16829908  0.16862079  1
  I  I109  1  -0.00331733  0.16615310  0.50039333  1
  I  I110  1  -0.00171119  0.16524488  0.83312844  1
  I  I111  1  -0.00020566  0.49864919  0.16883112  1
  I  I112  1  0.00286228  0.50314862  0.50396074  1
  I  I113  1  0.00000045  0.50003114  0.82791894  1
  I  I114  1  -0.00014402  0.83270953  0.16575910  1
  I  I115  1  0.00253984  0.83028103  0.50316869  1
  I  I116  1  -0.00251224  0.83512168  0.83139280  1
  I  I117  1  0.33325046  0.16619227  0.16516556  1
  I  I118  1  0.33309926  0.16630272  0.50233801  1
  I  I119  1  0.33008665  0.17241838  0.83092662  1
  I  I120  1  0.33656614  0.50055223  0.16480950  1
  I  I121  1  0.33322516  0.50350316  0.50293236  1
  I  I122  1  0.33040173  0.49628636  0.83226725  1
  I  I123  1  0.33356555  0.83380890  0.15802362  1
  I  I124  1  0.33412194  0.82893362  0.50832654  1
  I  I125  1  0.33568836  0.83220781  0.83031235  1
  I  I126  1  0.67040801  0.16654403  0.16227547  1
  I  I127  1  0.67044567  0.16714188  0.50460243  1
  I  I128  1  0.67014803  0.16974606  0.83351481  1
  I  I129  1  0.66354671  0.49974358  0.17220325  1
  I  I130  1  0.66398121  0.50308879  0.49813998  1
  I  I131  1  0.66903121  0.49672709  0.83346511  1
  I  I132  1  0.66672984  0.83362377  0.16987753  1
  I  I133  1  0.66381819  0.82996333  0.50286156  1
  I  I134  1  0.66729973  0.83327124  0.82766176  1
