# generated using pymatgen
data_Cs27Sn13Pb14I81
_symmetry_space_group_name_H-M   'P 1'
_cell_length_a   18.99230840
_cell_length_b   18.99984673
_cell_length_c   18.98626180
_cell_angle_alpha   90.00011173
_cell_angle_beta   89.99929818
_cell_angle_gamma   89.99930655
_symmetry_Int_Tables_number   1
_chemical_formula_structural   Cs27Sn13Pb14I81
_chemical_formula_sum   'Cs27 Sn13 Pb14 I81'
_cell_volume   6851.21058196
_cell_formula_units_Z   1
loop_
 _symmetry_equiv_pos_site_id
 _symmetry_equiv_pos_as_xyz
  1  'x, y, z'
loop_
 _atom_site_type_symbol
 _atom_site_label
 _atom_site_symmetry_multiplicity
 _atom_site_fract_x
 _atom_site_fract_y
 _atom_site_fract_z
 _atom_site_occupancy
  Cs  Cs0  1  0.00055806  -0.00053714  0.00170470  1
  Cs  Cs1  1  0.00032849  -0.00022283  0.33137665  1
  Cs  Cs2  1  -0.00552074  0.00868116  0.66756056  1
  Cs  Cs3  1  -0.00085328  0.33348432  0.00076309  1
  Cs  Cs4  1  -0.00191253  0.33552571  0.33370040  1
  Cs  Cs5  1  -0.00529721  0.32289941  0.66506771  1
  Cs  Cs6  1  0.00297289  0.66689377  0.00072360  1
  Cs  Cs7  1  0.00165227  0.66491056  0.33367583  1
  Cs  Cs8  1  -0.00061693  0.66770081  0.66472357  1
  Cs  Cs9  1  0.33233442  -0.00036375  0.00270318  1
  Cs  Cs10  1  0.33494577  -0.00028902  0.33228832  1
  Cs  Cs11  1  0.34015103  0.00847312  0.66424439  1
  Cs  Cs12  1  0.33364993  0.33463367  0.00037527  1
  Cs  Cs13  1  0.33373053  0.33614253  0.33347037  1
  Cs  Cs14  1  0.33480789  0.32883494  0.66683242  1
  Cs  Cs15  1  0.33151480  0.66604773  0.00016154  1
  Cs  Cs16  1  0.33182961  0.66520055  0.33323779  1
  Cs  Cs17  1  0.33284624  0.66563366  0.66545787  1
  Cs  Cs18  1  0.66782293  -0.00138335  -0.00042967  1
  Cs  Cs19  1  0.66470639  -0.00094310  0.33554233  1
  Cs  Cs20  1  0.66707704  -0.00310997  0.66569603  1
  Cs  Cs21  1  0.66683164  0.33706253  -0.00426261  1
  Cs  Cs22  1  0.66799915  0.33549838  0.33313553  1
  Cs  Cs23  1  0.67371085  0.32759204  0.67682719  1
  Cs  Cs24  1  0.66750272  0.66471942  -0.00655505  1
  Cs  Cs25  1  0.66769582  0.66591633  0.33551489  1
  Cs  Cs26  1  0.67268055  0.67498476  0.67525226  1
  Sn  Sn27  1  0.16748378  0.49986213  0.16674514  1
  Sn  Sn28  1  0.16717038  0.83309054  0.83225093  1
  Sn  Sn29  1  0.49915574  0.50034718  0.16757537  1
  Sn  Sn30  1  0.16689793  0.83322940  0.16691957  1
  Sn  Sn31  1  0.49994661  0.50023320  0.50002415  1
  Sn  Sn32  1  0.83318035  0.83362241  0.16695928  1
  Sn  Sn33  1  0.50016385  0.83261083  0.16682506  1
  Sn  Sn34  1  0.50033423  0.16703617  0.16686843  1
  Sn  Sn35  1  0.83296952  0.16591781  0.16691454  1
  Sn  Sn36  1  0.16693327  0.83328828  0.50064562  1
  Sn  Sn37  1  0.16673631  0.16698107  0.16694737  1
  Sn  Sn38  1  0.16675364  0.50051596  0.83248755  1
  Sn  Sn39  1  0.16729646  0.50060937  0.50056652  1
  Pb  Pb40  1  0.49784801  0.83090810  0.49815641  1
  Pb  Pb41  1  0.49774397  0.50010383  0.83257128  1
  Pb  Pb42  1  0.16690907  0.16643027  0.83582339  1
  Pb  Pb43  1  0.16675644  0.16684303  0.49732186  1
  Pb  Pb44  1  0.50015280  0.16975264  0.49776203  1
  Pb  Pb45  1  0.83645481  0.83341039  0.83582456  1
  Pb  Pb46  1  0.49982978  0.16648025  0.83585239  1
  Pb  Pb47  1  0.83594358  0.83320408  0.49764058  1
  Pb  Pb48  1  0.49698344  0.83334745  0.83523493  1
  Pb  Pb49  1  0.83272240  0.50014577  0.50010451  1
  Pb  Pb50  1  0.83331298  0.16617133  0.83654279  1
  Pb  Pb51  1  0.83291538  0.50042202  0.16670097  1
  Pb  Pb52  1  0.83284069  0.16653280  0.49708328  1
  Pb  Pb53  1  0.83700942  0.50018342  0.83318424  1
  I  I54  1  0.16827735  -0.00105264  0.16617219  1
  I  I55  1  0.16531335  -0.00299977  0.49718493  1
  I  I56  1  0.16587071  -0.00322859  0.83710775  1
  I  I57  1  0.16850744  0.33421383  0.16617608  1
  I  I58  1  0.17028884  0.33691111  0.49861318  1
  I  I59  1  0.16766518  0.33644247  0.83542430  1
  I  I60  1  0.16803675  0.66684024  0.16628649  1
  I  I61  1  0.16942208  0.66613907  0.49373284  1
  I  I62  1  0.16706523  0.66658838  0.84080565  1
  I  I63  1  0.49588515  -0.00032906  0.16481191  1
  I  I64  1  0.49738320  -0.00012597  0.49729455  1
  I  I65  1  0.49557630  -0.00017364  0.83674133  1
  I  I66  1  0.49584258  0.33389778  0.17020926  1
  I  I67  1  0.48902964  0.33778040  0.49074063  1
  I  I68  1  0.49653184  0.33356175  0.83722540  1
  I  I69  1  0.49522060  0.66640160  0.17002046  1
  I  I70  1  0.49539085  0.66304250  0.49018378  1
  I  I71  1  0.50136664  0.66664937  0.83881208  1
  I  I72  1  0.83616119  -0.00036513  0.16638630  1
  I  I73  1  0.83662606  -0.00027258  0.49950276  1
  I  I74  1  0.83794784  -0.00030707  0.83419284  1
  I  I75  1  0.83537002  0.33066952  0.16677304  1
  I  I76  1  0.83796995  0.33345635  0.49590775  1
  I  I77  1  0.83540579  0.33320561  0.83622087  1
  I  I78  1  0.83609782  0.66967132  0.16689738  1
  I  I79  1  0.83349968  0.66679522  0.49476112  1
  I  I80  1  0.83095905  0.66695124  0.83746320  1
  I  I81  1  0.16679649  0.16655062  0.00499895  1
  I  I82  1  0.16673112  0.16595122  0.32837367  1
  I  I83  1  0.16550760  0.16666148  0.66656023  1
  I  I84  1  0.16961918  0.50241040  0.00194479  1
  I  I85  1  0.16977551  0.50252566  0.33193532  1
  I  I86  1  0.17115458  0.51047577  0.66604558  1
  I  I87  1  0.16624493  0.83076627  0.00243767  1
  I  I88  1  0.16618051  0.83082530  0.33116920  1
  I  I89  1  0.16660774  0.82167144  0.66645308  1
  I  I90  1  0.49832880  0.16996554  0.00572883  1
  I  I91  1  0.49815857  0.16367885  0.32832176  1
  I  I92  1  0.49884312  0.16847924  0.66629332  1
  I  I93  1  0.49601530  0.49907967  0.00365423  1
  I  I94  1  0.49071479  0.49971694  0.33098661  1
  I  I95  1  0.49189760  0.50005226  0.66328124  1
  I  I96  1  0.49742046  0.83104679  0.00517331  1
  I  I97  1  0.49688249  0.83629727  0.32867542  1
  I  I98  1  0.49840583  0.83145428  0.66640429  1
  I  I99  1  0.83519491  0.16260698  0.00518748  1
  I  I100  1  0.83533113  0.16306873  0.32818827  1
  I  I101  1  0.83492695  0.16852845  0.66689627  1
  I  I102  1  0.83340841  0.49919804  0.00045806  1
  I  I103  1  0.83939033  0.49932148  0.33287034  1
  I  I104  1  0.83242100  0.49959578  0.66669927  1
  I  I105  1  0.83584428  0.83739944  0.00464815  1
  I  I106  1  0.83658055  0.83725454  0.32873833  1
  I  I107  1  0.83426343  0.83228497  0.66678405  1
  I  I108  1  0.00097017  0.16340875  0.16630635  1
  I  I109  1  0.00032583  0.16936011  0.49652859  1
  I  I110  1  0.00041071  0.16807970  0.83672983  1
  I  I111  1  0.00354113  0.50006471  0.16701878  1
  I  I112  1  0.00422275  0.50438696  0.49674641  1
  I  I113  1  0.00558407  0.50503696  0.83775794  1
  I  I114  1  0.00199948  0.83619251  0.16621240  1
  I  I115  1  0.00488539  0.82530110  0.49569376  1
  I  I116  1  0.00472521  0.82778548  0.83804276  1
  I  I117  1  0.33287797  0.16423557  0.16628421  1
  I  I118  1  0.33322241  0.16420909  0.49679211  1
  I  I119  1  0.33290273  0.16679866  0.83709787  1
  I  I120  1  0.33183388  0.49984358  0.16653713  1
  I  I121  1  0.33152029  0.50419750  0.49600596  1
  I  I122  1  0.32932858  0.50458226  0.83718424  1
  I  I123  1  0.33190500  0.83543075  0.16616090  1
  I  I124  1  0.32917836  0.83070585  0.49509085  1
  I  I125  1  0.32867348  0.82804603  0.83911646  1
  I  I126  1  0.66614410  0.16341957  0.16726133  1
  I  I127  1  0.66636047  0.16920411  0.49482425  1
  I  I128  1  0.66672232  0.16911289  0.83699477  1
  I  I129  1  0.66304097  0.49944263  0.17195762  1
  I  I130  1  0.66292988  0.49838471  0.48759080  1
  I  I131  1  0.66646098  0.49860723  0.83532694  1
  I  I132  1  0.66612443  0.83696691  0.16742281  1
  I  I133  1  0.66643683  0.83153265  0.49670221  1
  I  I134  1  0.66672272  0.83316710  0.83573605  1
