# generated using pymatgen
data_Cs27Sn13Pb14I81
_symmetry_space_group_name_H-M   'P 1'
_cell_length_a   18.97043904
_cell_length_b   18.97647329
_cell_length_c   18.98509387
_cell_angle_alpha   89.99959667
_cell_angle_beta   90.00123985
_cell_angle_gamma   90.00160896
_symmetry_Int_Tables_number   1
_chemical_formula_structural   Cs27Sn13Pb14I81
_chemical_formula_sum   'Cs27 Sn13 Pb14 I81'
_cell_volume   6834.48247249
_cell_formula_units_Z   1
loop_
 _symmetry_equiv_pos_site_id
 _symmetry_equiv_pos_as_xyz
  1  'x, y, z'
loop_
 _atom_site_type_symbol
 _atom_site_label
 _atom_site_symmetry_multiplicity
 _atom_site_fract_x
 _atom_site_fract_y
 _atom_site_fract_z
 _atom_site_occupancy
  Cs  Cs0  1  -0.00023627  -0.00022739  0.00112076  1
  Cs  Cs1  1  0.00479180  -0.00062255  0.33475190  1
  Cs  Cs2  1  -0.00263734  -0.00327673  0.66546890  1
  Cs  Cs3  1  -0.00612821  0.33262132  0.00076456  1
  Cs  Cs4  1  0.00002636  0.33283548  0.33242967  1
  Cs  Cs5  1  0.00337556  0.33166342  0.66670185  1
  Cs  Cs6  1  -0.00118700  0.66694764  -0.00184128  1
  Cs  Cs7  1  -0.00241780  0.66848379  0.33593713  1
  Cs  Cs8  1  -0.00622263  0.67481486  0.66457117  1
  Cs  Cs9  1  0.33241638  -0.00036884  0.00124444  1
  Cs  Cs10  1  0.33307646  0.00111672  0.33033911  1
  Cs  Cs11  1  0.33351482  0.00128087  0.66809668  1
  Cs  Cs12  1  0.33264552  0.33669846  -0.00271134  1
  Cs  Cs13  1  0.33361833  0.33189644  0.33543841  1
  Cs  Cs14  1  0.33260203  0.33376829  0.66681438  1
  Cs  Cs15  1  0.33487420  0.66497737  -0.00040707  1
  Cs  Cs16  1  0.33330371  0.66607352  0.33149681  1
  Cs  Cs17  1  0.33338603  0.66477146  0.66903871  1
  Cs  Cs18  1  0.66676881  0.00088751  0.00072205  1
  Cs  Cs19  1  0.66236299  0.00038009  0.33142209  1
  Cs  Cs20  1  0.66758480  0.00000760  0.66770823  1
  Cs  Cs21  1  0.67479086  0.33245150  0.00099353  1
  Cs  Cs22  1  0.66768719  0.33188091  0.33597745  1
  Cs  Cs23  1  0.66812568  0.33429657  0.66382261  1
  Cs  Cs24  1  0.66381620  0.66704170  0.00261482  1
  Cs  Cs25  1  0.66791496  0.66631157  0.33257800  1
  Cs  Cs26  1  0.67063322  0.66649811  0.66331739  1
  Sn  Sn27  1  0.49969584  0.83304126  0.83318372  1
  Sn  Sn28  1  0.83282682  0.83347853  0.16655579  1
  Sn  Sn29  1  0.16736728  0.49994691  0.16633437  1
  Sn  Sn30  1  0.49940493  0.16730850  0.83360069  1
  Sn  Sn31  1  0.49929909  0.50013195  0.16616368  1
  Sn  Sn32  1  0.16746568  0.16725564  0.83275654  1
  Sn  Sn33  1  0.49999576  0.49960868  0.83401082  1
  Sn  Sn34  1  0.16688724  0.49944806  0.83310678  1
  Sn  Sn35  1  0.50052913  0.83259372  0.16665304  1
  Sn  Sn36  1  0.49930122  0.83314983  0.50000199  1
  Sn  Sn37  1  0.16606748  0.16730870  0.50090832  1
  Sn  Sn38  1  0.83408165  0.16676516  0.49996644  1
  Sn  Sn39  1  0.16682740  0.49985650  0.50054426  1
  Pb  Pb40  1  0.83300158  0.50177892  0.16675784  1
  Pb  Pb41  1  0.16883239  0.83369463  0.50011825  1
  Pb  Pb42  1  0.83067193  0.83568282  0.49779822  1
  Pb  Pb43  1  0.49822691  0.50168465  0.50011470  1
  Pb  Pb44  1  0.49909724  0.16487353  0.50225573  1
  Pb  Pb45  1  0.83341360  0.16399373  0.16935496  1
  Pb  Pb46  1  0.83653974  0.49788086  0.49997895  1
  Pb  Pb47  1  0.16691764  0.16943743  0.16605154  1
  Pb  Pb48  1  0.83349699  0.50004039  0.83318733  1
  Pb  Pb49  1  0.83028983  0.83339510  0.83567738  1
  Pb  Pb50  1  0.16724165  0.83070964  0.16654358  1
  Pb  Pb51  1  0.49983116  0.16758601  0.16377642  1
  Pb  Pb52  1  0.83398056  0.16665379  0.83150957  1
  Pb  Pb53  1  0.16847477  0.83328392  0.83331832  1
  I  I54  1  0.16673429  -0.00003218  0.16753734  1
  I  I55  1  0.16380651  0.00340297  0.50521933  1
  I  I56  1  0.17134574  0.00331947  0.82755761  1
  I  I57  1  0.17364640  0.33761803  0.16735425  1
  I  I58  1  0.16427981  0.33338702  0.50073924  1
  I  I59  1  0.17550903  0.33377970  0.83165087  1
  I  I60  1  0.16905817  0.66240146  0.16606199  1
  I  I61  1  0.17021160  0.66356615  0.50037495  1
  I  I62  1  0.17145692  0.66297989  0.83367532  1
  I  I63  1  0.50443636  -0.00298117  0.16612843  1
  I  I64  1  0.49874891  -0.00319500  0.49914029  1
  I  I65  1  0.49646847  -0.00009231  0.83253336  1
  I  I66  1  0.49478792  0.33714807  0.16331128  1
  I  I67  1  0.50232458  0.33329319  0.49903131  1
  I  I68  1  0.49475644  0.33414814  0.83712865  1
  I  I69  1  0.49949432  0.66683638  0.16211168  1
  I  I70  1  0.49798828  0.66969247  0.50354131  1
  I  I71  1  0.49544874  0.66621256  0.83501494  1
  I  I72  1  0.82465147  -0.00382810  0.16599221  1
  I  I73  1  0.84127561  0.00317753  0.50025718  1
  I  I74  1  0.83304398  0.00001895  0.83362448  1
  I  I75  1  0.83253804  0.33336254  0.16707733  1
  I  I76  1  0.83196564  0.32992413  0.50009070  1
  I  I77  1  0.82740769  0.33324046  0.83411275  1
  I  I78  1  0.83011843  0.66958976  0.16795614  1
  I  I79  1  0.83435573  0.66701550  0.49937966  1
  I  I80  1  0.83539568  0.66679426  0.83195478  1
  I  I81  1  0.17218971  0.16920804  -0.00363326  1
  I  I82  1  0.16260273  0.16995860  0.33627699  1
  I  I83  1  0.16788156  0.17472963  0.66689872  1
  I  I84  1  0.17222911  0.49723774  -0.00073226  1
  I  I85  1  0.17101948  0.49692088  0.33333301  1
  I  I86  1  0.17261946  0.49435290  0.66742557  1
  I  I87  1  0.16776324  0.83503197  -0.00001772  1
  I  I88  1  0.17015320  0.83346366  0.33332355  1
  I  I89  1  0.16947968  0.82863487  0.66669903  1
  I  I90  1  0.49368420  0.16181321  -0.00443630  1
  I  I91  1  0.50009141  0.16509775  0.33349436  1
  I  I92  1  0.49860078  0.16698481  0.67039068  1
  I  I93  1  0.49139802  0.50579694  -0.00037437  1
  I  I94  1  0.49556712  0.50617210  0.33059027  1
  I  I95  1  0.49572429  0.50091491  0.66986359  1
  I  I96  1  0.50364916  0.83214108  -0.00000315  1
  I  I97  1  0.50366101  0.82911540  0.33220957  1
  I  I98  1  0.49715809  0.83382576  0.66769613  1
  I  I99  1  0.83345607  0.16585195  -0.00000858  1
  I  I100  1  0.83953129  0.16700060  0.33715491  1
  I  I101  1  0.83459138  0.16535193  0.66375754  1
  I  I102  1  0.83758400  0.49966585  0.00007853  1
  I  I103  1  0.83283585  0.49985850  0.33334118  1
  I  I104  1  0.83048755  0.50131622  0.66651757  1
  I  I105  1  0.82805463  0.83281571  0.00344481  1
  I  I106  1  0.82615230  0.83302202  0.33025987  1
  I  I107  1  0.83203046  0.83388120  0.66639593  1
  I  I108  1  0.00026448  0.16604620  0.16211661  1
  I  I109  1  0.00187906  0.17039040  0.50516934  1
  I  I110  1  0.00382031  0.17290918  0.83182096  1
  I  I111  1  0.00335027  0.50056944  0.16588375  1
  I  I112  1  0.00513657  0.49987536  0.49971990  1
  I  I113  1  0.00420135  0.49345397  0.83524268  1
  I  I114  1  -0.00237419  0.83256426  0.16813425  1
  I  I115  1  -0.00004279  0.83129760  0.49756295  1
  I  I116  1  -0.00008585  0.83335106  0.83488012  1
  I  I117  1  0.33343022  0.16047104  0.17243450  1
  I  I118  1  0.33013837  0.16974579  0.50239164  1
  I  I119  1  0.33323681  0.16718494  0.82730348  1
  I  I120  1  0.33401782  0.50618285  0.16538692  1
  I  I121  1  0.33002098  0.49379381  0.49990345  1
  I  I122  1  0.33368506  0.49977812  0.83417764  1
  I  I123  1  0.33716081  0.83149644  0.16607656  1
  I  I124  1  0.33701178  0.83525077  0.49725651  1
  I  I125  1  0.33739018  0.83334877  0.83668601  1
  I  I126  1  0.66642498  0.17077376  0.16731790  1
  I  I127  1  0.66817209  0.16288807  0.50101240  1
  I  I128  1  0.66342893  0.16610755  0.83243697  1
  I  I129  1  0.66295363  0.50282283  0.16105270  1
  I  I130  1  0.66646762  0.49930272  0.49958050  1
  I  I131  1  0.66244596  0.49984508  0.83906253  1
  I  I132  1  0.66408430  0.82772234  0.16641995  1
  I  I133  1  0.66265670  0.83461007  0.50312612  1
  I  I134  1  0.66142189  0.83347499  0.83069994  1
