# generated using pymatgen
data_Cs27Sn13Pb14I81
_symmetry_space_group_name_H-M   'P 1'
_cell_length_a   18.97601628
_cell_length_b   18.97539387
_cell_length_c   18.97696353
_cell_angle_alpha   89.99940838
_cell_angle_beta   89.99969677
_cell_angle_gamma   90.00258975
_symmetry_Int_Tables_number   1
_chemical_formula_structural   Cs27Sn13Pb14I81
_chemical_formula_sum   'Cs27 Sn13 Pb14 I81'
_cell_volume   6833.17535771
_cell_formula_units_Z   1
loop_
 _symmetry_equiv_pos_site_id
 _symmetry_equiv_pos_as_xyz
  1  'x, y, z'
loop_
 _atom_site_type_symbol
 _atom_site_label
 _atom_site_symmetry_multiplicity
 _atom_site_fract_x
 _atom_site_fract_y
 _atom_site_fract_z
 _atom_site_occupancy
  Cs  Cs0  1  0.00120894  0.00172890  0.00058748  1
  Cs  Cs1  1  0.00438742  -0.00215012  0.33280949  1
  Cs  Cs2  1  -0.00041591  -0.00046981  0.66703742  1
  Cs  Cs3  1  -0.01068095  0.33192539  0.00066298  1
  Cs  Cs4  1  -0.00369860  0.33432780  0.33010466  1
  Cs  Cs5  1  0.00083150  0.33774399  0.66825375  1
  Cs  Cs6  1  -0.00064834  0.66732141  -0.00063185  1
  Cs  Cs7  1  0.00004531  0.66764128  0.34310837  1
  Cs  Cs8  1  0.00202713  0.66183736  0.65706675  1
  Cs  Cs9  1  0.33145963  -0.00043076  -0.00050027  1
  Cs  Cs10  1  0.33280762  0.00045618  0.33220177  1
  Cs  Cs11  1  0.33398534  0.00336898  0.66894796  1
  Cs  Cs12  1  0.33308405  0.33479240  0.00074911  1
  Cs  Cs13  1  0.33658584  0.33302065  0.33244474  1
  Cs  Cs14  1  0.33125781  0.33119912  0.66611466  1
  Cs  Cs15  1  0.33550195  0.66519151  -0.00105410  1
  Cs  Cs16  1  0.33242017  0.66584740  0.33173929  1
  Cs  Cs17  1  0.33239429  0.66231747  0.67114223  1
  Cs  Cs18  1  0.66804675  -0.00272672  -0.00153389  1
  Cs  Cs19  1  0.66393146  -0.00122788  0.33621028  1
  Cs  Cs20  1  0.66663812  0.00055190  0.66566159  1
  Cs  Cs21  1  0.67515500  0.33364914  -0.00005050  1
  Cs  Cs22  1  0.66325051  0.33483129  0.33235679  1
  Cs  Cs23  1  0.66940471  0.33042379  0.66846306  1
  Cs  Cs24  1  0.66403505  0.66902249  -0.00034134  1
  Cs  Cs25  1  0.66752846  0.66712676  0.33239594  1
  Cs  Cs26  1  0.66615762  0.66737352  0.66837704  1
  Sn  Sn27  1  0.16551014  0.83357663  0.83328639  1
  Sn  Sn28  1  0.50035909  0.83343003  0.16739716  1
  Sn  Sn29  1  0.49994567  0.16652264  0.16503361  1
  Sn  Sn30  1  0.16711883  0.16618982  0.83302132  1
  Sn  Sn31  1  0.83315463  0.83347281  0.16638113  1
  Sn  Sn32  1  0.16678344  0.50001422  0.16635341  1
  Sn  Sn33  1  0.83482672  0.16652224  0.49964905  1
  Sn  Sn34  1  0.49978420  0.50124408  0.49971862  1
  Sn  Sn35  1  0.49928276  0.50011053  0.16717758  1
  Sn  Sn36  1  0.83489964  0.83344174  0.83357333  1
  Sn  Sn37  1  0.16529570  0.16646415  0.50019683  1
  Sn  Sn38  1  0.49950194  0.83207839  0.49959262  1
  Sn  Sn39  1  0.49956445  0.16667946  0.83483451  1
  Pb  Pb40  1  0.83390244  0.16480391  0.83175325  1
  Pb  Pb41  1  0.16901981  0.49725371  0.49774053  1
  Pb  Pb42  1  0.83286263  0.50308767  0.16681367  1
  Pb  Pb43  1  0.16829281  0.16857874  0.16608450  1
  Pb  Pb44  1  0.16968066  0.83516523  0.50254841  1
  Pb  Pb45  1  0.50014992  0.49672522  0.83375053  1
  Pb  Pb46  1  0.83034586  0.49726440  0.49982511  1
  Pb  Pb47  1  0.49956675  0.16681992  0.49993924  1
  Pb  Pb48  1  0.16654059  0.49934018  0.83575655  1
  Pb  Pb49  1  0.83147459  0.83482515  0.50000302  1
  Pb  Pb50  1  0.83057838  0.16391591  0.16908404  1
  Pb  Pb51  1  0.49968305  0.83505159  0.83354466  1
  Pb  Pb52  1  0.83345750  0.50371523  0.83313485  1
  Pb  Pb53  1  0.16690450  0.83140964  0.16491367  1
  I  I54  1  0.16829719  0.00004714  0.16790911  1
  I  I55  1  0.16696019  0.00323865  0.50013221  1
  I  I56  1  0.16806859  0.00073301  0.83104935  1
  I  I57  1  0.17490135  0.33618567  0.16681748  1
  I  I58  1  0.16654715  0.32938813  0.50717908  1
  I  I59  1  0.17315192  0.32971612  0.82930861  1
  I  I60  1  0.17401024  0.66390247  0.16412996  1
  I  I61  1  0.16610110  0.66660106  0.50102318  1
  I  I62  1  0.16391852  0.66948523  0.83601523  1
  I  I63  1  0.50406752  -0.00049859  0.16789039  1
  I  I64  1  0.50064529  -0.00183809  0.49675196  1
  I  I65  1  0.49858957  0.00296126  0.83562282  1
  I  I66  1  0.49443401  0.33348534  0.16866127  1
  I  I67  1  0.49984125  0.33519752  0.49585496  1
  I  I68  1  0.49352317  0.32861058  0.83464980  1
  I  I69  1  0.50032464  0.66712049  0.17150540  1
  I  I70  1  0.50098966  0.66710420  0.49200793  1
  I  I71  1  0.50000151  0.66679105  0.83448989  1
  I  I72  1  0.82775176  -0.00375795  0.16301091  1
  I  I73  1  0.83222271  0.00261564  0.50032581  1
  I  I74  1  0.83309091  -0.00297557  0.83680439  1
  I  I75  1  0.83221032  0.33314904  0.16741708  1
  I  I76  1  0.83415417  0.32935781  0.50097612  1
  I  I77  1  0.83273581  0.33291470  0.83237348  1
  I  I78  1  0.82629239  0.67081746  0.16256244  1
  I  I79  1  0.83331694  0.66685094  0.50021807  1
  I  I80  1  0.83630165  0.67202785  0.83742104  1
  I  I81  1  0.17102986  0.16334195  -0.00296363  1
  I  I82  1  0.16607293  0.16825497  0.33553474  1
  I  I83  1  0.17097111  0.16268838  0.66747343  1
  I  I84  1  0.17623960  0.49963892  0.00339880  1
  I  I85  1  0.17046892  0.49964922  0.33007469  1
  I  I86  1  0.16835076  0.50146679  0.66652839  1
  I  I87  1  0.16785551  0.83991596  -0.00304298  1
  I  I88  1  0.16474402  0.83440013  0.33343769  1
  I  I89  1  0.16259926  0.83527235  0.67047423  1
  I  I90  1  0.49409283  0.16517813  0.00042437  1
  I  I91  1  0.50020051  0.16638923  0.33096641  1
  I  I92  1  0.49918052  0.16521538  0.66853264  1
  I  I93  1  0.49599527  0.50345537  0.00364771  1
  I  I94  1  0.49659830  0.49773282  0.33208525  1
  I  I95  1  0.50069303  0.50381370  0.66387722  1
  I  I96  1  0.50117690  0.83152697  0.00284709  1
  I  I97  1  0.50539777  0.83564209  0.33190435  1
  I  I98  1  0.50045716  0.83208106  0.66449293  1
  I  I99  1  0.83435667  0.16736325  0.00018586  1
  I  I100  1  0.83689113  0.16438619  0.33661314  1
  I  I101  1  0.82920382  0.16315965  0.66414341  1
  I  I102  1  0.83125100  0.49605612  0.00030356  1
  I  I103  1  0.83513178  0.50169857  0.33322151  1
  I  I104  1  0.83115323  0.50157461  0.66630860  1
  I  I105  1  0.82941390  0.83449458  0.00024545  1
  I  I106  1  0.82870136  0.83468637  0.33081695  1
  I  I107  1  0.83408533  0.83648813  0.66912126  1
  I  I108  1  -0.00016125  0.16780250  0.16522248  1
  I  I109  1  0.00088777  0.16481396  0.50594450  1
  I  I110  1  0.00302100  0.16398581  0.83061601  1
  I  I111  1  0.00241252  0.49960257  0.16434290  1
  I  I112  1  0.00024087  0.50098578  0.49827870  1
  I  I113  1  0.00021586  0.49472547  0.83697734  1
  I  I114  1  -0.00235088  0.83235475  0.16330352  1
  I  I115  1  0.00025699  0.83376018  0.49753106  1
  I  I116  1  0.00008885  0.84060916  0.84035001  1
  I  I117  1  0.33695025  0.16200150  0.16838730  1
  I  I118  1  0.33148970  0.16660568  0.50199710  1
  I  I119  1  0.33301321  0.16043651  0.83064560  1
  I  I120  1  0.33571123  0.50171208  0.17006336  1
  I  I121  1  0.33703208  0.50111457  0.49735816  1
  I  I122  1  0.33350453  0.50476693  0.83238291  1
  I  I123  1  0.33672280  0.83504717  0.16886699  1
  I  I124  1  0.33756670  0.83339786  0.49383797  1
  I  I125  1  0.33118400  0.83688124  0.83313408  1
  I  I126  1  0.66211315  0.17135752  0.16321889  1
  I  I127  1  0.66777890  0.16587743  0.49990702  1
  I  I128  1  0.66434434  0.16533516  0.83442500  1
  I  I129  1  0.66289536  0.49791869  0.17088261  1
  I  I130  1  0.66223374  0.50096225  0.49234203  1
  I  I131  1  0.66637240  0.49886827  0.83481778  1
  I  I132  1  0.66494809  0.83224974  0.16414331  1
  I  I133  1  0.66328555  0.83412588  0.50029387  1
  I  I134  1  0.66829267  0.83550261  0.83453750  1
