# generated using pymatgen
data_Cs27Sn14Pb13I81
_symmetry_space_group_name_H-M   'P 1'
_cell_length_a   18.98524182
_cell_length_b   18.97160335
_cell_length_c   18.97097283
_cell_angle_alpha   89.99782485
_cell_angle_beta   90.00128291
_cell_angle_gamma   89.99984671
_symmetry_Int_Tables_number   1
_chemical_formula_structural   Cs27Sn14Pb13I81
_chemical_formula_sum   'Cs27 Sn14 Pb13 I81'
_cell_volume   6832.97404353
_cell_formula_units_Z   1
loop_
 _symmetry_equiv_pos_site_id
 _symmetry_equiv_pos_as_xyz
  1  'x, y, z'
loop_
 _atom_site_type_symbol
 _atom_site_label
 _atom_site_symmetry_multiplicity
 _atom_site_fract_x
 _atom_site_fract_y
 _atom_site_fract_z
 _atom_site_occupancy
  Cs  Cs0  1  -0.00066526  -0.00132920  -0.00082151  1
  Cs  Cs1  1  -0.00052003  0.00208295  0.33213098  1
  Cs  Cs2  1  -0.00148701  0.00343738  0.66974658  1
  Cs  Cs3  1  -0.00182414  0.33403516  -0.00117237  1
  Cs  Cs4  1  0.00158884  0.33205276  0.33573045  1
  Cs  Cs5  1  0.00070365  0.32991602  0.66407735  1
  Cs  Cs6  1  -0.00043665  0.66648365  -0.00593408  1
  Cs  Cs7  1  0.00130465  0.66647718  0.33258614  1
  Cs  Cs8  1  0.00176336  0.66667977  0.67209847  1
  Cs  Cs9  1  0.33525898  0.00274039  0.00150328  1
  Cs  Cs10  1  0.33104643  -0.00220139  0.33088723  1
  Cs  Cs11  1  0.33701383  -0.00138427  0.66741257  1
  Cs  Cs12  1  0.34398439  0.33001166  -0.00136223  1
  Cs  Cs13  1  0.33016208  0.33215592  0.33113076  1
  Cs  Cs14  1  0.33556008  0.33450381  0.66888268  1
  Cs  Cs15  1  0.33001457  0.66626550  -0.00172426  1
  Cs  Cs16  1  0.33092495  0.66877437  0.33588922  1
  Cs  Cs17  1  0.33015379  0.66617386  0.66406454  1
  Cs  Cs18  1  0.66734222  0.00036312  -0.00106038  1
  Cs  Cs19  1  0.66969643  -0.00383625  0.33454836  1
  Cs  Cs20  1  0.66561308  0.00020192  0.66627343  1
  Cs  Cs21  1  0.65945134  0.33903845  0.00033688  1
  Cs  Cs22  1  0.66784878  0.33708552  0.33327533  1
  Cs  Cs23  1  0.66355999  0.33062809  0.66578497  1
  Cs  Cs24  1  0.67026087  0.66042709  0.00091842  1
  Cs  Cs25  1  0.66663900  0.66755684  0.33363849  1
  Cs  Cs26  1  0.66846071  0.66835450  0.66407959  1
  Sn  Sn27  1  0.50020456  0.83308642  0.16524172  1
  Sn  Sn28  1  0.83397205  0.50108997  0.49995767  1
  Sn  Sn29  1  0.49960517  0.49889970  0.49953700  1
  Sn  Sn30  1  0.16653627  0.50045077  0.16696350  1
  Sn  Sn31  1  0.83504906  0.83251820  0.49955202  1
  Sn  Sn32  1  0.83326039  0.16655818  0.16558575  1
  Sn  Sn33  1  0.16504010  0.83315290  0.49966056  1
  Sn  Sn34  1  0.83361302  0.83371238  0.16712978  1
  Sn  Sn35  1  0.49968584  0.16735913  0.49891743  1
  Sn  Sn36  1  0.16636743  0.50075653  0.49926742  1
  Sn  Sn37  1  0.50013696  0.83274801  0.83474161  1
  Sn  Sn38  1  0.16620206  0.83257689  0.16717435  1
  Sn  Sn39  1  0.83366794  0.16676515  0.83480436  1
  Sn  Sn40  1  0.16633688  0.16670363  0.83364380  1
  Pb  Pb41  1  0.83333073  0.49690736  0.83028079  1
  Pb  Pb42  1  0.16874316  0.16629788  0.50146430  1
  Pb  Pb43  1  0.49730260  0.50279398  0.16908874  1
  Pb  Pb44  1  0.83154000  0.83471950  0.83341771  1
  Pb  Pb45  1  0.83185447  0.16632832  0.49961484  1
  Pb  Pb46  1  0.50279015  0.16454149  0.16921648  1
  Pb  Pb47  1  0.50056150  0.16508485  0.83187259  1
  Pb  Pb48  1  0.49987550  0.83277390  0.49929413  1
  Pb  Pb49  1  0.16669748  0.49735030  0.83353011  1
  Pb  Pb50  1  0.50002705  0.50324605  0.83084884  1
  Pb  Pb51  1  0.16832116  0.83510146  0.83348728  1
  Pb  Pb52  1  0.16481051  0.16672986  0.16460315  1
  Pb  Pb53  1  0.83552735  0.50044501  0.16852190  1
  I  I54  1  0.16841112  -0.00343922  0.17080187  1
  I  I55  1  0.16419815  -0.00328197  0.49619865  1
  I  I56  1  0.16343463  0.00263717  0.83208697  1
  I  I57  1  0.16353506  0.33590118  0.17247940  1
  I  I58  1  0.16424008  0.33635723  0.49684918  1
  I  I59  1  0.16241792  0.32971580  0.83124127  1
  I  I60  1  0.16594178  0.66822963  0.17179462  1
  I  I61  1  0.16933933  0.66699784  0.49689937  1
  I  I62  1  0.16898214  0.66675790  0.83235735  1
  I  I63  1  0.49432855  -0.00370391  0.16700648  1
  I  I64  1  0.50105699  0.00108581  0.50133865  1
  I  I65  1  0.49959088  -0.00266746  0.83247848  1
  I  I66  1  0.49966378  0.33355455  0.16610432  1
  I  I67  1  0.50113585  0.33424787  0.50206805  1
  I  I68  1  0.49969584  0.33338832  0.83241862  1
  I  I69  1  0.50624271  0.67098598  0.16584652  1
  I  I70  1  0.49987659  0.66431775  0.50009689  1
  I  I71  1  0.49922606  0.67096256  0.83525263  1
  I  I72  1  0.83521052  -0.00174029  0.16996779  1
  I  I73  1  0.83510007  -0.00297776  0.49878382  1
  I  I74  1  0.83601192  0.00263198  0.83108007  1
  I  I75  1  0.83614142  0.33108495  0.16541115  1
  I  I76  1  0.83514914  0.33576147  0.50039870  1
  I  I77  1  0.83688834  0.32883806  0.83790054  1
  I  I78  1  0.83056698  0.67010563  0.17030069  1
  I  I79  1  0.83019013  0.66772144  0.49416387  1
  I  I80  1  0.83159532  0.66669672  0.83472499  1
  I  I81  1  0.16521187  0.16503775  -0.00296301  1
  I  I82  1  0.16634440  0.16644279  0.33317526  1
  I  I83  1  0.16031868  0.16572808  0.66912870  1
  I  I84  1  0.16482996  0.50602074  0.00316261  1
  I  I85  1  0.16712705  0.50396921  0.33478658  1
  I  I86  1  0.16725790  0.50416766  0.66295714  1
  I  I87  1  0.16419549  0.82998650  0.00342323  1
  I  I88  1  0.16902053  0.83057534  0.33337770  1
  I  I89  1  0.16522231  0.82991423  0.66352887  1
  I  I90  1  0.49830966  0.16636080  0.00036332  1
  I  I91  1  0.50053570  0.16817907  0.33690856  1
  I  I92  1  0.50238486  0.16666589  0.66392436  1
  I  I93  1  0.49820833  0.49819416  0.00045654  1
  I  I94  1  0.50270525  0.49865465  0.33730284  1
  I  I95  1  0.49722782  0.49851788  0.66226836  1
  I  I96  1  0.49901046  0.83668174  0.00130331  1
  I  I97  1  0.50022661  0.83357575  0.33091245  1
  I  I98  1  0.49995094  0.83462721  0.66771499  1
  I  I99  1  0.83798629  0.15833305  0.00053738  1
  I  I100  1  0.83137238  0.16383502  0.33110509  1
  I  I101  1  0.83506116  0.16680789  0.66836528  1
  I  I102  1  0.83558035  0.50243659  0.00023287  1
  I  I103  1  0.83092684  0.49882508  0.33691485  1
  I  I104  1  0.83579948  0.50587440  0.66168502  1
  I  I105  1  0.83576036  0.83664972  0.00322124  1
  I  I106  1  0.83117627  0.83618829  0.33322367  1
  I  I107  1  0.83475564  0.83121202  0.66348481  1
  I  I108  1  -0.00301810  0.16030952  0.16715132  1
  I  I109  1  -0.00003424  0.16882275  0.50000154  1
  I  I110  1  -0.00079217  0.16441405  0.83424538  1
  I  I111  1  0.00324519  0.50480645  0.17370950  1
  I  I112  1  0.00059203  0.50407366  0.49598779  1
  I  I113  1  0.00005383  0.50262481  0.83070980  1
  I  I114  1  -0.00002498  0.83442849  0.17287001  1
  I  I115  1  0.00000466  0.82710932  0.49300912  1
  I  I116  1  -0.00006350  0.83392107  0.83411974  1
  I  I117  1  0.33340921  0.16571948  0.16544190  1
  I  I118  1  0.33632442  0.16853446  0.50335600  1
  I  I119  1  0.33165707  0.16502962  0.83044156  1
  I  I120  1  0.32950139  0.50463442  0.17305362  1
  I  I121  1  0.33244595  0.50150789  0.49702473  1
  I  I122  1  0.33331458  0.49671423  0.83050655  1
  I  I123  1  0.33248538  0.82925246  0.16864780  1
  I  I124  1  0.33096328  0.83127440  0.49777321  1
  I  I125  1  0.33603464  0.83737701  0.83467056  1
  I  I126  1  0.67065748  0.16107049  0.16156327  1
  I  I127  1  0.66418931  0.16879462  0.50236692  1
  I  I128  1  0.66928930  0.16382896  0.83435514  1
  I  I129  1  0.66668041  0.50026350  0.16867616  1
  I  I130  1  0.66698004  0.50062695  0.50132486  1
  I  I131  1  0.66664970  0.49762886  0.83196285  1
  I  I132  1  0.66755892  0.83940580  0.16869907  1
  I  I133  1  0.66888694  0.83145674  0.49748995  1
  I  I134  1  0.66385311  0.83734665  0.83395003  1
