# generated using pymatgen
data_Cs27Sn14Pb13I81
_symmetry_space_group_name_H-M   'P 1'
_cell_length_a   18.96778918
_cell_length_b   18.97999915
_cell_length_c   18.98002890
_cell_angle_alpha   89.99919214
_cell_angle_beta   89.99981651
_cell_angle_gamma   90.00113938
_symmetry_Int_Tables_number   1
_chemical_formula_structural   Cs27Sn14Pb13I81
_chemical_formula_sum   'Cs27 Sn14 Pb13 I81'
_cell_volume   6832.97405627
_cell_formula_units_Z   1
loop_
 _symmetry_equiv_pos_site_id
 _symmetry_equiv_pos_as_xyz
  1  'x, y, z'
loop_
 _atom_site_type_symbol
 _atom_site_label
 _atom_site_symmetry_multiplicity
 _atom_site_fract_x
 _atom_site_fract_y
 _atom_site_fract_z
 _atom_site_occupancy
  Cs  Cs0  1  -0.00745065  -0.00174902  -0.00191596  1
  Cs  Cs1  1  0.00466695  0.00264852  0.33142160  1
  Cs  Cs2  1  0.00265137  -0.00084277  0.67069140  1
  Cs  Cs3  1  -0.00003914  0.33635748  0.00371557  1
  Cs  Cs4  1  -0.00299294  0.33503462  0.33396785  1
  Cs  Cs5  1  0.00238919  0.33305448  0.66144804  1
  Cs  Cs6  1  0.00274002  0.66661733  -0.00270591  1
  Cs  Cs7  1  -0.00810098  0.66368090  0.33233443  1
  Cs  Cs8  1  -0.00186164  0.66889489  0.67089475  1
  Cs  Cs9  1  0.33476280  -0.00049942  0.00297651  1
  Cs  Cs10  1  0.33286387  -0.00012326  0.33305572  1
  Cs  Cs11  1  0.33227435  0.00163880  0.66428226  1
  Cs  Cs12  1  0.33438394  0.33438902  0.00061560  1
  Cs  Cs13  1  0.33333656  0.33140976  0.33395203  1
  Cs  Cs14  1  0.33367482  0.33199134  0.66440609  1
  Cs  Cs15  1  0.33177958  0.66651830  0.00007315  1
  Cs  Cs16  1  0.33513861  0.66917268  0.33226662  1
  Cs  Cs17  1  0.33349372  0.66709003  0.66778557  1
  Cs  Cs18  1  0.67272496  0.00388526  -0.00178010  1
  Cs  Cs19  1  0.66711774  -0.00351648  0.33313982  1
  Cs  Cs20  1  0.66911502  -0.00115086  0.66857757  1
  Cs  Cs21  1  0.66558349  0.32923155  -0.00401792  1
  Cs  Cs22  1  0.66717887  0.33442155  0.33369870  1
  Cs  Cs23  1  0.66578328  0.33390435  0.66866818  1
  Cs  Cs24  1  0.66335491  0.66666485  -0.00044023  1
  Cs  Cs25  1  0.67071144  0.66786054  0.33776971  1
  Cs  Cs26  1  0.66689566  0.66511641  0.66256138  1
  Sn  Sn27  1  0.50128351  0.16708337  0.49926009  1
  Sn  Sn28  1  0.49971640  0.50000947  0.16697845  1
  Sn  Sn29  1  0.83180903  0.16631079  0.49982118  1
  Sn  Sn30  1  0.16704161  0.16685162  0.83511955  1
  Sn  Sn31  1  0.49938724  0.16650019  0.16760216  1
  Sn  Sn32  1  0.49957697  0.83301392  0.83403996  1
  Sn  Sn33  1  0.16692686  0.83158698  0.49898217  1
  Sn  Sn34  1  0.49907314  0.49926568  0.49971644  1
  Sn  Sn35  1  0.16748901  0.16603392  0.16525801  1
  Sn  Sn36  1  0.16725383  0.83380842  0.16751725  1
  Sn  Sn37  1  0.83276849  0.49979020  0.83353625  1
  Sn  Sn38  1  0.50047388  0.50085436  0.83324320  1
  Sn  Sn39  1  0.16751710  0.50185400  0.49967004  1
  Sn  Sn40  1  0.49957790  0.83356893  0.16564705  1
  Pb  Pb41  1  0.82994450  0.49989482  0.16386102  1
  Pb  Pb42  1  0.83003344  0.83080354  0.83333623  1
  Pb  Pb43  1  0.16858873  0.50020178  0.16901380  1
  Pb  Pb44  1  0.16731571  0.16665619  0.49899461  1
  Pb  Pb45  1  0.83636975  0.16900908  0.83108796  1
  Pb  Pb46  1  0.16888014  0.83521963  0.83407353  1
  Pb  Pb47  1  0.49877402  0.16666891  0.83332665  1
  Pb  Pb48  1  0.83339886  0.83326562  0.16665563  1
  Pb  Pb49  1  0.16753157  0.49818986  0.83123991  1
  Pb  Pb50  1  0.83322141  0.16671772  0.16866104  1
  Pb  Pb51  1  0.83288250  0.49858257  0.50171701  1
  Pb  Pb52  1  0.83707472  0.83622097  0.49992184  1
  Pb  Pb53  1  0.49874077  0.83350726  0.49980278  1
  I  I54  1  0.17602540  0.00018029  0.17047819  1
  I  I55  1  0.16724283  -0.00182090  0.49935582  1
  I  I56  1  0.16958346  0.00300007  0.82971309  1
  I  I57  1  0.17138234  0.33058176  0.16481572  1
  I  I58  1  0.16811714  0.33514281  0.50154760  1
  I  I59  1  0.16964840  0.33040287  0.83633774  1
  I  I60  1  0.17221094  0.66948984  0.16879524  1
  I  I61  1  0.17430343  0.66629054  0.49645006  1
  I  I62  1  0.16462479  0.66659640  0.83437304  1
  I  I63  1  0.49482303  0.00030092  0.16762051  1
  I  I64  1  0.50051976  0.00270455  0.49763689  1
  I  I65  1  0.49564047  -0.00215788  0.83550926  1
  I  I66  1  0.49590990  0.33303026  0.16741443  1
  I  I67  1  0.49715436  0.33383862  0.49812460  1
  I  I68  1  0.50204413  0.33611740  0.83489464  1
  I  I69  1  0.49561056  0.66680597  0.16504689  1
  I  I70  1  0.49711615  0.66388215  0.49871166  1
  I  I71  1  0.50249648  0.66558960  0.83593098  1
  I  I72  1  0.82870906  0.00013518  0.16663148  1
  I  I73  1  0.82631243  0.00397465  0.50055231  1
  I  I74  1  0.83309315  0.00018029  0.83206902  1
  I  I75  1  0.83535943  0.33330468  0.16736119  1
  I  I76  1  0.83515462  0.33077415  0.50074522  1
  I  I77  1  0.82377562  0.33628655  0.83265252  1
  I  I78  1  0.83421630  0.66647124  0.16798191  1
  I  I79  1  0.83152970  0.66662841  0.50112336  1
  I  I80  1  0.83327947  0.66295409  0.83094991  1
  I  I81  1  0.17377706  0.16274802  0.00169685  1
  I  I82  1  0.16858940  0.16510113  0.33063628  1
  I  I83  1  0.16715511  0.16744557  0.66765554  1
  I  I84  1  0.16659017  0.50110437  0.00016228  1
  I  I85  1  0.17266668  0.49728249  0.33694216  1
  I  I86  1  0.17269171  0.50174841  0.66325636  1
  I  I87  1  0.17016786  0.83581430  0.00323777  1
  I  I88  1  0.17433059  0.83739363  0.33239407  1
  I  I89  1  0.16871908  0.83269163  0.66455622  1
  I  I90  1  0.49629416  0.16920923  0.00287013  1
  I  I91  1  0.49702731  0.16988358  0.33294306  1
  I  I92  1  0.50009925  0.17012021  0.66408024  1
  I  I93  1  0.50457014  0.50013197  0.00012160  1
  I  I94  1  0.49379619  0.49820095  0.33366016  1
  I  I95  1  0.49997690  0.49945433  0.66630603  1
  I  I96  1  0.49359900  0.82932394  0.00120234  1
  I  I97  1  0.49705998  0.83209226  0.33041928  1
  I  I98  1  0.49790870  0.83012854  0.66858077  1
  I  I99  1  0.83150566  0.16747062  -0.00010501  1
  I  I100  1  0.83453751  0.16932309  0.33650656  1
  I  I101  1  0.82833385  0.16822504  0.66343612  1
  I  I102  1  0.82901517  0.49881611  -0.00392620  1
  I  I103  1  0.83360223  0.49868176  0.33347337  1
  I  I104  1  0.82654154  0.49811977  0.66924663  1
  I  I105  1  0.83799140  0.83389196  -0.00016927  1
  I  I106  1  0.82769783  0.83168910  0.33349058  1
  I  I107  1  0.83348947  0.83436321  0.66662005  1
  I  I108  1  0.00350913  0.16127929  0.16506348  1
  I  I109  1  -0.00120177  0.16713772  0.50154195  1
  I  I110  1  0.00410588  0.16745040  0.83603136  1
  I  I111  1  0.00020689  0.49933457  0.16711647  1
  I  I112  1  0.00257854  0.50018997  0.50218678  1
  I  I113  1  -0.00162611  0.49608112  0.82949001  1
  I  I114  1  0.00387192  0.83956651  0.17148987  1
  I  I115  1  0.00526839  0.82898722  0.49433986  1
  I  I116  1  0.00023811  0.83302092  0.83267240  1
  I  I117  1  0.33445583  0.16612443  0.16952442  1
  I  I118  1  0.33601739  0.16865797  0.49922026  1
  I  I119  1  0.33110579  0.16902785  0.83094354  1
  I  I120  1  0.33722667  0.49941973  0.16152487  1
  I  I121  1  0.33506896  0.49624602  0.50279288  1
  I  I122  1  0.33698769  0.50249886  0.83465158  1
  I  I123  1  0.33431057  0.83464135  0.16705410  1
  I  I124  1  0.33084070  0.83514305  0.49888568  1
  I  I125  1  0.33666076  0.82574251  0.83465735  1
  I  I126  1  0.66277169  0.16664463  0.16851550  1
  I  I127  1  0.66411072  0.17330906  0.49551354  1
  I  I128  1  0.66651584  0.16486917  0.83482268  1
  I  I129  1  0.66100503  0.50006566  0.17319133  1
  I  I130  1  0.66293668  0.49756543  0.49838752  1
  I  I131  1  0.66395081  0.50282797  0.83108763  1
  I  I132  1  0.66234616  0.83420542  0.16266689  1
  I  I133  1  0.66654987  0.83134490  0.49998435  1
  I  I134  1  0.66174366  0.83430787  0.83900025  1
