# generated using pymatgen
data_Cs27Sn14Pb13I81
_symmetry_space_group_name_H-M   'P 1'
_cell_length_a   18.98304712
_cell_length_b   18.97010492
_cell_length_c   18.97619511
_cell_angle_alpha   90.00156364
_cell_angle_beta   89.99995430
_cell_angle_gamma   89.99914339
_symmetry_Int_Tables_number   1
_chemical_formula_structural   Cs27Sn14Pb13I81
_chemical_formula_sum   'Cs27 Sn14 Pb13 I81'
_cell_volume   6833.52512297
_cell_formula_units_Z   1
loop_
 _symmetry_equiv_pos_site_id
 _symmetry_equiv_pos_as_xyz
  1  'x, y, z'
loop_
 _atom_site_type_symbol
 _atom_site_label
 _atom_site_symmetry_multiplicity
 _atom_site_fract_x
 _atom_site_fract_y
 _atom_site_fract_z
 _atom_site_occupancy
  Cs  Cs0  1  -0.00164521  -0.00176813  0.00095833  1
  Cs  Cs1  1  0.00024465  -0.00022581  0.33413905  1
  Cs  Cs2  1  0.00008129  0.00240538  0.66432314  1
  Cs  Cs3  1  -0.00087031  0.33290590  -0.00036430  1
  Cs  Cs4  1  -0.00039657  0.33263568  0.33529769  1
  Cs  Cs5  1  -0.00089079  0.33206529  0.66530410  1
  Cs  Cs6  1  -0.00015532  0.66782345  -0.00293646  1
  Cs  Cs7  1  -0.00179420  0.67060024  0.33378388  1
  Cs  Cs8  1  0.00410044  0.66479120  0.66988593  1
  Cs  Cs9  1  0.33792595  0.00254673  0.00011750  1
  Cs  Cs10  1  0.33010533  -0.00071438  0.33408202  1
  Cs  Cs11  1  0.33599882  -0.00014957  0.66577102  1
  Cs  Cs12  1  0.33638681  0.33432166  0.00853186  1
  Cs  Cs13  1  0.33410009  0.33937964  0.32400804  1
  Cs  Cs14  1  0.32971614  0.33205622  0.66700681  1
  Cs  Cs15  1  0.32720161  0.66370963  -0.00177658  1
  Cs  Cs16  1  0.33784776  0.66392638  0.33403155  1
  Cs  Cs17  1  0.33315798  0.66514067  0.66845755  1
  Cs  Cs18  1  0.66649254  0.00001123  -0.00189130  1
  Cs  Cs19  1  0.66870881  -0.00195170  0.33432279  1
  Cs  Cs20  1  0.66352228  0.00027992  0.66707084  1
  Cs  Cs21  1  0.66577702  0.33381840  -0.00202546  1
  Cs  Cs22  1  0.66804389  0.33668714  0.33405521  1
  Cs  Cs23  1  0.66772635  0.33286559  0.66893582  1
  Cs  Cs24  1  0.66927394  0.66590200  0.00020730  1
  Cs  Cs25  1  0.66488756  0.66691979  0.33426891  1
  Cs  Cs26  1  0.66215852  0.66601725  0.66614506  1
  Sn  Sn27  1  0.83314580  0.16580124  0.50002807  1
  Sn  Sn28  1  0.16583815  0.83393808  0.49936920  1
  Sn  Sn29  1  0.50005761  0.83360463  0.16625307  1
  Sn  Sn30  1  0.16601289  0.16641344  0.83333212  1
  Sn  Sn31  1  0.83357625  0.50017090  0.16608348  1
  Sn  Sn32  1  0.16662025  0.83373775  0.16738792  1
  Sn  Sn33  1  0.50064148  0.49974178  0.83321862  1
  Sn  Sn34  1  0.83405613  0.16712217  0.83320879  1
  Sn  Sn35  1  0.16690502  0.16628850  0.50025690  1
  Sn  Sn36  1  0.83339379  0.83330729  0.16734913  1
  Sn  Sn37  1  0.83325443  0.16667808  0.16675319  1
  Sn  Sn38  1  0.49972245  0.16716642  0.49932009  1
  Sn  Sn39  1  0.83400554  0.83395724  0.49982610  1
  Sn  Sn40  1  0.83253763  0.49927548  0.83385115  1
  Pb  Pb41  1  0.50259763  0.50247201  0.16474063  1
  Pb  Pb42  1  0.49996767  0.16824459  0.83169727  1
  Pb  Pb43  1  0.49982992  0.83497418  0.49838484  1
  Pb  Pb44  1  0.16658892  0.50012109  0.49977674  1
  Pb  Pb45  1  0.16463962  0.16485311  0.16695054  1
  Pb  Pb46  1  0.16655654  0.83631556  0.83277325  1
  Pb  Pb47  1  0.83346724  0.50052065  0.50050229  1
  Pb  Pb48  1  0.16348861  0.50315536  0.16688189  1
  Pb  Pb49  1  0.16601906  0.49673652  0.83345321  1
  Pb  Pb50  1  0.50285480  0.16487518  0.16915375  1
  Pb  Pb51  1  0.83330760  0.83348681  0.83246323  1
  Pb  Pb52  1  0.50003415  0.49706940  0.50225248  1
  Pb  Pb53  1  0.49990496  0.83082779  0.83590871  1
  I  I54  1  0.16288990  -0.00332206  0.16795704  1
  I  I55  1  0.16449900  0.00065581  0.49980244  1
  I  I56  1  0.15876191  0.00407162  0.83154259  1
  I  I57  1  0.16587795  0.33312248  0.16663113  1
  I  I58  1  0.16379338  0.32924893  0.50587033  1
  I  I59  1  0.16348239  0.32892021  0.82545783  1
  I  I60  1  0.16484997  0.67148646  0.17240101  1
  I  I61  1  0.16052257  0.67069518  0.49561186  1
  I  I62  1  0.16671030  0.66659191  0.83300707  1
  I  I63  1  0.50297250  -0.00305825  0.16627947  1
  I  I64  1  0.50171284  0.00303995  0.50126044  1
  I  I65  1  0.50053528  0.00034114  0.83350887  1
  I  I66  1  0.50065299  0.33339425  0.16712797  1
  I  I67  1  0.50255775  0.32876859  0.50000494  1
  I  I68  1  0.50375621  0.33589866  0.83268673  1
  I  I69  1  0.50262227  0.67036005  0.16813656  1
  I  I70  1  0.50051784  0.66684141  0.49994011  1
  I  I71  1  0.50859960  0.66292549  0.83287892  1
  I  I72  1  0.83371149  -0.00043120  0.16727771  1
  I  I73  1  0.83415904  0.00102716  0.49672711  1
  I  I74  1  0.83746194  0.00338199  0.83569055  1
  I  I75  1  0.83305801  0.33255355  0.16658137  1
  I  I76  1  0.83441246  0.32984968  0.49750156  1
  I  I77  1  0.83323091  0.33214846  0.83624399  1
  I  I78  1  0.83337147  0.66779545  0.16626059  1
  I  I79  1  0.83776006  0.67020761  0.49589428  1
  I  I80  1  0.82921968  0.66391409  0.83723748  1
  I  I81  1  0.16085857  0.16555255  -0.00220212  1
  I  I82  1  0.16477902  0.16365964  0.33652353  1
  I  I83  1  0.16143393  0.16207095  0.66542070  1
  I  I84  1  0.16840783  0.50053997  0.00007620  1
  I  I85  1  0.16569616  0.49361001  0.33311286  1
  I  I86  1  0.16449206  0.50520467  0.66689644  1
  I  I87  1  0.16451319  0.83347134  0.00302400  1
  I  I88  1  0.16416043  0.84012686  0.33377964  1
  I  I89  1  0.16031098  0.83521419  0.66296785  1
  I  I90  1  0.49942623  0.16634973  0.00025754  1
  I  I91  1  0.49938377  0.16545473  0.33707542  1
  I  I92  1  0.50514011  0.16580454  0.66373902  1
  I  I93  1  0.50308697  0.49823690  -0.00295106  1
  I  I94  1  0.50070702  0.49994149  0.33296836  1
  I  I95  1  0.50911761  0.50085968  0.67005570  1
  I  I96  1  0.50250949  0.83528412  0.00426178  1
  I  I97  1  0.50230888  0.83382580  0.33035764  1
  I  I98  1  0.50053403  0.83289835  0.66640060  1
  I  I99  1  0.83791003  0.16657876  -0.00007040  1
  I  I100  1  0.83337733  0.16583277  0.33377995  1
  I  I101  1  0.83414061  0.16726286  0.66615128  1
  I  I102  1  0.82967344  0.49728572  0.00009659  1
  I  I103  1  0.83401359  0.49792970  0.33051440  1
  I  I104  1  0.83011705  0.49583883  0.66976948  1
  I  I105  1  0.83393360  0.83568059  0.00318468  1
  I  I106  1  0.83393037  0.83626503  0.33249115  1
  I  I107  1  0.83848213  0.83699728  0.66307086  1
  I  I108  1  -0.00400870  0.16482418  0.16975898  1
  I  I109  1  -0.00093396  0.16275394  0.50112025  1
  I  I110  1  -0.00190117  0.17178133  0.82867572  1
  I  I111  1  -0.00476881  0.50077501  0.15975254  1
  I  I112  1  -0.00035677  0.49609537  0.50235342  1
  I  I113  1  -0.00346819  0.49851366  0.83734719  1
  I  I114  1  -0.00138151  0.83339146  0.17093665  1
  I  I115  1  -0.00073221  0.84180221  0.49090247  1
  I  I116  1  -0.00025321  0.82802877  0.83832534  1
  I  I117  1  0.33336210  0.16452597  0.16571787  1
  I  I118  1  0.33198783  0.16132971  0.50751864  1
  I  I119  1  0.33066639  0.16628295  0.82729154  1
  I  I120  1  0.33346362  0.50086690  0.16453104  1
  I  I121  1  0.33342725  0.50081041  0.50309869  1
  I  I122  1  0.33566531  0.50048312  0.83155148  1
  I  I123  1  0.33258246  0.83465918  0.17085548  1
  I  I124  1  0.33030499  0.83872909  0.49559548  1
  I  I125  1  0.33314550  0.83314011  0.83361727  1
  I  I126  1  0.67142252  0.16411652  0.16534995  1
  I  I127  1  0.66873457  0.16267166  0.50023892  1
  I  I128  1  0.67007852  0.16851370  0.83274058  1
  I  I129  1  0.67078606  0.50152727  0.16523403  1
  I  I130  1  0.66703381  0.50034815  0.49795846  1
  I  I131  1  0.66879658  0.49369151  0.83728151  1
  I  I132  1  0.66880970  0.83312003  0.17053408  1
  I  I133  1  0.66971789  0.83788583  0.49541849  1
  I  I134  1  0.66694577  0.83827124  0.83313493  1
