# generated using pymatgen
data_Cs27Sn14Pb13I81
_symmetry_space_group_name_H-M   'P 1'
_cell_length_a   18.96726308
_cell_length_b   18.97775584
_cell_length_c   18.98179630
_cell_angle_alpha   90.00069010
_cell_angle_beta   89.99755117
_cell_angle_gamma   89.99908459
_symmetry_Int_Tables_number   1
_chemical_formula_structural   Cs27Sn14Pb13I81
_chemical_formula_sum   'Cs27 Sn14 Pb13 I81'
_cell_volume   6832.61312789
_cell_formula_units_Z   1
loop_
 _symmetry_equiv_pos_site_id
 _symmetry_equiv_pos_as_xyz
  1  'x, y, z'
loop_
 _atom_site_type_symbol
 _atom_site_label
 _atom_site_symmetry_multiplicity
 _atom_site_fract_x
 _atom_site_fract_y
 _atom_site_fract_z
 _atom_site_occupancy
  Cs  Cs0  1  0.00477477  -0.00025075  -0.00194635  1
  Cs  Cs1  1  -0.00206685  -0.00065573  0.33228524  1
  Cs  Cs2  1  -0.00208331  -0.00336852  0.66918943  1
  Cs  Cs3  1  0.00091671  0.33565972  0.00154950  1
  Cs  Cs4  1  0.00142012  0.33440384  0.33352683  1
  Cs  Cs5  1  0.00233662  0.33295780  0.66397224  1
  Cs  Cs6  1  0.00143322  0.66394457  -0.00017351  1
  Cs  Cs7  1  -0.00280428  0.66529360  0.33682142  1
  Cs  Cs8  1  -0.00062359  0.66959959  0.66438783  1
  Cs  Cs9  1  0.32713741  -0.00189487  0.00050179  1
  Cs  Cs10  1  0.33699951  -0.00107416  0.33074634  1
  Cs  Cs11  1  0.33355381  0.00391445  0.66876656  1
  Cs  Cs12  1  0.33473191  0.33373832  0.00082132  1
  Cs  Cs13  1  0.33035657  0.33346823  0.33888104  1
  Cs  Cs14  1  0.33188129  0.33661606  0.65659889  1
  Cs  Cs15  1  0.33135327  0.66768871  0.00146341  1
  Cs  Cs16  1  0.33712793  0.66796699  0.33284343  1
  Cs  Cs17  1  0.33492850  0.66105124  0.66499612  1
  Cs  Cs18  1  0.66675710  0.00237264  -0.00143338  1
  Cs  Cs19  1  0.66630656  -0.00047610  0.33348617  1
  Cs  Cs20  1  0.66889310  0.00052862  0.66804623  1
  Cs  Cs21  1  0.66619151  0.33401203  0.00019559  1
  Cs  Cs22  1  0.66809877  0.32981171  0.32839334  1
  Cs  Cs23  1  0.66392686  0.33254051  0.67113803  1
  Cs  Cs24  1  0.66663741  0.66314109  -0.00185744  1
  Cs  Cs25  1  0.66756551  0.67106056  0.33249600  1
  Cs  Cs26  1  0.66450869  0.66616584  0.67001914  1
  Sn  Sn27  1  0.16661405  0.49973832  0.83366113  1
  Sn  Sn28  1  0.83253259  0.49987902  0.50034463  1
  Sn  Sn29  1  0.83297346  0.16558983  0.16609249  1
  Sn  Sn30  1  0.49920495  0.49925715  0.16664730  1
  Sn  Sn31  1  0.83315444  0.16685348  0.50020348  1
  Sn  Sn32  1  0.50046505  0.16727305  0.16564102  1
  Sn  Sn33  1  0.83378106  0.83338403  0.50016470  1
  Sn  Sn34  1  0.16666841  0.83387615  0.49993000  1
  Sn  Sn35  1  0.50032740  0.16594274  0.83437722  1
  Sn  Sn36  1  0.83309370  0.16612367  0.83372360  1
  Sn  Sn37  1  0.16774484  0.49997135  0.16626647  1
  Sn  Sn38  1  0.83342247  0.83417140  0.16591607  1
  Sn  Sn39  1  0.83271118  0.83381394  0.83388426  1
  Sn  Sn40  1  0.50047960  0.83415359  0.83358062  1
  Pb  Pb41  1  0.49788143  0.49934102  0.83508613  1
  Pb  Pb42  1  0.16702149  0.16897016  0.83331939  1
  Pb  Pb43  1  0.83491334  0.49967237  0.83124620  1
  Pb  Pb44  1  0.50230771  0.16654365  0.50001609  1
  Pb  Pb45  1  0.50216851  0.83402330  0.16421920  1
  Pb  Pb46  1  0.16671972  0.83155755  0.83153859  1
  Pb  Pb47  1  0.50060194  0.83355996  0.50290095  1
  Pb  Pb48  1  0.16400827  0.16340239  0.49989936  1
  Pb  Pb49  1  0.16684188  0.16852481  0.16665806  1
  Pb  Pb50  1  0.16484996  0.50194597  0.49945550  1
  Pb  Pb51  1  0.50313043  0.49995666  0.49668712  1
  Pb  Pb52  1  0.83312885  0.49973545  0.16820839  1
  Pb  Pb53  1  0.16391243  0.83104295  0.16889701  1
  I  I54  1  0.16854432  -0.00027198  0.16821661  1
  I  I55  1  0.15947176  -0.00414824  0.50174069  1
  I  I56  1  0.16637617  -0.00008664  0.83123109  1
  I  I57  1  0.16387390  0.33663132  0.16370524  1
  I  I58  1  0.16444370  0.33347404  0.50045802  1
  I  I59  1  0.16462104  0.33668277  0.83702546  1
  I  I60  1  0.17102455  0.66320196  0.16294443  1
  I  I61  1  0.15716785  0.66936759  0.50046394  1
  I  I62  1  0.16561858  0.66392292  0.83677366  1
  I  I63  1  0.50404976  0.00309337  0.16591531  1
  I  I64  1  0.50018450  -0.00001202  0.49417029  1
  I  I65  1  0.50499717  0.00075348  0.83791055  1
  I  I66  1  0.50411267  0.33214845  0.16048294  1
  I  I67  1  0.50143256  0.33329166  0.50560223  1
  I  I68  1  0.50584688  0.33011355  0.83617659  1
  I  I69  1  0.49807573  0.66469288  0.16578900  1
  I  I70  1  0.50336062  0.66675782  0.50050248  1
  I  I71  1  0.50463085  0.66893886  0.83355484  1
  I  I72  1  0.82792610  0.00071603  0.17173256  1
  I  I73  1  0.83721600  -0.00028256  0.49998225  1
  I  I74  1  0.83032099  -0.00013910  0.82907408  1
  I  I75  1  0.83258078  0.33038807  0.16703551  1
  I  I76  1  0.83256173  0.33237478  0.49889664  1
  I  I77  1  0.82982497  0.33000914  0.83377332  1
  I  I78  1  0.83372593  0.66908734  0.16794992  1
  I  I79  1  0.83795626  0.66805787  0.49892599  1
  I  I80  1  0.83058116  0.66968726  0.83285882  1
  I  I81  1  0.16047777  0.16506729  -0.00003961  1
  I  I82  1  0.16613852  0.17032977  0.33328839  1
  I  I83  1  0.16738630  0.17132618  0.66668674  1
  I  I84  1  0.16778465  0.50106120  0.00071793  1
  I  I85  1  0.16870555  0.50067190  0.33071007  1
  I  I86  1  0.16438348  0.50119460  0.66833926  1
  I  I87  1  0.16501555  0.83263753  0.00002737  1
  I  I88  1  0.15904854  0.83086676  0.33653370  1
  I  I89  1  0.15791603  0.82985601  0.66409199  1
  I  I90  1  0.50980454  0.16797736  0.00001747  1
  I  I91  1  0.50473587  0.17131507  0.33001257  1
  I  I92  1  0.50459419  0.16204464  0.67008890  1
  I  I93  1  0.50080858  0.49871852  0.00296041  1
  I  I94  1  0.49324391  0.49412964  0.32877668  1
  I  I95  1  0.49803525  0.49998285  0.66681513  1
  I  I96  1  0.50602729  0.83343633  -0.00347298  1
  I  I97  1  0.50079528  0.83246424  0.33306649  1
  I  I98  1  0.50621082  0.83860025  0.67079250  1
  I  I99  1  0.82914776  0.16041862  -0.00002504  1
  I  I100  1  0.82996750  0.16439842  0.33285973  1
  I  I101  1  0.83029303  0.16406964  0.66716158  1
  I  I102  1  0.83319089  0.50114266  0.00004247  1
  I  I103  1  0.83534492  0.50102210  0.33607602  1
  I  I104  1  0.83712965  0.50084778  0.66344876  1
  I  I105  1  0.82874048  0.83886726  -0.00061565  1
  I  I106  1  0.83789552  0.83476119  0.33366671  1
  I  I107  1  0.83417695  0.83566756  0.66676519  1
  I  I108  1  -0.00376175  0.16442839  0.16678745  1
  I  I109  1  -0.00503767  0.16965579  0.49980936  1
  I  I110  1  -0.00366032  0.16269247  0.83322991  1
  I  I111  1  0.00173128  0.50086447  0.16502240  1
  I  I112  1  -0.00326034  0.49838448  0.49725890  1
  I  I113  1  0.00251785  0.50058802  0.83990240  1
  I  I114  1  -0.00459036  0.83793689  0.16238346  1
  I  I115  1  -0.00306097  0.83273585  0.50206638  1
  I  I116  1  -0.00353975  0.83669990  0.83376515  1
  I  I117  1  0.33684637  0.16861128  0.16068796  1
  I  I118  1  0.33343808  0.16642886  0.50046389  1
  I  I119  1  0.33698456  0.16157295  0.84011143  1
  I  I120  1  0.33369724  0.49512944  0.16224645  1
  I  I121  1  0.33330830  0.50235674  0.50201628  1
  I  I122  1  0.33028491  0.50159189  0.83447639  1
  I  I123  1  0.33342322  0.83506513  0.16755829  1
  I  I124  1  0.33095844  0.82980582  0.50162304  1
  I  I125  1  0.33607453  0.83695243  0.83208462  1
  I  I126  1  0.66783548  0.16984166  0.16655015  1
  I  I127  1  0.67113523  0.16269797  0.49942268  1
  I  I128  1  0.66794754  0.16354779  0.83321667  1
  I  I129  1  0.66459122  0.49840755  0.16861189  1
  I  I130  1  0.67116458  0.50389638  0.50015435  1
  I  I131  1  0.66663725  0.50095705  0.83334875  1
  I  I132  1  0.67054926  0.83160036  0.17292847  1
  I  I133  1  0.67082129  0.83391557  0.49766520  1
  I  I134  1  0.66852085  0.83578887  0.83064270  1
