# generated using pymatgen
data_Cs27Sn13Pb14I81
_symmetry_space_group_name_H-M   'P 1'
_cell_length_a   18.99369639
_cell_length_b   18.97299160
_cell_length_c   18.96739103
_cell_angle_alpha   89.99833757
_cell_angle_beta   89.99986435
_cell_angle_gamma   89.99916519
_symmetry_Int_Tables_number   1
_chemical_formula_structural   Cs27Sn13Pb14I81
_chemical_formula_sum   'Cs27 Sn13 Pb14 I81'
_cell_volume   6835.22639127
_cell_formula_units_Z   1
loop_
 _symmetry_equiv_pos_site_id
 _symmetry_equiv_pos_as_xyz
  1  'x, y, z'
loop_
 _atom_site_type_symbol
 _atom_site_label
 _atom_site_symmetry_multiplicity
 _atom_site_fract_x
 _atom_site_fract_y
 _atom_site_fract_z
 _atom_site_occupancy
  Cs  Cs0  1  0.00140439  0.00674663  0.00147348  1
  Cs  Cs1  1  -0.00138947  0.00146594  0.33269311  1
  Cs  Cs2  1  -0.00086154  -0.00376432  0.66481436  1
  Cs  Cs3  1  -0.00619114  0.32585457  -0.00396657  1
  Cs  Cs4  1  0.00032328  0.33309944  0.33345444  1
  Cs  Cs5  1  0.00009159  0.33414922  0.66629499  1
  Cs  Cs6  1  0.00039446  0.66478623  -0.00061986  1
  Cs  Cs7  1  0.00047625  0.66595023  0.33308958  1
  Cs  Cs8  1  0.00186818  0.66894469  0.66684052  1
  Cs  Cs9  1  0.33180497  0.00066947  0.00012983  1
  Cs  Cs10  1  0.33500386  0.00064768  0.33314322  1
  Cs  Cs11  1  0.33378675  -0.00146115  0.66618388  1
  Cs  Cs12  1  0.33271473  0.33167176  -0.00314115  1
  Cs  Cs13  1  0.33419022  0.33446921  0.33382332  1
  Cs  Cs14  1  0.33491459  0.33431945  0.66795452  1
  Cs  Cs15  1  0.33220785  0.66687890  0.00080925  1
  Cs  Cs16  1  0.33324243  0.66478042  0.33189241  1
  Cs  Cs17  1  0.33160424  0.66717638  0.66721293  1
  Cs  Cs18  1  0.66864525  -0.00132834  0.00033892  1
  Cs  Cs19  1  0.66438539  -0.00518823  0.33118101  1
  Cs  Cs20  1  0.66679744  -0.00010398  0.66723338  1
  Cs  Cs21  1  0.67229541  0.33367688  -0.00587078  1
  Cs  Cs22  1  0.66387278  0.33463450  0.33598632  1
  Cs  Cs23  1  0.66493293  0.33220753  0.66610283  1
  Cs  Cs24  1  0.67034617  0.66694096  0.00225175  1
  Cs  Cs25  1  0.66566564  0.66951726  0.32972048  1
  Cs  Cs26  1  0.66676504  0.66750710  0.66763197  1
  Sn  Sn27  1  0.49923227  0.49875484  0.16700129  1
  Sn  Sn28  1  0.49994880  0.16725670  0.49915272  1
  Sn  Sn29  1  0.50002548  0.16802305  0.16709618  1
  Sn  Sn30  1  0.83299120  0.16720715  0.49968102  1
  Sn  Sn31  1  0.49994339  0.49960904  0.49935338  1
  Sn  Sn32  1  0.16709026  0.49992457  0.16684022  1
  Sn  Sn33  1  0.16681794  0.83282812  0.16610889  1
  Sn  Sn34  1  0.16683665  0.49910791  0.49925932  1
  Sn  Sn35  1  0.16664374  0.83319800  0.83461966  1
  Sn  Sn36  1  0.83316593  0.49971798  0.49975876  1
  Sn  Sn37  1  0.16699535  0.16757481  0.49986400  1
  Sn  Sn38  1  0.49981591  0.83301813  0.83354069  1
  Sn  Sn39  1  0.83370071  0.83317420  0.83351381  1
  Pb  Pb40  1  0.49995566  0.83294318  0.50156439  1
  Pb  Pb41  1  0.16844607  0.16764244  0.16872281  1
  Pb  Pb42  1  0.83319530  0.83312381  0.50115125  1
  Pb  Pb43  1  0.83345156  0.49974693  0.16879838  1
  Pb  Pb44  1  0.16667805  0.50136038  0.83380763  1
  Pb  Pb45  1  0.16678156  0.16425315  0.83028998  1
  Pb  Pb46  1  0.83329695  0.16458225  0.83050696  1
  Pb  Pb47  1  0.83666903  0.83332513  0.16423042  1
  Pb  Pb48  1  0.49990323  0.50192644  0.83383519  1
  Pb  Pb49  1  0.49812121  0.83297819  0.16453265  1
  Pb  Pb50  1  0.49993986  0.16476063  0.83332413  1
  Pb  Pb51  1  0.83342277  0.50181783  0.83054088  1
  Pb  Pb52  1  0.83000473  0.16696889  0.16951326  1
  Pb  Pb53  1  0.16680188  0.83297635  0.49926343  1
  I  I54  1  0.16832252  -0.00202937  0.16358923  1
  I  I55  1  0.16673307  0.00280815  0.50141532  1
  I  I56  1  0.16709764  -0.00431950  0.83781767  1
  I  I57  1  0.16979759  0.33669799  0.17169120  1
  I  I58  1  0.16642005  0.33435716  0.49466634  1
  I  I59  1  0.16686422  0.33323390  0.83497194  1
  I  I60  1  0.17245284  0.66571074  0.16895799  1
  I  I61  1  0.16700342  0.66326678  0.50029979  1
  I  I62  1  0.16705559  0.67008992  0.83089938  1
  I  I63  1  0.49879732  0.00232336  0.17117322  1
  I  I64  1  0.49996834  0.00339464  0.49735685  1
  I  I65  1  0.49921206  -0.00345413  0.83201421  1
  I  I66  1  0.49330871  0.33425922  0.17288626  1
  I  I67  1  0.50002886  0.33359245  0.49717108  1
  I  I68  1  0.50009066  0.33336829  0.83243923  1
  I  I69  1  0.49784065  0.66356536  0.17107744  1
  I  I70  1  0.49941961  0.66287216  0.49725004  1
  I  I71  1  0.49917820  0.67008551  0.83160146  1
  I  I72  1  0.83276328  0.00007745  0.16972746  1
  I  I73  1  0.83370868  0.00321556  0.50257007  1
  I  I74  1  0.83338634  -0.00362855  0.83006326  1
  I  I75  1  0.83926389  0.33336307  0.16277747  1
  I  I76  1  0.83343142  0.33355366  0.50007432  1
  I  I77  1  0.83324773  0.33318878  0.83477861  1
  I  I78  1  0.82844569  0.66659124  0.16990252  1
  I  I79  1  0.83393585  0.66323738  0.50219045  1
  I  I80  1  0.83336957  0.67017426  0.83009053  1
  I  I81  1  0.16892564  0.16767314  0.00028265  1
  I  I82  1  0.16472568  0.16447413  0.33714780  1
  I  I83  1  0.16972572  0.17121996  0.66170068  1
  I  I84  1  0.17375194  0.50487199  0.00365837  1
  I  I85  1  0.16768951  0.50361588  0.33427204  1
  I  I86  1  0.16748540  0.49822841  0.66301057  1
  I  I87  1  0.16758092  0.82694895  0.00010336  1
  I  I88  1  0.16828874  0.83170077  0.33059081  1
  I  I89  1  0.16620950  0.83402972  0.66911543  1
  I  I90  1  0.49769414  0.16956958  0.00325546  1
  I  I91  1  0.49964992  0.16938284  0.33483730  1
  I  I92  1  0.50033036  0.16957852  0.66281727  1
  I  I93  1  0.49344832  0.49737657  0.00380314  1
  I  I94  1  0.49888788  0.49718232  0.33442876  1
  I  I95  1  0.49935163  0.49700788  0.66302520  1
  I  I96  1  0.50138203  0.83351879  -0.00329539  1
  I  I97  1  0.49817854  0.83405219  0.33293332  1
  I  I98  1  0.49694057  0.83354828  0.66971954  1
  I  I99  1  0.83237790  0.16491089  0.00007286  1
  I  I100  1  0.83701748  0.16943134  0.33789875  1
  I  I101  1  0.83027958  0.17025476  0.66208880  1
  I  I102  1  0.83267336  0.50255875  0.00010200  1
  I  I103  1  0.83380347  0.49718783  0.33750967  1
  I  I104  1  0.83301944  0.49648005  0.66176966  1
  I  I105  1  0.82915155  0.83244400  -0.00391696  1
  I  I106  1  0.83463773  0.83384669  0.33319555  1
  I  I107  1  0.83665292  0.83335324  0.66940989  1
  I  I108  1  0.00012071  0.16493242  0.16801274  1
  I  I109  1  0.00024848  0.17161898  0.50212815  1
  I  I110  1  0.00007830  0.16353657  0.83247602  1
  I  I111  1  0.00345616  0.50681721  0.17188443  1
  I  I112  1  0.00087727  0.49519799  0.49746311  1
  I  I113  1  0.00014746  0.50469294  0.83199139  1
  I  I114  1  0.00472109  0.82744711  0.16321819  1
  I  I115  1  0.00021913  0.83380193  0.50344080  1
  I  I116  1  0.00069609  0.83244758  0.83492889  1
  I  I117  1  0.33627016  0.16609207  0.17351936  1
  I  I118  1  0.33387885  0.17100534  0.49706213  1
  I  I119  1  0.33341331  0.16230384  0.82972103  1
  I  I120  1  0.33332942  0.50200693  0.17551080  1
  I  I121  1  0.33334812  0.49513351  0.49674030  1
  I  I122  1  0.33332060  0.50449251  0.82743704  1
  I  I123  1  0.33045399  0.83182270  0.16107739  1
  I  I124  1  0.33322874  0.83473770  0.50483292  1
  I  I125  1  0.33263810  0.83323338  0.83592284  1
  I  I126  1  0.66188740  0.17095738  0.17193069  1
  I  I127  1  0.66593215  0.17242792  0.49794571  1
  I  I128  1  0.66651694  0.16232300  0.83123870  1
  I  I129  1  0.66316578  0.49751920  0.17103425  1
  I  I130  1  0.66577996  0.49467065  0.49795619  1
  I  I131  1  0.66653367  0.50476174  0.83311158  1
  I  I132  1  0.66645617  0.83312254  0.16491532  1
  I  I133  1  0.66650937  0.83330721  0.50349642  1
  I  I134  1  0.66660175  0.83349816  0.82948436  1
