# generated using pymatgen
data_Cs27Sn14Pb13I81
_symmetry_space_group_name_H-M   'P 1'
_cell_length_a   18.96367280
_cell_length_b   18.98292258
_cell_length_c   18.98292263
_cell_angle_alpha   90.00047963
_cell_angle_beta   89.99999996
_cell_angle_gamma   90.00000007
_symmetry_Int_Tables_number   1
_chemical_formula_structural   Cs27Sn14Pb13I81
_chemical_formula_sum   'Cs27 Sn14 Pb13 I81'
_cell_volume   6833.58510691
_cell_formula_units_Z   1
loop_
 _symmetry_equiv_pos_site_id
 _symmetry_equiv_pos_as_xyz
  1  'x, y, z'
loop_
 _atom_site_type_symbol
 _atom_site_label
 _atom_site_symmetry_multiplicity
 _atom_site_fract_x
 _atom_site_fract_y
 _atom_site_fract_z
 _atom_site_occupancy
  Cs  Cs0  1  0.00008919  0.00083016  -0.00001543  1
  Cs  Cs1  1  0.00041277  -0.00034671  0.33368005  1
  Cs  Cs2  1  -0.00120197  -0.00039258  0.66627416  1
  Cs  Cs3  1  -0.00144919  0.33333326  0.00000003  1
  Cs  Cs4  1  0.00008920  0.33334876  0.33250307  1
  Cs  Cs5  1  0.00008913  0.33331796  0.66749681  1
  Cs  Cs6  1  0.00008914  0.66583642  0.00001542  1
  Cs  Cs7  1  -0.00120196  0.66705919  0.33372582  1
  Cs  Cs8  1  0.00041282  0.66701334  0.66631999  1
  Cs  Cs9  1  0.33747267  -0.00138645  0.00554010  1
  Cs  Cs10  1  0.33236894  0.00229580  0.33103763  1
  Cs  Cs11  1  0.33156519  -0.00206117  0.66460543  1
  Cs  Cs12  1  0.33843242  0.33333309  -0.00000024  1
  Cs  Cs13  1  0.33747265  0.32779310  0.33471980  1
  Cs  Cs14  1  0.33747279  0.33887345  0.66528035  1
  Cs  Cs15  1  0.33747250  0.66805322  -0.00554036  1
  Cs  Cs16  1  0.33156531  0.66872779  0.33539456  1
  Cs  Cs17  1  0.33236893  0.66437085  0.66896242  1
  Cs  Cs18  1  0.66204380  0.00019101  -0.00515258  1
  Cs  Cs19  1  0.66803556  -0.00158969  0.33492305  1
  Cs  Cs20  1  0.66805920  0.00343556  0.67010202  1
  Cs  Cs21  1  0.66461153  0.33333318  0.00000003  1
  Cs  Cs22  1  0.66204397  0.33848609  0.33314217  1
  Cs  Cs23  1  0.66204383  0.32818065  0.66685774  1
  Cs  Cs24  1  0.66204384  0.66647561  0.00515272  1
  Cs  Cs25  1  0.66805946  0.66323108  0.32989786  1
  Cs  Cs26  1  0.66803552  0.66825642  0.66507691  1
  Sn  Sn27  1  0.16561199  0.16687920  0.50110933  1
  Sn  Sn28  1  0.83436073  0.49870350  0.50116882  1
  Sn  Sn29  1  0.16737823  0.83333329  0.49999998  1
  Sn  Sn30  1  0.16632593  0.50067429  0.16734097  1
  Sn  Sn31  1  0.83383475  0.50091391  0.83241941  1
  Sn  Sn32  1  0.16561200  0.49978746  0.49889068  1
  Sn  Sn33  1  0.16632587  0.16599235  0.83265904  1
  Sn  Sn34  1  0.16561202  0.83444263  0.83354586  1
  Sn  Sn35  1  0.83383478  0.16575270  0.16758061  1
  Sn  Sn36  1  0.83436072  0.16796315  0.49883123  1
  Sn  Sn37  1  0.83436066  0.83216452  0.83462984  1
  Sn  Sn38  1  0.49897535  0.83333328  0.49999997  1
  Sn  Sn39  1  0.83436072  0.83450212  0.16537017  1
  Sn  Sn40  1  0.16561199  0.83222403  0.16645413  1
  Pb  Pb41  1  0.49996026  0.83333969  0.83094008  1
  Pb  Pb42  1  0.50416146  0.16639003  0.16694335  1
  Pb  Pb43  1  0.16536879  0.50003004  0.83330332  1
  Pb  Pb44  1  0.49564299  0.50034906  0.16701566  1
  Pb  Pb45  1  0.49996025  0.16427344  0.50000633  1
  Pb  Pb46  1  0.83485134  0.50014524  0.16681184  1
  Pb  Pb47  1  0.50416146  0.50027669  0.83305670  1
  Pb  Pb48  1  0.49996018  0.83332697  0.16905997  1
  Pb  Pb49  1  0.16536879  0.16663667  0.16669667  1
  Pb  Pb50  1  0.83485133  0.16652147  0.83318818  1
  Pb  Pb51  1  0.83394094  0.83333334  0.50000004  1
  Pb  Pb52  1  0.49996023  0.50239322  0.49999365  1
  Pb  Pb53  1  0.49564302  0.16631765  0.83298432  1
  I  I54  1  0.16437292  -0.00304681  0.16920328  1
  I  I55  1  0.16625799  -0.00037297  0.50063034  1
  I  I56  1  0.15982211  -0.00158186  0.82913134  1
  I  I57  1  0.16321590  0.33553681  0.16963610  1
  I  I58  1  0.16059024  0.33333335  0.49999988  1
  I  I59  1  0.16321559  0.33112990  0.83036398  1
  I  I60  1  0.15982178  0.66824854  0.17086894  1
  I  I61  1  0.16625789  0.66703967  0.49936969  1
  I  I62  1  0.16437300  0.66971345  0.83079645  1
  I  I63  1  0.49409473  -0.00032229  0.16805555  1
  I  I64  1  0.49554883  -0.00335104  0.49983463  1
  I  I65  1  0.50693055  -0.00035325  0.83168028  1
  I  I66  1  0.49970308  0.33336846  0.16739724  1
  I  I67  1  0.49795930  0.33333337  0.49999987  1
  I  I68  1  0.49970365  0.33329818  0.83260301  1
  I  I69  1  0.50693094  0.66701988  0.16832011  1
  I  I70  1  0.49554846  0.67001776  0.50016567  1
  I  I71  1  0.49409416  0.66698896  0.83194380  1
  I  I72  1  0.84066887  -0.00117793  0.16815073  1
  I  I73  1  0.83642047  0.00208915  0.49923772  1
  I  I74  1  0.83582694  -0.00278604  0.83320482  1
  I  I75  1  0.83679177  0.33137364  0.16731401  1
  I  I76  1  0.84206348  0.33333334  0.50000007  1
  I  I77  1  0.83679158  0.33529308  0.83268597  1
  I  I78  1  0.83582703  0.66945272  0.16679549  1
  I  I79  1  0.83642064  0.66457750  0.50076217  1
  I  I80  1  0.84066921  0.66784463  0.83184901  1
  I  I81  1  0.16321593  0.16369756  -0.00220349  1
  I  I82  1  0.16437285  0.16412982  0.33638012  1
  I  I83  1  0.15982192  0.16246430  0.66508482  1
  I  I84  1  0.16321595  0.50296933  0.00220350  1
  I  I85  1  0.15982183  0.50420230  0.33491520  1
  I  I86  1  0.16437280  0.50253671  0.66361992  1
  I  I87  1  0.16059016  0.83333308  -0.00000002  1
  I  I88  1  0.16625781  0.83270295  0.33370631  1
  I  I89  1  0.16625803  0.83396391  0.66629373  1
  I  I90  1  0.49970354  0.16593708  -0.00003514  1
  I  I91  1  0.49409443  0.16527665  0.33365563  1
  I  I92  1  0.50693044  0.16501321  0.66631342  1
  I  I93  1  0.49970333  0.50072991  0.00003515  1
  I  I94  1  0.50693053  0.50165360  0.33368655  1
  I  I95  1  0.49409470  0.50138942  0.66634437  1
  I  I96  1  0.49795919  0.83333311  -0.00000001  1
  I  I97  1  0.49554865  0.83349930  0.33668438  1
  I  I98  1  0.49554878  0.83316772  0.66331561  1
  I  I99  1  0.83679150  0.16601940  0.00195971  1
  I  I100  1  0.84066907  0.16518244  0.33451126  1
  I  I101  1  0.83582713  0.16653802  0.66388061  1
  I  I102  1  0.83679159  0.50064750  -0.00195972  1
  I  I103  1  0.83582706  0.50012855  0.33611935  1
  I  I104  1  0.84066901  0.50148422  0.66548872  1
  I  I105  1  0.84206370  0.83333320  -0.00000000  1
  I  I106  1  0.83642055  0.83409575  0.33124416  1
  I  I107  1  0.83642039  0.83257113  0.66875582  1
  I  I108  1  -0.00252449  0.16440228  0.16893095  1
  I  I109  1  0.00081177  0.16451504  0.50003289  1
  I  I110  1  0.00278646  0.16401774  0.83068471  1
  I  I111  1  0.00278643  0.50264868  0.16931532  1
  I  I112  1  0.00081174  0.50215150  0.49996714  1
  I  I113  1  -0.00252451  0.50226435  0.83106904  1
  I  I114  1  0.00081177  0.83330054  0.16881828  1
  I  I115  1  0.00320150  0.83333348  0.50000015  1
  I  I116  1  0.00081180  0.83336637  0.83118161  1
  I  I117  1  0.33302235  0.16698313  0.16634998  1
  I  I118  1  0.32943787  0.16924682  0.50398888  1
  I  I119  1  0.32732249  0.16065806  0.82732425  1
  I  I120  1  0.32732249  0.50600932  0.17267588  1
  I  I121  1  0.32943785  0.49741985  0.49601111  1
  I  I122  1  0.33302233  0.49968302  0.83364982  1
  I  I123  1  0.32943785  0.82934431  0.16408654  1
  I  I124  1  0.32994131  0.83333343  0.49999996  1
  I  I125  1  0.32943787  0.83732231  0.83591356  1
  I  I126  1  0.67262390  0.16070386  0.17263003  1
  I  I127  1  0.67029208  0.16926079  0.49588914  1
  I  I128  1  0.66697898  0.16665273  0.83331924  1
  I  I129  1  0.66697898  0.50001362  0.16668061  1
  I  I130  1  0.67029207  0.49740605  0.50411081  1
  I  I131  1  0.67262391  0.50596343  0.82737023  1
  I  I132  1  0.67029208  0.83744423  0.16407245  1
  I  I133  1  0.66553505  0.83333314  0.49999995  1
  I  I134  1  0.67029210  0.82922223  0.83592768  1
