# generated using pymatgen
data_Cs27Sn13Pb14I81
_symmetry_space_group_name_H-M   'P 1'
_cell_length_a   18.99458763
_cell_length_b   18.98491488
_cell_length_c   18.99779979
_cell_angle_alpha   90.00083406
_cell_angle_beta   89.99932995
_cell_angle_gamma   90.00021158
_symmetry_Int_Tables_number   1
_chemical_formula_structural   Cs27Sn13Pb14I81
_chemical_formula_sum   'Cs27 Sn13 Pb14 I81'
_cell_volume   6850.80853848
_cell_formula_units_Z   1
loop_
 _symmetry_equiv_pos_site_id
 _symmetry_equiv_pos_as_xyz
  1  'x, y, z'
loop_
 _atom_site_type_symbol
 _atom_site_label
 _atom_site_symmetry_multiplicity
 _atom_site_fract_x
 _atom_site_fract_y
 _atom_site_fract_z
 _atom_site_occupancy
  Cs  Cs0  1  0.00121840  -0.00002767  -0.00193234  1
  Cs  Cs1  1  -0.00094016  0.00072705  0.33565437  1
  Cs  Cs2  1  -0.00047151  0.00065948  0.66551069  1
  Cs  Cs3  1  -0.00326380  0.33755990  0.00126910  1
  Cs  Cs4  1  -0.00796572  0.33715016  0.33227067  1
  Cs  Cs5  1  -0.00180583  0.33736590  0.66576730  1
  Cs  Cs6  1  0.00796297  0.66057251  0.00002488  1
  Cs  Cs7  1  0.00473860  0.66361308  0.33042136  1
  Cs  Cs8  1  0.00053604  0.66024007  0.66856881  1
  Cs  Cs9  1  0.33260551  0.00148566  -0.00189725  1
  Cs  Cs10  1  0.33349769  0.00029942  0.33369007  1
  Cs  Cs11  1  0.33282656  0.00100804  0.66604773  1
  Cs  Cs12  1  0.33574483  0.32773230  0.00009169  1
  Cs  Cs13  1  0.33405527  0.33147159  0.33391181  1
  Cs  Cs14  1  0.33544124  0.33588749  0.66623552  1
  Cs  Cs15  1  0.32391189  0.66818215  -0.00369600  1
  Cs  Cs16  1  0.33418338  0.66485224  0.33281175  1
  Cs  Cs17  1  0.33255508  0.65874333  0.67195983  1
  Cs  Cs18  1  0.66597941  -0.00030135  -0.00065807  1
  Cs  Cs19  1  0.66688428  -0.00160284  0.33329757  1
  Cs  Cs20  1  0.66755346  -0.00082193  0.66666966  1
  Cs  Cs21  1  0.66748475  0.33630598  0.00037450  1
  Cs  Cs22  1  0.67153734  0.33409412  0.33251321  1
  Cs  Cs23  1  0.66662402  0.34392657  0.66785160  1
  Cs  Cs24  1  0.66725111  0.66773968  -0.00013593  1
  Cs  Cs25  1  0.66333733  0.67180034  0.33327125  1
  Cs  Cs26  1  0.66574294  0.66227946  0.66795119  1
  Sn  Sn27  1  0.49931572  0.83427857  0.49981469  1
  Sn  Sn28  1  0.16540421  0.16601166  0.83280923  1
  Sn  Sn29  1  0.50005075  0.83339504  0.16687925  1
  Sn  Sn30  1  0.49991153  0.16580939  0.49931820  1
  Sn  Sn31  1  0.16691276  0.16602463  0.49969931  1
  Sn  Sn32  1  0.83379564  0.16579366  0.83306366  1
  Sn  Sn33  1  0.16661859  0.16614090  0.16746054  1
  Sn  Sn34  1  0.83349894  0.83380546  0.50011139  1
  Sn  Sn35  1  0.83344464  0.83429846  0.83347544  1
  Sn  Sn36  1  0.16719935  0.83386379  0.50013874  1
  Sn  Sn37  1  0.49968179  0.16642178  0.16782108  1
  Sn  Sn38  1  0.49968258  0.50034196  0.16665068  1
  Sn  Sn39  1  0.83348455  0.83391435  0.16642370  1
  Pb  Pb40  1  0.50170718  0.83349801  0.83301273  1
  Pb  Pb41  1  0.83291547  0.16455416  0.16481345  1
  Pb  Pb42  1  0.16707474  0.83549587  0.16860630  1
  Pb  Pb43  1  0.50044331  0.16648022  0.83266953  1
  Pb  Pb44  1  0.83332968  0.50035274  0.83359515  1
  Pb  Pb45  1  0.49992657  0.49992014  0.49782439  1
  Pb  Pb46  1  0.83084200  0.50369610  0.16678604  1
  Pb  Pb47  1  0.83271672  0.16530338  0.50209024  1
  Pb  Pb48  1  0.49980426  0.50015209  0.83685483  1
  Pb  Pb49  1  0.16673662  0.49600022  0.83340115  1
  Pb  Pb50  1  0.83314381  0.50399328  0.49959555  1
  Pb  Pb51  1  0.16425645  0.83538347  0.83032698  1
  Pb  Pb52  1  0.16691989  0.49913697  0.49968666  1
  Pb  Pb53  1  0.16948013  0.49638741  0.16698236  1
  I  I54  1  0.17248857  0.00353034  0.16456672  1
  I  I55  1  0.16752683  0.00066289  0.49977461  1
  I  I56  1  0.16540438  0.00349592  0.83568483  1
  I  I57  1  0.17156914  0.32793513  0.16845811  1
  I  I58  1  0.17348766  0.32881656  0.50141358  1
  I  I59  1  0.16012673  0.32764505  0.83070865  1
  I  I60  1  0.16632813  0.66688056  0.16790171  1
  I  I61  1  0.16594003  0.67014907  0.49897363  1
  I  I62  1  0.16559208  0.66683219  0.83245856  1
  I  I63  1  0.50072141  0.00000459  0.17088356  1
  I  I64  1  0.49945508  -0.00040728  0.49194343  1
  I  I65  1  0.49920165  0.00015537  0.83887153  1
  I  I66  1  0.49362832  0.33161428  0.16953089  1
  I  I67  1  0.49360485  0.32968524  0.49721309  1
  I  I68  1  0.50216092  0.33290087  0.83241937  1
  I  I69  1  0.50774242  0.66836792  0.17174499  1
  I  I70  1  0.50135561  0.67045610  0.49571926  1
  I  I71  1  0.50332734  0.66695913  0.83149686  1
  I  I72  1  0.82690667  -0.00338837  0.16913615  1
  I  I73  1  0.83282874  -0.00328204  0.49784985  1
  I  I74  1  0.83659383  -0.00073579  0.83338582  1
  I  I75  1  0.83308765  0.33315529  0.16368565  1
  I  I76  1  0.83336192  0.33318319  0.50272683  1
  I  I77  1  0.83777020  0.33012259  0.83380155  1
  I  I78  1  0.82796161  0.67210203  0.16562409  1
  I  I79  1  0.83185388  0.67288488  0.50316000  1
  I  I80  1  0.83039423  0.67043280  0.83174447  1
  I  I81  1  0.16842824  0.16695095  0.00036717  1
  I  I82  1  0.17338366  0.16190607  0.33386913  1
  I  I83  1  0.16720040  0.16112588  0.66575871  1
  I  I84  1  0.16779462  0.50110584  0.00024928  1
  I  I85  1  0.16613626  0.49910770  0.33319183  1
  I  I86  1  0.16700995  0.50009437  0.66658163  1
  I  I87  1  0.16682286  0.83484059  -0.00006304  1
  I  I88  1  0.16203004  0.83972008  0.33653925  1
  I  I89  1  0.16840349  0.84034587  0.66230524  1
  I  I90  1  0.49671556  0.16600747  0.00320931  1
  I  I91  1  0.49192690  0.16535140  0.33280755  1
  I  I92  1  0.49656333  0.15965828  0.66312810  1
  I  I93  1  0.50167548  0.49803629  0.00493205  1
  I  I94  1  0.49982722  0.50047500  0.33016934  1
  I  I95  1  0.50067901  0.49952044  0.66646152  1
  I  I96  1  0.50571245  0.83467976  0.00364475  1
  I  I97  1  0.50548013  0.83437361  0.33319802  1
  I  I98  1  0.50101911  0.84037301  0.66283114  1
  I  I99  1  0.83680042  0.15972991  -0.00290513  1
  I  I100  1  0.83610724  0.16565334  0.33338210  1
  I  I101  1  0.83723364  0.15900748  0.66975977  1
  I  I102  1  0.83106133  0.50143117  0.00018873  1
  I  I103  1  0.83408456  0.49753293  0.33302104  1
  I  I104  1  0.83221027  0.50081464  0.66677768  1
  I  I105  1  0.82583713  0.83837611  0.00033670  1
  I  I106  1  0.83058284  0.83346604  0.33358629  1
  I  I107  1  0.83318432  0.83926182  0.66623725  1
  I  I108  1  0.00254609  0.16314045  0.16906589  1
  I  I109  1  0.00285291  0.16154386  0.49792987  1
  I  I110  1  0.00053173  0.16065872  0.83342995  1
  I  I111  1  0.00012868  0.50022055  0.16567290  1
  I  I112  1  0.00006240  0.49888740  0.49970585  1
  I  I113  1  -0.00004032  0.50273960  0.83476377  1
  I  I114  1  -0.00239832  0.83695163  0.16805391  1
  I  I115  1  0.00007102  0.83920042  0.49997416  1
  I  I116  1  -0.00381993  0.83655302  0.83489774  1
  I  I117  1  0.33423127  0.16485396  0.16445794  1
  I  I118  1  0.33329362  0.15876013  0.50071251  1
  I  I119  1  0.33061965  0.16739413  0.83427418  1
  I  I120  1  0.33717110  0.50677247  0.16788165  1
  I  I121  1  0.33347445  0.50516345  0.49985019  1
  I  I122  1  0.33316034  0.49965330  0.83247965  1
  I  I123  1  0.33673899  0.83192307  0.17182200  1
  I  I124  1  0.33410131  0.83888147  0.49304761  1
  I  I125  1  0.33292199  0.83429272  0.83453898  1
  I  I126  1  0.66318974  0.16783599  0.17002012  1
  I  I127  1  0.66348228  0.16170886  0.49527207  1
  I  I128  1  0.66954832  0.16167725  0.83438228  1
  I  I129  1  0.66310096  0.49277598  0.16738947  1
  I  I130  1  0.66642829  0.49758853  0.50036380  1
  I  I131  1  0.66679407  0.49642766  0.83236553  1
  I  I132  1  0.66570501  0.83545878  0.17121969  1
  I  I133  1  0.66613393  0.83777151  0.49828999  1
  I  I134  1  0.67011711  0.84066409  0.82993888  1
