# generated using pymatgen
data_Cs27Sn14Pb13I81
_symmetry_space_group_name_H-M   'P 1'
_cell_length_a   18.97429014
_cell_length_b   18.97370313
_cell_length_c   18.98002208
_cell_angle_alpha   89.99914814
_cell_angle_beta   90.00004443
_cell_angle_gamma   89.99958086
_symmetry_Int_Tables_number   1
_chemical_formula_structural   Cs27Sn14Pb13I81
_chemical_formula_sum   'Cs27 Sn14 Pb13 I81'
_cell_volume   6833.04611451
_cell_formula_units_Z   1
loop_
 _symmetry_equiv_pos_site_id
 _symmetry_equiv_pos_as_xyz
  1  'x, y, z'
loop_
 _atom_site_type_symbol
 _atom_site_label
 _atom_site_symmetry_multiplicity
 _atom_site_fract_x
 _atom_site_fract_y
 _atom_site_fract_z
 _atom_site_occupancy
  Cs  Cs0  1  -0.00186009  0.00083083  -0.00038306  1
  Cs  Cs1  1  -0.00275995  -0.00183106  0.33178594  1
  Cs  Cs2  1  0.00302981  -0.00272238  0.66983070  1
  Cs  Cs3  1  0.00206277  0.33366421  -0.00164209  1
  Cs  Cs4  1  -0.00183446  0.33332024  0.33292339  1
  Cs  Cs5  1  -0.00006165  0.33557435  0.66874118  1
  Cs  Cs6  1  -0.00086398  0.66568237  0.00130742  1
  Cs  Cs7  1  0.00291939  0.66945596  0.33144843  1
  Cs  Cs8  1  0.00010450  0.66704998  0.66549843  1
  Cs  Cs9  1  0.33475315  0.00172014  -0.00095325  1
  Cs  Cs10  1  0.33358008  -0.00134709  0.33390862  1
  Cs  Cs11  1  0.33237380  -0.00063540  0.66729641  1
  Cs  Cs12  1  0.33093611  0.33020386  0.00440819  1
  Cs  Cs13  1  0.33527165  0.33539167  0.33090258  1
  Cs  Cs14  1  0.33079499  0.32919213  0.66319540  1
  Cs  Cs15  1  0.33650918  0.66494667  0.00200130  1
  Cs  Cs16  1  0.33099802  0.66639645  0.33069095  1
  Cs  Cs17  1  0.33336024  0.67044792  0.66806174  1
  Cs  Cs18  1  0.66651475  -0.00129763  0.00201724  1
  Cs  Cs19  1  0.66842952  0.00209663  0.33141417  1
  Cs  Cs20  1  0.66478428  -0.00023429  0.66692944  1
  Cs  Cs21  1  0.66715033  0.33554418  -0.00137085  1
  Cs  Cs22  1  0.66712620  0.33205158  0.34561869  1
  Cs  Cs23  1  0.66869485  0.34042778  0.65714204  1
  Cs  Cs24  1  0.66468517  0.66498738  -0.00490571  1
  Cs  Cs25  1  0.66654953  0.66713748  0.33302959  1
  Cs  Cs26  1  0.66693036  0.66124423  0.67110218  1
  Sn  Sn27  1  0.83193713  0.83367114  0.50104851  1
  Sn  Sn28  1  0.16610508  0.83231165  0.83485692  1
  Sn  Sn29  1  0.50177328  0.16685780  0.83362310  1
  Sn  Sn30  1  0.49975548  0.16601582  0.16603965  1
  Sn  Sn31  1  0.83152958  0.16626312  0.83314030  1
  Sn  Sn32  1  0.50137475  0.83349683  0.49921437  1
  Sn  Sn33  1  0.83289658  0.49968082  0.16681833  1
  Sn  Sn34  1  0.16740929  0.83439885  0.16517652  1
  Sn  Sn35  1  0.16706055  0.50126964  0.83276018  1
  Sn  Sn36  1  0.49924306  0.83415581  0.16745051  1
  Sn  Sn37  1  0.83390897  0.83413987  0.83254922  1
  Sn  Sn38  1  0.16693284  0.16554390  0.16788071  1
  Sn  Sn39  1  0.16671760  0.49905001  0.50074798  1
  Sn  Sn40  1  0.16633281  0.16738682  0.49850635  1
  Pb  Pb41  1  0.49674803  0.49617731  0.83335278  1
  Pb  Pb42  1  0.83603751  0.16430356  0.50282507  1
  Pb  Pb43  1  0.16561888  0.49989913  0.16658124  1
  Pb  Pb44  1  0.83286573  0.83215428  0.16597375  1
  Pb  Pb45  1  0.83581444  0.50283740  0.49793787  1
  Pb  Pb46  1  0.83513186  0.50020542  0.83450435  1
  Pb  Pb47  1  0.16669605  0.16628181  0.83378140  1
  Pb  Pb48  1  0.49815967  0.16472837  0.49964522  1
  Pb  Pb49  1  0.50284643  0.49942630  0.16675604  1
  Pb  Pb50  1  0.16669499  0.83351327  0.49984068  1
  Pb  Pb51  1  0.49707920  0.50326686  0.50003382  1
  Pb  Pb52  1  0.83281797  0.16872330  0.16486577  1
  Pb  Pb53  1  0.50005542  0.83467692  0.83375305  1
  I  I54  1  0.16945008  -0.00038797  0.16652538  1
  I  I55  1  0.16710719  0.00190508  0.49988857  1
  I  I56  1  0.16536423  -0.00260552  0.83343529  1
  I  I57  1  0.16948236  0.33053310  0.16643135  1
  I  I58  1  0.16705005  0.33289593  0.50134243  1
  I  I59  1  0.16638042  0.33493594  0.83261073  1
  I  I60  1  0.16882669  0.66955629  0.16661329  1
  I  I61  1  0.16609648  0.66510688  0.50086341  1
  I  I62  1  0.16038055  0.66829767  0.83274769  1
  I  I63  1  0.49539545  -0.00026446  0.16629693  1
  I  I64  1  0.49967949  -0.00320318  0.49877604  1
  I  I65  1  0.49748604  0.00256418  0.83484601  1
  I  I66  1  0.49399828  0.32966220  0.16087666  1
  I  I67  1  0.50024059  0.33314741  0.49966384  1
  I  I68  1  0.50374441  0.32817256  0.84084432  1
  I  I69  1  0.49519445  0.66998062  0.17078254  1
  I  I70  1  0.50117753  0.67143722  0.49399794  1
  I  I71  1  0.50196053  0.66675112  0.83382539  1
  I  I72  1  0.83460552  -0.00000282  0.16788165  1
  I  I73  1  0.83324917  -0.00363475  0.49936484  1
  I  I74  1  0.83779169  -0.00103226  0.83114916  1
  I  I75  1  0.83704032  0.33590054  0.16282379  1
  I  I76  1  0.83290098  0.33325254  0.50026095  1
  I  I77  1  0.83286793  0.33085794  0.83774332  1
  I  I78  1  0.83655849  0.66487278  0.16546859  1
  I  I79  1  0.83234449  0.67069128  0.50649994  1
  I  I80  1  0.83645427  0.66982272  0.83115824  1
  I  I81  1  0.16768335  0.16595899  0.00246272  1
  I  I82  1  0.17212734  0.16597123  0.33202358  1
  I  I83  1  0.16675631  0.16683243  0.66513993  1
  I  I84  1  0.16380711  0.50074761  -0.00215475  1
  I  I85  1  0.16441108  0.50020176  0.33529960  1
  I  I86  1  0.16503888  0.49996395  0.66698317  1
  I  I87  1  0.16589492  0.83371527  0.00007674  1
  I  I88  1  0.16697527  0.83358316  0.33091276  1
  I  I89  1  0.16587250  0.83333469  0.66883682  1
  I  I90  1  0.49629064  0.15995266  0.00100030  1
  I  I91  1  0.49637104  0.16401400  0.33029450  1
  I  I92  1  0.50002278  0.16369826  0.66889996  1
  I  I93  1  0.49823574  0.50561220  0.00004688  1
  I  I94  1  0.49799956  0.49639490  0.33334963  1
  I  I95  1  0.50271137  0.50063252  0.66671858  1
  I  I96  1  0.49845971  0.83592153  0.00272742  1
  I  I97  1  0.49863331  0.83884370  0.33211516  1
  I  I98  1  0.49873775  0.83556127  0.66493568  1
  I  I99  1  0.83590145  0.15975692  -0.00300144  1
  I  I100  1  0.83227150  0.16668707  0.33355477  1
  I  I101  1  0.82970193  0.16549175  0.67080464  1
  I  I102  1  0.83755548  0.50295968  0.00196229  1
  I  I103  1  0.83654577  0.50115610  0.33064919  1
  I  I104  1  0.83384824  0.49859516  0.66653087  1
  I  I105  1  0.83575978  0.83558103  -0.00281000  1
  I  I106  1  0.83434696  0.83017030  0.33504053  1
  I  I107  1  0.83585504  0.83712181  0.66776063  1
  I  I108  1  0.00295782  0.16317222  0.16824975  1
  I  I109  1  0.00404628  0.16749874  0.49530670  1
  I  I110  1  -0.00168018  0.16510982  0.83320973  1
  I  I111  1  -0.00169901  0.50144697  0.16610550  1
  I  I112  1  0.00357444  0.49880051  0.50360194  1
  I  I113  1  0.00320729  0.49877270  0.83097826  1
  I  I114  1  0.00271513  0.83572844  0.16662105  1
  I  I115  1  -0.00166454  0.83304879  0.50107309  1
  I  I116  1  0.00046761  0.83626038  0.83258734  1
  I  I117  1  0.33278080  0.16328539  0.16326430  1
  I  I118  1  0.33003857  0.16689354  0.50219891  1
  I  I119  1  0.33510491  0.16618471  0.83465752  1
  I  I120  1  0.33337299  0.50048602  0.16671224  1
  I  I121  1  0.32904096  0.49799247  0.50236479  1
  I  I122  1  0.32867295  0.50717387  0.83108786  1
  I  I123  1  0.33259887  0.83620364  0.16731307  1
  I  I124  1  0.33505164  0.83367513  0.49909677  1
  I  I125  1  0.33057208  0.83182877  0.83305715  1
  I  I126  1  0.66357782  0.16157064  0.16290869  1
  I  I127  1  0.66679877  0.16695681  0.49770356  1
  I  I128  1  0.66673319  0.15842202  0.84077080  1
  I  I129  1  0.67012283  0.50259260  0.16406748  1
  I  I130  1  0.66685182  0.49856700  0.49839434  1
  I  I131  1  0.66671547  0.50297098  0.83594856  1
  I  I132  1  0.66385531  0.83677724  0.16810468  1
  I  I133  1  0.66665130  0.83489855  0.49908849  1
  I  I134  1  0.66917070  0.83627487  0.83298627  1
