# generated using pymatgen
data_Cs27Sn13Pb14I81
_symmetry_space_group_name_H-M   'P 1'
_cell_length_a   18.98287616
_cell_length_b   18.97819446
_cell_length_c   18.96892853
_cell_angle_alpha   89.99853525
_cell_angle_beta   89.99891418
_cell_angle_gamma   89.99867730
_symmetry_Int_Tables_number   1
_chemical_formula_structural   Cs27Sn13Pb14I81
_chemical_formula_sum   'Cs27 Sn13 Pb14 I81'
_cell_volume   6833.75975319
_cell_formula_units_Z   1
loop_
 _symmetry_equiv_pos_site_id
 _symmetry_equiv_pos_as_xyz
  1  'x, y, z'
loop_
 _atom_site_type_symbol
 _atom_site_label
 _atom_site_symmetry_multiplicity
 _atom_site_fract_x
 _atom_site_fract_y
 _atom_site_fract_z
 _atom_site_occupancy
  Cs  Cs0  1  -0.00079116  -0.00984228  0.00469615  1
  Cs  Cs1  1  0.00278887  0.00482388  0.33032281  1
  Cs  Cs2  1  -0.00144879  -0.00006891  0.66627958  1
  Cs  Cs3  1  -0.00018992  0.33372393  -0.00336490  1
  Cs  Cs4  1  -0.00073827  0.33171127  0.33242302  1
  Cs  Cs5  1  -0.00044158  0.33347953  0.66591587  1
  Cs  Cs6  1  0.00180550  0.67547644  -0.00242705  1
  Cs  Cs7  1  -0.00267602  0.66322143  0.33586159  1
  Cs  Cs8  1  -0.00051179  0.66661336  0.66709925  1
  Cs  Cs9  1  0.33349768  0.00113027  0.00689907  1
  Cs  Cs10  1  0.33098252  -0.00226211  0.32947235  1
  Cs  Cs11  1  0.33611921  0.00125294  0.66493092  1
  Cs  Cs12  1  0.33710302  0.33422167  -0.00276819  1
  Cs  Cs13  1  0.32951003  0.33254188  0.33354957  1
  Cs  Cs14  1  0.33289816  0.33356081  0.66736405  1
  Cs  Cs15  1  0.33063756  0.66542297  -0.00006448  1
  Cs  Cs16  1  0.33707395  0.66806795  0.33500101  1
  Cs  Cs17  1  0.33406290  0.66605217  0.66602968  1
  Cs  Cs18  1  0.66791067  0.00311096  0.00657896  1
  Cs  Cs19  1  0.66485720  -0.00368504  0.33192214  1
  Cs  Cs20  1  0.66622694  0.00108859  0.66592357  1
  Cs  Cs21  1  0.66354767  0.33073313  0.00297792  1
  Cs  Cs22  1  0.67079229  0.33660830  0.32852454  1
  Cs  Cs23  1  0.66730851  0.33216948  0.66718697  1
  Cs  Cs24  1  0.66838315  0.66792772  0.00469784  1
  Cs  Cs25  1  0.66500222  0.66548703  0.32802331  1
  Cs  Cs26  1  0.66531670  0.66684320  0.66538944  1
  Sn  Sn27  1  0.50004178  0.83286104  0.83322639  1
  Sn  Sn28  1  0.16645511  0.49986192  0.16651405  1
  Sn  Sn29  1  0.49959270  0.49877293  0.50082775  1
  Sn  Sn30  1  0.16735501  0.50072929  0.50009195  1
  Sn  Sn31  1  0.83410557  0.83420282  0.50065812  1
  Sn  Sn32  1  0.83315035  0.49955758  0.83292300  1
  Sn  Sn33  1  0.16576167  0.83270699  0.50075048  1
  Sn  Sn34  1  0.50096726  0.16787867  0.50026931  1
  Sn  Sn35  1  0.83444633  0.16713412  0.83266196  1
  Sn  Sn36  1  0.16641252  0.49936695  0.83320942  1
  Sn  Sn37  1  0.83225239  0.16588112  0.50076202  1
  Sn  Sn38  1  0.16566335  0.16666353  0.83297060  1
  Sn  Sn39  1  0.50035829  0.50126869  0.83236707  1
  Pb  Pb40  1  0.83631243  0.49995064  0.16257031  1
  Pb  Pb41  1  0.16647383  0.16918360  0.16278087  1
  Pb  Pb42  1  0.16859747  0.83360074  0.83134893  1
  Pb  Pb43  1  0.83110989  0.83383230  0.83164980  1
  Pb  Pb44  1  0.16666766  0.83046284  0.17020618  1
  Pb  Pb45  1  0.83350437  0.83319469  0.17056526  1
  Pb  Pb46  1  0.83357276  0.16684883  0.16641482  1
  Pb  Pb47  1  0.49978193  0.83300782  0.16294926  1
  Pb  Pb48  1  0.49986579  0.16712738  0.17096927  1
  Pb  Pb49  1  0.83305236  0.49969647  0.50149986  1
  Pb  Pb50  1  0.49784827  0.49987264  0.16662716  1
  Pb  Pb51  1  0.50028878  0.16689194  0.83217424  1
  Pb  Pb52  1  0.50013525  0.83307220  0.50101812  1
  Pb  Pb53  1  0.16648875  0.16694614  0.50158676  1
  I  I54  1  0.16706165  -0.00010969  0.16685514  1
  I  I55  1  0.16666315  -0.00183285  0.50400155  1
  I  I56  1  0.16400014  0.00259092  0.82864755  1
  I  I57  1  0.16702643  0.33714765  0.17322041  1
  I  I58  1  0.16796641  0.33659214  0.49976652  1
  I  I59  1  0.16803236  0.33525460  0.83064225  1
  I  I60  1  0.16693401  0.66263489  0.15947509  1
  I  I61  1  0.16685218  0.66487050  0.50249089  1
  I  I62  1  0.16458421  0.66315731  0.83440880  1
  I  I63  1  0.49887499  0.00003655  0.16581549  1
  I  I64  1  0.50074007  0.00205514  0.50396979  1
  I  I65  1  0.49943968  -0.00157841  0.82866728  1
  I  I66  1  0.49929644  0.33368403  0.16130746  1
  I  I67  1  0.49856617  0.33465721  0.50722083  1
  I  I68  1  0.49860892  0.33651713  0.83080253  1
  I  I69  1  0.49983827  0.66628090  0.17235389  1
  I  I70  1  0.49814016  0.66364719  0.50307610  1
  I  I71  1  0.49898993  0.66408340  0.82618343  1
  I  I72  1  0.83423261  0.00005086  0.16119621  1
  I  I73  1  0.83285906  0.00101139  0.50709560  1
  I  I74  1  0.83646732  0.00314650  0.82957754  1
  I  I75  1  0.83393501  0.33356095  0.17248645  1
  I  I76  1  0.83264215  0.33080787  0.50326371  1
  I  I77  1  0.83370386  0.33352141  0.82658676  1
  I  I78  1  0.83325761  0.66637798  0.16702681  1
  I  I79  1  0.83511408  0.66830127  0.50279230  1
  I  I80  1  0.83636742  0.66388839  0.83112956  1
  I  I81  1  0.16271429  0.17163756  -0.00556225  1
  I  I82  1  0.16709726  0.16718567  0.33351393  1
  I  I83  1  0.16567223  0.17349254  0.66943692  1
  I  I84  1  0.16726370  0.49429102  -0.00193812  1
  I  I85  1  0.17198289  0.50511444  0.33510670  1
  I  I86  1  0.16803277  0.50009037  0.66700089  1
  I  I87  1  0.16843733  0.83316938  -0.00018471  1
  I  I88  1  0.16466521  0.83008056  0.33845386  1
  I  I89  1  0.16390621  0.82658290  0.66346342  1
  I  I90  1  0.49984523  0.16621340  -0.00021758  1
  I  I91  1  0.50510620  0.17209992  0.33935282  1
  I  I92  1  0.50102906  0.16856770  0.66408411  1
  I  I93  1  0.49897099  0.50357639  -0.00380532  1
  I  I94  1  0.49585869  0.49666923  0.33701016  1
  I  I95  1  0.49457700  0.50002360  0.66700403  1
  I  I96  1  0.49939397  0.82654886  -0.00522358  1
  I  I97  1  0.50020010  0.83352985  0.33358487  1
  I  I98  1  0.49941443  0.83028589  0.66873437  1
  I  I99  1  0.83638866  0.17210748  -0.00400907  1
  I  I100  1  0.82939395  0.16269689  0.33713024  1
  I  I101  1  0.83350923  0.16730721  0.66670607  1
  I  I102  1  0.83080338  0.49361257  -0.00581712  1
  I  I103  1  0.83331366  0.50042188  0.33344745  1
  I  I104  1  0.83761760  0.49887814  0.66970238  1
  I  I105  1  0.83177570  0.83320798  -0.00028986  1
  I  I106  1  0.83610114  0.83836273  0.33896033  1
  I  I107  1  0.83684748  0.83444165  0.66370309  1
  I  I108  1  0.00013740  0.16867168  0.17257078  1
  I  I109  1  -0.00247952  0.16588589  0.50298028  1
  I  I110  1  -0.00043018  0.17653055  0.82611158  1
  I  I111  1  0.00412004  0.49907522  0.17059441  1
  I  I112  1  0.00279714  0.50122181  0.50155672  1
  I  I113  1  0.00084624  0.49477438  0.83211287  1
  I  I114  1  0.00027366  0.83218040  0.16192840  1
  I  I115  1  0.00033584  0.83201060  0.50242495  1
  I  I116  1  -0.00004767  0.83081806  0.83313135  1
  I  I117  1  0.33306137  0.16678916  0.16599780  1
  I  I118  1  0.33524768  0.16799600  0.50348056  1
  I  I119  1  0.33128122  0.17094536  0.83046889  1
  I  I120  1  0.33002093  0.49986429  0.16257510  1
  I  I121  1  0.33271514  0.50028425  0.50471800  1
  I  I122  1  0.33271965  0.49954148  0.83241628  1
  I  I123  1  0.33306083  0.83349405  0.16988007  1
  I  I124  1  0.33114500  0.83141665  0.50228090  1
  I  I125  1  0.33616657  0.82867925  0.82851279  1
  I  I126  1  0.66673495  0.16769939  0.16099838  1
  I  I127  1  0.66736968  0.16605540  0.50761213  1
  I  I128  1  0.66940152  0.17017120  0.82953567  1
  I  I129  1  0.66678603  0.50043384  0.16774066  1
  I  I130  1  0.66408302  0.49961605  0.50616145  1
  I  I131  1  0.66610891  0.49997624  0.82613837  1
  I  I132  1  0.66663123  0.83219961  0.16901456  1
  I  I133  1  0.66885135  0.83486583  0.50337148  1
  I  I134  1  0.66366028  0.82826791  0.82823963  1
