# generated using pymatgen
data_Cs27Sn14Pb13I81
_symmetry_space_group_name_H-M   'P 1'
_cell_length_a   18.97566056
_cell_length_b   18.97174610
_cell_length_c   18.97766861
_cell_angle_alpha   90.00034712
_cell_angle_beta   90.00002580
_cell_angle_gamma   90.00172227
_symmetry_Int_Tables_number   1
_chemical_formula_structural   Cs27Sn14Pb13I81
_chemical_formula_sum   'Cs27 Sn14 Pb13 I81'
_cell_volume   6831.98753783
_cell_formula_units_Z   1
loop_
 _symmetry_equiv_pos_site_id
 _symmetry_equiv_pos_as_xyz
  1  'x, y, z'
loop_
 _atom_site_type_symbol
 _atom_site_label
 _atom_site_symmetry_multiplicity
 _atom_site_fract_x
 _atom_site_fract_y
 _atom_site_fract_z
 _atom_site_occupancy
  Cs  Cs0  1  0.00283659  0.00166147  -0.00240971  1
  Cs  Cs1  1  -0.00062014  -0.00093774  0.33613474  1
  Cs  Cs2  1  -0.00989513  0.00081729  0.66550994  1
  Cs  Cs3  1  0.00167653  0.33374760  -0.00123437  1
  Cs  Cs4  1  0.00006411  0.33244555  0.33084314  1
  Cs  Cs5  1  -0.00451615  0.33364872  0.66993956  1
  Cs  Cs6  1  0.00189050  0.66419431  0.00136289  1
  Cs  Cs7  1  0.00088938  0.67079693  0.33565601  1
  Cs  Cs8  1  0.00154623  0.66611836  0.66292901  1
  Cs  Cs9  1  0.33224148  -0.00024188  0.00041648  1
  Cs  Cs10  1  0.33304406  0.00251653  0.33400424  1
  Cs  Cs11  1  0.33485919  0.00118579  0.66513223  1
  Cs  Cs12  1  0.33077552  0.33186897  -0.00130140  1
  Cs  Cs13  1  0.33490288  0.33161238  0.33477084  1
  Cs  Cs14  1  0.33458063  0.33379794  0.66710493  1
  Cs  Cs15  1  0.33209926  0.66959157  -0.00064137  1
  Cs  Cs16  1  0.33305625  0.66437978  0.33851790  1
  Cs  Cs17  1  0.33234119  0.66542662  0.66434464  1
  Cs  Cs18  1  0.66494762  -0.00959364  -0.00131948  1
  Cs  Cs19  1  0.66789606  0.00111091  0.33584678  1
  Cs  Cs20  1  0.67136634  -0.00243841  0.66646833  1
  Cs  Cs21  1  0.66633264  0.33488914  0.00155084  1
  Cs  Cs22  1  0.66546723  0.33377466  0.33238744  1
  Cs  Cs23  1  0.66746837  0.33362925  0.66586217  1
  Cs  Cs24  1  0.66732410  0.67360797  0.00516010  1
  Cs  Cs25  1  0.66625077  0.66383404  0.32190176  1
  Cs  Cs26  1  0.66693674  0.66590420  0.67024839  1
  Sn  Sn27  1  0.16703986  0.83349539  0.16632226  1
  Sn  Sn28  1  0.83334616  0.16642449  0.16611897  1
  Sn  Sn29  1  0.49938350  0.16582757  0.50034558  1
  Sn  Sn30  1  0.83319399  0.50008254  0.49989309  1
  Sn  Sn31  1  0.50022443  0.16666789  0.16631973  1
  Sn  Sn32  1  0.16671047  0.83289824  0.83318572  1
  Sn  Sn33  1  0.16692920  0.50077138  0.83385450  1
  Sn  Sn34  1  0.83310836  0.49997148  0.83303327  1
  Sn  Sn35  1  0.16662865  0.16666462  0.16748191  1
  Sn  Sn36  1  0.50006272  0.49968114  0.83369398  1
  Sn  Sn37  1  0.16701265  0.50001686  0.16643024  1
  Sn  Sn38  1  0.50006582  0.16697575  0.83338070  1
  Sn  Sn39  1  0.16669984  0.16699335  0.49997184  1
  Sn  Sn40  1  0.50018323  0.83352275  0.49997971  1
  Pb  Pb41  1  0.83655139  0.83030056  0.83336535  1
  Pb  Pb42  1  0.83563813  0.49848418  0.16620828  1
  Pb  Pb43  1  0.49728851  0.49808597  0.16406096  1
  Pb  Pb44  1  0.49735706  0.83581381  0.16903143  1
  Pb  Pb45  1  0.16512105  0.49744861  0.50044042  1
  Pb  Pb46  1  0.83286698  0.16834639  0.49829020  1
  Pb  Pb47  1  0.83632092  0.83633970  0.16665457  1
  Pb  Pb48  1  0.82995550  0.16856097  0.83604852  1
  Pb  Pb49  1  0.49790761  0.83325425  0.83163051  1
  Pb  Pb50  1  0.50205688  0.49959371  0.50189579  1
  Pb  Pb51  1  0.16798461  0.16669534  0.83290573  1
  Pb  Pb52  1  0.82995769  0.83017809  0.49977979  1
  Pb  Pb53  1  0.16793169  0.83593630  0.50044778  1
  I  I54  1  0.16746529  0.00115938  0.16584864  1
  I  I55  1  0.16892880  0.00391101  0.49537029  1
  I  I56  1  0.17082665  -0.00188793  0.83746466  1
  I  I57  1  0.16659933  0.33237363  0.16579783  1
  I  I58  1  0.17352324  0.32962960  0.49521202  1
  I  I59  1  0.16556652  0.33612379  0.83655932  1
  I  I60  1  0.16588127  0.66627131  0.16070159  1
  I  I61  1  0.16759667  0.66657175  0.49702382  1
  I  I62  1  0.16836926  0.66519792  0.84128123  1
  I  I63  1  0.49707065  0.00444344  0.16110148  1
  I  I64  1  0.49498539  0.00248900  0.50130135  1
  I  I65  1  0.49638633  0.00294784  0.83576103  1
  I  I66  1  0.49720470  0.32951318  0.17198207  1
  I  I67  1  0.49723900  0.33001282  0.49801879  1
  I  I68  1  0.49654183  0.33315645  0.83157016  1
  I  I69  1  0.49933712  0.66673384  0.16766170  1
  I  I70  1  0.49979673  0.66860900  0.50347353  1
  I  I71  1  0.50058326  0.66374015  0.82978842  1
  I  I72  1  0.83427728  0.00446635  0.16838394  1
  I  I73  1  0.83556247  0.00016767  0.49853708  1
  I  I74  1  0.83392647  0.00009051  0.83393887  1
  I  I75  1  0.83590216  0.33049763  0.16684427  1
  I  I76  1  0.83211702  0.33588848  0.50433662  1
  I  I77  1  0.83976335  0.33660286  0.83043147  1
  I  I78  1  0.83434549  0.66656507  0.16698988  1
  I  I79  1  0.83514283  0.66253230  0.50499930  1
  I  I80  1  0.82751181  0.66194749  0.83058270  1
  I  I81  1  0.16766430  0.16707711  0.00285607  1
  I  I82  1  0.17127577  0.16720126  0.33162771  1
  I  I83  1  0.17304840  0.16749501  0.66436130  1
  I  I84  1  0.16476328  0.49751264  -0.00052666  1
  I  I85  1  0.16420304  0.50106682  0.33074865  1
  I  I86  1  0.16844371  0.50307981  0.66992439  1
  I  I87  1  0.16782360  0.83479647  0.00052313  1
  I  I88  1  0.16797854  0.83160742  0.33060670  1
  I  I89  1  0.16960361  0.82792286  0.66918834  1
  I  I90  1  0.49814678  0.17318426  0.00025511  1
  I  I91  1  0.49819124  0.16227060  0.33322002  1
  I  I92  1  0.49320877  0.16779009  0.66626250  1
  I  I93  1  0.50389199  0.49441617  -0.00410775  1
  I  I94  1  0.50078424  0.49952658  0.33316951  1
  I  I95  1  0.49443768  0.49405736  0.67006316  1
  I  I96  1  0.50056881  0.83419331  0.00013772  1
  I  I97  1  0.49729643  0.83868523  0.33661652  1
  I  I98  1  0.49628290  0.83977604  0.66410774  1
  I  I99  1  0.83793653  0.17039935  0.00366095  1
  I  I100  1  0.83098712  0.17081486  0.33043849  1
  I  I101  1  0.83466327  0.16683014  0.66696436  1
  I  I102  1  0.83309693  0.49694414  -0.00288727  1
  I  I103  1  0.83442533  0.49723140  0.33511465  1
  I  I104  1  0.83587764  0.49775891  0.66808712  1
  I  I105  1  0.82905623  0.83178081  0.00001232  1
  I  I106  1  0.83623021  0.82998255  0.33325861  1
  I  I107  1  0.83653570  0.83700385  0.66662502  1
  I  I108  1  0.00191099  0.16740553  0.17171448  1
  I  I109  1  0.00235685  0.16844930  0.49459727  1
  I  I110  1  -0.00009416  0.16725003  0.83328376  1
  I  I111  1  0.00377617  0.49602253  0.16110914  1
  I  I112  1  -0.00238870  0.49680518  0.50557995  1
  I  I113  1  0.00094023  0.50405472  0.83381471  1
  I  I114  1  0.00468865  0.83487924  0.16376849  1
  I  I115  1  0.00006891  0.83461363  0.49997733  1
  I  I116  1  0.00471453  0.83031728  0.83705264  1
  I  I117  1  0.33271009  0.16704536  0.16761577  1
  I  I118  1  0.33411200  0.16491037  0.49490065  1
  I  I119  1  0.33609585  0.17197057  0.83653897  1
  I  I120  1  0.32907089  0.49705690  0.16227175  1
  I  I121  1  0.33342928  0.50073847  0.50053043  1
  I  I122  1  0.33273266  0.49892138  0.83786627  1
  I  I123  1  0.32935646  0.83564450  0.16216047  1
  I  I124  1  0.33576371  0.83532429  0.50002447  1
  I  I125  1  0.33014695  0.82795156  0.83741985  1
  I  I126  1  0.66560768  0.16957235  0.16764691  1
  I  I127  1  0.66333821  0.16478292  0.49892482  1
  I  I128  1  0.66180433  0.17243187  0.83137606  1
  I  I129  1  0.66651676  0.49718320  0.16648498  1
  I  I130  1  0.66958832  0.49732078  0.50589340  1
  I  I131  1  0.66630446  0.49232459  0.82665371  1
  I  I132  1  0.66633389  0.83407190  0.16773355  1
  I  I133  1  0.66245596  0.84328176  0.50200257  1
  I  I134  1  0.66649692  0.83313063  0.83183022  1
