# generated using pymatgen
data_Cs27Sn14Pb13I81
_symmetry_space_group_name_H-M   'P 1'
_cell_length_a   18.96580510
_cell_length_b   18.95361334
_cell_length_c   18.96230434
_cell_angle_alpha   89.99993226
_cell_angle_beta   90.00066681
_cell_angle_gamma   90.00078420
_symmetry_Int_Tables_number   1
_chemical_formula_structural   Cs27Sn14Pb13I81
_chemical_formula_sum   'Cs27 Sn14 Pb13 I81'
_cell_volume   6816.38971236
_cell_formula_units_Z   1
loop_
 _symmetry_equiv_pos_site_id
 _symmetry_equiv_pos_as_xyz
  1  'x, y, z'
loop_
 _atom_site_type_symbol
 _atom_site_label
 _atom_site_symmetry_multiplicity
 _atom_site_fract_x
 _atom_site_fract_y
 _atom_site_fract_z
 _atom_site_occupancy
  Cs  Cs0  1  0.00048090  -0.00034440  -0.00101552  1
  Cs  Cs1  1  -0.00305175  0.00383251  0.33036536  1
  Cs  Cs2  1  -0.00160434  0.00124865  0.66843536  1
  Cs  Cs3  1  0.00178008  0.33289869  0.00123798  1
  Cs  Cs4  1  0.00097854  0.33324976  0.33403862  1
  Cs  Cs5  1  0.00054366  0.33275520  0.66538596  1
  Cs  Cs6  1  -0.00048183  0.66727453  -0.00066473  1
  Cs  Cs7  1  -0.00002190  0.66341970  0.33528915  1
  Cs  Cs8  1  0.00076074  0.66500664  0.66496681  1
  Cs  Cs9  1  0.33362169  -0.00178876  0.00650879  1
  Cs  Cs10  1  0.33547471  -0.00739748  0.32821444  1
  Cs  Cs11  1  0.33259573  -0.00026769  0.66652746  1
  Cs  Cs12  1  0.33491400  0.33352450  -0.00120062  1
  Cs  Cs13  1  0.33312085  0.33471572  0.33405512  1
  Cs  Cs14  1  0.33396661  0.33184881  0.66781644  1
  Cs  Cs15  1  0.33069849  0.66630739  0.00055254  1
  Cs  Cs16  1  0.33502327  0.66997663  0.33527546  1
  Cs  Cs17  1  0.32980850  0.67160269  0.66359726  1
  Cs  Cs18  1  0.66687894  0.00119419  -0.00076471  1
  Cs  Cs19  1  0.66718781  -0.00127308  0.33366836  1
  Cs  Cs20  1  0.66760564  -0.00027141  0.66602470  1
  Cs  Cs21  1  0.66195949  0.33350382  -0.00191605  1
  Cs  Cs22  1  0.66603234  0.33292693  0.33333354  1
  Cs  Cs23  1  0.66522184  0.33425006  0.66829435  1
  Cs  Cs24  1  0.66818772  0.66540604  -0.00199996  1
  Cs  Cs25  1  0.66589592  0.66747036  0.33276547  1
  Cs  Cs26  1  0.66882747  0.66650986  0.66950107  1
  Sn  Sn27  1  0.83381097  0.16636482  0.83265574  1
  Sn  Sn28  1  0.83323773  0.16619600  0.50093258  1
  Sn  Sn29  1  0.83342044  0.83383474  0.50026774  1
  Sn  Sn30  1  0.83254720  0.83401851  0.83315582  1
  Sn  Sn31  1  0.16601893  0.16737242  0.83282846  1
  Sn  Sn32  1  0.50012438  0.49996557  0.16731326  1
  Sn  Sn33  1  0.83334027  0.83250198  0.16650266  1
  Sn  Sn34  1  0.16685997  0.16648695  0.50035852  1
  Sn  Sn35  1  0.83318335  0.50036905  0.16654709  1
  Sn  Sn36  1  0.50026414  0.49959313  0.49972386  1
  Sn  Sn37  1  0.49983014  0.16697890  0.49989753  1
  Sn  Sn38  1  0.50035558  0.83352011  0.83334828  1
  Sn  Sn39  1  0.16663872  0.49979757  0.16610370  1
  Sn  Sn40  1  0.16646299  0.49929242  0.83364188  1
  Pb  Pb41  1  0.16605965  0.83404717  0.83335641  1
  Pb  Pb42  1  0.49971072  0.16461591  0.83147400  1
  Pb  Pb43  1  0.83524807  0.49947386  0.83525572  1
  Pb  Pb44  1  0.16679916  0.16855713  0.16644863  1
  Pb  Pb45  1  0.16896524  0.49819444  0.50007369  1
  Pb  Pb46  1  0.49737874  0.50207948  0.83291401  1
  Pb  Pb47  1  0.49996132  0.16871266  0.16946868  1
  Pb  Pb48  1  0.16390263  0.83053001  0.16694182  1
  Pb  Pb49  1  0.83138574  0.49940924  0.49812347  1
  Pb  Pb50  1  0.83317217  0.16687397  0.16621393  1
  Pb  Pb51  1  0.50210878  0.83342323  0.50162599  1
  Pb  Pb52  1  0.16355708  0.83675468  0.49986808  1
  Pb  Pb53  1  0.50241360  0.83081734  0.16432974  1
  I  I54  1  0.16519144  -0.00005062  0.16612256  1
  I  I55  1  0.17131411  0.00498748  0.50770230  1
  I  I56  1  0.16451652  0.00341416  0.82754087  1
  I  I57  1  0.16297829  0.33713411  0.16567004  1
  I  I58  1  0.16100434  0.32999818  0.50096902  1
  I  I59  1  0.16165122  0.33250307  0.83357501  1
  I  I60  1  0.16856636  0.66209490  0.16023020  1
  I  I61  1  0.16697285  0.66654969  0.50049664  1
  I  I62  1  0.16697064  0.66420839  0.83863211  1
  I  I63  1  0.50111600  -0.00047436  0.16721630  1
  I  I64  1  0.49925888  0.00286933  0.50355489  1
  I  I65  1  0.50156877  -0.00306178  0.83059217  1
  I  I66  1  0.50362308  0.33746559  0.16623287  1
  I  I67  1  0.50250729  0.33276830  0.49671034  1
  I  I68  1  0.50227033  0.33334525  0.83483348  1
  I  I69  1  0.49772588  0.66260441  0.17344219  1
  I  I70  1  0.50123385  0.66424713  0.49673327  1
  I  I71  1  0.50666866  0.66963363  0.83215731  1
  I  I72  1  0.83313428  -0.00279979  0.16705312  1
  I  I73  1  0.83172770  0.00075478  0.49871061  1
  I  I74  1  0.83518976  0.00005157  0.83430093  1
  I  I75  1  0.83384218  0.33643749  0.16744334  1
  I  I76  1  0.83471916  0.32999776  0.50290169  1
  I  I77  1  0.83570258  0.33032196  0.82940394  1
  I  I78  1  0.83346544  0.66678027  0.16637172  1
  I  I79  1  0.83069450  0.66909986  0.50217224  1
  I  I80  1  0.83120988  0.66932903  0.83154074  1
  I  I81  1  0.16037115  0.16870161  -0.00341837  1
  I  I82  1  0.16421862  0.16862468  0.33652272  1
  I  I83  1  0.16486025  0.17301074  0.66709774  1
  I  I84  1  0.16779537  0.49457201  0.00015491  1
  I  I85  1  0.16447953  0.49858987  0.33072556  1
  I  I86  1  0.16761023  0.49803019  0.66908145  1
  I  I87  1  0.16508092  0.83705632  -0.00006933  1
  I  I88  1  0.16618391  0.83312158  0.33344770  1
  I  I89  1  0.16547843  0.82641264  0.66677914  1
  I  I90  1  0.50070000  0.16720464  -0.00030716  1
  I  I91  1  0.50133956  0.16752679  0.33806757  1
  I  I92  1  0.50107058  0.17319105  0.66324574  1
  I  I93  1  0.50166694  0.50275131  0.00254623  1
  I  I94  1  0.49893106  0.49592318  0.33297241  1
  I  I95  1  0.49940813  0.49668010  0.66411272  1
  I  I96  1  0.50540093  0.83268463  -0.00334247  1
  I  I97  1  0.50165552  0.83460104  0.33330034  1
  I  I98  1  0.50627608  0.83088950  0.66934278  1
  I  I99  1  0.83873233  0.16365493  -0.00332727  1
  I  I100  1  0.83396145  0.16413811  0.33654693  1
  I  I101  1  0.83422709  0.15955394  0.66636243  1
  I  I102  1  0.82960276  0.50364437  0.00347173  1
  I  I103  1  0.83743354  0.50337269  0.32988822  1
  I  I104  1  0.83328958  0.50275224  0.66667558  1
  I  I105  1  0.83001889  0.83275285  -0.00070480  1
  I  I106  1  0.83418075  0.83371840  0.33358827  1
  I  I107  1  0.82938958  0.83853658  0.66715389  1
  I  I108  1  -0.00022745  0.16956616  0.17124230  1
  I  I109  1  -0.00078274  0.16252245  0.50384979  1
  I  I110  1  -0.00065976  0.16522670  0.82619835  1
  I  I111  1  -0.00016457  0.50390058  0.16222750  1
  I  I112  1  -0.00004306  0.49988653  0.49850410  1
  I  I113  1  0.00314001  0.50037878  0.83801704  1
  I  I114  1  -0.00454593  0.82878390  0.16366007  1
  I  I115  1  -0.00488973  0.83585006  0.50326654  1
  I  I116  1  -0.00363084  0.83445094  0.83380154  1
  I  I117  1  0.33332448  0.16858803  0.16552780  1
  I  I118  1  0.33322427  0.17401574  0.50467382  1
  I  I119  1  0.33049355  0.16984079  0.82895326  1
  I  I120  1  0.33333131  0.49692600  0.16629346  1
  I  I121  1  0.33681507  0.49512939  0.49552828  1
  I  I122  1  0.32970360  0.49525356  0.83841272  1
  I  I123  1  0.33359702  0.83281965  0.16475680  1
  I  I124  1  0.33353358  0.83352356  0.50221766  1
  I  I125  1  0.33545428  0.83188584  0.83219618  1
  I  I126  1  0.66686867  0.17000079  0.16620183  1
  I  I127  1  0.66759732  0.16679101  0.50312094  1
  I  I128  1  0.66954045  0.16419544  0.82979033  1
  I  I129  1  0.66681923  0.50397409  0.17141066  1
  I  I130  1  0.66356109  0.49525006  0.49520005  1
  I  I131  1  0.66666672  0.49828119  0.83489231  1
  I  I132  1  0.67062492  0.82786211  0.16858564  1
  I  I133  1  0.67033782  0.83844367  0.49820792  1
  I  I134  1  0.66896066  0.83738609  0.83337457  1
