# generated using pymatgen
data_Cs27Sn13Pb14I81
_symmetry_space_group_name_H-M   'P 1'
_cell_length_a   19.25445020
_cell_length_b   19.24980093
_cell_length_c   19.26323629
_cell_angle_alpha   90.01768135
_cell_angle_beta   89.98354237
_cell_angle_gamma   89.98131635
_symmetry_Int_Tables_number   1
_chemical_formula_structural   Cs27Sn13Pb14I81
_chemical_formula_sum   'Cs27 Sn13 Pb14 I81'
_cell_volume   7139.80836226
_cell_formula_units_Z   1
loop_
 _symmetry_equiv_pos_site_id
 _symmetry_equiv_pos_as_xyz
  1  'x, y, z'
loop_
 _atom_site_type_symbol
 _atom_site_label
 _atom_site_symmetry_multiplicity
 _atom_site_fract_x
 _atom_site_fract_y
 _atom_site_fract_z
 _atom_site_occupancy
  Cs  Cs0  1  -0.01066792  -0.00852813  0.00279375  1
  Cs  Cs1  1  0.00217095  -0.01257918  0.32581826  1
  Cs  Cs2  1  -0.01359886  -0.02086247  0.66192163  1
  Cs  Cs3  1  0.02446123  0.35271391  -0.00075475  1
  Cs  Cs4  1  0.01134989  0.34996455  0.34975379  1
  Cs  Cs5  1  -0.00320890  0.35357726  0.64119731  1
  Cs  Cs6  1  -0.00265879  0.68168796  -0.00466714  1
  Cs  Cs7  1  0.00267169  0.68404038  0.34595329  1
  Cs  Cs8  1  0.00317388  0.68826288  0.65770907  1
  Cs  Cs9  1  0.34200814  0.01443220  -0.02319188  1
  Cs  Cs10  1  0.32941601  0.01589066  0.32719336  1
  Cs  Cs11  1  0.33563076  0.00749458  0.68683178  1
  Cs  Cs12  1  0.29872829  0.33221878  -0.01634419  1
  Cs  Cs13  1  0.32310496  0.31032972  0.33012449  1
  Cs  Cs14  1  0.33825564  0.32052478  0.69782818  1
  Cs  Cs15  1  0.36641942  0.65494703  0.01082469  1
  Cs  Cs16  1  0.35938145  0.66732684  0.33864311  1
  Cs  Cs17  1  0.35862062  0.67245241  0.65041693  1
  Cs  Cs18  1  0.67370344  0.00073397  0.01477596  1
  Cs  Cs19  1  0.67109575  0.01626476  0.31701410  1
  Cs  Cs20  1  0.69630407  -0.00152959  0.68244446  1
  Cs  Cs21  1  0.68090920  0.35684284  -0.00137238  1
  Cs  Cs22  1  0.66711258  0.29514009  0.32990746  1
  Cs  Cs23  1  0.66576769  0.31979146  0.68517915  1
  Cs  Cs24  1  0.66641499  0.63831941  0.00816354  1
  Cs  Cs25  1  0.64057710  0.66296942  0.33589518  1
  Cs  Cs26  1  0.63737552  0.65889218  0.65738508  1
  Sn  Sn27  1  0.49950273  0.16599518  0.16580214  1
  Sn  Sn28  1  0.83659357  0.16767039  0.83696946  1
  Sn  Sn29  1  0.16751816  0.83494570  0.49940067  1
  Sn  Sn30  1  0.16640619  0.83259266  0.16533846  1
  Sn  Sn31  1  0.49760387  0.16518062  0.50082530  1
  Sn  Sn32  1  0.83273608  0.50453519  0.49795329  1
  Sn  Sn33  1  0.16591666  0.16427518  0.50098145  1
  Sn  Sn34  1  0.83439440  0.83088567  0.16792238  1
  Sn  Sn35  1  0.83654918  0.16875077  0.16265821  1
  Sn  Sn36  1  0.16618826  0.83271663  0.83558467  1
  Sn  Sn37  1  0.83132210  0.83167611  0.49712553  1
  Sn  Sn38  1  0.83385784  0.83181703  0.83571859  1
  Sn  Sn39  1  0.16773880  0.50366857  0.49955959  1
  Pb  Pb40  1  0.50178697  0.83422962  0.83436403  1
  Pb  Pb41  1  0.16384266  0.50647052  0.16954623  1
  Pb  Pb42  1  0.83589957  0.50013197  0.17071971  1
  Pb  Pb43  1  0.50541643  0.16538022  0.83544762  1
  Pb  Pb44  1  0.49930480  0.49201120  0.16960116  1
  Pb  Pb45  1  0.16352051  0.16399782  0.16696261  1
  Pb  Pb46  1  0.16274641  0.50825874  0.82856007  1
  Pb  Pb47  1  0.49880233  0.83646788  0.16645575  1
  Pb  Pb48  1  0.49940479  0.49316920  0.49825551  1
  Pb  Pb49  1  0.50134745  0.83972161  0.49882100  1
  Pb  Pb50  1  0.83501935  0.16698449  0.50042784  1
  Pb  Pb51  1  0.15919588  0.16335678  0.82894730  1
  Pb  Pb52  1  0.49897257  0.49923283  0.83260698  1
  Pb  Pb53  1  0.83607741  0.50188512  0.83011489  1
  I  I54  1  0.17107928  -0.00243444  0.18294434  1
  I  I55  1  0.16803257  -0.00110115  0.49617706  1
  I  I56  1  0.18298778  -0.00075307  0.82573223  1
  I  I57  1  0.18140493  0.33239820  0.16273354  1
  I  I58  1  0.16242913  0.33322968  0.49269385  1
  I  I59  1  0.17035973  0.33111388  0.82974285  1
  I  I60  1  0.13368464  0.67068679  0.16183938  1
  I  I61  1  0.14248871  0.66677222  0.50347801  1
  I  I62  1  0.13495437  0.67161981  0.83547100  1
  I  I63  1  0.50051130  0.00147377  0.18489182  1
  I  I64  1  0.48330437  0.00324447  0.48957433  1
  I  I65  1  0.47877460  0.00020936  0.82656822  1
  I  I66  1  0.52592007  0.32967410  0.18264657  1
  I  I67  1  0.49528490  0.32951284  0.48057436  1
  I  I68  1  0.51071608  0.33212253  0.82351434  1
  I  I69  1  0.50097541  0.66755778  0.15816871  1
  I  I70  1  0.50140074  0.66672985  0.50558114  1
  I  I71  1  0.50189554  0.66702631  0.83342481  1
  I  I72  1  0.82768221  -0.00128786  0.17760064  1
  I  I73  1  0.83589040  -0.00309792  0.50660565  1
  I  I74  1  0.84142261  -0.00016643  0.81957638  1
  I  I75  1  0.80043697  0.33089211  0.15982732  1
  I  I76  1  0.83941112  0.33561144  0.50134617  1
  I  I77  1  0.80592676  0.32971590  0.83880264  1
  I  I78  1  0.84980008  0.66937154  0.14663737  1
  I  I79  1  0.86214330  0.66749218  0.50302982  1
  I  I80  1  0.84931967  0.66995491  0.84622917  1
  I  I81  1  0.18906119  0.16452224  0.00049817  1
  I  I82  1  0.16143067  0.16818492  0.33440629  1
  I  I83  1  0.19717096  0.16866197  0.66506158  1
  I  I84  1  0.17946449  0.49235863  0.00002092  1
  I  I85  1  0.15278976  0.49697699  0.33543596  1
  I  I86  1  0.15299548  0.49241281  0.66319519  1
  I  I87  1  0.14594955  0.84134749  0.00006510  1
  I  I88  1  0.14781966  0.83336269  0.33604447  1
  I  I89  1  0.14945206  0.83439040  0.66462390  1
  I  I90  1  0.50638084  0.14722373  0.00264253  1
  I  I91  1  0.51270592  0.16262525  0.33386583  1
  I  I92  1  0.48208630  0.17618502  0.66484649  1
  I  I93  1  0.51057546  0.50276722  0.00171769  1
  I  I94  1  0.49927167  0.52018746  0.33348117  1
  I  I95  1  0.50035481  0.49956368  0.66489981  1
  I  I96  1  0.47907983  0.83941292  0.00016323  1
  I  I97  1  0.50152877  0.81156709  0.33387177  1
  I  I98  1  0.49703698  0.82635046  0.66564052  1
  I  I99  1  0.81454078  0.14187576  0.00003432  1
  I  I100  1  0.82446089  0.16371497  0.33189121  1
  I  I101  1  0.83166489  0.16286204  0.66882988  1
  I  I102  1  0.81792524  0.50100748  0.00014113  1
  I  I103  1  0.85119898  0.50632024  0.33637174  1
  I  I104  1  0.84593023  0.49819871  0.66395736  1
  I  I105  1  0.84399101  0.85226547  -0.00055917  1
  I  I106  1  0.85078643  0.83411958  0.33469879  1
  I  I107  1  0.84381350  0.83632059  0.66569976  1
  I  I108  1  -0.00441552  0.15845948  0.15774538  1
  I  I109  1  0.00418235  0.17521868  0.50503224  1
  I  I110  1  -0.00408341  0.16359413  0.85559204  1
  I  I111  1  -0.00112252  0.46679334  0.15993544  1
  I  I112  1  0.00076912  0.48827298  0.49659286  1
  I  I113  1  -0.00061645  0.47564635  0.84533443  1
  I  I114  1  -0.00256372  0.85525986  0.16838282  1
  I  I115  1  -0.00017219  0.84176821  0.50182820  1
  I  I116  1  -0.00142989  0.84950183  0.82974752  1
  I  I117  1  0.33669067  0.16543946  0.18718343  1
  I  I118  1  0.33262673  0.16928441  0.47248467  1
  I  I119  1  0.33506906  0.17448778  0.83963266  1
  I  I120  1  0.33294226  0.51906313  0.17230035  1
  I  I121  1  0.33066943  0.52579008  0.50051178  1
  I  I122  1  0.33125354  0.49425280  0.83338568  1
  I  I123  1  0.32799768  0.82220981  0.17601731  1
  I  I124  1  0.33074073  0.80886120  0.50104656  1
  I  I125  1  0.32802455  0.82957423  0.82101048  1
  I  I126  1  0.66720968  0.15196312  0.17213583  1
  I  I127  1  0.66470635  0.17307985  0.50200253  1
  I  I128  1  0.66768794  0.15043793  0.81451765  1
  I  I129  1  0.66785013  0.52400152  0.17292322  1
  I  I130  1  0.66894777  0.52326136  0.50377164  1
  I  I131  1  0.66780127  0.50802947  0.82623950  1
  I  I132  1  0.67020247  0.83595062  0.16844769  1
  I  I133  1  0.66954891  0.80987132  0.50426336  1
  I  I134  1  0.66959570  0.85024604  0.82686262  1
