# generated using pymatgen
data_Cs27Sn14Pb13I81
_symmetry_space_group_name_H-M   'P 1'
_cell_length_a   18.97801663
_cell_length_b   18.98329545
_cell_length_c   18.96688184
_cell_angle_alpha   89.99998669
_cell_angle_beta   90.00158426
_cell_angle_gamma   90.00022306
_symmetry_Int_Tables_number   1
_chemical_formula_structural   Cs27Sn14Pb13I81
_chemical_formula_sum   'Cs27 Sn14 Pb13 I81'
_cell_volume   6833.10931034
_cell_formula_units_Z   1
loop_
 _symmetry_equiv_pos_site_id
 _symmetry_equiv_pos_as_xyz
  1  'x, y, z'
loop_
 _atom_site_type_symbol
 _atom_site_label
 _atom_site_symmetry_multiplicity
 _atom_site_fract_x
 _atom_site_fract_y
 _atom_site_fract_z
 _atom_site_occupancy
  Cs  Cs0  1  -0.00165555  -0.00018553  -0.00037760  1
  Cs  Cs1  1  -0.00021081  0.00038197  0.33587077  1
  Cs  Cs2  1  0.00132609  0.00123043  0.66388209  1
  Cs  Cs3  1  -0.00055916  0.33411071  -0.00014855  1
  Cs  Cs4  1  0.00286365  0.32947263  0.33315524  1
  Cs  Cs5  1  -0.00180676  0.33352024  0.66707216  1
  Cs  Cs6  1  -0.00093748  0.66571514  0.00119881  1
  Cs  Cs7  1  0.00247259  0.66818473  0.32967203  1
  Cs  Cs8  1  -0.00122654  0.66551069  0.66700246  1
  Cs  Cs9  1  0.33546445  0.00083767  -0.00170649  1
  Cs  Cs10  1  0.33444566  0.00788084  0.33356865  1
  Cs  Cs11  1  0.33242709  -0.00201885  0.66876878  1
  Cs  Cs12  1  0.33443969  0.33402712  -0.00042574  1
  Cs  Cs13  1  0.33397870  0.32543979  0.33311948  1
  Cs  Cs14  1  0.33330995  0.33536657  0.67024233  1
  Cs  Cs15  1  0.33356759  0.66550467  0.00031476  1
  Cs  Cs16  1  0.33205113  0.66576115  0.33332440  1
  Cs  Cs17  1  0.33302586  0.66654482  0.66557782  1
  Cs  Cs18  1  0.66661706  -0.00005229  0.00021562  1
  Cs  Cs19  1  0.66580969  0.00238613  0.33608696  1
  Cs  Cs20  1  0.66654951  -0.00950487  0.66062242  1
  Cs  Cs21  1  0.66623372  0.33307107  -0.00024928  1
  Cs  Cs22  1  0.66400492  0.33372015  0.33968933  1
  Cs  Cs23  1  0.66794701  0.33738411  0.66117622  1
  Cs  Cs24  1  0.66700181  0.66692261  0.00000988  1
  Cs  Cs25  1  0.66524383  0.66499834  0.33432956  1
  Cs  Cs26  1  0.67173692  0.67096392  0.65823272  1
  Sn  Sn27  1  0.83233029  0.49961531  0.16630558  1
  Sn  Sn28  1  0.83267799  0.16661904  0.83365525  1
  Sn  Sn29  1  0.16688627  0.50041820  0.50058338  1
  Sn  Sn30  1  0.16689321  0.83239293  0.49985816  1
  Sn  Sn31  1  0.16646378  0.83291491  0.83348053  1
  Sn  Sn32  1  0.83314588  0.16689515  0.16595734  1
  Sn  Sn33  1  0.16649396  0.16695617  0.83393880  1
  Sn  Sn34  1  0.50060491  0.50050482  0.16583415  1
  Sn  Sn35  1  0.49978895  0.83272824  0.16625313  1
  Sn  Sn36  1  0.50090056  0.16726372  0.83347961  1
  Sn  Sn37  1  0.16715029  0.50018893  0.83280924  1
  Sn  Sn38  1  0.50007293  0.50000724  0.83373791  1
  Sn  Sn39  1  0.83296494  0.83348374  0.16620054  1
  Sn  Sn40  1  0.16720157  0.83359836  0.16667009  1
  Pb  Pb41  1  0.49842055  0.83247652  0.83491393  1
  Pb  Pb42  1  0.83330489  0.16671851  0.50044888  1
  Pb  Pb43  1  0.16678843  0.16685854  0.50295121  1
  Pb  Pb44  1  0.16460191  0.16376108  0.16414782  1
  Pb  Pb45  1  0.49705831  0.83316860  0.49663084  1
  Pb  Pb46  1  0.83648731  0.50005461  0.49657900  1
  Pb  Pb47  1  0.49996780  0.16676608  0.50429449  1
  Pb  Pb48  1  0.83561529  0.83543836  0.83512766  1
  Pb  Pb49  1  0.16722771  0.50122103  0.16648032  1
  Pb  Pb50  1  0.83599035  0.83311647  0.49688338  1
  Pb  Pb51  1  0.49746205  0.50011885  0.50012331  1
  Pb  Pb52  1  0.50238524  0.16706012  0.16486452  1
  Pb  Pb53  1  0.83285616  0.49841000  0.83487619  1
  I  I54  1  0.16757745  -0.00465999  0.16725628  1
  I  I55  1  0.16576530  -0.00306272  0.49947653  1
  I  I56  1  0.16644154  -0.00018791  0.83495904  1
  I  I57  1  0.16590633  0.33311695  0.16761893  1
  I  I58  1  0.16636124  0.33628360  0.50392896  1
  I  I59  1  0.16709525  0.33380697  0.82879476  1
  I  I60  1  0.16202870  0.66955769  0.16233274  1
  I  I61  1  0.16665098  0.66728954  0.50472072  1
  I  I62  1  0.17145419  0.66643839  0.83353419  1
  I  I63  1  0.49898262  -0.00250175  0.16502896  1
  I  I64  1  0.49746086  -0.00019042  0.49914145  1
  I  I65  1  0.49776250  0.00228266  0.83600703  1
  I  I66  1  0.50348893  0.33629528  0.16423063  1
  I  I67  1  0.49660872  0.33359976  0.49346755  1
  I  I68  1  0.49314764  0.33395706  0.84032107  1
  I  I69  1  0.50371975  0.66637377  0.16056463  1
  I  I70  1  0.50070727  0.66668952  0.50465142  1
  I  I71  1  0.49268752  0.66349355  0.83756538  1
  I  I72  1  0.83548419  -0.00030847  0.16168557  1
  I  I73  1  0.83664539  -0.00017699  0.49839563  1
  I  I74  1  0.83352565  0.00372523  0.84043437  1
  I  I75  1  0.82995334  0.33338522  0.16141981  1
  I  I76  1  0.83685507  0.33347363  0.49707728  1
  I  I77  1  0.83962256  0.33028034  0.84096829  1
  I  I78  1  0.83438575  0.66697098  0.16724045  1
  I  I79  1  0.83262124  0.66662283  0.50006714  1
  I  I80  1  0.83485694  0.66667932  0.83610885  1
  I  I81  1  0.16848658  0.16816235  -0.00410823  1
  I  I82  1  0.16447779  0.16697415  0.33311515  1
  I  I83  1  0.16418658  0.16162960  0.67141252  1
  I  I84  1  0.16718676  0.50027789  -0.00291556  1
  I  I85  1  0.16484459  0.50674837  0.33513336  1
  I  I86  1  0.17188290  0.50419193  0.66866295  1
  I  I87  1  0.16601420  0.83348134  0.00008793  1
  I  I88  1  0.16518024  0.82659557  0.33263630  1
  I  I89  1  0.16730742  0.83404948  0.66762105  1
  I  I90  1  0.49617395  0.16754973  -0.00316655  1
  I  I91  1  0.50110347  0.16658636  0.33303911  1
  I  I92  1  0.50010987  0.17343767  0.67260431  1
  I  I93  1  0.49645956  0.49980699  -0.00007605  1
  I  I94  1  0.50325095  0.50524814  0.32990527  1
  I  I95  1  0.49590954  0.49356923  0.67024627  1
  I  I96  1  0.49709957  0.83251054  0.00335638  1
  I  I97  1  0.49938885  0.82692565  0.32808692  1
  I  I98  1  0.49812817  0.83469525  0.66672495  1
  I  I99  1  0.83505326  0.16590342  0.00007614  1
  I  I100  1  0.83430048  0.16536126  0.32973371  1
  I  I101  1  0.83587465  0.16801218  0.67054863  1
  I  I102  1  0.83600445  0.50250168  0.00332515  1
  I  I103  1  0.82841888  0.49851887  0.32809593  1
  I  I104  1  0.83149681  0.49732388  0.66670310  1
  I  I105  1  0.83713260  0.83159925  0.00379129  1
  I  I106  1  0.83608074  0.83616365  0.32821876  1
  I  I107  1  0.83432066  0.83555995  0.66664581  1
  I  I108  1  -0.00341595  0.16837768  0.16075386  1
  I  I109  1  0.00029909  0.16634226  0.50109584  1
  I  I110  1  0.00056018  0.16584240  0.83776468  1
  I  I111  1  -0.00200795  0.50115277  0.16648822  1
  I  I112  1  0.00432136  0.50413568  0.50613770  1
  I  I113  1  0.00302551  0.49970426  0.83181441  1
  I  I114  1  0.00034139  0.83300328  0.16632642  1
  I  I115  1  0.00425405  0.83023444  0.49874458  1
  I  I116  1  0.00445462  0.83228849  0.83624707  1
  I  I117  1  0.33347498  0.16638922  0.16599260  1
  I  I118  1  0.33298100  0.16602058  0.49772398  1
  I  I119  1  0.33283565  0.16688053  0.83268323  1
  I  I120  1  0.33591612  0.50577636  0.16500447  1
  I  I121  1  0.32952000  0.50529688  0.49990687  1
  I  I122  1  0.33246730  0.49533965  0.83602554  1
  I  I123  1  0.33291797  0.82702387  0.16568710  1
  I  I124  1  0.32885041  0.82908292  0.49945957  1
  I  I125  1  0.32964679  0.83798155  0.83629476  1
  I  I126  1  0.67016461  0.16134733  0.15938607  1
  I  I127  1  0.66673972  0.16681545  0.50053375  1
  I  I128  1  0.66659060  0.17246349  0.84076423  1
  I  I129  1  0.66616431  0.50528988  0.15994845  1
  I  I130  1  0.66663361  0.49914666  0.50248537  1
  I  I131  1  0.66363083  0.49392696  0.83827167  1
  I  I132  1  0.66680733  0.83282052  0.16425436  1
  I  I133  1  0.66661090  0.83430165  0.50026099  1
  I  I134  1  0.66668298  0.83446734  0.83613185  1
