# generated using pymatgen
data_Cs27Sn13Pb14I81
_symmetry_space_group_name_H-M   'P 1'
_cell_length_a   18.99720633
_cell_length_b   18.97858376
_cell_length_c   19.00004646
_cell_angle_alpha   90.00104708
_cell_angle_beta   90.00056456
_cell_angle_gamma   89.99869061
_symmetry_Int_Tables_number   1
_chemical_formula_structural   Cs27Sn13Pb14I81
_chemical_formula_sum   'Cs27 Sn13 Pb14 I81'
_cell_volume   6850.27810731
_cell_formula_units_Z   1
loop_
 _symmetry_equiv_pos_site_id
 _symmetry_equiv_pos_as_xyz
  1  'x, y, z'
loop_
 _atom_site_type_symbol
 _atom_site_label
 _atom_site_symmetry_multiplicity
 _atom_site_fract_x
 _atom_site_fract_y
 _atom_site_fract_z
 _atom_site_occupancy
  Cs  Cs0  1  -0.00052082  0.00404952  0.00115017  1
  Cs  Cs1  1  0.00139753  0.00348461  0.33434753  1
  Cs  Cs2  1  0.00474868  -0.00023037  0.66410518  1
  Cs  Cs3  1  -0.00100638  0.32799204  0.00008849  1
  Cs  Cs4  1  -0.00169189  0.32540041  0.33022097  1
  Cs  Cs5  1  -0.01101367  0.32946784  0.66983306  1
  Cs  Cs6  1  0.00121439  0.66627584  -0.00053612  1
  Cs  Cs7  1  0.00224553  0.66801427  0.33200122  1
  Cs  Cs8  1  0.00037179  0.66755619  0.66839642  1
  Cs  Cs9  1  0.33853258  0.00128004  -0.00358039  1
  Cs  Cs10  1  0.32996040  -0.00023597  0.33673511  1
  Cs  Cs11  1  0.33433012  0.00915455  0.66559764  1
  Cs  Cs12  1  0.33173988  0.33685149  0.00154098  1
  Cs  Cs13  1  0.33647359  0.33495288  0.33292505  1
  Cs  Cs14  1  0.33715928  0.32882092  0.66615817  1
  Cs  Cs15  1  0.33320257  0.66541544  0.00053275  1
  Cs  Cs16  1  0.33147324  0.66595074  0.33234373  1
  Cs  Cs17  1  0.32926872  0.66577698  0.66767641  1
  Cs  Cs18  1  0.66207157  -0.00150725  -0.00229015  1
  Cs  Cs19  1  0.66848125  -0.00285569  0.33226007  1
  Cs  Cs20  1  0.66146878  0.00328886  0.66860320  1
  Cs  Cs21  1  0.66909306  0.33345349  0.00007524  1
  Cs  Cs22  1  0.66505766  0.33165720  0.33939081  1
  Cs  Cs23  1  0.67255196  0.32816385  0.65822272  1
  Cs  Cs24  1  0.66595195  0.66850434  0.00098384  1
  Cs  Cs25  1  0.66652789  0.66782358  0.33335110  1
  Cs  Cs26  1  0.67003278  0.66527167  0.66385221  1
  Sn  Sn27  1  0.49991099  0.16764730  0.16653244  1
  Sn  Sn28  1  0.83255514  0.83268753  0.49998760  1
  Sn  Sn29  1  0.16603227  0.50073200  0.16670635  1
  Sn  Sn30  1  0.16715025  0.50031283  0.83310059  1
  Sn  Sn31  1  0.16620026  0.83282634  0.83450508  1
  Sn  Sn32  1  0.83411536  0.83275400  0.83372907  1
  Sn  Sn33  1  0.50014458  0.50044700  0.83330947  1
  Sn  Sn34  1  0.83437490  0.83226087  0.16628863  1
  Sn  Sn35  1  0.16600183  0.83279174  0.16541989  1
  Sn  Sn36  1  0.50031492  0.49927288  0.16595048  1
  Sn  Sn37  1  0.83357533  0.50083011  0.16676898  1
  Sn  Sn38  1  0.16620303  0.49979677  0.50040083  1
  Sn  Sn39  1  0.50009795  0.83246682  0.50022595  1
  Pb  Pb40  1  0.16659618  0.17101546  0.49997290  1
  Pb  Pb41  1  0.83078318  0.16612622  0.16655083  1
  Pb  Pb42  1  0.83341572  0.50168560  0.83540180  1
  Pb  Pb43  1  0.83328947  0.16290265  0.83367405  1
  Pb  Pb44  1  0.16668136  0.16711244  0.83357209  1
  Pb  Pb45  1  0.83614525  0.50211617  0.49713080  1
  Pb  Pb46  1  0.83342466  0.16309043  0.49976910  1
  Pb  Pb47  1  0.50004685  0.17066551  0.83563092  1
  Pb  Pb48  1  0.16897088  0.16639504  0.16650420  1
  Pb  Pb49  1  0.49993862  0.16386435  0.49725545  1
  Pb  Pb50  1  0.49939617  0.83253661  0.16785546  1
  Pb  Pb51  1  0.16639387  0.83217702  0.50024808  1
  Pb  Pb52  1  0.49930281  0.83100046  0.83100013  1
  Pb  Pb53  1  0.49847203  0.50165974  0.50021796  1
  I  I54  1  0.16300566  -0.00374707  0.16352659  1
  I  I55  1  0.16681864  -0.00025144  0.49930593  1
  I  I56  1  0.16164456  -0.00385128  0.83803392  1
  I  I57  1  0.16389794  0.33727019  0.16601750  1
  I  I58  1  0.16991952  0.33906814  0.49713658  1
  I  I59  1  0.17222925  0.33760468  0.83544241  1
  I  I60  1  0.16836164  0.66584229  0.16633678  1
  I  I61  1  0.16744483  0.66431409  0.49836000  1
  I  I62  1  0.16669200  0.66636840  0.83504292  1
  I  I63  1  0.50044214  0.00127856  0.17041805  1
  I  I64  1  0.50328741  -0.00413885  0.49876620  1
  I  I65  1  0.50032406  -0.00013741  0.83365524  1
  I  I66  1  0.49849922  0.33599394  0.16308593  1
  I  I67  1  0.49734119  0.33351871  0.50166756  1
  I  I68  1  0.49113046  0.33870828  0.83489646  1
  I  I69  1  0.49939706  0.66348389  0.16461223  1
  I  I70  1  0.50426758  0.66931157  0.49584643  1
  I  I71  1  0.49765465  0.66348959  0.84220014  1
  I  I72  1  0.83668935  -0.00411249  0.16764237  1
  I  I73  1  0.83081058  -0.00550507  0.49570049  1
  I  I74  1  0.83904684  -0.00591812  0.83689052  1
  I  I75  1  0.83754518  0.33665412  0.16575785  1
  I  I76  1  0.83463981  0.33369973  0.49882260  1
  I  I77  1  0.83419061  0.33370620  0.83538987  1
  I  I78  1  0.83168410  0.66747999  0.16678482  1
  I  I79  1  0.82922395  0.67025247  0.50125808  1
  I  I80  1  0.83475664  0.67004512  0.83192898  1
  I  I81  1  0.16720860  0.16961033  0.00016147  1
  I  I82  1  0.16728708  0.16407717  0.33303094  1
  I  I83  1  0.16876731  0.16288433  0.66675818  1
  I  I84  1  0.16891361  0.50484484  0.00074260  1
  I  I85  1  0.16787183  0.50587283  0.33135103  1
  I  I86  1  0.17348182  0.50745352  0.66798149  1
  I  I87  1  0.15933607  0.82479942  0.00059271  1
  I  I88  1  0.16492042  0.82850681  0.33062105  1
  I  I89  1  0.16303700  0.82737393  0.66934393  1
  I  I90  1  0.49976410  0.16480719  0.00336372  1
  I  I91  1  0.49980154  0.17563031  0.32982588  1
  I  I92  1  0.49975180  0.16624347  0.66661267  1
  I  I93  1  0.49456379  0.49800416  0.00142089  1
  I  I94  1  0.49851882  0.49800499  0.33006628  1
  I  I95  1  0.49324787  0.50533226  0.66936331  1
  I  I96  1  0.50274970  0.83599554  -0.00005097  1
  I  I97  1  0.50369508  0.83148256  0.33539673  1
  I  I98  1  0.50427741  0.82991454  0.66361920  1
  I  I99  1  0.83312241  0.16506435  0.00042434  1
  I  I100  1  0.83309924  0.16507975  0.33294488  1
  I  I101  1  0.83172855  0.16876592  0.66664582  1
  I  I102  1  0.83572214  0.50632296  0.00359281  1
  I  I103  1  0.83166991  0.50678873  0.32896608  1
  I  I104  1  0.83332219  0.50185188  0.66665493  1
  I  I105  1  0.83780202  0.82888818  0.00091240  1
  I  I106  1  0.83260577  0.82902145  0.33219849  1
  I  I107  1  0.83406973  0.83289738  0.66696914  1
  I  I108  1  -0.00006002  0.16879905  0.16719017  1
  I  I109  1  -0.00001581  0.16379093  0.49840676  1
  I  I110  1  0.00002223  0.17228421  0.83424121  1
  I  I111  1  0.00080041  0.50680106  0.16717169  1
  I  I112  1  0.00382299  0.50502528  0.50140745  1
  I  I113  1  0.00322267  0.50319948  0.83374609  1
  I  I114  1  -0.00007919  0.82517857  0.16856122  1
  I  I115  1  -0.00251215  0.83094449  0.49941350  1
  I  I116  1  0.00061891  0.82649407  0.83214331  1
  I  I117  1  0.33643339  0.17100352  0.16686312  1
  I  I118  1  0.33347159  0.16088731  0.49921199  1
  I  I119  1  0.33350517  0.15989241  0.83342320  1
  I  I120  1  0.33259956  0.50043038  0.16631975  1
  I  I121  1  0.33068005  0.50560966  0.49464703  1
  I  I122  1  0.33204241  0.50677454  0.83917506  1
  I  I123  1  0.33029769  0.82975380  0.16464931  1
  I  I124  1  0.33484914  0.83085078  0.49732082  1
  I  I125  1  0.33004820  0.83002555  0.83804328  1
  I  I126  1  0.66330115  0.17070300  0.16662079  1
  I  I127  1  0.66654619  0.17019337  0.49915135  1
  I  I128  1  0.66646447  0.16552295  0.83514967  1
  I  I129  1  0.66646769  0.50159582  0.16141126  1
  I  I130  1  0.66705757  0.50012923  0.49973909  1
  I  I131  1  0.66435516  0.50309298  0.84039056  1
  I  I132  1  0.66929732  0.83054127  0.16543586  1
  I  I133  1  0.66767057  0.83174411  0.49771652  1
  I  I134  1  0.66915560  0.83183379  0.83671895  1
