# generated using pymatgen
data_Cs27Sn14Pb13I81
_symmetry_space_group_name_H-M   'P 1'
_cell_length_a   18.98381896
_cell_length_b   18.97152351
_cell_length_c   18.97152357
_cell_angle_alpha   89.99651826
_cell_angle_beta   89.99822208
_cell_angle_gamma   90.00177785
_symmetry_Int_Tables_number   1
_chemical_formula_structural   Cs27Sn14Pb13I81
_chemical_formula_sum   'Cs27 Sn14 Pb13 I81'
_cell_volume   6832.63152443
_cell_formula_units_Z   1
loop_
 _symmetry_equiv_pos_site_id
 _symmetry_equiv_pos_as_xyz
  1  'x, y, z'
loop_
 _atom_site_type_symbol
 _atom_site_label
 _atom_site_symmetry_multiplicity
 _atom_site_fract_x
 _atom_site_fract_y
 _atom_site_fract_z
 _atom_site_occupancy
  Cs  Cs0  1  0.00186609  0.00177646  -0.00108646  1
  Cs  Cs1  1  -0.00265313  -0.00250163  0.33436498  1
  Cs  Cs2  1  0.00067235  -0.00222551  0.66654625  1
  Cs  Cs3  1  0.00163920  0.33464839  0.00130548  1
  Cs  Cs4  1  -0.00125542  0.33322238  0.33163902  1
  Cs  Cs5  1  -0.00214173  0.33202360  0.66799685  1
  Cs  Cs6  1  -0.00117478  0.66314405  0.00256917  1
  Cs  Cs7  1  0.00021936  0.66788442  0.33252737  1
  Cs  Cs8  1  0.00095462  0.67160705  0.66396966  1
  Cs  Cs9  1  0.33333342  -0.00295106  -0.00295108  1
  Cs  Cs10  1  0.34163942  0.00295528  0.33156376  1
  Cs  Cs11  1  0.33262780  0.00063415  0.67013256  1
  Cs  Cs12  1  0.32502726  0.33156382  0.00295527  1
  Cs  Cs13  1  0.33333325  0.33564677  0.33564673  1
  Cs  Cs14  1  0.33637586  0.33296945  0.66194657  1
  Cs  Cs15  1  0.33403887  0.67013250  0.00063431  1
  Cs  Cs16  1  0.33029084  0.66194652  0.33296924  1
  Cs  Cs17  1  0.33333332  0.66714667  0.66714685  1
  Cs  Cs18  1  0.66480050  -0.00108634  0.00177632  1
  Cs  Cs19  1  0.66502748  0.00130530  0.33464847  1
  Cs  Cs20  1  0.66784137  0.00256920  0.66314399  1
  Cs  Cs21  1  0.66931976  0.33436516  -0.00250143  1
  Cs  Cs22  1  0.66792204  0.33163913  0.33322247  1
  Cs  Cs23  1  0.66644728  0.33252723  0.66788422  1
  Cs  Cs24  1  0.66599460  0.66654626  -0.00222571  1
  Cs  Cs25  1  0.66880868  0.66799673  0.33202363  1
  Cs  Cs26  1  0.66571209  0.66396954  0.67160703  1
  Sn  Sn27  1  0.83333339  0.83428280  0.83428277  1
  Sn  Sn28  1  0.50000296  0.83312838  0.50017941  1
  Sn  Sn29  1  0.16608000  0.83323396  0.16699922  1
  Sn  Sn30  1  0.16629769  0.16638136  0.49968980  1
  Sn  Sn31  1  0.16656011  0.50089324  0.16593002  1
  Sn  Sn32  1  0.83333334  0.49952764  0.49952769  1
  Sn  Sn33  1  0.16666368  0.50017944  0.83312843  1
  Sn  Sn34  1  0.83293740  0.50073576  0.16748910  1
  Sn  Sn35  1  0.83400434  0.83279433  0.16565656  1
  Sn  Sn36  1  0.83372932  0.16748913  0.50073577  1
  Sn  Sn37  1  0.50036900  0.49968980  0.16638135  1
  Sn  Sn38  1  0.50010650  0.16593002  0.50089318  1
  Sn  Sn39  1  0.83266235  0.16565659  0.83279430  1
  Sn  Sn40  1  0.50058666  0.16699928  0.83323398  1
  Pb  Pb41  1  0.16435748  0.83113383  0.83543642  1
  Pb  Pb42  1  0.50243353  0.49972553  0.49854277  1
  Pb  Pb43  1  0.16423309  0.49854275  0.49972550  1
  Pb  Pb44  1  0.49731578  0.49730101  0.83581057  1
  Pb  Pb45  1  0.16661712  0.16623782  0.16904830  1
  Pb  Pb46  1  0.83189876  0.83337101  0.49980677  1
  Pb  Pb47  1  0.50004955  0.16904829  0.16623784  1
  Pb  Pb48  1  0.83333333  0.16627668  0.16627672  1
  Pb  Pb49  1  0.50030102  0.83126921  0.16828763  1
  Pb  Pb50  1  0.16935089  0.83581053  0.49730104  1
  Pb  Pb51  1  0.50230917  0.83543636  0.83113378  1
  Pb  Pb52  1  0.83476794  0.49980676  0.83337099  1
  Pb  Pb53  1  0.16636566  0.16828758  0.83126922  1
  I  I54  1  0.16047065  -0.00311461  0.16924195  1
  I  I55  1  0.16004435  0.00375566  0.49966750  1
  I  I56  1  0.16817126  -0.00000833  0.83465420  1
  I  I57  1  0.16525716  0.33662504  0.16386557  1
  I  I58  1  0.17128761  0.33049838  0.49791954  1
  I  I59  1  0.16359184  0.33597149  0.84162033  1
  I  I60  1  0.16529795  0.66537486  0.16376833  1
  I  I61  1  0.16680683  0.66670554  0.50171632  1
  I  I62  1  0.16447182  0.66322281  0.83442622  1
  I  I63  1  0.49969646  -0.00004052  0.16651493  1
  I  I64  1  0.50295799  0.00197867  0.50107164  1
  I  I65  1  0.50024227  0.00366999  0.83241398  1
  I  I66  1  0.50024254  0.33707889  0.16943303  1
  I  I67  1  0.49890642  0.33010735  0.50219275  1
  I  I68  1  0.50849956  0.32964122  0.82506034  1
  I  I69  1  0.50026260  0.66333075  0.16970046  1
  I  I70  1  0.50287804  0.66858429  0.49628479  1
  I  I71  1  0.50111385  0.66656548  0.83141622  1
  I  I72  1  0.83828447  -0.00309598  0.16653995  1
  I  I73  1  0.83397094  0.00297924  0.50048745  1
  I  I74  1  0.83051127  0.00093599  0.83270729  1
  I  I75  1  0.83458900  0.33636498  0.16809647  1
  I  I76  1  0.83141447  0.33217910  0.49936211  1
  I  I77  1  0.83084102  0.33070156  0.83159802  1
  I  I78  1  0.83421494  0.66578319  0.16758291  1
  I  I79  1  0.83163628  0.66445020  0.49848249  1
  I  I80  1  0.83572811  0.66869331  0.83391621  1
  I  I81  1  0.16696991  0.16651503  -0.00004051  1
  I  I82  1  0.16642406  0.16943343  0.33707889  1
  I  I83  1  0.16640410  0.16970010  0.66333079  1
  I  I84  1  0.16370883  0.50107150  0.00197862  1
  I  I85  1  0.16776043  0.50219265  0.33010732  1
  I  I86  1  0.16378852  0.49628493  0.66858435  1
  I  I87  1  0.16642431  0.83241416  0.00367002  1
  I  I88  1  0.15816711  0.82506018  0.32964126  1
  I  I89  1  0.16555281  0.83141635  0.66656547  1
  I  I90  1  0.50619631  0.16924165  -0.00311459  1
  I  I91  1  0.50140935  0.16386558  0.33662506  1
  I  I92  1  0.50136878  0.16376849  0.66537487  1
  I  I93  1  0.50662192  0.49966780  0.00375562  1
  I  I94  1  0.49537926  0.49791919  0.33049843  1
  I  I95  1  0.49985996  0.50171630  0.66670546  1
  I  I96  1  0.49849510  0.83465423  -0.00000832  1
  I  I97  1  0.50307462  0.84162059  0.33597148  1
  I  I98  1  0.50219514  0.83442618  0.66322279  1
  I  I99  1  0.82838228  0.16654031  -0.00309596  1
  I  I100  1  0.83207799  0.16809664  0.33636498  1
  I  I101  1  0.83245150  0.16758254  0.66578315  1
  I  I102  1  0.83269582  0.50048761  0.00297922  1
  I  I103  1  0.83525184  0.49936185  0.33217908  1
  I  I104  1  0.83503048  0.49848282  0.66445020  1
  I  I105  1  0.83615575  0.83270665  0.00093599  1
  I  I106  1  0.83582558  0.83159838  0.33070161  1
  I  I107  1  0.83093812  0.83391619  0.66869340  1
  I  I108  1  -0.00016940  0.17134947  0.16719596  1
  I  I109  1  -0.00158373  0.17232627  0.50292915  1
  I  I110  1  -0.00305889  0.16456466  0.82875533  1
  I  I111  1  -0.00039240  0.50370677  0.16691218  1
  I  I112  1  -0.00368333  0.49468732  0.49480117  1
  I  I113  1  0.00219403  0.49717512  0.83956690  1
  I  I114  1  -0.00109326  0.82496348  0.16459703  1
  I  I115  1  -0.00009243  0.83429006  0.50127435  1
  I  I116  1  -0.00368268  0.84018890  0.83279636  1
  I  I117  1  0.33333332  0.16764120  0.16764096  1
  I  I118  1  0.33446269  0.16280525  0.50284421  1
  I  I119  1  0.33568998  0.16998328  0.82850676  1
  I  I120  1  0.33220392  0.50284423  0.16280539  1
  I  I121  1  0.33333334  0.49798720  0.49798729  1
  I  I122  1  0.32973128  0.49786203  0.83857289  1
  I  I123  1  0.33097674  0.82850649  0.16998333  1
  I  I124  1  0.33693536  0.83857324  0.49786227  1
  I  I125  1  0.33333333  0.83441197  0.83441178  1
  I  I126  1  0.66683605  0.16719600  0.17134975  1
  I  I127  1  0.66705908  0.16691208  0.50370663  1
  I  I128  1  0.66775995  0.16459681  0.82496353  1
  I  I129  1  0.66825041  0.50292888  0.17232594  1
  I  I130  1  0.67034995  0.49480144  0.49468743  1
  I  I131  1  0.66675904  0.50127433  0.83429036  1
  I  I132  1  0.66972565  0.82875557  0.16456452  1
  I  I133  1  0.66447267  0.83956679  0.49717479  1
  I  I134  1  0.67034932  0.83279669  0.84018939  1
