# generated using pymatgen
data_Cs27Sn13Pb14I81
_symmetry_space_group_name_H-M   'P 1'
_cell_length_a   18.98490471
_cell_length_b   18.97074875
_cell_length_c   18.97579816
_cell_angle_alpha   89.99889095
_cell_angle_beta   90.00145802
_cell_angle_gamma   90.00042706
_symmetry_Int_Tables_number   1
_chemical_formula_structural   Cs27Sn13Pb14I81
_chemical_formula_sum   'Cs27 Sn13 Pb14 I81'
_cell_volume   6834.28279934
_cell_formula_units_Z   1
loop_
 _symmetry_equiv_pos_site_id
 _symmetry_equiv_pos_as_xyz
  1  'x, y, z'
loop_
 _atom_site_type_symbol
 _atom_site_label
 _atom_site_symmetry_multiplicity
 _atom_site_fract_x
 _atom_site_fract_y
 _atom_site_fract_z
 _atom_site_occupancy
  Cs  Cs0  1  0.00126548  0.00086698  0.00035687  1
  Cs  Cs1  1  -0.00009014  0.00110215  0.33322302  1
  Cs  Cs2  1  0.00132957  -0.00231705  0.66756889  1
  Cs  Cs3  1  0.00071926  0.33331848  0.00063632  1
  Cs  Cs4  1  -0.00227810  0.33080824  0.33674289  1
  Cs  Cs5  1  -0.00130743  0.33553910  0.66344545  1
  Cs  Cs6  1  -0.00081391  0.66652527  -0.00095232  1
  Cs  Cs7  1  0.00186695  0.66722967  0.33245994  1
  Cs  Cs8  1  0.00029018  0.66805426  0.66792943  1
  Cs  Cs9  1  0.33234058  0.00730379  0.00377364  1
  Cs  Cs10  1  0.33807870  -0.00164250  0.32628900  1
  Cs  Cs11  1  0.33194382  0.00231974  0.66850543  1
  Cs  Cs12  1  0.33296716  0.33141005  -0.00139165  1
  Cs  Cs13  1  0.33514788  0.33855438  0.33713594  1
  Cs  Cs14  1  0.33348745  0.33060157  0.66645379  1
  Cs  Cs15  1  0.33366716  0.66589678  0.00061113  1
  Cs  Cs16  1  0.33636963  0.66647959  0.33286924  1
  Cs  Cs17  1  0.33215109  0.66709023  0.66629289  1
  Cs  Cs18  1  0.66699953  0.00217794  -0.00049812  1
  Cs  Cs19  1  0.66176355  0.00648938  0.33434024  1
  Cs  Cs20  1  0.66560142  -0.00069958  0.66675580  1
  Cs  Cs21  1  0.66587683  0.33600571  0.00061874  1
  Cs  Cs22  1  0.66850763  0.32442272  0.33973675  1
  Cs  Cs23  1  0.66956073  0.33116580  0.65915975  1
  Cs  Cs24  1  0.66742678  0.66504476  -0.00176087  1
  Cs  Cs25  1  0.66217526  0.66814254  0.33177251  1
  Cs  Cs26  1  0.66797069  0.66694393  0.66870852  1
  Sn  Sn27  1  0.83314246  0.50066143  0.16687021  1
  Sn  Sn28  1  0.16682241  0.16503573  0.49985592  1
  Sn  Sn29  1  0.16715375  0.83287285  0.83322368  1
  Sn  Sn30  1  0.50033823  0.50017992  0.16578079  1
  Sn  Sn31  1  0.49944560  0.83288546  0.83362465  1
  Sn  Sn32  1  0.83338534  0.83282042  0.16684501  1
  Sn  Sn33  1  0.83361491  0.16608452  0.83357903  1
  Sn  Sn34  1  0.83339342  0.83421907  0.83352222  1
  Sn  Sn35  1  0.16614670  0.83445397  0.50031000  1
  Sn  Sn36  1  0.16736892  0.50081900  0.83411546  1
  Sn  Sn37  1  0.83378347  0.83294956  0.49967281  1
  Sn  Sn38  1  0.49925296  0.50080380  0.83365251  1
  Sn  Sn39  1  0.16649285  0.50043990  0.16579426  1
  Pb  Pb40  1  0.16509577  0.83172993  0.16649851  1
  Pb  Pb41  1  0.49996990  0.17010347  0.16631948  1
  Pb  Pb42  1  0.16661462  0.50102060  0.50049608  1
  Pb  Pb43  1  0.50264187  0.83166496  0.16383162  1
  Pb  Pb44  1  0.50019413  0.50025028  0.50084279  1
  Pb  Pb45  1  0.83336669  0.50022072  0.83454421  1
  Pb  Pb46  1  0.16653362  0.16988152  0.16958010  1
  Pb  Pb47  1  0.16478277  0.16693320  0.83206327  1
  Pb  Pb48  1  0.83519429  0.16350892  0.50241973  1
  Pb  Pb49  1  0.49674590  0.16618859  0.50032848  1
  Pb  Pb50  1  0.83347370  0.16636993  0.16465815  1
  Pb  Pb51  1  0.83328255  0.50304234  0.49657493  1
  Pb  Pb52  1  0.49948896  0.83326936  0.50244618  1
  Pb  Pb53  1  0.50237085  0.16727480  0.83330459  1
  I  I54  1  0.16405725  -0.00018119  0.16396712  1
  I  I55  1  0.16107452  -0.00207126  0.50776148  1
  I  I56  1  0.16769352  -0.00335518  0.83045239  1
  I  I57  1  0.16409854  0.33843785  0.16076633  1
  I  I58  1  0.16711379  0.33156382  0.49966672  1
  I  I59  1  0.16930384  0.33660816  0.83553237  1
  I  I60  1  0.16755344  0.66332287  0.16691371  1
  I  I61  1  0.16214504  0.67007326  0.50233213  1
  I  I62  1  0.16450162  0.66746084  0.83118232  1
  I  I63  1  0.50160769  -0.00027780  0.16602563  1
  I  I64  1  0.50334985  -0.00051180  0.50206387  1
  I  I65  1  0.49869385  -0.00328373  0.83132407  1
  I  I66  1  0.50184438  0.33882615  0.15868546  1
  I  I67  1  0.49861734  0.33333518  0.50140809  1
  I  I68  1  0.49583698  0.33717725  0.83836307  1
  I  I69  1  0.49800964  0.66327147  0.16483201  1
  I  I70  1  0.49764007  0.66689707  0.49802374  1
  I  I71  1  0.50158985  0.66677765  0.83653267  1
  I  I72  1  0.83484285  -0.00361806  0.16717877  1
  I  I73  1  0.83566657  -0.00448613  0.49622678  1
  I  I74  1  0.83364817  -0.00297133  0.83497163  1
  I  I75  1  0.83338211  0.33664601  0.16281773  1
  I  I76  1  0.83474120  0.33300517  0.50093089  1
  I  I77  1  0.83422825  0.33171363  0.83624699  1
  I  I78  1  0.83407028  0.66687642  0.16377955  1
  I  I79  1  0.84057804  0.67108174  0.50730999  1
  I  I80  1  0.83369436  0.66994667  0.83184830  1
  I  I81  1  0.16575070  0.16506171  -0.00007008  1
  I  I82  1  0.16439611  0.16055681  0.33729611  1
  I  I83  1  0.16457460  0.16688056  0.66422631  1
  I  I84  1  0.16675256  0.50565549  -0.00098016  1
  I  I85  1  0.16678497  0.49978400  0.33044100  1
  I  I86  1  0.17106226  0.50128065  0.67012244  1
  I  I87  1  0.16477679  0.82976786  -0.00337437  1
  I  I88  1  0.16042845  0.83488130  0.33593935  1
  I  I89  1  0.16175577  0.83077640  0.66809079  1
  I  I90  1  0.49945878  0.16413929  -0.00046592  1
  I  I91  1  0.50153686  0.16818402  0.33336235  1
  I  I92  1  0.50154608  0.17009548  0.66708392  1
  I  I93  1  0.49940552  0.50485089  -0.00061100  1
  I  I94  1  0.49803967  0.50024733  0.32996828  1
  I  I95  1  0.49439498  0.50404142  0.67087427  1
  I  I96  1  0.49962777  0.83025867  -0.00440079  1
  I  I97  1  0.50016926  0.83141761  0.33294969  1
  I  I98  1  0.50484858  0.82650718  0.67092127  1
  I  I99  1  0.83473503  0.16008173  -0.00318019  1
  I  I100  1  0.83405473  0.16763213  0.33366906  1
  I  I101  1  0.83357023  0.16307234  0.67014747  1
  I  I102  1  0.83386415  0.50563266  0.00263429  1
  I  I103  1  0.83495115  0.50441751  0.32821562  1
  I  I104  1  0.83364644  0.49957279  0.66673069  1
  I  I105  1  0.83360435  0.83236110  -0.00102862  1
  I  I106  1  0.84002529  0.82637219  0.33333177  1
  I  I107  1  0.83419881  0.83778920  0.66780905  1
  I  I108  1  -0.00006935  0.17057896  0.16596259  1
  I  I109  1  0.00280435  0.16596004  0.50091007  1
  I  I110  1  -0.00287787  0.16209003  0.83300134  1
  I  I111  1  0.00004273  0.50430856  0.16207019  1
  I  I112  1  0.00007041  0.49789667  0.50075125  1
  I  I113  1  0.00260557  0.50308042  0.83694522  1
  I  I114  1  -0.00311038  0.82675419  0.16219178  1
  I  I115  1  0.00011701  0.83560547  0.50543778  1
  I  I116  1  -0.00001293  0.83242825  0.83218669  1
  I  I117  1  0.33311442  0.16584632  0.16606532  1
  I  I118  1  0.32884832  0.16116601  0.50288468  1
  I  I119  1  0.33310614  0.16483396  0.83142256  1
  I  I120  1  0.33314257  0.49921589  0.16259486  1
  I  I121  1  0.33310355  0.50150629  0.49496928  1
  I  I122  1  0.33269738  0.50770511  0.84069320  1
  I  I123  1  0.33343969  0.83135588  0.16820288  1
  I  I124  1  0.32967378  0.83586168  0.50505075  1
  I  I125  1  0.33232977  0.82711729  0.82720258  1
  I  I126  1  0.66695097  0.16835715  0.16667716  1
  I  I127  1  0.66699221  0.16739836  0.50046519  1
  I  I128  1  0.67023485  0.16187404  0.83357925  1
  I  I129  1  0.66672053  0.50572506  0.16043900  1
  I  I130  1  0.66687978  0.50110700  0.50198281  1
  I  I131  1  0.66435130  0.50396406  0.83855859  1
  I  I132  1  0.67089944  0.82683373  0.16657479  1
  I  I133  1  0.66978054  0.83095714  0.50137909  1
  I  I134  1  0.66750790  0.83237120  0.83341683  1
