# generated using pymatgen
data_Cs27Sn14Pb13I81
_symmetry_space_group_name_H-M   'P 1'
_cell_length_a   18.97707208
_cell_length_b   18.98727799
_cell_length_c   18.96590062
_cell_angle_alpha   89.99883222
_cell_angle_beta   90.00257133
_cell_angle_gamma   89.99949436
_symmetry_Int_Tables_number   1
_chemical_formula_structural   Cs27Sn14Pb13I81
_chemical_formula_sum   'Cs27 Sn14 Pb13 I81'
_cell_volume   6833.84912207
_cell_formula_units_Z   1
loop_
 _symmetry_equiv_pos_site_id
 _symmetry_equiv_pos_as_xyz
  1  'x, y, z'
loop_
 _atom_site_type_symbol
 _atom_site_label
 _atom_site_symmetry_multiplicity
 _atom_site_fract_x
 _atom_site_fract_y
 _atom_site_fract_z
 _atom_site_occupancy
  Cs  Cs0  1  -0.00155198  -0.01201508  0.00233944  1
  Cs  Cs1  1  -0.00116387  0.00116583  0.33246361  1
  Cs  Cs2  1  -0.00040903  0.00270587  0.66774337  1
  Cs  Cs3  1  -0.00231240  0.33698654  0.00090714  1
  Cs  Cs4  1  0.00322312  0.33213835  0.33547667  1
  Cs  Cs5  1  0.00126684  0.33245743  0.66476248  1
  Cs  Cs6  1  -0.00929294  0.67688009  0.00796973  1
  Cs  Cs7  1  -0.00103637  0.66692796  0.33120608  1
  Cs  Cs8  1  0.00264006  0.66553237  0.66655491  1
  Cs  Cs9  1  0.33241826  0.00159725  -0.00012858  1
  Cs  Cs10  1  0.33451831  0.00221651  0.33307838  1
  Cs  Cs11  1  0.33433719  0.00032907  0.66727286  1
  Cs  Cs12  1  0.33549982  0.33098274  0.00153582  1
  Cs  Cs13  1  0.33267735  0.33235842  0.32872005  1
  Cs  Cs14  1  0.33175792  0.33423853  0.66770903  1
  Cs  Cs15  1  0.33188405  0.66746239  -0.00168128  1
  Cs  Cs16  1  0.33381677  0.66397823  0.33668230  1
  Cs  Cs17  1  0.33404035  0.66511414  0.66576482  1
  Cs  Cs18  1  0.66703032  -0.00078184  0.00038876  1
  Cs  Cs19  1  0.66641519  0.00037936  0.33433977  1
  Cs  Cs20  1  0.66500775  0.00396055  0.66621493  1
  Cs  Cs21  1  0.66696450  0.33608581  0.00102887  1
  Cs  Cs22  1  0.66573113  0.33147341  0.33134180  1
  Cs  Cs23  1  0.66743295  0.33220386  0.66765389  1
  Cs  Cs24  1  0.67338796  0.66603080  0.00295742  1
  Cs  Cs25  1  0.66665247  0.66800396  0.33412429  1
  Cs  Cs26  1  0.66287828  0.66475148  0.66474633  1
  Sn  Sn27  1  0.16573049  0.83352748  0.50026074  1
  Sn  Sn28  1  0.16703752  0.16741876  0.83285450  1
  Sn  Sn29  1  0.83348362  0.16695609  0.16640368  1
  Sn  Sn30  1  0.49914569  0.49993765  0.83256182  1
  Sn  Sn31  1  0.49926022  0.16703956  0.83248622  1
  Sn  Sn32  1  0.16793187  0.16660272  0.50078328  1
  Sn  Sn33  1  0.49995635  0.49838825  0.50065485  1
  Sn  Sn34  1  0.49901871  0.16798287  0.50064136  1
  Sn  Sn35  1  0.49931471  0.83311334  0.16558754  1
  Sn  Sn36  1  0.83429605  0.83275782  0.50075491  1
  Sn  Sn37  1  0.16679737  0.49988044  0.50052720  1
  Sn  Sn38  1  0.16704750  0.49960684  0.83318420  1
  Sn  Sn39  1  0.83330531  0.50066705  0.50036753  1
  Sn  Sn40  1  0.50003142  0.83299025  0.83442963  1
  Pb  Pb41  1  0.49976090  0.50224512  0.16619247  1
  Pb  Pb42  1  0.50115043  0.16518111  0.16629287  1
  Pb  Pb43  1  0.16845986  0.83298048  0.83130635  1
  Pb  Pb44  1  0.49962348  0.83345918  0.50072416  1
  Pb  Pb45  1  0.16459708  0.16672221  0.16553579  1
  Pb  Pb46  1  0.83417714  0.16673417  0.83579826  1
  Pb  Pb47  1  0.16937870  0.83329744  0.16968207  1
  Pb  Pb48  1  0.83045873  0.83327001  0.83018102  1
  Pb  Pb49  1  0.83333485  0.49779894  0.16974827  1
  Pb  Pb50  1  0.83341552  0.16702642  0.49920009  1
  Pb  Pb51  1  0.16681166  0.50002335  0.16532357  1
  Pb  Pb52  1  0.83402955  0.49999331  0.83114805  1
  Pb  Pb53  1  0.83103601  0.83507579  0.16955377  1
  I  I54  1  0.16602580  0.00001209  0.16791682  1
  I  I55  1  0.16736260  0.00099958  0.50323799  1
  I  I56  1  0.17153343  0.00270931  0.82806169  1
  I  I57  1  0.16636423  0.33322036  0.17307628  1
  I  I58  1  0.16578954  0.33344119  0.50320377  1
  I  I59  1  0.17514242  0.33327560  0.82374263  1
  I  I60  1  0.16648559  0.66679555  0.16739523  1
  I  I61  1  0.16742115  0.66553514  0.50327737  1
  I  I62  1  0.17332509  0.66370641  0.82624061  1
  I  I63  1  0.50174263  -0.00257076  0.16522712  1
  I  I64  1  0.49805322  0.00241181  0.50233668  1
  I  I65  1  0.49684188  0.00101571  0.83183715  1
  I  I66  1  0.50218730  0.33331940  0.16620593  1
  I  I67  1  0.49924396  0.33349717  0.50608417  1
  I  I68  1  0.49673566  0.33326992  0.82761495  1
  I  I69  1  0.50119548  0.67002201  0.16542095  1
  I  I70  1  0.49827828  0.66418325  0.50231463  1
  I  I71  1  0.49587454  0.66552364  0.83076100  1
  I  I72  1  0.83255747  0.00233310  0.17021214  1
  I  I73  1  0.83495483  -0.00186155  0.49727820  1
  I  I74  1  0.83258117  0.00002142  0.83063834  1
  I  I75  1  0.83088977  0.33045039  0.16886657  1
  I  I76  1  0.83471611  0.33597855  0.49816278  1
  I  I77  1  0.82807071  0.33333893  0.83190621  1
  I  I78  1  0.83252525  0.66686724  0.16588923  1
  I  I79  1  0.83464976  0.66609741  0.49999183  1
  I  I80  1  0.83312845  0.66662866  0.83561152  1
  I  I81  1  0.17221231  0.17241383  -0.00412115  1
  I  I82  1  0.16989463  0.16748676  0.33688196  1
  I  I83  1  0.17030823  0.16727300  0.66540070  1
  I  I84  1  0.17472085  0.49253861  -0.00458093  1
  I  I85  1  0.16742511  0.49931619  0.33748602  1
  I  I86  1  0.16796700  0.49933616  0.66519175  1
  I  I87  1  0.16590062  0.83399471  -0.00033683  1
  I  I88  1  0.16552338  0.83325759  0.33840556  1
  I  I89  1  0.16605373  0.83317741  0.66281935  1
  I  I90  1  0.49700484  0.16866607  -0.00364550  1
  I  I91  1  0.49747026  0.16848878  0.33655836  1
  I  I92  1  0.49799843  0.16413859  0.66639730  1
  I  I93  1  0.49469318  0.49639602  -0.00399614  1
  I  I94  1  0.49934906  0.49783020  0.33712714  1
  I  I95  1  0.49973072  0.50214890  0.66584119  1
  I  I96  1  0.49961336  0.83481362  -0.00150953  1
  I  I97  1  0.50096004  0.83432663  0.33236951  1
  I  I98  1  0.50023845  0.83358643  0.66911270  1
  I  I99  1  0.83101936  0.16602307  0.00317096  1
  I  I100  1  0.83162492  0.16595559  0.33180882  1
  I  I101  1  0.83200765  0.16584606  0.66665357  1
  I  I102  1  0.83255213  0.49871596  -0.00005096  1
  I  I103  1  0.83280714  0.50443513  0.33840998  1
  I  I104  1  0.83232056  0.50207053  0.66257422  1
  I  I105  1  0.83441408  0.83458436  0.00013726  1
  I  I106  1  0.83388899  0.82959074  0.33729683  1
  I  I107  1  0.83501018  0.83132349  0.66224402  1
  I  I108  1  -0.00278561  0.16648665  0.17079819  1
  I  I109  1  0.00310580  0.16850296  0.50240236  1
  I  I110  1  0.00400824  0.17255465  0.82716518  1
  I  I111  1  -0.00007108  0.49961813  0.16676281  1
  I  I112  1  0.00123860  0.49988879  0.50328000  1
  I  I113  1  0.00388424  0.49233740  0.82696889  1
  I  I114  1  -0.00018856  0.83436653  0.16558060  1
  I  I115  1  0.00073605  0.83081253  0.49951213  1
  I  I116  1  0.00025852  0.83422577  0.83438281  1
  I  I117  1  0.33328393  0.16479635  0.16840091  1
  I  I118  1  0.33344316  0.16762142  0.50234596  1
  I  I119  1  0.33424875  0.16671490  0.82899585  1
  I  I120  1  0.33350337  0.50000757  0.17407260  1
  I  I121  1  0.33334693  0.50145421  0.50349747  1
  I  I122  1  0.33416428  0.49983279  0.82411812  1
  I  I123  1  0.33707324  0.83547929  0.16504443  1
  I  I124  1  0.33100527  0.83137316  0.49995168  1
  I  I125  1  0.33682132  0.83377861  0.83320028  1
  I  I126  1  0.66863703  0.16476564  0.16993406  1
  I  I127  1  0.66374433  0.16803908  0.50263815  1
  I  I128  1  0.66310935  0.16675781  0.82874911  1
  I  I129  1  0.66648765  0.50011489  0.16748418  1
  I  I130  1  0.66545025  0.50103003  0.50349887  1
  I  I131  1  0.66325244  0.49906321  0.82868009  1
  I  I132  1  0.66348944  0.83431636  0.16520588  1
  I  I133  1  0.66811519  0.83037659  0.49935728  1
  I  I134  1  0.66184764  0.83388805  0.83445703  1
