# generated using pymatgen
data_Cs27Sn14Pb13I81
_symmetry_space_group_name_H-M   'P 1'
_cell_length_a   18.96569520
_cell_length_b   18.95540612
_cell_length_c   18.96192789
_cell_angle_alpha   90.00212069
_cell_angle_beta   89.99970060
_cell_angle_gamma   89.99856174
_symmetry_Int_Tables_number   1
_chemical_formula_structural   Cs27Sn14Pb13I81
_chemical_formula_sum   'Cs27 Sn14 Pb13 I81'
_cell_volume   6816.85961821
_cell_formula_units_Z   1
loop_
 _symmetry_equiv_pos_site_id
 _symmetry_equiv_pos_as_xyz
  1  'x, y, z'
loop_
 _atom_site_type_symbol
 _atom_site_label
 _atom_site_symmetry_multiplicity
 _atom_site_fract_x
 _atom_site_fract_y
 _atom_site_fract_z
 _atom_site_occupancy
  Cs  Cs0  1  0.00070279  -0.00004579  0.00310709  1
  Cs  Cs1  1  0.00277594  0.00289992  0.32703698  1
  Cs  Cs2  1  0.00022648  0.00065525  0.66836402  1
  Cs  Cs3  1  0.00230981  0.33214063  -0.00206251  1
  Cs  Cs4  1  -0.00261812  0.33274746  0.33405238  1
  Cs  Cs5  1  0.00039172  0.33231201  0.66790447  1
  Cs  Cs6  1  -0.00110285  0.66755158  -0.00091106  1
  Cs  Cs7  1  0.00017865  0.66688126  0.33358226  1
  Cs  Cs8  1  -0.00221488  0.66604092  0.66746061  1
  Cs  Cs9  1  0.33301151  0.00368290  -0.00041416  1
  Cs  Cs10  1  0.32903600  -0.00325811  0.34125758  1
  Cs  Cs11  1  0.33302520  -0.00166498  0.65943964  1
  Cs  Cs12  1  0.33414696  0.33215413  0.00069481  1
  Cs  Cs13  1  0.33621532  0.33712442  0.33223149  1
  Cs  Cs14  1  0.33040175  0.33208289  0.66595620  1
  Cs  Cs15  1  0.33539368  0.66643362  -0.00036233  1
  Cs  Cs16  1  0.33204890  0.66471369  0.33348548  1
  Cs  Cs17  1  0.33454219  0.66941323  0.66703680  1
  Cs  Cs18  1  0.66708068  -0.00011617  0.00036602  1
  Cs  Cs19  1  0.66861171  0.00471955  0.33363189  1
  Cs  Cs20  1  0.66582247  -0.00097549  0.66542780  1
  Cs  Cs21  1  0.66495529  0.33395264  -0.00148215  1
  Cs  Cs22  1  0.66603507  0.33272910  0.33381442  1
  Cs  Cs23  1  0.66815779  0.33328948  0.66788371  1
  Cs  Cs24  1  0.66580673  0.66677932  -0.00205672  1
  Cs  Cs25  1  0.66768213  0.66532914  0.33214516  1
  Cs  Cs26  1  0.66864769  0.66799924  0.67039924  1
  Sn  Sn27  1  0.83312396  0.50078658  0.49936401  1
  Sn  Sn28  1  0.16640700  0.50034727  0.50015596  1
  Sn  Sn29  1  0.16622333  0.83264858  0.83360332  1
  Sn  Sn30  1  0.83317099  0.50014489  0.16714122  1
  Sn  Sn31  1  0.50066662  0.16657760  0.83350115  1
  Sn  Sn32  1  0.49982422  0.16624310  0.16625694  1
  Sn  Sn33  1  0.83346148  0.83295376  0.50002893  1
  Sn  Sn34  1  0.50037911  0.50016384  0.16707498  1
  Sn  Sn35  1  0.16643527  0.50019555  0.16644487  1
  Sn  Sn36  1  0.49995181  0.83356975  0.16697854  1
  Sn  Sn37  1  0.83396904  0.83430396  0.83280274  1
  Sn  Sn38  1  0.83248603  0.16550425  0.83347004  1
  Sn  Sn39  1  0.50049516  0.50024937  0.49983625  1
  Sn  Sn40  1  0.16684418  0.50105871  0.83334941  1
  Pb  Pb41  1  0.83346195  0.16662138  0.50206985  1
  Pb  Pb42  1  0.49748820  0.49826826  0.83322844  1
  Pb  Pb43  1  0.83141838  0.16939424  0.16431544  1
  Pb  Pb44  1  0.49988903  0.83574975  0.83483250  1
  Pb  Pb45  1  0.83508038  0.50011811  0.83327715  1
  Pb  Pb46  1  0.50009457  0.16890987  0.49981643  1
  Pb  Pb47  1  0.16945899  0.16893138  0.16690625  1
  Pb  Pb48  1  0.16636969  0.16900120  0.49968351  1
  Pb  Pb49  1  0.16690183  0.16598486  0.83329240  1
  Pb  Pb50  1  0.83177365  0.83158390  0.16663490  1
  Pb  Pb51  1  0.50257494  0.83077605  0.49747590  1
  Pb  Pb52  1  0.16892419  0.83122157  0.16453126  1
  Pb  Pb53  1  0.16400003  0.83107122  0.50196246  1
  I  I54  1  0.16786270  -0.00028910  0.16365571  1
  I  I55  1  0.16656666  -0.00076895  0.50292909  1
  I  I56  1  0.16512951  -0.00309051  0.83413828  1
  I  I57  1  0.16842896  0.33825736  0.16353569  1
  I  I58  1  0.16458510  0.33876720  0.50342703  1
  I  I59  1  0.16643526  0.33638368  0.83329325  1
  I  I60  1  0.16939478  0.66229959  0.16856670  1
  I  I61  1  0.16887796  0.66229585  0.49759240  1
  I  I62  1  0.16131779  0.66570514  0.83359213  1
  I  I63  1  0.50210520  0.00049795  0.15907754  1
  I  I64  1  0.50158198  -0.00032696  0.49896319  1
  I  I65  1  0.50002176  0.00357031  0.84000074  1
  I  I66  1  0.49946124  0.33487660  0.16630660  1
  I  I67  1  0.50182896  0.33770873  0.49480611  1
  I  I68  1  0.50494836  0.33052571  0.83855677  1
  I  I69  1  0.49966864  0.66479393  0.17027856  1
  I  I70  1  0.49747512  0.66232288  0.49502903  1
  I  I71  1  0.50192587  0.66661154  0.83479854  1
  I  I72  1  0.83043662  0.00007546  0.16873459  1
  I  I73  1  0.83149830  -0.00307196  0.50367091  1
  I  I74  1  0.83480765  -0.00104528  0.82820272  1
  I  I75  1  0.83175702  0.33793461  0.17106705  1
  I  I76  1  0.83338987  0.33714130  0.49744059  1
  I  I77  1  0.83091815  0.33156809  0.83416718  1
  I  I78  1  0.83067147  0.66285366  0.16544057  1
  I  I79  1  0.83321371  0.66497446  0.50289641  1
  I  I80  1  0.83571772  0.66892296  0.83240310  1
  I  I81  1  0.16562450  0.17125990  -0.00012589  1
  I  I82  1  0.16793742  0.16738055  0.33307112  1
  I  I83  1  0.16930552  0.17111809  0.66706690  1
  I  I84  1  0.16696373  0.50299874  0.00031316  1
  I  I85  1  0.16797180  0.49843500  0.33317765  1
  I  I86  1  0.16619684  0.50279083  0.66655846  1
  I  I87  1  0.16029616  0.82661390  -0.00352882  1
  I  I88  1  0.16667629  0.83227058  0.33334882  1
  I  I89  1  0.16660242  0.82723677  0.67016270  1
  I  I90  1  0.50366816  0.17047419  0.00053220  1
  I  I91  1  0.49991040  0.16800035  0.33010557  1
  I  I92  1  0.50330866  0.16917893  0.66945331  1
  I  I93  1  0.50037052  0.50068703  0.00314859  1
  I  I94  1  0.49663003  0.49826404  0.33203569  1
  I  I95  1  0.50065820  0.49795008  0.66403466  1
  I  I96  1  0.50203059  0.82647350  0.00280961  1
  I  I97  1  0.50131995  0.83606671  0.32944489  1
  I  I98  1  0.49855959  0.83301804  0.66652529  1
  I  I99  1  0.83164436  0.16300383  -0.00371091  1
  I  I100  1  0.83161771  0.16551603  0.33304069  1
  I  I101  1  0.82748780  0.16880816  0.67037624  1
  I  I102  1  0.83217562  0.49974668  0.00240225  1
  I  I103  1  0.83618142  0.50481188  0.33375616  1
  I  I104  1  0.83317775  0.50039151  0.66407749  1
  I  I105  1  0.83548513  0.83474954  -0.00289531  1
  I  I106  1  0.83015541  0.82797842  0.33570821  1
  I  I107  1  0.83570571  0.82972972  0.66742744  1
  I  I108  1  -0.00016969  0.16895111  0.16488692  1
  I  I109  1  -0.00039069  0.17078790  0.50344554  1
  I  I110  1  -0.00256749  0.16714909  0.83164488  1
  I  I111  1  0.00004070  0.50089920  0.16874812  1
  I  I112  1  -0.00035939  0.50340201  0.49746823  1
  I  I113  1  0.00309990  0.49892603  0.83398937  1
  I  I114  1  -0.00003661  0.83041237  0.16719714  1
  I  I115  1  -0.00388365  0.82575186  0.50181470  1
  I  I116  1  -0.00091119  0.83366498  0.83016295  1
  I  I117  1  0.33786921  0.17050944  0.15814959  1
  I  I118  1  0.33360919  0.16822673  0.50338639  1
  I  I119  1  0.33607828  0.16949784  0.83870253  1
  I  I120  1  0.33403982  0.49939438  0.16877990  1
  I  I121  1  0.33329851  0.49794281  0.49683454  1
  I  I122  1  0.32944661  0.50347839  0.83367247  1
  I  I123  1  0.33699019  0.83008591  0.16395189  1
  I  I124  1  0.33334344  0.83221038  0.50133794  1
  I  I125  1  0.33096119  0.82878850  0.83630648  1
  I  I126  1  0.66317696  0.17049259  0.16453112  1
  I  I127  1  0.66669493  0.17059780  0.49936548  1
  I  I128  1  0.66685347  0.16332920  0.83705483  1
  I  I129  1  0.66580896  0.49958711  0.17285836  1
  I  I130  1  0.66711799  0.50241517  0.49272292  1
  I  I131  1  0.66662456  0.50133478  0.83362120  1
  I  I132  1  0.66374322  0.82891060  0.16398759  1
  I  I133  1  0.67023320  0.82618461  0.50729064  1
  I  I134  1  0.66945572  0.83467111  0.83117768  1
