# generated using pymatgen
data_Cs27Sn13Pb14I81
_symmetry_space_group_name_H-M   'P 1'
_cell_length_a   18.96779991
_cell_length_b   18.98690989
_cell_length_c   18.97883284
_cell_angle_alpha   90.00218428
_cell_angle_beta   90.00018519
_cell_angle_gamma   89.99917931
_symmetry_Int_Tables_number   1
_chemical_formula_structural   Cs27Sn13Pb14I81
_chemical_formula_sum   'Cs27 Sn13 Pb14 I81'
_cell_volume   6835.03510214
_cell_formula_units_Z   1
loop_
 _symmetry_equiv_pos_site_id
 _symmetry_equiv_pos_as_xyz
  1  'x, y, z'
loop_
 _atom_site_type_symbol
 _atom_site_label
 _atom_site_symmetry_multiplicity
 _atom_site_fract_x
 _atom_site_fract_y
 _atom_site_fract_z
 _atom_site_occupancy
  Cs  Cs0  1  -0.00071442  0.00348398  0.00299622  1
  Cs  Cs1  1  -0.00287396  -0.00279080  0.33367178  1
  Cs  Cs2  1  -0.00191781  -0.00367710  0.66364948  1
  Cs  Cs3  1  0.00301520  0.33161320  0.00024387  1
  Cs  Cs4  1  -0.00074153  0.33335503  0.33311224  1
  Cs  Cs5  1  -0.00109030  0.33422121  0.66664196  1
  Cs  Cs6  1  0.00120149  0.66632074  -0.00535228  1
  Cs  Cs7  1  -0.00536495  0.66917865  0.33535505  1
  Cs  Cs8  1  -0.00050918  0.66990488  0.66901036  1
  Cs  Cs9  1  0.33556672  0.00011467  0.00019214  1
  Cs  Cs10  1  0.33123209  0.00353734  0.33471625  1
  Cs  Cs11  1  0.33519243  -0.00190141  0.66554087  1
  Cs  Cs12  1  0.33029327  0.33311845  0.00260452  1
  Cs  Cs13  1  0.33308195  0.33180765  0.33452013  1
  Cs  Cs14  1  0.33457984  0.33456358  0.66427337  1
  Cs  Cs15  1  0.33456835  0.66879816  -0.00080483  1
  Cs  Cs16  1  0.33497146  0.66572725  0.33341634  1
  Cs  Cs17  1  0.33175326  0.66648378  0.66705598  1
  Cs  Cs18  1  0.66735437  -0.00225511  -0.00387216  1
  Cs  Cs19  1  0.67202339  -0.00232173  0.33255557  1
  Cs  Cs20  1  0.66502106  0.00362276  0.67068283  1
  Cs  Cs21  1  0.66974466  0.33327505  -0.00155741  1
  Cs  Cs22  1  0.67020683  0.33704916  0.33352085  1
  Cs  Cs23  1  0.66696154  0.33348117  0.66735055  1
  Cs  Cs24  1  0.66597516  0.66812609  0.00530640  1
  Cs  Cs25  1  0.67051450  0.66626118  0.32605212  1
  Cs  Cs26  1  0.66777597  0.66399278  0.66666400  1
  Sn  Sn27  1  0.50005630  0.83311631  0.49979973  1
  Sn  Sn28  1  0.49962887  0.16696894  0.16751457  1
  Sn  Sn29  1  0.83305606  0.83280408  0.83326123  1
  Sn  Sn30  1  0.16700330  0.50050358  0.16788883  1
  Sn  Sn31  1  0.83235355  0.50063381  0.83323882  1
  Sn  Sn32  1  0.16717476  0.83313437  0.16680417  1
  Sn  Sn33  1  0.49944594  0.16672934  0.49878814  1
  Sn  Sn34  1  0.16710124  0.16732567  0.50021599  1
  Sn  Sn35  1  0.16725263  0.49962783  0.49913658  1
  Sn  Sn36  1  0.50046013  0.49983283  0.83320236  1
  Sn  Sn37  1  0.49937435  0.50021554  0.50038418  1
  Sn  Sn38  1  0.16750665  0.16658229  0.16720876  1
  Sn  Sn39  1  0.16715488  0.16636071  0.83254014  1
  Pb  Pb40  1  0.83297896  0.16683423  0.16683911  1
  Pb  Pb41  1  0.50162742  0.83075927  0.83147819  1
  Pb  Pb42  1  0.83000608  0.83322275  0.50213243  1
  Pb  Pb43  1  0.83585757  0.16701607  0.83315837  1
  Pb  Pb44  1  0.49795195  0.16879119  0.83325506  1
  Pb  Pb45  1  0.49806526  0.83601622  0.16893571  1
  Pb  Pb46  1  0.83310985  0.16681529  0.49991489  1
  Pb  Pb47  1  0.83658674  0.49987221  0.16379633  1
  Pb  Pb48  1  0.83354415  0.49997100  0.50188293  1
  Pb  Pb49  1  0.16817327  0.83309387  0.49819671  1
  Pb  Pb50  1  0.16531518  0.83625726  0.83537180  1
  Pb  Pb51  1  0.16703230  0.49863977  0.83276935  1
  Pb  Pb52  1  0.49816192  0.49797728  0.16705854  1
  Pb  Pb53  1  0.83581855  0.83329552  0.16427429  1
  I  I54  1  0.16980394  0.00160266  0.16568930  1
  I  I55  1  0.17066234  0.00317539  0.49979384  1
  I  I56  1  0.16539100  0.00423307  0.83252131  1
  I  I57  1  0.16986190  0.33252372  0.16629231  1
  I  I58  1  0.17371715  0.33299372  0.49654759  1
  I  I59  1  0.16510691  0.33081942  0.83781955  1
  I  I60  1  0.16609139  0.66579085  0.17045787  1
  I  I61  1  0.17127144  0.66357585  0.49634692  1
  I  I62  1  0.16741719  0.66659428  0.83438953  1
  I  I63  1  0.49285716  0.00401197  0.17044630  1
  I  I64  1  0.49508927  0.00145772  0.49627812  1
  I  I65  1  0.50140932  0.00021167  0.83248458  1
  I  I66  1  0.49253956  0.33014406  0.17075162  1
  I  I67  1  0.49485537  0.33335952  0.50092299  1
  I  I68  1  0.50505898  0.33653565  0.82767111  1
  I  I69  1  0.49732742  0.66653202  0.16709218  1
  I  I70  1  0.49476815  0.66518711  0.50632692  1
  I  I71  1  0.49894766  0.66268296  0.82827104  1
  I  I72  1  0.83585807  0.00002022  0.16330220  1
  I  I73  1  0.83465669  -0.00002899  0.50340438  1
  I  I74  1  0.83584961  -0.00236981  0.83357465  1
  I  I75  1  0.83609446  0.33347869  0.16335105  1
  I  I76  1  0.83057632  0.33347918  0.50376534  1
  I  I77  1  0.83050886  0.33626738  0.83281281  1
  I  I78  1  0.83448942  0.66651737  0.16795311  1
  I  I79  1  0.83493222  0.66652801  0.50009849  1
  I  I80  1  0.83135818  0.66562448  0.83251445  1
  I  I81  1  0.16908293  0.16774820  0.00137327  1
  I  I82  1  0.17140596  0.16800346  0.33344658  1
  I  I83  1  0.17003807  0.17260757  0.66512262  1
  I  I84  1  0.16586155  0.49733731  0.00217554  1
  I  I85  1  0.17280656  0.49479908  0.33406519  1
  I  I86  1  0.16793839  0.49443234  0.66372972  1
  I  I87  1  0.16619981  0.83255173  0.00344946  1
  I  I88  1  0.16803137  0.83800127  0.33031401  1
  I  I89  1  0.16589557  0.83378364  0.66651828  1
  I  I90  1  0.49396968  0.16871583  0.00237118  1
  I  I91  1  0.49029186  0.16844321  0.33451099  1
  I  I92  1  0.49548692  0.16533551  0.66339951  1
  I  I93  1  0.50181867  0.49767645  -0.00222992  1
  I  I94  1  0.49638430  0.50075930  0.33667738  1
  I  I95  1  0.49777598  0.49757851  0.66522874  1
  I  I96  1  0.50020566  0.83368650  0.00015839  1
  I  I97  1  0.49867906  0.82798283  0.33689817  1
  I  I98  1  0.49870331  0.83909976  0.66339489  1
  I  I99  1  0.83461753  0.16719131  -0.00017058  1
  I  I100  1  0.83774593  0.16584850  0.33339607  1
  I  I101  1  0.83447488  0.16632570  0.66675760  1
  I  I102  1  0.82812804  0.50335726  -0.00409826  1
  I  I103  1  0.83136739  0.49969089  0.33325914  1
  I  I104  1  0.83476958  0.50312361  0.66985599  1
  I  I105  1  0.83317524  0.82885577  -0.00343760  1
  I  I106  1  0.83355133  0.83439071  0.33326472  1
  I  I107  1  0.83634224  0.82885073  0.66984557  1
  I  I108  1  0.00423839  0.16686344  0.16620365  1
  I  I109  1  0.00412435  0.17158700  0.49932649  1
  I  I110  1  0.00414491  0.16958574  0.83497602  1
  I  I111  1  0.00513854  0.49575282  0.17112090  1
  I  I112  1  0.00371141  0.49422261  0.49729447  1
  I  I113  1  -0.00177010  0.50198006  0.83435319  1
  I  I114  1  0.00417828  0.83722149  0.16817087  1
  I  I115  1  0.00010402  0.83379102  0.49957038  1
  I  I116  1  -0.00252791  0.82568086  0.83307090  1
  I  I117  1  0.33157761  0.16696913  0.16739600  1
  I  I118  1  0.33286761  0.16793920  0.49913669  1
  I  I119  1  0.32989196  0.16903587  0.83435600  1
  I  I120  1  0.32971564  0.50019965  0.16463516  1
  I  I121  1  0.33359508  0.49841610  0.50288302  1
  I  I122  1  0.33563113  0.49713159  0.83121780  1
  I  I123  1  0.32988221  0.83203737  0.16502381  1
  I  I124  1  0.33618374  0.83364545  0.50087789  1
  I  I125  1  0.33342891  0.83247866  0.83372150  1
  I  I126  1  0.66299058  0.16744654  0.17189575  1
  I  I127  1  0.66235812  0.16788352  0.49615794  1
  I  I128  1  0.66639387  0.16558990  0.83359420  1
  I  I129  1  0.66648434  0.49806000  0.16872379  1
  I  I130  1  0.66305637  0.49771401  0.50332365  1
  I  I131  1  0.66584758  0.50159598  0.82672202  1
  I  I132  1  0.66642019  0.83515905  0.16702330  1
  I  I133  1  0.66184813  0.83413809  0.49995284  1
  I  I134  1  0.66961796  0.83326189  0.83252215  1
