# generated using pymatgen
data_Cs27Sn13Pb14I81
_symmetry_space_group_name_H-M   'P 1'
_cell_length_a   18.98776391
_cell_length_b   18.99380348
_cell_length_c   18.99177835
_cell_angle_alpha   89.99904740
_cell_angle_beta   89.99916785
_cell_angle_gamma   90.00191582
_symmetry_Int_Tables_number   1
_chemical_formula_structural   Cs27Sn13Pb14I81
_chemical_formula_sum   'Cs27 Sn13 Pb14 I81'
_cell_volume   6849.38212153
_cell_formula_units_Z   1
loop_
 _symmetry_equiv_pos_site_id
 _symmetry_equiv_pos_as_xyz
  1  'x, y, z'
loop_
 _atom_site_type_symbol
 _atom_site_label
 _atom_site_symmetry_multiplicity
 _atom_site_fract_x
 _atom_site_fract_y
 _atom_site_fract_z
 _atom_site_occupancy
  Cs  Cs0  1  -0.00047285  -0.00089408  0.00198962  1
  Cs  Cs1  1  -0.00066608  -0.00019827  0.33345498  1
  Cs  Cs2  1  -0.00270559  0.00179625  0.66530399  1
  Cs  Cs3  1  0.00052512  0.34209201  0.00140576  1
  Cs  Cs4  1  -0.00017711  0.33374408  0.33285117  1
  Cs  Cs5  1  0.00176493  0.33148685  0.66655340  1
  Cs  Cs6  1  0.00803880  0.65733553  0.00208295  1
  Cs  Cs7  1  0.00161769  0.66625032  0.33365634  1
  Cs  Cs8  1  -0.00099428  0.66621736  0.66191993  1
  Cs  Cs9  1  0.33261457  -0.00034031  -0.00831380  1
  Cs  Cs10  1  0.33387604  0.00200780  0.33266570  1
  Cs  Cs11  1  0.33050201  0.00645559  0.67561352  1
  Cs  Cs12  1  0.33344303  0.33016410  -0.00788860  1
  Cs  Cs13  1  0.34040596  0.32853915  0.33643861  1
  Cs  Cs14  1  0.33918102  0.32675957  0.67167821  1
  Cs  Cs15  1  0.32400647  0.66718906  -0.00401219  1
  Cs  Cs16  1  0.33308191  0.66706271  0.33270345  1
  Cs  Cs17  1  0.33751200  0.66592753  0.67112570  1
  Cs  Cs18  1  0.66690639  0.00048769  0.00216145  1
  Cs  Cs19  1  0.66804358  -0.00206455  0.33177388  1
  Cs  Cs20  1  0.67210315  -0.00340391  0.66875082  1
  Cs  Cs21  1  0.66666111  0.33517370  0.00077285  1
  Cs  Cs22  1  0.66263080  0.33363225  0.33215375  1
  Cs  Cs23  1  0.66157168  0.33930967  0.66620739  1
  Cs  Cs24  1  0.66725050  0.66457607  0.00028652  1
  Cs  Cs25  1  0.66609044  0.66813230  0.33325744  1
  Cs  Cs26  1  0.66443506  0.66640405  0.66648430  1
  Sn  Sn27  1  0.16586005  0.16642137  0.16705313  1
  Sn  Sn28  1  0.49957035  0.50149305  0.16665980  1
  Sn  Sn29  1  0.83314377  0.16708698  0.49980957  1
  Sn  Sn30  1  0.83323509  0.83329792  0.16617781  1
  Sn  Sn31  1  0.83393192  0.50009042  0.49946648  1
  Sn  Sn32  1  0.83350989  0.16625348  0.83376179  1
  Sn  Sn33  1  0.16724198  0.83299427  0.49991383  1
  Sn  Sn34  1  0.83335460  0.83314720  0.49967490  1
  Sn  Sn35  1  0.49947460  0.83379434  0.49946107  1
  Sn  Sn36  1  0.16684362  0.50013441  0.49975075  1
  Sn  Sn37  1  0.83454634  0.16617631  0.16654483  1
  Sn  Sn38  1  0.50028838  0.83219285  0.16719559  1
  Sn  Sn39  1  0.83376171  0.83326263  0.83422968  1
  Pb  Pb40  1  0.16650919  0.49991298  0.82950389  1
  Pb  Pb41  1  0.50236025  0.83324438  0.83394784  1
  Pb  Pb42  1  0.16311439  0.83321321  0.83002132  1
  Pb  Pb43  1  0.16306083  0.16658981  0.83629742  1
  Pb  Pb44  1  0.50018152  0.50056721  0.83675939  1
  Pb  Pb45  1  0.50034949  0.16558285  0.16652176  1
  Pb  Pb46  1  0.16492271  0.16668319  0.49856288  1
  Pb  Pb47  1  0.83344309  0.50023028  0.83041208  1
  Pb  Pb48  1  0.16987376  0.49716325  0.16947016  1
  Pb  Pb49  1  0.16678412  0.83484095  0.16854437  1
  Pb  Pb50  1  0.50369041  0.16635887  0.83336829  1
  Pb  Pb51  1  0.50296793  0.16312107  0.50009841  1
  Pb  Pb52  1  0.83218978  0.50026316  0.16905077  1
  Pb  Pb53  1  0.49948245  0.50224978  0.49875950  1
  I  I54  1  0.16456715  0.00250889  0.17104432  1
  I  I55  1  0.16450710  -0.00290889  0.49772538  1
  I  I56  1  0.16928100  -0.00004948  0.83057939  1
  I  I57  1  0.15829930  0.32989879  0.16929391  1
  I  I58  1  0.15925193  0.33576561  0.49698653  1
  I  I59  1  0.16411788  0.33305846  0.83209931  1
  I  I60  1  0.16400881  0.66659343  0.16604401  1
  I  I61  1  0.15887651  0.66770114  0.49813379  1
  I  I62  1  0.16370942  0.66679112  0.83787568  1
  I  I63  1  0.50350352  -0.00352635  0.17188095  1
  I  I64  1  0.50044489  -0.00495270  0.49121273  1
  I  I65  1  0.49787688  -0.00033477  0.83513986  1
  I  I66  1  0.50138447  0.33515403  0.16814326  1
  I  I67  1  0.50096059  0.33335669  0.49762695  1
  I  I68  1  0.50234908  0.33341983  0.83427611  1
  I  I69  1  0.50805485  0.66856193  0.17257844  1
  I  I70  1  0.50673856  0.67021536  0.49767245  1
  I  I71  1  0.50483705  0.66712424  0.82964112  1
  I  I72  1  0.83128780  -0.00067494  0.17107846  1
  I  I73  1  0.83306936  -0.00109097  0.50001582  1
  I  I74  1  0.83285177  -0.00048063  0.82803601  1
  I  I75  1  0.83483791  0.33045481  0.16700258  1
  I  I76  1  0.83918945  0.33308201  0.49938604  1
  I  I77  1  0.83356087  0.33014081  0.83427871  1
  I  I78  1  0.83020318  0.66994349  0.16792265  1
  I  I79  1  0.83379371  0.66837667  0.50006034  1
  I  I80  1  0.83155184  0.66996895  0.83193505  1
  I  I81  1  0.16227577  0.16537837  0.00411534  1
  I  I82  1  0.15888732  0.16578311  0.33092161  1
  I  I83  1  0.16572492  0.16683245  0.66669357  1
  I  I84  1  0.16781290  0.49892407  0.00042627  1
  I  I85  1  0.16044502  0.50483908  0.33683070  1
  I  I86  1  0.16024353  0.50447333  0.66135939  1
  I  I87  1  0.16734495  0.83525107  0.00000135  1
  I  I88  1  0.16033230  0.83085939  0.33664395  1
  I  I89  1  0.16671123  0.83025851  0.66158141  1
  I  I90  1  0.50125252  0.16566860  0.00031502  1
  I  I91  1  0.50249795  0.16922053  0.33326262  1
  I  I92  1  0.49945576  0.16677920  0.66645135  1
  I  I93  1  0.50336510  0.50591849  0.00483191  1
  I  I94  1  0.50180235  0.50180934  0.33097327  1
  I  I95  1  0.50068016  0.50082860  0.66638933  1
  I  I96  1  0.50651609  0.83101512  0.00371383  1
  I  I97  1  0.50693572  0.83004182  0.33337152  1
  I  I98  1  0.50263488  0.83292543  0.66352805  1
  I  I99  1  0.83588830  0.15765013  0.00090469  1
  I  I100  1  0.83700573  0.16278941  0.33324075  1
  I  I101  1  0.83247697  0.16162856  0.66577679  1
  I  I102  1  0.83072664  0.49967251  0.00023080  1
  I  I103  1  0.83606221  0.50077599  0.33707297  1
  I  I104  1  0.83605220  0.50079419  0.66201412  1
  I  I105  1  0.82619251  0.84293554  0.00116299  1
  I  I106  1  0.83230559  0.83626362  0.33408940  1
  I  I107  1  0.83364758  0.83649695  0.66488723  1
  I  I108  1  -0.00277298  0.16029345  0.16795092  1
  I  I109  1  -0.00403605  0.16145631  0.50145830  1
  I  I110  1  -0.00472592  0.16086345  0.82852912  1
  I  I111  1  0.00024688  0.50171447  0.16578079  1
  I  I112  1  -0.00143969  0.50582361  0.49883536  1
  I  I113  1  -0.00036187  0.50025739  0.83780558  1
  I  I114  1  -0.00344898  0.83708495  0.16859398  1
  I  I115  1  -0.00202807  0.83300858  0.50019788  1
  I  I116  1  -0.00501487  0.83893163  0.83333494  1
  I  I117  1  0.33095142  0.16736497  0.17042560  1
  I  I118  1  0.33335764  0.16734223  0.49647518  1
  I  I119  1  0.33298230  0.16755298  0.83479086  1
  I  I120  1  0.33705226  0.50675483  0.17036529  1
  I  I121  1  0.33065671  0.50608802  0.49654739  1
  I  I122  1  0.33336895  0.49987018  0.83114427  1
  I  I123  1  0.33619638  0.83170331  0.17375550  1
  I  I124  1  0.33347018  0.82664739  0.49194691  1
  I  I125  1  0.33309186  0.83288513  0.83347608  1
  I  I126  1  0.67041635  0.16515137  0.16699743  1
  I  I127  1  0.67190117  0.16784389  0.49607435  1
  I  I128  1  0.67190876  0.16107269  0.83635282  1
  I  I129  1  0.66452046  0.49954644  0.17074529  1
  I  I130  1  0.66944209  0.49989179  0.49927015  1
  I  I131  1  0.66711275  0.49876102  0.82947628  1
  I  I132  1  0.66838860  0.83572654  0.17204521  1
  I  I133  1  0.66863809  0.83397742  0.49937307  1
  I  I134  1  0.67079590  0.83826627  0.82769693  1
