# generated using pymatgen
data_Cs27Sn13Pb14I81
_symmetry_space_group_name_H-M   'P 1'
_cell_length_a   18.97478597
_cell_length_b   18.98046979
_cell_length_c   18.97597871
_cell_angle_alpha   89.99999885
_cell_angle_beta   89.99850256
_cell_angle_gamma   90.00034830
_symmetry_Int_Tables_number   1
_chemical_formula_structural   Cs27Sn13Pb14I81
_chemical_formula_sum   'Cs27 Sn13 Pb14 I81'
_cell_volume   6834.20540506
_cell_formula_units_Z   1
loop_
 _symmetry_equiv_pos_site_id
 _symmetry_equiv_pos_as_xyz
  1  'x, y, z'
loop_
 _atom_site_type_symbol
 _atom_site_label
 _atom_site_symmetry_multiplicity
 _atom_site_fract_x
 _atom_site_fract_y
 _atom_site_fract_z
 _atom_site_occupancy
  Cs  Cs0  1  0.00066396  0.00171247  -0.00197052  1
  Cs  Cs1  1  -0.00114756  -0.00001660  0.33522584  1
  Cs  Cs2  1  0.00304420  -0.00248929  0.66716438  1
  Cs  Cs3  1  0.00097080  0.33282105  0.00038628  1
  Cs  Cs4  1  0.00108446  0.33410219  0.33334089  1
  Cs  Cs5  1  -0.00099756  0.33479147  0.66468344  1
  Cs  Cs6  1  -0.00156153  0.66480529  0.00074555  1
  Cs  Cs7  1  -0.00062405  0.66581737  0.33440563  1
  Cs  Cs8  1  0.00006639  0.66666816  0.66585649  1
  Cs  Cs9  1  0.33012665  -0.00370413  -0.00704241  1
  Cs  Cs10  1  0.33757716  -0.00200983  0.33446895  1
  Cs  Cs11  1  0.33647472  -0.00569127  0.67461714  1
  Cs  Cs12  1  0.32803610  0.33187145  0.00168561  1
  Cs  Cs13  1  0.33024048  0.33263319  0.33338336  1
  Cs  Cs14  1  0.34305649  0.33434187  0.66410314  1
  Cs  Cs15  1  0.33601738  0.66962956  -0.00079902  1
  Cs  Cs16  1  0.33546818  0.66964315  0.33264862  1
  Cs  Cs17  1  0.33712498  0.67018310  0.66985728  1
  Cs  Cs18  1  0.66762799  0.00027353  0.00195675  1
  Cs  Cs19  1  0.66628901  -0.00046020  0.33214850  1
  Cs  Cs20  1  0.66079327  0.00542726  0.66503334  1
  Cs  Cs21  1  0.66899710  0.33371963  0.00008114  1
  Cs  Cs22  1  0.66767278  0.33263872  0.33288316  1
  Cs  Cs23  1  0.66069747  0.33239410  0.66728773  1
  Cs  Cs24  1  0.66771234  0.66616827  0.00188503  1
  Cs  Cs25  1  0.66757907  0.66876682  0.33175622  1
  Cs  Cs26  1  0.66393057  0.66426220  0.66576090  1
  Sn  Sn27  1  0.83394447  0.49907596  0.50006597  1
  Sn  Sn28  1  0.83443397  0.16758744  0.49933346  1
  Sn  Sn29  1  0.16543246  0.83338137  0.16708378  1
  Sn  Sn30  1  0.50035477  0.16778773  0.16652132  1
  Sn  Sn31  1  0.50065639  0.49867256  0.16683114  1
  Sn  Sn32  1  0.83311241  0.16694553  0.16743437  1
  Sn  Sn33  1  0.16605274  0.49934341  0.50124706  1
  Sn  Sn34  1  0.16614073  0.16706334  0.50020893  1
  Sn  Sn35  1  0.16588551  0.49953581  0.83207122  1
  Sn  Sn36  1  0.83332646  0.83280191  0.83368637  1
  Sn  Sn37  1  0.83415014  0.50064700  0.83310578  1
  Sn  Sn38  1  0.83482559  0.83339082  0.16591672  1
  Sn  Sn39  1  0.83284149  0.49976968  0.16675706  1
  Pb  Pb40  1  0.50398439  0.83305689  0.83371383  1
  Pb  Pb41  1  0.16648502  0.83297696  0.49831549  1
  Pb  Pb42  1  0.50013757  0.83331710  0.50010815  1
  Pb  Pb43  1  0.50006830  0.50016640  0.49729324  1
  Pb  Pb44  1  0.16655804  0.50146280  0.16705322  1
  Pb  Pb45  1  0.83308882  0.83348026  0.50039847  1
  Pb  Pb46  1  0.16648132  0.16433922  0.16840496  1
  Pb  Pb47  1  0.83348222  0.16701393  0.83281997  1
  Pb  Pb48  1  0.50066992  0.83369917  0.16659102  1
  Pb  Pb49  1  0.16409821  0.83060036  0.83544931  1
  Pb  Pb50  1  0.50023779  0.49981030  0.83623328  1
  Pb  Pb51  1  0.49995374  0.16696192  0.83696969  1
  Pb  Pb52  1  0.49991739  0.16676363  0.49778071  1
  Pb  Pb53  1  0.16636309  0.16958815  0.82975934  1
  I  I54  1  0.16184554  -0.00318544  0.16892678  1
  I  I55  1  0.16082220  0.00301464  0.49483530  1
  I  I56  1  0.16637320  -0.00029246  0.83339050  1
  I  I57  1  0.16562099  0.33340363  0.16483258  1
  I  I58  1  0.16107953  0.33438781  0.50098127  1
  I  I59  1  0.15815083  0.33764169  0.83655142  1
  I  I60  1  0.16187180  0.66905217  0.16820262  1
  I  I61  1  0.16065734  0.66297487  0.50133846  1
  I  I62  1  0.16387968  0.66279674  0.82752282  1
  I  I63  1  0.50468951  0.00296385  0.16891491  1
  I  I64  1  0.50174617  0.00057702  0.49547291  1
  I  I65  1  0.50057245  -0.00012930  0.83476135  1
  I  I66  1  0.50888052  0.33368377  0.16710468  1
  I  I67  1  0.50007367  0.33350275  0.50044567  1
  I  I68  1  0.50322282  0.33373533  0.83191999  1
  I  I69  1  0.50366033  0.66396168  0.16688826  1
  I  I70  1  0.50066684  0.66604819  0.49559834  1
  I  I71  1  0.49768052  0.66626028  0.83669080  1
  I  I72  1  0.83271143  0.00033937  0.16695156  1
  I  I73  1  0.83687084  0.00333209  0.49536031  1
  I  I74  1  0.83274165  -0.00262479  0.83859948  1
  I  I75  1  0.82861664  0.33390930  0.16695856  1
  I  I76  1  0.83743404  0.33422138  0.49561890  1
  I  I77  1  0.83676016  0.33697716  0.83709552  1
  I  I78  1  0.83298722  0.66570830  0.16659552  1
  I  I79  1  0.83763346  0.66315111  0.49671675  1
  I  I80  1  0.83708878  0.66515171  0.83783674  1
  I  I81  1  0.16739282  0.16699055  0.00009290  1
  I  I82  1  0.16426689  0.17423119  0.33612657  1
  I  I83  1  0.15707978  0.16674530  0.66175032  1
  I  I84  1  0.16331114  0.50301548  -0.00180674  1
  I  I85  1  0.16316732  0.49779358  0.33601056  1
  I  I86  1  0.15646886  0.49681437  0.66599644  1
  I  I87  1  0.16473841  0.83228615  0.00342762  1
  I  I88  1  0.15972912  0.83021520  0.33018680  1
  I  I89  1  0.16552247  0.83531581  0.66692456  1
  I  I90  1  0.50799453  0.17077531  0.00523268  1
  I  I91  1  0.50280126  0.17054215  0.32974147  1
  I  I92  1  0.50150387  0.16562017  0.66640269  1
  I  I93  1  0.50481021  0.49705267  0.00419266  1
  I  I94  1  0.50435605  0.49703700  0.32930179  1
  I  I95  1  0.50251822  0.50080109  0.66665920  1
  I  I96  1  0.49712067  0.83323610  0.00055221  1
  I  I97  1  0.50153423  0.83247928  0.33241442  1
  I  I98  1  0.50032165  0.83343591  0.66720423  1
  I  I99  1  0.82885288  0.16854624  0.00327001  1
  I  I100  1  0.83316103  0.16944397  0.33234288  1
  I  I101  1  0.83780452  0.16928575  0.66314320  1
  I  I102  1  0.83315611  0.50090726  0.00083422  1
  I  I103  1  0.83360066  0.49990106  0.33282009  1
  I  I104  1  0.83883014  0.50106998  0.66639549  1
  I  I105  1  0.83653952  0.82950675  0.00170030  1
  I  I106  1  0.83573442  0.83072489  0.33002966  1
  I  I107  1  0.83365869  0.82873843  0.66960691  1
  I  I108  1  -0.00347599  0.16954991  0.16840353  1
  I  I109  1  -0.00143004  0.17134569  0.49269421  1
  I  I110  1  -0.00025840  0.16483459  0.83990549  1
  I  I111  1  -0.00334243  0.49825475  0.16657214  1
  I  I112  1  -0.00141629  0.49637154  0.49768650  1
  I  I113  1  -0.00174012  0.50357920  0.83535425  1
  I  I114  1  -0.00250383  0.83209471  0.16409304  1
  I  I115  1  -0.00037770  0.83373759  0.49948112  1
  I  I116  1  -0.00374171  0.83100963  0.83651596  1
  I  I117  1  0.33567206  0.17114722  0.16891525  1
  I  I118  1  0.33033168  0.17251282  0.49701561  1
  I  I119  1  0.33305627  0.16832276  0.83424414  1
  I  I120  1  0.33548743  0.49773818  0.16684406  1
  I  I121  1  0.32999559  0.49577176  0.50226474  1
  I  I122  1  0.33034874  0.49882635  0.83013263  1
  I  I123  1  0.33102105  0.83162594  0.16893928  1
  I  I124  1  0.33280131  0.83288594  0.49486167  1
  I  I125  1  0.33306923  0.83228717  0.83548228  1
  I  I126  1  0.66899294  0.16547786  0.17203856  1
  I  I127  1  0.67017920  0.17054518  0.49817704  1
  I  I128  1  0.66715027  0.16787007  0.82848749  1
  I  I129  1  0.66926266  0.50177696  0.16670209  1
  I  I130  1  0.67052959  0.49632331  0.50247549  1
  I  I131  1  0.67051479  0.50392766  0.83143502  1
  I  I132  1  0.67050198  0.83275762  0.16337855  1
  I  I133  1  0.66750724  0.83292978  0.49685635  1
  I  I134  1  0.67194706  0.82588217  0.84167111  1
