# generated using pymatgen
data_Cs27Sn14Pb13I81
_symmetry_space_group_name_H-M   'P 1'
_cell_length_a   18.95709425
_cell_length_b   18.96852254
_cell_length_c   18.96060653
_cell_angle_alpha   90.00085050
_cell_angle_beta   89.99864890
_cell_angle_gamma   89.99949650
_symmetry_Int_Tables_number   1
_chemical_formula_structural   Cs27Sn14Pb13I81
_chemical_formula_sum   'Cs27 Sn14 Pb13 I81'
_cell_volume   6818.00789693
_cell_formula_units_Z   1
loop_
 _symmetry_equiv_pos_site_id
 _symmetry_equiv_pos_as_xyz
  1  'x, y, z'
loop_
 _atom_site_type_symbol
 _atom_site_label
 _atom_site_symmetry_multiplicity
 _atom_site_fract_x
 _atom_site_fract_y
 _atom_site_fract_z
 _atom_site_occupancy
  Cs  Cs0  1  0.00156505  -0.00086808  0.00100911  1
  Cs  Cs1  1  -0.00095479  0.00261182  0.33369316  1
  Cs  Cs2  1  0.00028207  -0.00417475  0.66538645  1
  Cs  Cs3  1  -0.00036345  0.33331108  0.00123577  1
  Cs  Cs4  1  0.00128213  0.33195622  0.33252295  1
  Cs  Cs5  1  -0.00187150  0.33324720  0.66684961  1
  Cs  Cs6  1  0.00052213  0.66727554  -0.00040018  1
  Cs  Cs7  1  -0.00017354  0.66568323  0.33367485  1
  Cs  Cs8  1  -0.00132083  0.67026056  0.66684817  1
  Cs  Cs9  1  0.33332611  -0.00197427  -0.00195545  1
  Cs  Cs10  1  0.33459191  0.00093506  0.33621311  1
  Cs  Cs11  1  0.33280622  -0.00208108  0.66808624  1
  Cs  Cs12  1  0.33283409  0.33383115  0.00046171  1
  Cs  Cs13  1  0.33211959  0.33338409  0.33378394  1
  Cs  Cs14  1  0.33507436  0.33422947  0.66586715  1
  Cs  Cs15  1  0.33263364  0.66689515  0.00005349  1
  Cs  Cs16  1  0.33491776  0.66552880  0.33611169  1
  Cs  Cs17  1  0.33208954  0.66547371  0.66518046  1
  Cs  Cs18  1  0.66365680  0.00143010  -0.00245639  1
  Cs  Cs19  1  0.66768043  0.00235937  0.33205783  1
  Cs  Cs20  1  0.66676450  -0.00346398  0.67150762  1
  Cs  Cs21  1  0.66750091  0.33335285  0.00040688  1
  Cs  Cs22  1  0.66672196  0.33336178  0.33376396  1
  Cs  Cs23  1  0.66536436  0.33331678  0.66423858  1
  Cs  Cs24  1  0.66686717  0.66600257  0.00207991  1
  Cs  Cs25  1  0.66560873  0.66556042  0.33195532  1
  Cs  Cs26  1  0.67015742  0.66920641  0.66515733  1
  Sn  Sn27  1  0.16710607  0.49971296  0.83356731  1
  Sn  Sn28  1  0.50104574  0.16726789  0.49939955  1
  Sn  Sn29  1  0.50050653  0.49901121  0.16668101  1
  Sn  Sn30  1  0.83264061  0.16679351  0.16709615  1
  Sn  Sn31  1  0.50097475  0.49918697  0.49984843  1
  Sn  Sn32  1  0.16646407  0.16699711  0.83331481  1
  Sn  Sn33  1  0.16622979  0.83323075  0.16670888  1
  Sn  Sn34  1  0.83404549  0.83346594  0.16666811  1
  Sn  Sn35  1  0.49959359  0.49988761  0.83336944  1
  Sn  Sn36  1  0.83259876  0.49908736  0.49898072  1
  Sn  Sn37  1  0.16671850  0.83302472  0.83432969  1
  Sn  Sn38  1  0.50052735  0.16757152  0.16719646  1
  Sn  Sn39  1  0.83227393  0.16746218  0.49948859  1
  Sn  Sn40  1  0.83283017  0.49982629  0.16747350  1
  Pb  Pb41  1  0.16674030  0.50168443  0.16504731  1
  Pb  Pb42  1  0.83310084  0.83353489  0.49736671  1
  Pb  Pb43  1  0.16618406  0.49985021  0.50237090  1
  Pb  Pb44  1  0.16713519  0.16480165  0.16516958  1
  Pb  Pb45  1  0.50036658  0.83366211  0.49990893  1
  Pb  Pb46  1  0.83525607  0.83340434  0.83618279  1
  Pb  Pb47  1  0.49782391  0.83017306  0.83334891  1
  Pb  Pb48  1  0.83527826  0.16672134  0.83308685  1
  Pb  Pb49  1  0.16662769  0.83332543  0.49935929  1
  Pb  Pb50  1  0.16666849  0.16683951  0.50232210  1
  Pb  Pb51  1  0.83293819  0.49987107  0.83310961  1
  Pb  Pb52  1  0.49832369  0.16860989  0.83328109  1
  Pb  Pb53  1  0.50003336  0.83361052  0.16678391  1
  I  I54  1  0.16265656  -0.00309258  0.15988939  1
  I  I55  1  0.16698910  0.00026985  0.50323372  1
  I  I56  1  0.16517771  -0.00050450  0.83761696  1
  I  I57  1  0.16430291  0.33334701  0.16324319  1
  I  I58  1  0.16612949  0.33337888  0.50257115  1
  I  I59  1  0.17049737  0.33416110  0.83272466  1
  I  I60  1  0.16278295  0.66958888  0.16014868  1
  I  I61  1  0.16718539  0.66634744  0.50254473  1
  I  I62  1  0.17092629  0.66649147  0.83754115  1
  I  I63  1  0.50237653  0.00346328  0.17107373  1
  I  I64  1  0.50286873  0.00404657  0.49427947  1
  I  I65  1  0.49765187  0.00023628  0.83358991  1
  I  I66  1  0.50634787  0.33400802  0.16635362  1
  I  I67  1  0.50367725  0.33410997  0.49985428  1
  I  I68  1  0.49312196  0.33679079  0.83393065  1
  I  I69  1  0.50242713  0.66320057  0.16657469  1
  I  I70  1  0.50282652  0.66256813  0.49921931  1
  I  I71  1  0.49498487  0.66163198  0.83443552  1
  I  I72  1  0.83429927  0.00106477  0.17007333  1
  I  I73  1  0.83049062  0.00352170  0.49637140  1
  I  I74  1  0.83560469  0.00014105  0.83258536  1
  I  I75  1  0.82929850  0.33348951  0.16959432  1
  I  I76  1  0.83016362  0.33362837  0.49285269  1
  I  I77  1  0.83888847  0.33348641  0.83829236  1
  I  I78  1  0.83338062  0.66543245  0.16912377  1
  I  I79  1  0.82960402  0.66328856  0.49729441  1
  I  I80  1  0.83547906  0.66635669  0.83290732  1
  I  I81  1  0.16681083  0.16854868  -0.00290882  1
  I  I82  1  0.16677913  0.16414364  0.33321379  1
  I  I83  1  0.16697298  0.16471234  0.67050586  1
  I  I84  1  0.17036100  0.49894905  -0.00321730  1
  I  I85  1  0.16904978  0.50266071  0.33317264  1
  I  I86  1  0.17065149  0.50259249  0.67077629  1
  I  I87  1  0.16213766  0.83293095  -0.00034512  1
  I  I88  1  0.16263245  0.83329786  0.32981327  1
  I  I89  1  0.16817795  0.83303026  0.67009239  1
  I  I90  1  0.50327970  0.17036937  0.00300268  1
  I  I91  1  0.50249646  0.17353940  0.33280625  1
  I  I92  1  0.50246328  0.17133025  0.66372277  1
  I  I93  1  0.49964002  0.49689209  0.00112034  1
  I  I94  1  0.50449166  0.49726065  0.33299480  1
  I  I95  1  0.49862506  0.49609768  0.66588102  1
  I  I96  1  0.50176030  0.83360871  0.00027322  1
  I  I97  1  0.49552249  0.82843811  0.33297241  1
  I  I98  1  0.49685194  0.83422078  0.66675138  1
  I  I99  1  0.83044843  0.16760610  0.00374236  1
  I  I100  1  0.83074591  0.16681660  0.33235898  1
  I  I101  1  0.83063958  0.17295874  0.66308593  1
  I  I102  1  0.83098040  0.49961867  0.00341671  1
  I  I103  1  0.82663288  0.50049304  0.33241800  1
  I  I104  1  0.83118863  0.49474006  0.66342604  1
  I  I105  1  0.83492395  0.83227960  0.00464437  1
  I  I106  1  0.84033852  0.83276588  0.32913304  1
  I  I107  1  0.83567645  0.83279137  0.66648717  1
  I  I108  1  -0.00309315  0.16893220  0.16920348  1
  I  I109  1  -0.00351687  0.17068253  0.49610808  1
  I  I110  1  0.00361704  0.16913763  0.83432058  1
  I  I111  1  -0.00316975  0.49790499  0.16911775  1
  I  I112  1  -0.00367106  0.49625743  0.49611307  1
  I  I113  1  0.00276932  0.50121885  0.83399944  1
  I  I114  1  -0.00081612  0.83299865  0.16198357  1
  I  I115  1  -0.00030905  0.83277383  0.50255345  1
  I  I116  1  0.00387817  0.82979556  0.83463195  1
  I  I117  1  0.33652582  0.17062197  0.16947002  1
  I  I118  1  0.33686633  0.17142735  0.49610843  1
  I  I119  1  0.33022075  0.16489027  0.83420890  1
  I  I120  1  0.33654973  0.49709780  0.16844597  1
  I  I121  1  0.33683954  0.49618685  0.49753920  1
  I  I122  1  0.33373571  0.50033169  0.83384696  1
  I  I123  1  0.33070160  0.83305974  0.16081044  1
  I  I124  1  0.33345093  0.83311058  0.49799884  1
  I  I125  1  0.32936279  0.83577479  0.84104205  1
  I  I126  1  0.66706448  0.16545714  0.16938406  1
  I  I127  1  0.66669975  0.17184919  0.49557105  1
  I  I128  1  0.66646997  0.16879409  0.83409155  1
  I  I129  1  0.66666936  0.50200379  0.16456974  1
  I  I130  1  0.66627995  0.49626246  0.50125723  1
  I  I131  1  0.66353641  0.49818458  0.83420036  1
  I  I132  1  0.66972414  0.83231826  0.16870078  1
  I  I133  1  0.66689706  0.83211895  0.49889826  1
  I  I134  1  0.66658408  0.83239741  0.83377069  1
