# generated using pymatgen
data_Cs27Sn14Pb13I81
_symmetry_space_group_name_H-M   'P 1'
_cell_length_a   18.97369341
_cell_length_b   18.97910959
_cell_length_c   18.97369349
_cell_angle_alpha   89.99976831
_cell_angle_beta   89.99956872
_cell_angle_gamma   89.99976830
_symmetry_Int_Tables_number   1
_chemical_formula_structural   Cs27Sn14Pb13I81
_chemical_formula_sum   'Cs27 Sn14 Pb13 I81'
_cell_volume   6832.49925105
_cell_formula_units_Z   1
loop_
 _symmetry_equiv_pos_site_id
 _symmetry_equiv_pos_as_xyz
  1  'x, y, z'
loop_
 _atom_site_type_symbol
 _atom_site_label
 _atom_site_symmetry_multiplicity
 _atom_site_fract_x
 _atom_site_fract_y
 _atom_site_fract_z
 _atom_site_occupancy
  Cs  Cs0  1  -0.00147215  -0.00171348  -0.00068034  1
  Cs  Cs1  1  0.00061816  -0.00089032  0.33395145  1
  Cs  Cs2  1  0.00001754  -0.00259909  0.66713678  1
  Cs  Cs3  1  0.00000722  0.33216109  0.00258460  1
  Cs  Cs4  1  0.00091661  0.34301721  0.33424979  1
  Cs  Cs5  1  0.00106515  0.33254552  0.66289324  1
  Cs  Cs6  1  0.00162656  0.67008255  0.00139356  1
  Cs  Cs7  1  -0.00198107  0.65834186  0.33135190  1
  Cs  Cs8  1  0.00034885  0.67034561  0.66619270  1
  Cs  Cs9  1  0.33233936  0.00162044  0.00307987  1
  Cs  Cs10  1  0.33380352  -0.00259916  0.33335081  1
  Cs  Cs11  1  0.33104701  0.00122632  0.66438038  1
  Cs  Cs12  1  0.33361043  0.33392114  -0.00223248  1
  Cs  Cs13  1  0.32955993  0.33254550  0.33439840  1
  Cs  Cs14  1  0.33629626  0.33218125  0.66962965  1
  Cs  Cs15  1  0.33395823  0.66405026  -0.00124408  1
  Cs  Cs16  1  0.33285931  0.67034566  0.33368203  1
  Cs  Cs17  1  0.33482571  0.67012618  0.66815910  1
  Cs  Cs18  1  0.67013876  0.00377825  0.00347210  1
  Cs  Cs19  1  0.66598631  -0.00171359  0.33186133  1
  Cs  Cs20  1  0.66974645  0.00162043  0.66567257  1
  Cs  Cs21  1  0.66693674  0.33047764  0.00026991  1
  Cs  Cs22  1  0.66925124  0.33216115  0.33334077  1
  Cs  Cs23  1  0.66443442  0.33392108  0.66694360  1
  Cs  Cs24  1  0.66344233  0.66592988  -0.00322445  1
  Cs  Cs25  1  0.66806023  0.67008245  0.33495995  1
  Cs  Cs26  1  0.66542267  0.66405030  0.66729160  1
  Sn  Sn27  1  0.49994056  0.49930531  0.49964222  1
  Sn  Sn28  1  0.16604171  0.83393935  0.16655943  1
  Sn  Sn29  1  0.50019556  0.83447342  0.83352887  1
  Sn  Sn30  1  0.49950225  0.16624880  0.83283557  1
  Sn  Sn31  1  0.83379263  0.49979619  0.83353486  1
  Sn  Sn32  1  0.83322613  0.83393927  0.49937503  1
  Sn  Sn33  1  0.16661425  0.16617455  0.16608697  1
  Sn  Sn34  1  0.83382580  0.83335893  0.16715916  1
  Sn  Sn35  1  0.50020160  0.49979622  0.16712594  1
  Sn  Sn36  1  0.16720197  0.16724587  0.83415375  1
  Sn  Sn37  1  0.16630883  0.49930527  0.83327387  1
  Sn  Sn38  1  0.49987574  0.49969826  0.83320901  1
  Sn  Sn39  1  0.83275367  0.16617456  0.49994757  1
  Sn  Sn40  1  0.50082040  0.16724584  0.50053532  1
  Pb  Pb41  1  0.16862495  0.49993695  0.16461382  1
  Pb  Pb42  1  0.83369908  0.16865132  0.83156845  1
  Pb  Pb43  1  0.50008743  0.83157949  0.16461779  1
  Pb  Pb44  1  0.83128054  0.49993696  0.50195828  1
  Pb  Pb45  1  0.16879260  0.83393127  0.83506290  1
  Pb  Pb46  1  0.83604359  0.16506722  0.16937695  1
  Pb  Pb47  1  0.16693550  0.16671385  0.50026885  1
  Pb  Pb48  1  0.49823512  0.16865139  0.16703239  1
  Pb  Pb49  1  0.16374990  0.83313697  0.49708323  1
  Pb  Pb50  1  0.83086110  0.50220836  0.16419442  1
  Pb  Pb51  1  0.16992850  0.49999582  0.50326180  1
  Pb  Pb52  1  0.83128444  0.83157956  0.83342071  1
  Pb  Pb53  1  0.50172956  0.83393130  0.50212590  1
  I  I54  1  0.16430600  0.00027763  0.15974607  1
  I  I55  1  0.17134323  0.00005496  0.50467633  1
  I  I56  1  0.17212921  0.00311428  0.83494020  1
  I  I57  1  0.16980550  0.33094342  0.16422458  1
  I  I58  1  0.16029713  0.33324179  0.49363073  1
  I  I59  1  0.17268649  0.33295132  0.83899051  1
  I  I60  1  0.16411933  0.66894232  0.16509785  1
  I  I61  1  0.16724545  0.66654590  0.50057911  1
  I  I62  1  0.16919438  0.66411160  0.83452498  1
  I  I63  1  0.50091306  0.00007188  0.16543118  1
  I  I64  1  0.50160678  0.00311425  0.50546249  1
  I  I65  1  0.49513845  0.00155842  0.82847161  1
  I  I66  1  0.49785951  0.33651140  0.16085743  1
  I  I67  1  0.50565725  0.33295137  0.50601975  1
  I  I68  1  0.49882998  0.33389441  0.83216353  1
  I  I69  1  0.49829788  0.66356084  0.16476381  1
  I  I70  1  0.50119162  0.66411159  0.50252775  1
  I  I71  1  0.50020688  0.66466228  0.83354019  1
  I  I72  1  0.83264814  -0.00308638  0.16598105  1
  I  I73  1  0.82641254  0.00027764  0.49763972  1
  I  I74  1  0.83209772  0.00007196  0.83424641  1
  I  I75  1  0.83435289  0.33345742  0.16768642  1
  I  I76  1  0.83089134  0.33094342  0.50313856  1
  I  I77  1  0.82752427  0.33651137  0.83119291  1
  I  I78  1  0.83984006  0.67003583  0.17317339  1
  I  I79  1  0.83176454  0.66894238  0.49745259  1
  I  I80  1  0.83143043  0.66356075  0.83163129  1
  I  I81  1  0.17308815  0.16714553  -0.00130963  1
  I  I82  1  0.16784602  0.16116102  0.33073540  1
  I  I83  1  0.16893355  0.17214792  0.66989031  1
  I  I84  1  0.17103461  0.49918275  -0.00350847  1
  I  I85  1  0.16849340  0.49963293  0.33318359  1
  I  I86  1  0.16871364  0.49314003  0.67153300  1
  I  I87  1  0.16038669  0.83423733  0.00280150  1
  I  I88  1  0.16914333  0.84024607  0.32897036  1
  I  I89  1  0.16602412  0.83307069  0.66693306  1
  I  I90  1  0.49760180  0.16845016  -0.00311880  1
  I  I91  1  0.50229548  0.17164048  0.33632162  1
  I  I92  1  0.49835163  0.17153805  0.66785873  1
  I  I93  1  0.49946887  0.50121355  -0.00215076  1
  I  I94  1  0.50058779  0.49585632  0.33406594  1
  I  I95  1  0.50041126  0.49915827  0.66823085  1
  I  I96  1  0.50163885  0.83143061  -0.00340683  1
  I  I97  1  0.49837406  0.83166654  0.33330159  1
  I  I98  1  0.50150106  0.82737575  0.67006626  1
  I  I99  1  0.83061431  0.16599766  -0.00002367  1
  I  I100  1  0.82655243  0.16557097  0.33721181  1
  I  I101  1  0.83321752  0.16067301  0.66373982  1
  I  I102  1  0.82950126  0.50129664  -0.00375204  1
  I  I103  1  0.83146422  0.49893294  0.33335791  1
  I  I104  1  0.83002717  0.50225422  0.66984914  1
  I  I105  1  0.83609817  0.83031411  0.00238178  1
  I  I106  1  0.83550745  0.83696956  0.33341987  1
  I  I107  1  0.82993048  0.83551072  0.66440125  1
  I  I108  1  0.00387847  0.16557139  0.15988596  1
  I  I109  1  -0.00259795  0.16116066  0.50117944  1
  I  I110  1  0.00298829  0.17164040  0.83562877  1
  I  I111  1  0.00002456  0.49893286  0.16479753  1
  I  I112  1  -0.00014972  0.49963289  0.50182728  1
  I  I113  1  0.00073260  0.49585636  0.83392068  1
  I  I114  1  0.00008653  0.83696921  0.16884119  1
  I  I115  1  -0.00436299  0.84024653  0.50247637  1
  I  I116  1  -0.00003172  0.83166656  0.83170738  1
  I  I117  1  0.33040648  0.16067267  0.16655108  1
  I  I118  1  0.33655700  0.17214814  0.50226689  1
  I  I119  1  0.33452537  0.17153799  0.83168486  1
  I  I120  1  0.33651577  0.50225429  0.16336118  1
  I  I121  1  0.33819972  0.49313998  0.50204671  1
  I  I122  1  0.33489750  0.49915835  0.83374446  1
  I  I123  1  0.33106793  0.83551094  0.16326381  1
  I  I124  1  0.33359970  0.83307052  0.49935763  1
  I  I125  1  0.33673291  0.82737567  0.83483418  1
  I  I126  1  0.66664303  0.16599746  0.16394748  1
  I  I127  1  0.66535704  0.16714561  0.50642153  1
  I  I128  1  0.66354788  0.16845039  0.83093534  1
  I  I129  1  0.66291463  0.50129672  0.16283422  1
  I  I130  1  0.66315819  0.49918278  0.50436779  1
  I  I131  1  0.66451585  0.50121341  0.83280275  1
  I  I132  1  0.66904842  0.83031420  0.16943122  1
  I  I133  1  0.66946815  0.83423729  0.49372005  1
  I  I134  1  0.66325984  0.83143043  0.83497245  1
