# generated using pymatgen
data_Cs27Sn14Pb13I81
_symmetry_space_group_name_H-M   'P 1'
_cell_length_a   18.98017497
_cell_length_b   18.97566852
_cell_length_c   18.97137223
_cell_angle_alpha   90.00169501
_cell_angle_beta   90.00237903
_cell_angle_gamma   90.00095581
_symmetry_Int_Tables_number   1
_chemical_formula_structural   Cs27Sn14Pb13I81
_chemical_formula_sum   'Cs27 Sn14 Pb13 I81'
_cell_volume   6832.75803594
_cell_formula_units_Z   1
loop_
 _symmetry_equiv_pos_site_id
 _symmetry_equiv_pos_as_xyz
  1  'x, y, z'
loop_
 _atom_site_type_symbol
 _atom_site_label
 _atom_site_symmetry_multiplicity
 _atom_site_fract_x
 _atom_site_fract_y
 _atom_site_fract_z
 _atom_site_occupancy
  Cs  Cs0  1  0.00463967  -0.00061107  0.00243466  1
  Cs  Cs1  1  0.00115921  0.00115914  0.33159845  1
  Cs  Cs2  1  0.00114469  0.00173495  0.66686208  1
  Cs  Cs3  1  -0.00090547  0.33400626  -0.00074660  1
  Cs  Cs4  1  0.00024450  0.33493584  0.33465685  1
  Cs  Cs5  1  0.00093096  0.33436225  0.66637037  1
  Cs  Cs6  1  -0.00165560  0.66598503  -0.00000343  1
  Cs  Cs7  1  -0.00101357  0.66430207  0.33649993  1
  Cs  Cs8  1  -0.00224695  0.66290732  0.66300477  1
  Cs  Cs9  1  0.32147820  -0.01059342  0.00632214  1
  Cs  Cs10  1  0.33157848  -0.00324136  0.32905873  1
  Cs  Cs11  1  0.33285592  -0.00024307  0.66767610  1
  Cs  Cs12  1  0.33370142  0.33436973  0.00040694  1
  Cs  Cs13  1  0.33812900  0.33391877  0.33563497  1
  Cs  Cs14  1  0.33551412  0.33215549  0.66590514  1
  Cs  Cs15  1  0.33331190  0.67113351  0.00226799  1
  Cs  Cs16  1  0.33491366  0.66819101  0.32963641  1
  Cs  Cs17  1  0.33526591  0.66730132  0.66775038  1
  Cs  Cs18  1  0.66936599  0.00071483  0.00040391  1
  Cs  Cs19  1  0.66524109  0.00178352  0.33471809  1
  Cs  Cs20  1  0.66571256  0.00149679  0.66553918  1
  Cs  Cs21  1  0.66747728  0.33534343  -0.00140660  1
  Cs  Cs22  1  0.66285534  0.33024538  0.33141485  1
  Cs  Cs23  1  0.66448056  0.33147348  0.66914234  1
  Cs  Cs24  1  0.66906095  0.66433733  -0.00125594  1
  Cs  Cs25  1  0.66688328  0.67106766  0.33398214  1
  Cs  Cs26  1  0.66764256  0.66991913  0.66656050  1
  Sn  Sn27  1  0.83326535  0.16714469  0.50075687  1
  Sn  Sn28  1  0.83346955  0.83359140  0.83369775  1
  Sn  Sn29  1  0.83328591  0.49987466  0.83352457  1
  Sn  Sn30  1  0.83297327  0.16655719  0.83249260  1
  Sn  Sn31  1  0.49991355  0.16667507  0.83372958  1
  Sn  Sn32  1  0.16695996  0.16597372  0.50019991  1
  Sn  Sn33  1  0.83401713  0.50062782  0.16627756  1
  Sn  Sn34  1  0.16652817  0.83389847  0.50059915  1
  Sn  Sn35  1  0.50053372  0.49977734  0.50092760  1
  Sn  Sn36  1  0.83327686  0.83252244  0.16619295  1
  Sn  Sn37  1  0.16686890  0.49989464  0.83392947  1
  Sn  Sn38  1  0.16585694  0.49945780  0.16593503  1
  Sn  Sn39  1  0.50000619  0.49942999  0.83238819  1
  Sn  Sn40  1  0.49981200  0.16739905  0.50101259  1
  Pb  Pb41  1  0.16889855  0.49958669  0.50002422  1
  Pb  Pb42  1  0.50062681  0.49998023  0.16591032  1
  Pb  Pb43  1  0.16378764  0.83038056  0.83131029  1
  Pb  Pb44  1  0.50327230  0.83340393  0.16631111  1
  Pb  Pb45  1  0.83067416  0.49776754  0.49982789  1
  Pb  Pb46  1  0.16384417  0.83043061  0.16894457  1
  Pb  Pb47  1  0.16707424  0.16854331  0.83186519  1
  Pb  Pb48  1  0.50212969  0.83399344  0.83348985  1
  Pb  Pb49  1  0.16672189  0.16967411  0.16939598  1
  Pb  Pb50  1  0.83328470  0.16712985  0.16583882  1
  Pb  Pb51  1  0.49975099  0.16640751  0.16503544  1
  Pb  Pb52  1  0.49774152  0.83402953  0.50023341  1
  Pb  Pb53  1  0.83486623  0.83598132  0.50003778  1
  I  I54  1  0.16583413  -0.00034914  0.16637785  1
  I  I55  1  0.16731371  0.00139005  0.50108749  1
  I  I56  1  0.16666436  -0.00008672  0.83298863  1
  I  I57  1  0.15879191  0.33754658  0.16431269  1
  I  I58  1  0.16510511  0.33074437  0.49990666  1
  I  I59  1  0.16141428  0.33681309  0.83379376  1
  I  I60  1  0.16521781  0.66280971  0.16528777  1
  I  I61  1  0.16683439  0.66802394  0.49983516  1
  I  I62  1  0.16775595  0.66218050  0.83408610  1
  I  I63  1  0.50224746  0.00003285  0.16891100  1
  I  I64  1  0.50293895  0.00398243  0.50479930  1
  I  I65  1  0.50707316  0.00386567  0.82581739  1
  I  I66  1  0.50254341  0.33351927  0.16913862  1
  I  I67  1  0.49752874  0.33246061  0.50333376  1
  I  I68  1  0.50565372  0.33411787  0.82824361  1
  I  I69  1  0.49725210  0.66615738  0.16887134  1
  I  I70  1  0.49799943  0.66387030  0.50394437  1
  I  I71  1  0.50093185  0.66323669  0.82913896  1
  I  I72  1  0.83238965  -0.00244127  0.16399748  1
  I  I73  1  0.82841394  0.00400716  0.50355669  1
  I  I74  1  0.82763105  0.00100327  0.83239504  1
  I  I75  1  0.83663418  0.33655597  0.16354601  1
  I  I76  1  0.83900452  0.32980026  0.50337015  1
  I  I77  1  0.83272928  0.33399010  0.83346555  1
  I  I78  1  0.83679487  0.66541137  0.15869586  1
  I  I79  1  0.83427580  0.66649583  0.50206046  1
  I  I80  1  0.83350498  0.66542731  0.83812983  1
  I  I81  1  0.16623835  0.16597805  -0.00020729  1
  I  I82  1  0.16560193  0.16487851  0.33805470  1
  I  I83  1  0.16575769  0.16669769  0.66346337  1
  I  I84  1  0.16705060  0.49951934  -0.00097695  1
  I  I85  1  0.16206418  0.50013588  0.33129123  1
  I  I86  1  0.16286344  0.49991487  0.66927078  1
  I  I87  1  0.16826922  0.83469820  -0.00001670  1
  I  I88  1  0.16460574  0.83613364  0.33650090  1
  I  I89  1  0.16442019  0.83543527  0.66378476  1
  I  I90  1  0.50930009  0.17459214  -0.00479008  1
  I  I91  1  0.50150825  0.17180657  0.33683949  1
  I  I92  1  0.50177306  0.17210200  0.66634074  1
  I  I93  1  0.50108222  0.49476517  -0.00380055  1
  I  I94  1  0.49894895  0.49501527  0.33593229  1
  I  I95  1  0.49939157  0.49563664  0.66792006  1
  I  I96  1  0.49624720  0.83301406  -0.00037309  1
  I  I97  1  0.50223285  0.83201771  0.33362770  1
  I  I98  1  0.50287549  0.83093100  0.66677129  1
  I  I99  1  0.82749232  0.16768598  -0.00386666  1
  I  I100  1  0.83267866  0.16671530  0.33614978  1
  I  I101  1  0.83276766  0.16707635  0.66758370  1
  I  I102  1  0.83194834  0.49855767  -0.00162563  1
  I  I103  1  0.83761972  0.50345830  0.33077394  1
  I  I104  1  0.83678741  0.50259218  0.66990943  1
  I  I105  1  0.83282940  0.83370779  -0.00096587  1
  I  I106  1  0.83556301  0.82822522  0.33095140  1
  I  I107  1  0.83461171  0.82956689  0.66959305  1
  I  I108  1  -0.00021154  0.16559757  0.16813657  1
  I  I109  1  -0.00034020  0.16253776  0.50364996  1
  I  I110  1  -0.00297225  0.16829306  0.82873481  1
  I  I111  1  -0.00112127  0.50289138  0.15972224  1
  I  I112  1  -0.00013211  0.49866661  0.50184598  1
  I  I113  1  -0.00111265  0.49980570  0.83759320  1
  I  I114  1  -0.00367285  0.83168765  0.16214606  1
  I  I115  1  0.00255571  0.83754809  0.50033301  1
  I  I116  1  -0.00432194  0.83498782  0.83671916  1
  I  I117  1  0.33317223  0.16938055  0.16723946  1
  I  I118  1  0.33420026  0.16828171  0.50414347  1
  I  I119  1  0.33635119  0.17467163  0.82675995  1
  I  I120  1  0.33090750  0.49849282  0.16486583  1
  I  I121  1  0.33645393  0.49445014  0.50377248  1
  I  I122  1  0.33399483  0.49402241  0.83213951  1
  I  I123  1  0.33262676  0.83248853  0.16845561  1
  I  I124  1  0.32995852  0.83740292  0.49988640  1
  I  I125  1  0.33289772  0.83296825  0.83158396  1
  I  I126  1  0.66687397  0.16799154  0.17301062  1
  I  I127  1  0.66642747  0.17151174  0.50347106  1
  I  I128  1  0.66761029  0.17191490  0.82485869  1
  I  I129  1  0.66999374  0.50352757  0.16332909  1
  I  I130  1  0.66302436  0.49494774  0.50352763  1
  I  I131  1  0.66754707  0.49927011  0.83386353  1
  I  I132  1  0.67151811  0.82534903  0.16424139  1
  I  I133  1  0.66692800  0.83330351  0.49883967  1
  I  I134  1  0.67062904  0.82829785  0.83558030  1
