# generated using pymatgen
data_Cs27Sn13Pb14I81
_symmetry_space_group_name_H-M   'P 1'
_cell_length_a   18.98759166
_cell_length_b   18.98744758
_cell_length_c   19.00043603
_cell_angle_alpha   90.00031033
_cell_angle_beta   90.00098218
_cell_angle_gamma   89.99878442
_symmetry_Int_Tables_number   1
_chemical_formula_structural   Cs27Sn13Pb14I81
_chemical_formula_sum   'Cs27 Sn13 Pb14 I81'
_cell_volume   6850.14932163
_cell_formula_units_Z   1
loop_
 _symmetry_equiv_pos_site_id
 _symmetry_equiv_pos_as_xyz
  1  'x, y, z'
loop_
 _atom_site_type_symbol
 _atom_site_label
 _atom_site_symmetry_multiplicity
 _atom_site_fract_x
 _atom_site_fract_y
 _atom_site_fract_z
 _atom_site_occupancy
  Cs  Cs0  1  0.00945680  0.00130677  -0.00452083  1
  Cs  Cs1  1  -0.00166529  -0.00126250  0.32971606  1
  Cs  Cs2  1  0.00118595  -0.00093031  0.67233426  1
  Cs  Cs3  1  0.00333230  0.33016771  0.00390937  1
  Cs  Cs4  1  -0.00884503  0.33335470  0.33469110  1
  Cs  Cs5  1  -0.00016134  0.33336724  0.66394593  1
  Cs  Cs6  1  -0.00203259  0.66865818  -0.00475424  1
  Cs  Cs7  1  0.00239353  0.66729563  0.33336088  1
  Cs  Cs8  1  -0.00187937  0.66822670  0.67086316  1
  Cs  Cs9  1  0.32833243  0.00381493  0.00005330  1
  Cs  Cs10  1  0.33366273  -0.00137994  0.33340209  1
  Cs  Cs11  1  0.33586573  0.00203299  0.66590049  1
  Cs  Cs12  1  0.33331494  0.33360281  0.00304145  1
  Cs  Cs13  1  0.33432279  0.33477322  0.33554616  1
  Cs  Cs14  1  0.33341703  0.33339698  0.66607361  1
  Cs  Cs15  1  0.33454469  0.66199098  0.00216261  1
  Cs  Cs16  1  0.33120023  0.66707303  0.33640957  1
  Cs  Cs17  1  0.33385373  0.66442860  0.66265241  1
  Cs  Cs18  1  0.66588065  -0.00163788  -0.00147514  1
  Cs  Cs19  1  0.66662522  -0.00132584  0.33314495  1
  Cs  Cs20  1  0.66530915  0.00041752  0.66657032  1
  Cs  Cs21  1  0.66672430  0.33918633  0.00670757  1
  Cs  Cs22  1  0.67631941  0.33186546  0.32739032  1
  Cs  Cs23  1  0.66839812  0.33097610  0.66628016  1
  Cs  Cs24  1  0.66826032  0.66361392  -0.00173292  1
  Cs  Cs25  1  0.66696561  0.67067254  0.33246913  1
  Cs  Cs26  1  0.66723821  0.66716365  0.66946580  1
  Sn  Sn27  1  0.83267557  0.83343287  0.49969225  1
  Sn  Sn28  1  0.49961074  0.83374186  0.83335478  1
  Sn  Sn29  1  0.50039876  0.49941180  0.49982010  1
  Sn  Sn30  1  0.83195021  0.16700539  0.83344164  1
  Sn  Sn31  1  0.83285174  0.83367548  0.16690046  1
  Sn  Sn32  1  0.16715154  0.49889067  0.50008614  1
  Sn  Sn33  1  0.50029752  0.83345661  0.16644876  1
  Sn  Sn34  1  0.16692756  0.49987773  0.83280099  1
  Sn  Sn35  1  0.50113707  0.16649404  0.83294475  1
  Sn  Sn36  1  0.49975567  0.16716000  0.50021723  1
  Sn  Sn37  1  0.16666974  0.50009446  0.16735484  1
  Sn  Sn38  1  0.16713437  0.16717402  0.49985123  1
  Sn  Sn39  1  0.50079400  0.83333802  0.50016892  1
  Pb  Pb40  1  0.49863407  0.50244182  0.16977396  1
  Pb  Pb41  1  0.16688039  0.16924079  0.17032271  1
  Pb  Pb42  1  0.83104081  0.83505334  0.83352487  1
  Pb  Pb43  1  0.17031394  0.83102908  0.83317074  1
  Pb  Pb44  1  0.16664739  0.83358023  0.50013847  1
  Pb  Pb45  1  0.49871812  0.49922800  0.83131623  1
  Pb  Pb46  1  0.83318042  0.50263184  0.50017779  1
  Pb  Pb47  1  0.83307938  0.16397416  0.50131688  1
  Pb  Pb48  1  0.83323155  0.16344170  0.16346423  1
  Pb  Pb49  1  0.16778256  0.16885036  0.83110927  1
  Pb  Pb50  1  0.83560662  0.49684276  0.83323683  1
  Pb  Pb51  1  0.83584350  0.50292819  0.16664329  1
  Pb  Pb52  1  0.16679868  0.83148004  0.16661166  1
  Pb  Pb53  1  0.50001384  0.16457227  0.16694145  1
  I  I54  1  0.16598198  -0.00002543  0.16756602  1
  I  I55  1  0.17091910  0.00274397  0.50159832  1
  I  I56  1  0.16408832  0.00043511  0.83194732  1
  I  I57  1  0.16838539  0.33721716  0.16274671  1
  I  I58  1  0.17578871  0.33425847  0.50072411  1
  I  I59  1  0.16875597  0.33656494  0.83449943  1
  I  I60  1  0.16793177  0.66355455  0.17132446  1
  I  I61  1  0.17067027  0.66349235  0.49933431  1
  I  I62  1  0.16728114  0.66306224  0.82929364  1
  I  I63  1  0.50313821  -0.00390285  0.17209953  1
  I  I64  1  0.49916800  -0.00026562  0.50098127  1
  I  I65  1  0.50335779  -0.00011436  0.82749448  1
  I  I66  1  0.49772561  0.33357286  0.16553291  1
  I  I67  1  0.49201488  0.33284456  0.50722704  1
  I  I68  1  0.50151340  0.33011398  0.82666559  1
  I  I69  1  0.50297578  0.67064265  0.16571569  1
  I  I70  1  0.49822185  0.66735164  0.49985735  1
  I  I71  1  0.49764332  0.66934484  0.83190170  1
  I  I72  1  0.82887529  -0.00422859  0.17330280  1
  I  I73  1  0.82866357  -0.00361637  0.49661125  1
  I  I74  1  0.83260994  0.00270955  0.83188385  1
  I  I75  1  0.83481593  0.33321078  0.16605152  1
  I  I76  1  0.83171113  0.33307603  0.50140669  1
  I  I77  1  0.82533140  0.32919635  0.83051172  1
  I  I78  1  0.82840174  0.67068746  0.17030764  1
  I  I79  1  0.82934318  0.67057900  0.49729753  1
  I  I80  1  0.83410547  0.66693375  0.83349278  1
  I  I81  1  0.16615133  0.16809473  -0.00012609  1
  I  I82  1  0.17367275  0.17049971  0.33823903  1
  I  I83  1  0.16851027  0.17260173  0.66346540  1
  I  I84  1  0.16629111  0.50291499  -0.00007404  1
  I  I85  1  0.17201543  0.49787443  0.33484004  1
  I  I86  1  0.17147655  0.49631717  0.66512829  1
  I  I87  1  0.16557640  0.83126419  -0.00013177  1
  I  I88  1  0.17074425  0.83083562  0.33359659  1
  I  I89  1  0.16436173  0.82983297  0.66649390  1
  I  I90  1  0.50320181  0.16131388  -0.00332315  1
  I  I91  1  0.49427311  0.16547635  0.33709559  1
  I  I92  1  0.49920720  0.16114348  0.66565420  1
  I  I93  1  0.49670402  0.50085000  0.00010627  1
  I  I94  1  0.49257020  0.50032578  0.33794545  1
  I  I95  1  0.49263404  0.50571384  0.66318292  1
  I  I96  1  0.50348521  0.83746787  -0.00020212  1
  I  I97  1  0.50355494  0.83257865  0.33461318  1
  I  I98  1  0.50322480  0.83378618  0.66547914  1
  I  I99  1  0.82717717  0.16539958  -0.00419724  1
  I  I100  1  0.83425251  0.16766635  0.33332240  1
  I  I101  1  0.83205552  0.16315492  0.66892614  1
  I  I102  1  0.83472382  0.50311368  -0.00007224  1
  I  I103  1  0.83587924  0.49716911  0.33356958  1
  I  I104  1  0.83704363  0.50441467  0.66655276  1
  I  I105  1  0.82865769  0.83334435  0.00249870  1
  I  I106  1  0.82484182  0.83343683  0.33397945  1
  I  I107  1  0.82954496  0.83395096  0.66426416  1
  I  I108  1  0.00009496  0.16383823  0.16570879  1
  I  I109  1  0.00240045  0.17152529  0.50177679  1
  I  I110  1  -0.00151575  0.16754739  0.83173699  1
  I  I111  1  0.00399954  0.50176183  0.17048576  1
  I  I112  1  0.00350847  0.49600498  0.49955286  1
  I  I113  1  0.00398555  0.49997023  0.82930819  1
  I  I114  1  -0.00295751  0.83126459  0.17359064  1
  I  I115  1  -0.00274951  0.83303426  0.49415366  1
  I  I116  1  -0.00009175  0.83448452  0.83354151  1
  I  I117  1  0.33338998  0.16281031  0.16132310  1
  I  I118  1  0.33491412  0.16512887  0.50590120  1
  I  I119  1  0.33664684  0.16245584  0.83031120  1
  I  I120  1  0.33057116  0.50324171  0.16495907  1
  I  I121  1  0.33326954  0.50254200  0.50026350  1
  I  I122  1  0.33055042  0.49955348  0.83406819  1
  I  I123  1  0.33670837  0.83186009  0.16884337  1
  I  I124  1  0.33689411  0.83269960  0.49942024  1
  I  I125  1  0.33834101  0.84086951  0.83145218  1
  I  I126  1  0.66660376  0.17011232  0.17186167  1
  I  I127  1  0.66319261  0.16822114  0.50302765  1
  I  I128  1  0.66473495  0.16121573  0.82519901  1
  I  I129  1  0.66662092  0.49866397  0.16788763  1
  I  I130  1  0.66323279  0.49837203  0.50144852  1
  I  I131  1  0.66635625  0.50265920  0.83122965  1
  I  I132  1  0.66551758  0.83315037  0.16933326  1
  I  I133  1  0.66444073  0.83322832  0.49921769  1
  I  I134  1  0.66294381  0.83390614  0.83175742  1
