# generated using pymatgen
data_Cs27Sn13Pb14I81
_symmetry_space_group_name_H-M   'P 1'
_cell_length_a   18.97330484
_cell_length_b   18.97572659
_cell_length_c   18.98189484
_cell_angle_alpha   90.00023301
_cell_angle_beta   89.99841511
_cell_angle_gamma   90.00050654
_symmetry_Int_Tables_number   1
_chemical_formula_structural   Cs27Sn13Pb14I81
_chemical_formula_sum   'Cs27 Sn13 Pb14 I81'
_cell_volume   6834.09421398
_cell_formula_units_Z   1
loop_
 _symmetry_equiv_pos_site_id
 _symmetry_equiv_pos_as_xyz
  1  'x, y, z'
loop_
 _atom_site_type_symbol
 _atom_site_label
 _atom_site_symmetry_multiplicity
 _atom_site_fract_x
 _atom_site_fract_y
 _atom_site_fract_z
 _atom_site_occupancy
  Cs  Cs0  1  0.00026879  0.01019274  0.00075738  1
  Cs  Cs1  1  -0.00933590  -0.00059121  0.33332595  1
  Cs  Cs2  1  0.00122489  0.00106431  0.66483730  1
  Cs  Cs3  1  0.00197252  0.32699857  -0.00094211  1
  Cs  Cs4  1  0.00247564  0.33424360  0.33239415  1
  Cs  Cs5  1  0.00225400  0.33417167  0.66905578  1
  Cs  Cs6  1  -0.00133727  0.66571626  0.00162566  1
  Cs  Cs7  1  -0.00026432  0.66785021  0.33398906  1
  Cs  Cs8  1  0.00694352  0.66615572  0.66420132  1
  Cs  Cs9  1  0.33054764  -0.00173574  -0.00013782  1
  Cs  Cs10  1  0.33414947  0.00443156  0.33281849  1
  Cs  Cs11  1  0.33459120  -0.00314392  0.66633996  1
  Cs  Cs12  1  0.33226424  0.33071195  0.00402980  1
  Cs  Cs13  1  0.33502691  0.32868699  0.33126948  1
  Cs  Cs14  1  0.33175843  0.33494831  0.66493464  1
  Cs  Cs15  1  0.33470127  0.66772768  0.00086399  1
  Cs  Cs16  1  0.33270180  0.66609199  0.33213984  1
  Cs  Cs17  1  0.33064833  0.66702910  0.66629493  1
  Cs  Cs18  1  0.66997323  -0.00327271  -0.00217721  1
  Cs  Cs19  1  0.67409173  0.00435457  0.33610487  1
  Cs  Cs20  1  0.66548213  0.00209907  0.66622879  1
  Cs  Cs21  1  0.66566850  0.33615259  -0.00051765  1
  Cs  Cs22  1  0.66254996  0.33122574  0.33513894  1
  Cs  Cs23  1  0.66723167  0.33367378  0.66680977  1
  Cs  Cs24  1  0.66544956  0.66573944  -0.00101229  1
  Cs  Cs25  1  0.66787173  0.66610316  0.33270871  1
  Cs  Cs26  1  0.66476940  0.66515698  0.66935472  1
  Sn  Sn27  1  0.50022304  0.49994153  0.83266139  1
  Sn  Sn28  1  0.83272718  0.50044090  0.50039848  1
  Sn  Sn29  1  0.83316654  0.83226333  0.83321809  1
  Sn  Sn30  1  0.49984410  0.16683591  0.83360643  1
  Sn  Sn31  1  0.16600400  0.50089507  0.16644571  1
  Sn  Sn32  1  0.16681997  0.83279424  0.16656653  1
  Sn  Sn33  1  0.83296048  0.50126978  0.83314557  1
  Sn  Sn34  1  0.49975973  0.83325057  0.16710506  1
  Sn  Sn35  1  0.16659254  0.16641476  0.50014276  1
  Sn  Sn36  1  0.50056810  0.50096533  0.50057823  1
  Sn  Sn37  1  0.50054730  0.83312069  0.83328128  1
  Sn  Sn38  1  0.50019261  0.83262574  0.49965469  1
  Sn  Sn39  1  0.83413842  0.50028260  0.16643613  1
  Pb  Pb40  1  0.16680161  0.50014247  0.83588686  1
  Pb  Pb41  1  0.16665350  0.16604350  0.16866977  1
  Pb  Pb42  1  0.83290468  0.17018944  0.16660340  1
  Pb  Pb43  1  0.83118000  0.16705118  0.83312335  1
  Pb  Pb44  1  0.16941092  0.16658633  0.83093335  1
  Pb  Pb45  1  0.50028815  0.16289405  0.16395441  1
  Pb  Pb46  1  0.16619819  0.83322658  0.83555730  1
  Pb  Pb47  1  0.83569604  0.16976481  0.50042527  1
  Pb  Pb48  1  0.16891697  0.83526254  0.49722558  1
  Pb  Pb49  1  0.49893408  0.16685924  0.50192835  1
  Pb  Pb50  1  0.83321916  0.83155255  0.16450027  1
  Pb  Pb51  1  0.83101593  0.83091812  0.50283601  1
  Pb  Pb52  1  0.50021570  0.50148454  0.16675635  1
  Pb  Pb53  1  0.16729491  0.49901359  0.49763603  1
  I  I54  1  0.17356474  -0.00317733  0.16633281  1
  I  I55  1  0.17048709  0.00269392  0.49951212  1
  I  I56  1  0.16691535  -0.00017196  0.83606546  1
  I  I57  1  0.16233337  0.33614469  0.16736805  1
  I  I58  1  0.16911642  0.33151088  0.49764267  1
  I  I59  1  0.16718917  0.33356355  0.83611540  1
  I  I60  1  0.16763798  0.66644621  0.16706589  1
  I  I61  1  0.16589202  0.66671809  0.50007916  1
  I  I62  1  0.17135976  0.66657191  0.83090823  1
  I  I63  1  0.49246243  -0.00542813  0.16716418  1
  I  I64  1  0.49640592  -0.00289903  0.50153390  1
  I  I65  1  0.50303504  -0.00171450  0.83333560  1
  I  I66  1  0.49917526  0.33354226  0.16655216  1
  I  I67  1  0.50250930  0.33672923  0.50415258  1
  I  I68  1  0.50389966  0.33511680  0.82821394  1
  I  I69  1  0.49875540  0.66946818  0.16216829  1
  I  I70  1  0.50247193  0.66615419  0.50468638  1
  I  I71  1  0.50435673  0.66665404  0.83322867  1
  I  I72  1  0.83430711  -0.00047138  0.16473864  1
  I  I73  1  0.83288381  -0.00033630  0.50071333  1
  I  I74  1  0.82828485  -0.00306611  0.83463059  1
  I  I75  1  0.83933535  0.33898819  0.16299689  1
  I  I76  1  0.82599755  0.33832324  0.50203706  1
  I  I77  1  0.82903105  0.33733613  0.83361041  1
  I  I78  1  0.83422086  0.66323542  0.16782404  1
  I  I79  1  0.83271861  0.66267336  0.49737323  1
  I  I80  1  0.82378472  0.66539690  0.83455723  1
  I  I81  1  0.16712647  0.16698800  0.00013530  1
  I  I82  1  0.17072823  0.16882204  0.33595208  1
  I  I83  1  0.16698589  0.16870821  0.66360708  1
  I  I84  1  0.16435234  0.50322796  0.00381250  1
  I  I85  1  0.16314083  0.50325477  0.32994870  1
  I  I86  1  0.16482646  0.49778934  0.66647820  1
  I  I87  1  0.17381817  0.82903276  0.00341322  1
  I  I88  1  0.17219620  0.82858256  0.32944142  1
  I  I89  1  0.16778768  0.83478240  0.66645481  1
  I  I90  1  0.49981405  0.17035289  -0.00415727  1
  I  I91  1  0.49776224  0.16786627  0.33357981  1
  I  I92  1  0.49891282  0.16284858  0.66974268  1
  I  I93  1  0.50272982  0.50108008  -0.00285882  1
  I  I94  1  0.50263915  0.50444655  0.33586015  1
  I  I95  1  0.50675014  0.50356547  0.66722556  1
  I  I96  1  0.49940799  0.83254447  -0.00093894  1
  I  I97  1  0.49410452  0.82650653  0.33355506  1
  I  I98  1  0.50428133  0.83306973  0.66745527  1
  I  I99  1  0.83398950  0.16792733  -0.00033390  1
  I  I100  1  0.83274259  0.16639340  0.33360935  1
  I  I101  1  0.83426589  0.16844651  0.66680482  1
  I  I102  1  0.83178435  0.50436005  -0.00089933  1
  I  I103  1  0.83303321  0.49942691  0.33344851  1
  I  I104  1  0.82708035  0.50248893  0.66730546  1
  I  I105  1  0.82608926  0.82649660  -0.00327558  1
  I  I106  1  0.83232628  0.83195177  0.33334787  1
  I  I107  1  0.82726514  0.82846675  0.67076641  1
  I  I108  1  0.00002522  0.16250638  0.16637473  1
  I  I109  1  0.00324921  0.16772864  0.49885272  1
  I  I110  1  -0.00007008  0.16669486  0.83351265  1
  I  I111  1  -0.00042683  0.50611911  0.16738611  1
  I  I112  1  -0.00270434  0.49714735  0.50266289  1
  I  I113  1  -0.00355058  0.50508205  0.83021150  1
  I  I114  1  0.00225269  0.83000021  0.16532154  1
  I  I115  1  -0.00021528  0.83331960  0.50027653  1
  I  I116  1  -0.00334233  0.82656192  0.83476866  1
  I  I117  1  0.33350445  0.17245218  0.16648611  1
  I  I118  1  0.33137345  0.16944919  0.50050585  1
  I  I119  1  0.33759403  0.16636318  0.83346846  1
  I  I120  1  0.33152255  0.50231016  0.16680496  1
  I  I121  1  0.33673658  0.50236393  0.50408028  1
  I  I122  1  0.33712033  0.50166228  0.82950063  1
  I  I123  1  0.33429106  0.82670889  0.16422740  1
  I  I124  1  0.33749525  0.82698554  0.50604958  1
  I  I125  1  0.33712721  0.83240021  0.83199628  1
  I  I126  1  0.66634790  0.16711920  0.16843591  1
  I  I127  1  0.66661933  0.16551013  0.50066301  1
  I  I128  1  0.66307432  0.16628074  0.83130546  1
  I  I129  1  0.66912541  0.50183751  0.16576671  1
  I  I130  1  0.66593745  0.50315529  0.49888914  1
  I  I131  1  0.66597318  0.50069084  0.83511242  1
  I  I132  1  0.66373532  0.83111461  0.16626939  1
  I  I133  1  0.66248536  0.83288090  0.49501342  1
  I  I134  1  0.66469386  0.83225405  0.83625732  1
