# generated using pymatgen
data_Cs27Sn13Pb14I81
_symmetry_space_group_name_H-M   'P 1'
_cell_length_a   18.97017178
_cell_length_b   18.98090704
_cell_length_c   18.98090701
_cell_angle_alpha   90.00200214
_cell_angle_beta   90.00056842
_cell_angle_gamma   90.00056853
_symmetry_Int_Tables_number   1
_chemical_formula_structural   Cs27Sn13Pb14I81
_chemical_formula_sum   'Cs27 Sn13 Pb14 I81'
_cell_volume   6834.47543441
_cell_formula_units_Z   1
loop_
 _symmetry_equiv_pos_site_id
 _symmetry_equiv_pos_as_xyz
  1  'x, y, z'
loop_
 _atom_site_type_symbol
 _atom_site_label
 _atom_site_symmetry_multiplicity
 _atom_site_fract_x
 _atom_site_fract_y
 _atom_site_fract_z
 _atom_site_occupancy
  Cs  Cs0  1  0.00085304  -0.00105701  -0.00049314  1
  Cs  Cs1  1  -0.00080576  0.00025269  0.33159254  1
  Cs  Cs2  1  0.00261345  0.00127446  0.66839688  1
  Cs  Cs3  1  0.00004402  0.33245226  0.00431830  1
  Cs  Cs4  1  0.00164065  0.33411130  0.33064064  1
  Cs  Cs5  1  -0.00458672  0.33256797  0.66614232  1
  Cs  Cs6  1  0.00132159  0.66956335  0.00151428  1
  Cs  Cs7  1  -0.00194515  0.66575120  0.33209982  1
  Cs  Cs8  1  -0.00056587  0.66689091  0.66675942  1
  Cs  Cs9  1  0.33389906  -0.00009267  -0.00022427  1
  Cs  Cs10  1  0.33792004  0.00052427  0.33409884  1
  Cs  Cs11  1  0.33071976  -0.00173011  0.66539228  1
  Cs  Cs12  1  0.33527843  0.33456692  0.00091549  1
  Cs  Cs13  1  0.33169268  0.33602597  0.33255527  1
  Cs  Cs14  1  0.33413924  0.33507422  0.66641383  1
  Cs  Cs15  1  0.33201186  0.66515239  -0.00289669  1
  Cs  Cs16  1  0.33328936  0.66234836  0.33421443  1
  Cs  Cs17  1  0.33248044  0.66715969  0.66772381  1
  Cs  Cs18  1  0.66396301  -0.00105381  0.00284128  1
  Cs  Cs19  1  0.65852283  -0.00758632  0.33774138  1
  Cs  Cs20  1  0.66666677  0.00641570  0.66025097  1
  Cs  Cs21  1  0.66529242  0.33289306  -0.00624227  1
  Cs  Cs22  1  0.66666668  0.33263477  0.33403188  1
  Cs  Cs23  1  0.67481053  0.32892539  0.67425292  1
  Cs  Cs24  1  0.66666666  0.66770034  -0.00103349  1
  Cs  Cs25  1  0.66804097  0.67290896  0.33377365  1
  Cs  Cs26  1  0.66937042  0.66382540  0.66772066  1
  Sn  Sn27  1  0.16662539  0.83304329  0.49837182  1
  Sn  Sn28  1  0.50180987  0.50003220  0.16733902  1
  Sn  Sn29  1  0.16666665  0.16700174  0.49966496  1
  Sn  Sn30  1  0.16702318  0.49990398  0.50121198  1
  Sn  Sn31  1  0.83170291  0.83367196  0.83309099  1
  Sn  Sn32  1  0.16670798  0.16829493  0.83362336  1
  Sn  Sn33  1  0.83335896  0.16683219  0.16712522  1
  Sn  Sn34  1  0.16693690  0.83437848  0.16785084  1
  Sn  Sn35  1  0.49997435  0.49954146  0.49983447  1
  Sn  Sn36  1  0.16639647  0.49881575  0.83228819  1
  Sn  Sn37  1  0.83152347  0.49932769  0.16663444  1
  Sn  Sn38  1  0.16631014  0.16545464  0.16676271  1
  Sn  Sn39  1  0.50163041  0.83357569  0.83299468  1
  Pb  Pb40  1  0.49764495  0.16410862  0.83327392  1
  Pb  Pb41  1  0.49717451  0.83074905  0.16521082  1
  Pb  Pb42  1  0.83324435  0.49989351  0.49775288  1
  Pb  Pb43  1  0.49790860  0.16980493  0.50010380  1
  Pb  Pb44  1  0.49833505  0.50114568  0.83274969  1
  Pb  Pb45  1  0.16666669  0.83347996  0.83318668  1
  Pb  Pb46  1  0.16666665  0.49975597  0.16691075  1
  Pb  Pb47  1  0.83557424  0.16437586  0.83584921  1
  Pb  Pb48  1  0.50008898  0.16891381  0.16677315  1
  Pb  Pb49  1  0.49775909  0.83081744  0.50229087  1
  Pb  Pb50  1  0.83615875  0.50145585  0.83591764  1
  Pb  Pb51  1  0.83542474  0.16656286  0.49686175  1
  Pb  Pb52  1  0.83499829  0.83391703  0.16552095  1
  Pb  Pb53  1  0.83568841  0.83339276  0.50255801  1
  I  I54  1  0.16070341  0.00095181  0.16718144  1
  I  I55  1  0.16473123  0.00020922  0.50106766  1
  I  I56  1  0.16632483  0.00224484  0.83192944  1
  I  I57  1  0.16571806  0.33095016  0.16796305  1
  I  I58  1  0.17070493  0.33360315  0.49965270  1
  I  I59  1  0.16730248  0.33323054  0.83198746  1
  I  I60  1  0.16654620  0.66837423  0.16755952  1
  I  I61  1  0.17048920  0.66607702  0.50074078  1
  I  I62  1  0.16718491  0.66481812  0.83164513  1
  I  I63  1  0.50094366  -0.00024190  0.16489026  1
  I  I64  1  0.49818416  -0.00017275  0.50086147  1
  I  I65  1  0.49962655  -0.00385639  0.83524726  1
  I  I66  1  0.49617675  0.33704905  0.16914111  1
  I  I67  1  0.49126742  0.33775370  0.49555782  1
  I  I68  1  0.49842036  0.33344931  0.83405123  1
  I  I69  1  0.50265895  0.66289788  0.16990240  1
  I  I70  1  0.49116737  0.66318899  0.49589533  1
  I  I71  1  0.49797691  0.66903747  0.83442106  1
  I  I72  1  0.84066254  0.00270384  0.16334724  1
  I  I73  1  0.83610969  -0.00001735  0.49849436  1
  I  I74  1  0.83461699  -0.00320445  0.83657022  1
  I  I75  1  0.83902133  0.33332562  0.16681177  1
  I  I76  1  0.83642326  0.33334907  0.50191881  1
  I  I77  1  0.83370946  0.33313866  0.83286658  1
  I  I78  1  0.83318768  0.66431791  0.16503189  1
  I  I79  1  0.83832085  0.66654881  0.49746368  1
  I  I80  1  0.83457098  0.66924475  0.83635291  1
  I  I81  1  0.16284409  0.16592576  0.00058962  1
  I  I82  1  0.16262833  0.16701419  0.33306353  1
  I  I83  1  0.16860217  0.16559877  0.66645748  1
  I  I84  1  0.16678706  0.49910732  -0.00170757  1
  I  I85  1  0.16761536  0.49870335  0.33571653  1
  I  I86  1  0.17262989  0.49948517  0.66571486  1
  I  I87  1  0.16614812  0.83502144  0.00184857  1
  I  I88  1  0.16603090  0.83467938  0.33343603  1
  I  I89  1  0.16700866  0.83473739  0.66442178  1
  I  I90  1  0.49501229  0.16920342  0.00011786  1
  I  I91  1  0.49691061  0.16474759  0.33331760  1
  I  I92  1  0.49722339  0.16817209  0.66668400  1
  I  I93  1  0.50014558  0.50163488  0.00234871  1
  I  I94  1  0.49431209  0.49985491  0.33334106  1
  I  I95  1  0.49267075  0.50331931  0.66396277  1
  I  I96  1  0.49876251  0.83031304  -0.00257808  1
  I  I97  1  0.49962454  0.83380030  0.33352801  1
  I  I98  1  0.49871537  0.83009671  0.66987113  1
  I  I99  1  0.84216614  0.17077131  0.00347769  1
  I  I100  1  0.84206550  0.17110882  0.32891294  1
  I  I101  1  0.83514934  0.16580509  0.66683941  1
  I  I102  1  0.83067444  0.49676458  0.00376875  1
  I  I103  1  0.83715623  0.49752576  0.32961758  1
  I  I104  1  0.83238969  0.50177601  0.66690855  1
  I  I105  1  0.83535663  0.83224512  -0.00237078  1
  I  I106  1  0.83491232  0.83261527  0.33321738  1
  I  I107  1  0.83370739  0.83141997  0.67052296  1
  I  I108  1  0.00201073  0.16986046  0.16655073  1
  I  I109  1  0.00489069  0.16957747  0.50251819  1
  I  I110  1  0.00429543  0.16696285  0.83131802  1
  I  I111  1  -0.00150294  0.49943142  0.16563090  1
  I  I112  1  0.00377967  0.50000034  0.50220685  1
  I  I113  1  0.00440414  0.49997826  0.82916189  1
  I  I114  1  0.00346740  0.83131651  0.16620394  1
  I  I115  1  0.00484565  0.83009389  0.49902254  1
  I  I116  1  -0.00123663  0.83304722  0.83436617  1
  I  I117  1  0.32955366  0.16445969  0.16666652  1
  I  I118  1  0.32844264  0.16414843  0.49708896  1
  I  I119  1  0.32848771  0.16764367  0.83657269  1
  I  I120  1  0.33483627  0.50103592  0.16723522  1
  I  I121  1  0.33132264  0.50011610  0.49680625  1
  I  I122  1  0.32986588  0.50046316  0.83535019  1
  I  I123  1  0.32892920  0.83750474  0.16668841  1
  I  I124  1  0.32903793  0.83534863  0.49970327  1
  I  I125  1  0.33456998  0.83230056  0.83361998  1
  I  I126  1  0.66974968  0.17015278  0.16425787  1
  I  I127  1  0.66666668  0.16769687  0.49897034  1
  I  I128  1  0.66700397  0.16772813  0.83535880  1
  I  I129  1  0.66666672  0.49540067  0.17126588  1
  I  I130  1  0.66358367  0.50240835  0.49651415  1
  I  I131  1  0.66685285  0.50100785  0.83154627  1
  I  I132  1  0.66648043  0.83512041  0.16565828  1
  I  I133  1  0.66632935  0.83130780  0.49893932  1
  I  I134  1  0.66666664  0.82972259  0.83694359  1
