# generated using pymatgen
data_Cs27Sn14Pb13I81
_symmetry_space_group_name_H-M   'P 1'
_cell_length_a   18.96466328
_cell_length_b   18.98389534
_cell_length_c   18.97954441
_cell_angle_alpha   90.00065342
_cell_angle_beta   89.99949668
_cell_angle_gamma   89.99909628
_symmetry_Int_Tables_number   1
_chemical_formula_structural   Cs27Sn14Pb13I81
_chemical_formula_sum   'Cs27 Sn14 Pb13 I81'
_cell_volume   6833.07598836
_cell_formula_units_Z   1
loop_
 _symmetry_equiv_pos_site_id
 _symmetry_equiv_pos_as_xyz
  1  'x, y, z'
loop_
 _atom_site_type_symbol
 _atom_site_label
 _atom_site_symmetry_multiplicity
 _atom_site_fract_x
 _atom_site_fract_y
 _atom_site_fract_z
 _atom_site_occupancy
  Cs  Cs0  1  -0.00058832  -0.00013189  -0.00016143  1
  Cs  Cs1  1  0.00236146  0.00010292  0.33233467  1
  Cs  Cs2  1  0.00180960  -0.00300772  0.66722543  1
  Cs  Cs3  1  0.00024291  0.33154289  0.00078784  1
  Cs  Cs4  1  0.00550545  0.33134405  0.32847863  1
  Cs  Cs5  1  -0.00053928  0.33500564  0.66934680  1
  Cs  Cs6  1  -0.00083613  0.66826808  -0.00222013  1
  Cs  Cs7  1  -0.00222814  0.66826598  0.33266197  1
  Cs  Cs8  1  -0.00133209  0.66842424  0.66938842  1
  Cs  Cs9  1  0.33621178  -0.00360780  -0.00215009  1
  Cs  Cs10  1  0.33513108  0.00173375  0.33564327  1
  Cs  Cs11  1  0.33178561  0.00058904  0.66593847  1
  Cs  Cs12  1  0.33266360  0.33714919  0.00081179  1
  Cs  Cs13  1  0.32765823  0.33824035  0.33067238  1
  Cs  Cs14  1  0.33537484  0.33676617  0.66662856  1
  Cs  Cs15  1  0.33978832  0.66822913  0.00210226  1
  Cs  Cs16  1  0.33297769  0.65703997  0.33171128  1
  Cs  Cs17  1  0.33279567  0.66247137  0.66571129  1
  Cs  Cs18  1  0.66325124  0.00263852  -0.00033678  1
  Cs  Cs19  1  0.66618786  0.00075904  0.33477023  1
  Cs  Cs20  1  0.66611472  0.00218484  0.66368897  1
  Cs  Cs21  1  0.66675917  0.32756713  -0.00343046  1
  Cs  Cs22  1  0.66696031  0.33000910  0.33614157  1
  Cs  Cs23  1  0.66485461  0.33140589  0.66545946  1
  Cs  Cs24  1  0.66373733  0.66861808  0.00268653  1
  Cs  Cs25  1  0.66828541  0.66765469  0.33231748  1
  Cs  Cs26  1  0.66984997  0.66605959  0.66524414  1
  Sn  Sn27  1  0.83353044  0.50077885  0.83385373  1
  Sn  Sn28  1  0.83271401  0.83362469  0.49994996  1
  Sn  Sn29  1  0.50032400  0.16594057  0.49874151  1
  Sn  Sn30  1  0.49984254  0.16666195  0.16752025  1
  Sn  Sn31  1  0.83379118  0.83302583  0.16639390  1
  Sn  Sn32  1  0.16606176  0.83295452  0.83433966  1
  Sn  Sn33  1  0.83319754  0.50030216  0.16624304  1
  Sn  Sn34  1  0.16654518  0.16645652  0.83320703  1
  Sn  Sn35  1  0.50039987  0.83351718  0.49996475  1
  Sn  Sn36  1  0.83352913  0.49981499  0.49973813  1
  Sn  Sn37  1  0.16634502  0.83341614  0.16617652  1
  Sn  Sn38  1  0.83366237  0.16641642  0.49995138  1
  Sn  Sn39  1  0.83342348  0.83299590  0.83363288  1
  Sn  Sn40  1  0.16575347  0.50071174  0.83361037  1
  Pb  Pb41  1  0.50324989  0.49717862  0.16669781  1
  Pb  Pb42  1  0.16340157  0.50009122  0.50219407  1
  Pb  Pb43  1  0.50231829  0.49985525  0.49986998  1
  Pb  Pb44  1  0.16916516  0.16406975  0.16431438  1
  Pb  Pb45  1  0.16698377  0.16675263  0.50180788  1
  Pb  Pb46  1  0.50013149  0.83459271  0.16929336  1
  Pb  Pb47  1  0.50040835  0.83324139  0.83048603  1
  Pb  Pb48  1  0.16408625  0.50272268  0.16397852  1
  Pb  Pb49  1  0.83487396  0.16630791  0.83109505  1
  Pb  Pb50  1  0.49722481  0.16658192  0.83251038  1
  Pb  Pb51  1  0.16674014  0.83320125  0.49982182  1
  Pb  Pb52  1  0.83220446  0.16615249  0.16888417  1
  Pb  Pb53  1  0.50103960  0.50031467  0.83348949  1
  I  I54  1  0.15860865  -0.00360332  0.16081882  1
  I  I55  1  0.16172453  -0.00020653  0.50393744  1
  I  I56  1  0.16277615  -0.00157569  0.83592151  1
  I  I57  1  0.16645759  0.33351062  0.16517747  1
  I  I58  1  0.16633538  0.33340642  0.50282549  1
  I  I59  1  0.16236229  0.33415858  0.83052777  1
  I  I60  1  0.16588629  0.67058545  0.16247331  1
  I  I61  1  0.16934077  0.66684934  0.50189886  1
  I  I62  1  0.16038385  0.66740963  0.83569463  1
  I  I63  1  0.50246718  0.00236788  0.16900814  1
  I  I64  1  0.50943644  0.00024270  0.49730978  1
  I  I65  1  0.49977280  -0.00009595  0.83470377  1
  I  I66  1  0.50081219  0.32952769  0.17360835  1
  I  I67  1  0.50522051  0.33010900  0.49826838  1
  I  I68  1  0.50043348  0.33323287  0.83116720  1
  I  I69  1  0.49791806  0.66678481  0.16761307  1
  I  I70  1  0.50427035  0.66953449  0.50169536  1
  I  I71  1  0.49543856  0.66695739  0.83162224  1
  I  I72  1  0.83574963  -0.00342037  0.16616019  1
  I  I73  1  0.82901760  -0.00096253  0.50072821  1
  I  I74  1  0.83772308  -0.00326353  0.83327700  1
  I  I75  1  0.83057097  0.33588192  0.16608640  1
  I  I76  1  0.82899102  0.33343598  0.50183161  1
  I  I77  1  0.83736821  0.33611931  0.83322466  1
  I  I78  1  0.83669689  0.66776410  0.17074870  1
  I  I79  1  0.82994612  0.66745049  0.50085106  1
  I  I80  1  0.84116767  0.66728260  0.82789175  1
  I  I81  1  0.16642514  0.16879660  -0.00357857  1
  I  I82  1  0.16487154  0.16463919  0.33308425  1
  I  I83  1  0.16691020  0.16297698  0.66998151  1
  I  I84  1  0.15975083  0.49651125  -0.00397244  1
  I  I85  1  0.16628810  0.50076307  0.33278665  1
  I  I86  1  0.16150533  0.50356012  0.67068437  1
  I  I87  1  0.15822543  0.83422574  -0.00117672  1
  I  I88  1  0.16176159  0.83511474  0.33060720  1
  I  I89  1  0.16303905  0.83337674  0.67001332  1
  I  I90  1  0.49979391  0.16661101  0.00222283  1
  I  I91  1  0.50569152  0.16130458  0.33487456  1
  I  I92  1  0.50382146  0.16310299  0.66316891  1
  I  I93  1  0.50241634  0.49748333  0.00017615  1
  I  I94  1  0.50090142  0.50252242  0.33336681  1
  I  I95  1  0.50105773  0.49741654  0.66653059  1
  I  I96  1  0.50211738  0.83587015  0.00020019  1
  I  I97  1  0.50569871  0.83647346  0.33695035  1
  I  I98  1  0.50479026  0.84037381  0.66275944  1
  I  I99  1  0.83140104  0.16721898  0.00001094  1
  I  I100  1  0.83140602  0.16625668  0.33708387  1
  I  I101  1  0.82759650  0.16637597  0.66301803  1
  I  I102  1  0.83750457  0.50705620  -0.00067707  1
  I  I103  1  0.83053464  0.50423383  0.33362801  1
  I  I104  1  0.83699688  0.50309895  0.66681276  1
  I  I105  1  0.83884635  0.82624519  -0.00024371  1
  I  I106  1  0.83341645  0.83048440  0.33349234  1
  I  I107  1  0.83375881  0.83105526  0.66668883  1
  I  I108  1  0.00004300  0.16831029  0.16792557  1
  I  I109  1  -0.00324061  0.16521439  0.50207672  1
  I  I110  1  0.00276461  0.16606671  0.83148696  1
  I  I111  1  -0.00418801  0.49981588  0.17033901  1
  I  I112  1  -0.00519411  0.50153997  0.49847256  1
  I  I113  1  -0.00127683  0.50091401  0.83155977  1
  I  I114  1  -0.00175742  0.83072729  0.16798200  1
  I  I115  1  -0.00375447  0.83354210  0.50081019  1
  I  I116  1  -0.00088847  0.83289823  0.83101819  1
  I  I117  1  0.33675135  0.16438056  0.17434652  1
  I  I118  1  0.33671618  0.15936998  0.49876271  1
  I  I119  1  0.32919820  0.16548072  0.83144325  1
  I  I120  1  0.33305934  0.50093970  0.16506899  1
  I  I121  1  0.33324227  0.49980839  0.50248584  1
  I  I122  1  0.33000506  0.50035614  0.83271962  1
  I  I123  1  0.33087148  0.83653319  0.16129660  1
  I  I124  1  0.33610498  0.84133865  0.50109971  1
  I  I125  1  0.32996226  0.83305735  0.83705345  1
  I  I126  1  0.66428735  0.16483096  0.16778565  1
  I  I127  1  0.66744386  0.16574178  0.49798244  1
  I  I128  1  0.66668235  0.16697668  0.83447143  1
  I  I129  1  0.67157367  0.50866630  0.16447956  1
  I  I130  1  0.67110865  0.50051410  0.50388312  1
  I  I131  1  0.67143599  0.50492798  0.83218957  1
  I  I132  1  0.67021590  0.83022296  0.16430066  1
  I  I133  1  0.66912559  0.83400886  0.50032907  1
  I  I134  1  0.67057378  0.82818310  0.83584765  1
