# generated using pymatgen
data_Cs27Sn13Pb14I81
_symmetry_space_group_name_H-M   'P 1'
_cell_length_a   18.99134914
_cell_length_b   18.98528257
_cell_length_c   18.99617518
_cell_angle_alpha   90.00127715
_cell_angle_beta   89.99938933
_cell_angle_gamma   89.99940217
_symmetry_Int_Tables_number   1
_chemical_formula_structural   Cs27Sn13Pb14I81
_chemical_formula_sum   'Cs27 Sn13 Pb14 I81'
_cell_volume   6849.18740290
_cell_formula_units_Z   1
loop_
 _symmetry_equiv_pos_site_id
 _symmetry_equiv_pos_as_xyz
  1  'x, y, z'
loop_
 _atom_site_type_symbol
 _atom_site_label
 _atom_site_symmetry_multiplicity
 _atom_site_fract_x
 _atom_site_fract_y
 _atom_site_fract_z
 _atom_site_occupancy
  Cs  Cs0  1  0.00143699  0.00143798  0.00841406  1
  Cs  Cs1  1  -0.00531329  -0.00125542  0.32606519  1
  Cs  Cs2  1  0.00139452  0.00000840  0.66514607  1
  Cs  Cs3  1  -0.00015356  0.33576973  -0.00195822  1
  Cs  Cs4  1  0.00087776  0.33582490  0.33173122  1
  Cs  Cs5  1  0.00228800  0.33505278  0.66799544  1
  Cs  Cs6  1  -0.00013289  0.66485005  -0.00078536  1
  Cs  Cs7  1  -0.00267210  0.66777501  0.33243798  1
  Cs  Cs8  1  0.00047147  0.66536256  0.66703444  1
  Cs  Cs9  1  0.33334237  0.00008624  0.00149967  1
  Cs  Cs10  1  0.33087434  -0.00196732  0.33077943  1
  Cs  Cs11  1  0.33332650  -0.00300177  0.66789824  1
  Cs  Cs12  1  0.33300241  0.33385694  0.00395512  1
  Cs  Cs13  1  0.34283373  0.33412770  0.33489349  1
  Cs  Cs14  1  0.32913719  0.33347349  0.66167093  1
  Cs  Cs15  1  0.33435081  0.66807576  -0.00147617  1
  Cs  Cs16  1  0.33632563  0.66664394  0.33553932  1
  Cs  Cs17  1  0.33263370  0.66886945  0.66594304  1
  Cs  Cs18  1  0.66409902  0.01000710  -0.00290353  1
  Cs  Cs19  1  0.67635426  0.00238428  0.33615282  1
  Cs  Cs20  1  0.66545427  0.00848407  0.66561971  1
  Cs  Cs21  1  0.66591520  0.33021860  0.00160907  1
  Cs  Cs22  1  0.65515550  0.32845747  0.33433373  1
  Cs  Cs23  1  0.66726078  0.32477757  0.66512577  1
  Cs  Cs24  1  0.66579405  0.66513466  -0.00185384  1
  Cs  Cs25  1  0.66624515  0.66779980  0.33254467  1
  Cs  Cs26  1  0.66947708  0.66812893  0.66995641  1
  Sn  Sn27  1  0.16713143  0.50015362  0.83399901  1
  Sn  Sn28  1  0.83300164  0.49987170  0.49997603  1
  Sn  Sn29  1  0.83353802  0.50014544  0.16674276  1
  Sn  Sn30  1  0.50046897  0.83325068  0.16741354  1
  Sn  Sn31  1  0.49998394  0.83312261  0.49923483  1
  Sn  Sn32  1  0.83416739  0.83325100  0.83346891  1
  Sn  Sn33  1  0.16623899  0.16534447  0.50014497  1
  Sn  Sn34  1  0.16636643  0.16642301  0.83276549  1
  Sn  Sn35  1  0.16653860  0.50056139  0.16639794  1
  Sn  Sn36  1  0.16546938  0.83355283  0.83289056  1
  Sn  Sn37  1  0.83296369  0.50058398  0.83319311  1
  Sn  Sn38  1  0.49987286  0.49984349  0.83269248  1
  Sn  Sn39  1  0.16677739  0.83424825  0.50035950  1
  Pb  Pb40  1  0.16671686  0.16965165  0.16720252  1
  Pb  Pb41  1  0.50286469  0.50231821  0.50285875  1
  Pb  Pb42  1  0.50021529  0.83225225  0.83295717  1
  Pb  Pb43  1  0.49642665  0.17007010  0.83317335  1
  Pb  Pb44  1  0.83071907  0.83130058  0.16327651  1
  Pb  Pb45  1  0.49974364  0.16301212  0.16681141  1
  Pb  Pb46  1  0.83626293  0.16672523  0.83340619  1
  Pb  Pb47  1  0.16545662  0.50056646  0.49970231  1
  Pb  Pb48  1  0.49705509  0.16319852  0.50008611  1
  Pb  Pb49  1  0.50017260  0.50146664  0.16471565  1
  Pb  Pb50  1  0.83350284  0.17020547  0.16665318  1
  Pb  Pb51  1  0.83659678  0.16965222  0.50001620  1
  Pb  Pb52  1  0.16774860  0.83091717  0.16667422  1
  Pb  Pb53  1  0.83377533  0.83188882  0.50223316  1
  I  I54  1  0.16959883  -0.00022738  0.16330045  1
  I  I55  1  0.17158292  -0.00115264  0.51039030  1
  I  I56  1  0.16273955  -0.00121470  0.82760963  1
  I  I57  1  0.16217736  0.33770058  0.16117392  1
  I  I58  1  0.16252096  0.33177247  0.50461837  1
  I  I59  1  0.16642006  0.33471629  0.83269021  1
  I  I60  1  0.16316005  0.66311762  0.16124731  1
  I  I61  1  0.16930462  0.66948618  0.50420563  1
  I  I62  1  0.16597959  0.66625966  0.83288013  1
  I  I63  1  0.49678529  -0.00493490  0.16761150  1
  I  I64  1  0.49962291  -0.00470363  0.49881262  1
  I  I65  1  0.50110987  0.00011453  0.83406214  1
  I  I66  1  0.50003112  0.33359451  0.16526295  1
  I  I67  1  0.49962509  0.33334990  0.50066908  1
  I  I68  1  0.50308247  0.33817238  0.83495495  1
  I  I69  1  0.49887989  0.66900195  0.16977685  1
  I  I70  1  0.49101889  0.66972621  0.49735588  1
  I  I71  1  0.49574849  0.66420823  0.83362134  1
  I  I72  1  0.83194632  -0.00039132  0.16554974  1
  I  I73  1  0.83024573  -0.00008616  0.50253082  1
  I  I74  1  0.83644936  -0.00314824  0.83204876  1
  I  I75  1  0.83852875  0.33884896  0.16128032  1
  I  I76  1  0.83597922  0.33788349  0.50461220  1
  I  I77  1  0.83432588  0.33725816  0.83402006  1
  I  I78  1  0.83783020  0.66309289  0.16723787  1
  I  I79  1  0.83699331  0.66375242  0.50016641  1
  I  I80  1  0.83849272  0.66494398  0.83281778  1
  I  I81  1  0.16628577  0.16478766  -0.00309010  1
  I  I82  1  0.16616632  0.16262881  0.33652379  1
  I  I83  1  0.16665440  0.16941163  0.66773531  1
  I  I84  1  0.16241055  0.50015142  -0.00221500  1
  I  I85  1  0.16051311  0.50068048  0.33100277  1
  I  I86  1  0.16553551  0.50012825  0.66982505  1
  I  I87  1  0.16512805  0.83435646  -0.00335066  1
  I  I88  1  0.16978010  0.83564191  0.33615024  1
  I  I89  1  0.16935973  0.83071034  0.66774027  1
  I  I90  1  0.49796177  0.16401596  -0.00029499  1
  I  I91  1  0.49593789  0.17289364  0.33361353  1
  I  I92  1  0.50256943  0.16490498  0.66673333  1
  I  I93  1  0.50224753  0.50448543  -0.00306578  1
  I  I94  1  0.49952252  0.49944792  0.33353386  1
  I  I95  1  0.49653389  0.50404726  0.67052125  1
  I  I96  1  0.49928444  0.82909882  0.00133232  1
  I  I97  1  0.49217856  0.83029163  0.33422597  1
  I  I98  1  0.49701210  0.83014827  0.66454664  1
  I  I99  1  0.83551208  0.16733240  -0.00027994  1
  I  I100  1  0.83711181  0.16649904  0.33346448  1
  I  I101  1  0.83130386  0.16993952  0.66683219  1
  I  I102  1  0.83535062  0.50447718  -0.00139482  1
  I  I103  1  0.84187366  0.50088973  0.33286054  1
  I  I104  1  0.83512728  0.50460705  0.66842899  1
  I  I105  1  0.83944584  0.82551477  -0.00441440  1
  I  I106  1  0.83511836  0.83054457  0.33321070  1
  I  I107  1  0.83381353  0.82460412  0.67005161  1
  I  I108  1  0.00042626  0.16303491  0.16673035  1
  I  I109  1  0.00428510  0.16007853  0.50613750  1
  I  I110  1  0.00411177  0.17254578  0.82890700  1
  I  I111  1  0.00008246  0.50095934  0.16097741  1
  I  I112  1  -0.00232748  0.50193793  0.50492676  1
  I  I113  1  0.00035954  0.50041198  0.83403943  1
  I  I114  1  -0.00025806  0.83387576  0.16902166  1
  I  I115  1  0.00324227  0.83498578  0.50393033  1
  I  I116  1  0.00162430  0.82671597  0.82727115  1
  I  I117  1  0.33295336  0.17145333  0.16548909  1
  I  I118  1  0.32924007  0.16896408  0.50557565  1
  I  I119  1  0.32844410  0.16480866  0.82950334  1
  I  I120  1  0.33080622  0.50098136  0.16050121  1
  I  I121  1  0.33338879  0.49790236  0.50003811  1
  I  I122  1  0.33151878  0.50121405  0.83861104  1
  I  I123  1  0.33538517  0.82881977  0.16515236  1
  I  I124  1  0.33189063  0.83522755  0.50315120  1
  I  I125  1  0.33016075  0.83117190  0.83234369  1
  I  I126  1  0.66654449  0.16962130  0.16593603  1
  I  I127  1  0.66663889  0.16670039  0.49929558  1
  I  I128  1  0.66666509  0.16602656  0.83402775  1
  I  I129  1  0.66950158  0.50282477  0.16404804  1
  I  I130  1  0.67065567  0.50356882  0.49973430  1
  I  I131  1  0.66815376  0.50818816  0.83382407  1
  I  I132  1  0.66341151  0.82856129  0.17209996  1
  I  I133  1  0.66449940  0.82778662  0.49774320  1
  I  I134  1  0.66912286  0.82429159  0.83383489  1
