# generated using pymatgen
data_Cs27Sn13Pb14I81
_symmetry_space_group_name_H-M   'P 1'
_cell_length_a   18.99412110
_cell_length_b   18.98395393
_cell_length_c   18.99609432
_cell_angle_alpha   89.99844703
_cell_angle_beta   90.00071794
_cell_angle_gamma   90.00227565
_symmetry_Int_Tables_number   1
_chemical_formula_structural   Cs27Sn13Pb14I81
_chemical_formula_sum   'Cs27 Sn13 Pb14 I81'
_cell_volume   6849.67854723
_cell_formula_units_Z   1
loop_
 _symmetry_equiv_pos_site_id
 _symmetry_equiv_pos_as_xyz
  1  'x, y, z'
loop_
 _atom_site_type_symbol
 _atom_site_label
 _atom_site_symmetry_multiplicity
 _atom_site_fract_x
 _atom_site_fract_y
 _atom_site_fract_z
 _atom_site_occupancy
  Cs  Cs0  1  0.00143715  -0.00719694  0.00466133  1
  Cs  Cs1  1  0.00793549  0.00104019  0.32462951  1
  Cs  Cs2  1  0.00032524  0.00130399  0.66844249  1
  Cs  Cs3  1  -0.00037648  0.33310979  -0.00271347  1
  Cs  Cs4  1  -0.00029120  0.33545725  0.33393522  1
  Cs  Cs5  1  -0.00193663  0.33319365  0.66719677  1
  Cs  Cs6  1  0.00192639  0.67371039  -0.00213006  1
  Cs  Cs7  1  0.00013520  0.66291483  0.33278410  1
  Cs  Cs8  1  -0.00032661  0.66823198  0.66930399  1
  Cs  Cs9  1  0.33547779  0.00170483  0.00401547  1
  Cs  Cs10  1  0.32574301  0.00600924  0.34182786  1
  Cs  Cs11  1  0.33453362  0.00079974  0.65436930  1
  Cs  Cs12  1  0.33706965  0.33242471  -0.00549869  1
  Cs  Cs13  1  0.33057798  0.33147112  0.33266785  1
  Cs  Cs14  1  0.33398018  0.33113458  0.67337223  1
  Cs  Cs15  1  0.33463118  0.66625198  -0.00261970  1
  Cs  Cs16  1  0.33604611  0.66704360  0.33331358  1
  Cs  Cs17  1  0.33120662  0.66840001  0.66985214  1
  Cs  Cs18  1  0.66674482  -0.00202671  0.00303943  1
  Cs  Cs19  1  0.66501636  0.00187050  0.33206113  1
  Cs  Cs20  1  0.66553970  -0.00045062  0.66554853  1
  Cs  Cs21  1  0.66534913  0.33131929  -0.00129620  1
  Cs  Cs22  1  0.66848173  0.33683340  0.33207235  1
  Cs  Cs23  1  0.66983665  0.33302749  0.66861107  1
  Cs  Cs24  1  0.66474205  0.66924930  0.00102885  1
  Cs  Cs25  1  0.66527042  0.66471617  0.33413279  1
  Cs  Cs26  1  0.66747050  0.66698957  0.66456294  1
  Sn  Sn27  1  0.83322150  0.49994843  0.83357544  1
  Sn  Sn28  1  0.16565608  0.16611559  0.83345075  1
  Sn  Sn29  1  0.83443099  0.16683381  0.83302010  1
  Sn  Sn30  1  0.49978883  0.50033915  0.16730358  1
  Sn  Sn31  1  0.83338878  0.49999920  0.50028694  1
  Sn  Sn32  1  0.83384187  0.83382052  0.49944196  1
  Sn  Sn33  1  0.50005822  0.83352985  0.83354319  1
  Sn  Sn34  1  0.83348862  0.50015812  0.16596630  1
  Sn  Sn35  1  0.16689159  0.49997435  0.16675252  1
  Sn  Sn36  1  0.49964405  0.83274183  0.16668701  1
  Sn  Sn37  1  0.83354082  0.16632722  0.50017660  1
  Sn  Sn38  1  0.16686970  0.49997499  0.49992025  1
  Sn  Sn39  1  0.49963505  0.49985983  0.49981475  1
  Pb  Pb40  1  0.83142439  0.83078772  0.16944106  1
  Pb  Pb41  1  0.16992046  0.83057253  0.16680941  1
  Pb  Pb42  1  0.50081710  0.16348557  0.83324432  1
  Pb  Pb43  1  0.16656291  0.16965216  0.16402364  1
  Pb  Pb44  1  0.50161791  0.83133164  0.49925361  1
  Pb  Pb45  1  0.16957461  0.83680053  0.83316629  1
  Pb  Pb46  1  0.83338152  0.16862780  0.16639325  1
  Pb  Pb47  1  0.83190046  0.83394254  0.83167918  1
  Pb  Pb48  1  0.50268423  0.17011862  0.49994741  1
  Pb  Pb49  1  0.49988363  0.16701653  0.16700535  1
  Pb  Pb50  1  0.16357479  0.83069030  0.49997805  1
  Pb  Pb51  1  0.50246987  0.50136816  0.83336906  1
  Pb  Pb52  1  0.16416604  0.49900088  0.83348103  1
  Pb  Pb53  1  0.16377560  0.16958842  0.50183191  1
  I  I54  1  0.16788293  -0.00000116  0.16561084  1
  I  I55  1  0.16672450  0.00040816  0.50142159  1
  I  I56  1  0.15648442  0.00425430  0.83349859  1
  I  I57  1  0.16826520  0.33807090  0.17223029  1
  I  I58  1  0.16419754  0.33765004  0.49538466  1
  I  I59  1  0.16492673  0.33120882  0.83300200  1
  I  I60  1  0.16262986  0.66204651  0.16981426  1
  I  I61  1  0.16394904  0.66203841  0.49721873  1
  I  I62  1  0.16563377  0.66664878  0.83324312  1
  I  I63  1  0.50329391  -0.00329987  0.15983183  1
  I  I64  1  0.50253079  -0.00002327  0.50018825  1
  I  I65  1  0.50338326  -0.00394060  0.84081004  1
  I  I66  1  0.50114437  0.33775332  0.17107312  1
  I  I67  1  0.50281623  0.33849532  0.49397074  1
  I  I68  1  0.49905493  0.33321920  0.83337716  1
  I  I69  1  0.50120887  0.66457714  0.16649452  1
  I  I70  1  0.50446305  0.66289760  0.49855909  1
  I  I71  1  0.50298514  0.66883630  0.83451291  1
  I  I72  1  0.83033092  -0.00033106  0.16698251  1
  I  I73  1  0.83036377  0.00051611  0.50849293  1
  I  I74  1  0.83493103  0.00317966  0.82649917  1
  I  I75  1  0.83019143  0.33789224  0.17153856  1
  I  I76  1  0.83298682  0.33535152  0.50095864  1
  I  I77  1  0.83517655  0.33430084  0.82830135  1
  I  I78  1  0.83496741  0.66194649  0.16660657  1
  I  I79  1  0.83237671  0.66416231  0.50016477  1
  I  I80  1  0.83135157  0.66381903  0.83159157  1
  I  I81  1  0.15913287  0.16955558  -0.00356348  1
  I  I82  1  0.16642108  0.16519021  0.33351043  1
  I  I83  1  0.16452523  0.17031490  0.66945232  1
  I  I84  1  0.16728372  0.49774405  0.00279288  1
  I  I85  1  0.16160423  0.50012791  0.33359766  1
  I  I86  1  0.16597876  0.49849018  0.66396423  1
  I  I87  1  0.16302165  0.83041706  0.00000945  1
  I  I88  1  0.16838832  0.83660500  0.33339099  1
  I  I89  1  0.17029474  0.82904220  0.66659542  1
  I  I90  1  0.50200238  0.17208977  -0.00017263  1
  I  I91  1  0.50201209  0.16207927  0.33361838  1
  I  I92  1  0.49808868  0.16627168  0.66667896  1
  I  I93  1  0.50020631  0.50185249  0.00293006  1
  I  I94  1  0.50565326  0.50580974  0.33299492  1
  I  I95  1  0.50153737  0.50176710  0.66403046  1
  I  I96  1  0.50168224  0.82607200  0.00080629  1
  I  I97  1  0.50356073  0.82735135  0.33058638  1
  I  I98  1  0.50269291  0.83207470  0.66823500  1
  I  I99  1  0.83562412  0.17338554  -0.00339219  1
  I  I100  1  0.83081182  0.16944910  0.33646256  1
  I  I101  1  0.83602832  0.17382858  0.66656252  1
  I  I102  1  0.83227351  0.49416157  0.00003587  1
  I  I103  1  0.83264201  0.50007934  0.33423933  1
  I  I104  1  0.83270828  0.49920751  0.66533988  1
  I  I105  1  0.83313011  0.83244487  0.00030176  1
  I  I106  1  0.83000102  0.83174877  0.33728609  1
  I  I107  1  0.82925447  0.82622753  0.66393800  1
  I  I108  1  -0.00016482  0.16877996  0.16921543  1
  I  I109  1  -0.00415304  0.17091787  0.50258150  1
  I  I110  1  -0.00187654  0.17344605  0.82795793  1
  I  I111  1  -0.00070929  0.49737908  0.17150405  1
  I  I112  1  -0.00158315  0.49950822  0.49675857  1
  I  I113  1  -0.00400213  0.49872577  0.83191037  1
  I  I114  1  0.00005219  0.83225752  0.16721450  1
  I  I115  1  -0.00451550  0.82918651  0.50268312  1
  I  I116  1  -0.00013097  0.83071648  0.83161028  1
  I  I117  1  0.33317598  0.17002723  0.16297102  1
  I  I118  1  0.33295751  0.16718742  0.50205323  1
  I  I119  1  0.33103755  0.16828238  0.83537719  1
  I  I120  1  0.33389935  0.50383710  0.17461749  1
  I  I121  1  0.33350886  0.50115742  0.49193303  1
  I  I122  1  0.33334769  0.49834118  0.83254893  1
  I  I123  1  0.33772551  0.82530958  0.16176532  1
  I  I124  1  0.33338636  0.83152526  0.50094381  1
  I  I125  1  0.33724409  0.83043046  0.83742447  1
  I  I126  1  0.66684724  0.17021006  0.16430093  1
  I  I127  1  0.67092902  0.16971723  0.50735500  1
  I  I128  1  0.67027183  0.17140902  0.82888769  1
  I  I129  1  0.66685961  0.50315244  0.17046173  1
  I  I130  1  0.66811957  0.50011356  0.49738457  1
  I  I131  1  0.67057352  0.49433719  0.83171400  1
  I  I132  1  0.66375615  0.82573152  0.16272673  1
  I  I133  1  0.66960976  0.82901241  0.50093587  1
  I  I134  1  0.66426703  0.83309639  0.83682015  1
