# generated using pymatgen
data_Cs27Sn14Pb13I81
_symmetry_space_group_name_H-M   'P 1'
_cell_length_a   18.96972656
_cell_length_b   18.98442532
_cell_length_c   18.97543566
_cell_angle_alpha   90.00120927
_cell_angle_beta   90.00100045
_cell_angle_gamma   89.99945524
_symmetry_Int_Tables_number   1
_chemical_formula_structural   Cs27Sn14Pb13I81
_chemical_formula_sum   'Cs27 Sn14 Pb13 I81'
_cell_volume   6833.61144297
_cell_formula_units_Z   1
loop_
 _symmetry_equiv_pos_site_id
 _symmetry_equiv_pos_as_xyz
  1  'x, y, z'
loop_
 _atom_site_type_symbol
 _atom_site_label
 _atom_site_symmetry_multiplicity
 _atom_site_fract_x
 _atom_site_fract_y
 _atom_site_fract_z
 _atom_site_occupancy
  Cs  Cs0  1  -0.00201606  -0.00082560  -0.00074631  1
  Cs  Cs1  1  0.00032668  -0.00156962  0.33415832  1
  Cs  Cs2  1  -0.00071827  0.00306407  0.66692791  1
  Cs  Cs3  1  -0.00223719  0.33239287  -0.00222424  1
  Cs  Cs4  1  0.00026690  0.33500597  0.33448091  1
  Cs  Cs5  1  -0.00057850  0.33220756  0.66570629  1
  Cs  Cs6  1  0.00134561  0.66705154  0.00258104  1
  Cs  Cs7  1  -0.00114900  0.66685589  0.33259742  1
  Cs  Cs8  1  0.00139712  0.66646285  0.66505578  1
  Cs  Cs9  1  0.33385169  -0.00039017  0.00472884  1
  Cs  Cs10  1  0.33176856  0.00255931  0.32725979  1
  Cs  Cs11  1  0.33154538  0.00285989  0.66834141  1
  Cs  Cs12  1  0.33228609  0.32958254  0.00166743  1
  Cs  Cs13  1  0.33323442  0.33040858  0.33231070  1
  Cs  Cs14  1  0.33417893  0.33454548  0.66541227  1
  Cs  Cs15  1  0.32918987  0.66970728  -0.00322340  1
  Cs  Cs16  1  0.33582064  0.66665959  0.33461719  1
  Cs  Cs17  1  0.33219278  0.66442519  0.66825075  1
  Cs  Cs18  1  0.66685334  0.00004222  -0.00179419  1
  Cs  Cs19  1  0.66709794  -0.00313475  0.33505125  1
  Cs  Cs20  1  0.66800807  0.00062636  0.66727744  1
  Cs  Cs21  1  0.66843261  0.33515077  0.00017351  1
  Cs  Cs22  1  0.66750563  0.33649738  0.33217536  1
  Cs  Cs23  1  0.66646363  0.33185277  0.66749740  1
  Cs  Cs24  1  0.66806288  0.66545374  0.00047930  1
  Cs  Cs25  1  0.65967851  0.66590724  0.33496347  1
  Cs  Cs26  1  0.66626530  0.66730067  0.66525987  1
  Sn  Sn27  1  0.50034604  0.16672082  0.83259355  1
  Sn  Sn28  1  0.83271370  0.83223329  0.83383667  1
  Sn  Sn29  1  0.16653184  0.50076427  0.16758730  1
  Sn  Sn30  1  0.16659697  0.83263525  0.49929743  1
  Sn  Sn31  1  0.16559670  0.83215140  0.16796410  1
  Sn  Sn32  1  0.50086994  0.50009049  0.83339339  1
  Sn  Sn33  1  0.83349707  0.83379406  0.16630108  1
  Sn  Sn34  1  0.16596483  0.50102648  0.49895261  1
  Sn  Sn35  1  0.83324912  0.16575892  0.16785836  1
  Sn  Sn36  1  0.50096779  0.16644642  0.50035142  1
  Sn  Sn37  1  0.83238102  0.16744585  0.49893955  1
  Sn  Sn38  1  0.83364826  0.49964770  0.50067490  1
  Sn  Sn39  1  0.50093413  0.83321142  0.83315715  1
  Sn  Sn40  1  0.83270164  0.50113626  0.83230470  1
  Pb  Pb41  1  0.83463752  0.50066509  0.16688715  1
  Pb  Pb42  1  0.49663002  0.50013561  0.16368261  1
  Pb  Pb43  1  0.16599045  0.49992500  0.83313361  1
  Pb  Pb44  1  0.83186775  0.16669887  0.83304296  1
  Pb  Pb45  1  0.49692322  0.83594947  0.50253551  1
  Pb  Pb46  1  0.83455726  0.83300342  0.50005789  1
  Pb  Pb47  1  0.49995288  0.49825095  0.50173223  1
  Pb  Pb48  1  0.17000068  0.16669129  0.83339272  1
  Pb  Pb49  1  0.16364723  0.16649003  0.16676566  1
  Pb  Pb50  1  0.16594265  0.83340095  0.83345323  1
  Pb  Pb51  1  0.50022946  0.83311079  0.16454706  1
  Pb  Pb52  1  0.50312396  0.16668538  0.16698104  1
  Pb  Pb53  1  0.16643941  0.16695351  0.49994153  1
  I  I54  1  0.16560996  -0.00334942  0.17048721  1
  I  I55  1  0.16675559  -0.00259201  0.49649085  1
  I  I56  1  0.16549135  -0.00038142  0.83216310  1
  I  I57  1  0.16647592  0.33619843  0.17045952  1
  I  I58  1  0.16551275  0.33648654  0.49658499  1
  I  I59  1  0.16537427  0.33373724  0.83402410  1
  I  I60  1  0.15986556  0.66759534  0.16972107  1
  I  I61  1  0.16041510  0.66574267  0.49679160  1
  I  I62  1  0.17253715  0.66666136  0.83292435  1
  I  I63  1  0.49440967  -0.00004128  0.16361752  1
  I  I64  1  0.50583468  0.00360294  0.50640521  1
  I  I65  1  0.50414081  -0.00012854  0.82928385  1
  I  I66  1  0.49938539  0.33329523  0.16298278  1
  I  I67  1  0.49934995  0.33041504  0.50713659  1
  I  I68  1  0.50365204  0.33344335  0.82908318  1
  I  I69  1  0.50547395  0.66666919  0.16560415  1
  I  I70  1  0.50212950  0.66672137  0.50168560  1
  I  I71  1  0.50376720  0.66663849  0.83475121  1
  I  I72  1  0.83905062  -0.00104923  0.16526064  1
  I  I73  1  0.83162153  0.00225553  0.50005802  1
  I  I74  1  0.83017854  -0.00244286  0.83434507  1
  I  I75  1  0.83435751  0.33159394  0.16667950  1
  I  I76  1  0.83589151  0.33379000  0.50089645  1
  I  I77  1  0.83032004  0.33585656  0.83329907  1
  I  I78  1  0.83698619  0.66945277  0.16387135  1
  I  I79  1  0.83691187  0.66397979  0.50189225  1
  I  I80  1  0.82541852  0.66662080  0.83355463  1
  I  I81  1  0.16617132  0.16738373  0.00038379  1
  I  I82  1  0.17263084  0.16648533  0.33341824  1
  I  I83  1  0.16122609  0.16547616  0.66628642  1
  I  I84  1  0.16714120  0.50518850  0.00253846  1
  I  I85  1  0.15968265  0.50378724  0.33439088  1
  I  I86  1  0.16584527  0.50421819  0.66363545  1
  I  I87  1  0.16603510  0.82875252  0.00292601  1
  I  I88  1  0.15994184  0.82980459  0.33261556  1
  I  I89  1  0.16707196  0.82882688  0.66410204  1
  I  I90  1  0.50023407  0.16650334  -0.00315867  1
  I  I91  1  0.50079997  0.16750738  0.33639359  1
  I  I92  1  0.50636952  0.16655587  0.66707812  1
  I  I93  1  0.50652952  0.49680744  -0.00479520  1
  I  I94  1  0.50271609  0.49773725  0.33353948  1
  I  I95  1  0.49893158  0.50180089  0.67002346  1
  I  I96  1  0.49853426  0.83642947  -0.00399242  1
  I  I97  1  0.50221215  0.83530116  0.33358475  1
  I  I98  1  0.50579014  0.83127656  0.67057587  1
  I  I99  1  0.83326982  0.16600515  0.00183608  1
  I  I100  1  0.82816106  0.16694117  0.33441834  1
  I  I101  1  0.83181682  0.16734072  0.66410973  1
  I  I102  1  0.83096055  0.49977772  -0.00253583  1
  I  I103  1  0.83699426  0.49784581  0.33608227  1
  I  I104  1  0.83567777  0.49927198  0.66652042  1
  I  I105  1  0.83564491  0.83427154  -0.00013510  1
  I  I106  1  0.83779827  0.83534635  0.33090379  1
  I  I107  1  0.83093637  0.83301125  0.66927736  1
  I  I108  1  -0.00415333  0.16529452  0.17268578  1
  I  I109  1  -0.00317259  0.16780734  0.49612066  1
  I  I110  1  -0.00065434  0.16657635  0.83279970  1
  I  I111  1  0.00258927  0.50132611  0.16566686  1
  I  I112  1  -0.00065941  0.49723968  0.50308108  1
  I  I113  1  -0.00341545  0.50548378  0.83257240  1
  I  I114  1  -0.00035186  0.83381426  0.16341295  1
  I  I115  1  0.00256856  0.83406286  0.50135696  1
  I  I116  1  -0.00340098  0.82776162  0.83482322  1
  I  I117  1  0.33332536  0.16636930  0.16539385  1
  I  I118  1  0.33587108  0.16651099  0.50709631  1
  I  I119  1  0.33878619  0.16711630  0.82645831  1
  I  I120  1  0.32851395  0.50583787  0.17194498  1
  I  I121  1  0.33053435  0.50225202  0.49846736  1
  I  I122  1  0.33608370  0.49998392  0.83353714  1
  I  I123  1  0.33010244  0.82958710  0.16852139  1
  I  I124  1  0.32907353  0.82796915  0.49584526  1
  I  I125  1  0.33602009  0.83333831  0.83248388  1
  I  I126  1  0.67099756  0.16076329  0.16734441  1
  I  I127  1  0.66791262  0.17195566  0.50094362  1
  I  I128  1  0.66387532  0.16639777  0.83192625  1
  I  I129  1  0.66688365  0.49997357  0.16861250  1
  I  I130  1  0.66965356  0.49741748  0.50260594  1
  I  I131  1  0.66766013  0.50053094  0.82790493  1
  I  I132  1  0.67010110  0.83817103  0.16362892  1
  I  I133  1  0.66661891  0.83132566  0.49751383  1
  I  I134  1  0.66758094  0.83298452  0.83882383  1
