# generated using pymatgen
data_Cs27Sn14Pb13I81
_symmetry_space_group_name_H-M   'P 1'
_cell_length_a   18.98298440
_cell_length_b   18.96617694
_cell_length_c   18.97658469
_cell_angle_alpha   90.00019852
_cell_angle_beta   90.00070623
_cell_angle_gamma   90.00168863
_symmetry_Int_Tables_number   1
_chemical_formula_structural   Cs27Sn14Pb13I81
_chemical_formula_sum   'Cs27 Sn14 Pb13 I81'
_cell_volume   6832.22785179
_cell_formula_units_Z   1
loop_
 _symmetry_equiv_pos_site_id
 _symmetry_equiv_pos_as_xyz
  1  'x, y, z'
loop_
 _atom_site_type_symbol
 _atom_site_label
 _atom_site_symmetry_multiplicity
 _atom_site_fract_x
 _atom_site_fract_y
 _atom_site_fract_z
 _atom_site_occupancy
  Cs  Cs0  1  0.00193153  0.00035045  0.00058803  1
  Cs  Cs1  1  0.00194846  0.00126937  0.33211074  1
  Cs  Cs2  1  -0.00167787  0.00133273  0.66819006  1
  Cs  Cs3  1  0.00064414  0.33456384  -0.00049464  1
  Cs  Cs4  1  -0.00325819  0.32987933  0.33165963  1
  Cs  Cs5  1  0.00322876  0.33505903  0.66975369  1
  Cs  Cs6  1  -0.00134561  0.66309227  -0.00337273  1
  Cs  Cs7  1  -0.00007382  0.66984565  0.34062940  1
  Cs  Cs8  1  -0.00603190  0.66027369  0.66423165  1
  Cs  Cs9  1  0.33302074  -0.00086901  -0.00015969  1
  Cs  Cs10  1  0.33058008  0.00002982  0.33093891  1
  Cs  Cs11  1  0.33619543  -0.00053365  0.67134319  1
  Cs  Cs12  1  0.33470688  0.33347686  0.00037370  1
  Cs  Cs13  1  0.33564466  0.33168201  0.33150280  1
  Cs  Cs14  1  0.33152542  0.33520764  0.66791180  1
  Cs  Cs15  1  0.33257122  0.66336581  0.00233572  1
  Cs  Cs16  1  0.33232762  0.66993269  0.33760938  1
  Cs  Cs17  1  0.33335102  0.66280897  0.65645406  1
  Cs  Cs18  1  0.66546530  -0.00023536  -0.00078793  1
  Cs  Cs19  1  0.66743753  0.00288413  0.33072444  1
  Cs  Cs20  1  0.66585321  -0.00593071  0.67130921  1
  Cs  Cs21  1  0.66397567  0.33374000  0.00236128  1
  Cs  Cs22  1  0.66651279  0.33304066  0.33150422  1
  Cs  Cs23  1  0.66430455  0.33151940  0.66370780  1
  Cs  Cs24  1  0.66851958  0.66631014  -0.00078918  1
  Cs  Cs25  1  0.66691441  0.66348730  0.33781457  1
  Cs  Cs26  1  0.67174221  0.67694354  0.65951777  1
  Sn  Sn27  1  0.16689746  0.83302278  0.83314114  1
  Sn  Sn28  1  0.16600807  0.16572843  0.83366781  1
  Sn  Sn29  1  0.49979574  0.16647296  0.49941897  1
  Sn  Sn30  1  0.16676070  0.16756881  0.16640542  1
  Sn  Sn31  1  0.83286131  0.83399924  0.16638317  1
  Sn  Sn32  1  0.49987013  0.16645656  0.16713605  1
  Sn  Sn33  1  0.83379410  0.16694212  0.83375362  1
  Sn  Sn34  1  0.16706794  0.49942911  0.16686589  1
  Sn  Sn35  1  0.16689435  0.16650798  0.50010760  1
  Sn  Sn36  1  0.49898481  0.50035784  0.16568599  1
  Sn  Sn37  1  0.83324127  0.16655331  0.50032774  1
  Sn  Sn38  1  0.83330155  0.16583516  0.16616357  1
  Sn  Sn39  1  0.50053963  0.50079646  0.83340016  1
  Sn  Sn40  1  0.50078449  0.83311967  0.16631901  1
  Pb  Pb41  1  0.49983021  0.16778608  0.83348823  1
  Pb  Pb42  1  0.16833879  0.49987435  0.83501301  1
  Pb  Pb43  1  0.83352994  0.83633078  0.49721428  1
  Pb  Pb44  1  0.49982273  0.83656388  0.49710351  1
  Pb  Pb45  1  0.83545826  0.83543290  0.83574249  1
  Pb  Pb46  1  0.16660418  0.49728021  0.49665384  1
  Pb  Pb47  1  0.83329888  0.49721556  0.49999958  1
  Pb  Pb48  1  0.83339219  0.50018691  0.16676349  1
  Pb  Pb49  1  0.83007982  0.49754490  0.83337969  1
  Pb  Pb50  1  0.16649663  0.83602398  0.50350187  1
  Pb  Pb51  1  0.50014970  0.49783060  0.49943916  1
  Pb  Pb52  1  0.49772389  0.82996490  0.83548454  1
  Pb  Pb53  1  0.16629858  0.83299287  0.16541096  1
  I  I54  1  0.16869942  0.00354927  0.16840079  1
  I  I55  1  0.16618806  0.00507851  0.49166459  1
  I  I56  1  0.16404195  0.00297114  0.83665863  1
  I  I57  1  0.16966861  0.33074466  0.16484333  1
  I  I58  1  0.16678085  0.32829291  0.50534833  1
  I  I59  1  0.16379903  0.32969227  0.83187614  1
  I  I60  1  0.17062362  0.66419562  0.16204423  1
  I  I61  1  0.16728287  0.66660220  0.49949463  1
  I  I62  1  0.16959229  0.66876613  0.84011213  1
  I  I63  1  0.50006569  0.00151829  0.17129958  1
  I  I64  1  0.49995312  0.00504625  0.49537973  1
  I  I65  1  0.50134214  0.00001400  0.83354466  1
  I  I66  1  0.49951529  0.33195440  0.16690744  1
  I  I67  1  0.50047248  0.32908607  0.49338574  1
  I  I68  1  0.49833800  0.33516277  0.84046792  1
  I  I69  1  0.49931055  0.66624884  0.15982394  1
  I  I70  1  0.49950047  0.66680774  0.49950567  1
  I  I71  1  0.49695394  0.66259005  0.84274096  1
  I  I72  1  0.83045571  0.00269754  0.16708451  1
  I  I73  1  0.83352623  0.00504784  0.50124505  1
  I  I74  1  0.83342450  0.00428563  0.83169561  1
  I  I75  1  0.83144962  0.32943738  0.16768304  1
  I  I76  1  0.83290728  0.32784496  0.49457249  1
  I  I77  1  0.84088823  0.32858049  0.83691579  1
  I  I78  1  0.83040713  0.66961779  0.16490404  1
  I  I79  1  0.83328609  0.66725029  0.49836360  1
  I  I80  1  0.83562628  0.66690024  0.83654863  1
  I  I81  1  0.16457117  0.16671981  0.00082335  1
  I  I82  1  0.16507425  0.17139009  0.33218616  1
  I  I83  1  0.16414587  0.16168597  0.66706094  1
  I  I84  1  0.16921144  0.49264383  0.00318616  1
  I  I85  1  0.17371796  0.49535819  0.32842826  1
  I  I86  1  0.16938226  0.49858619  0.66665781  1
  I  I87  1  0.16700156  0.84195691  -0.00192590  1
  I  I88  1  0.16693056  0.83330592  0.33319692  1
  I  I89  1  0.16805575  0.84089712  0.67119462  1
  I  I90  1  0.49998527  0.16569205  0.00341688  1
  I  I91  1  0.50004173  0.16851714  0.33136459  1
  I  I92  1  0.49980468  0.17052710  0.66433879  1
  I  I93  1  0.49608043  0.49526348  0.00259628  1
  I  I94  1  0.49667982  0.50032402  0.32940778  1
  I  I95  1  0.49841255  0.49408890  0.66897165  1
  I  I96  1  0.50253920  0.84101156  0.00390663  1
  I  I97  1  0.50195069  0.82886550  0.32850700  1
  I  I98  1  0.49870241  0.83353250  0.66672764  1
  I  I99  1  0.83581519  0.16338781  0.00114895  1
  I  I100  1  0.83536135  0.16354807  0.33222044  1
  I  I101  1  0.83633564  0.16933220  0.66664251  1
  I  I102  1  0.83513885  0.49598859  0.00029599  1
  I  I103  1  0.83133924  0.49730928  0.33283487  1
  I  I104  1  0.83243008  0.49754961  0.66690514  1
  I  I105  1  0.82972330  0.84116700  0.00361634  1
  I  I106  1  0.83086471  0.83941217  0.32902934  1
  I  I107  1  0.83386321  0.83489475  0.66679415  1
  I  I108  1  0.00016528  0.16650684  0.16863979  1
  I  I109  1  0.00009911  0.16654250  0.49604592  1
  I  I110  1  0.00078983  0.16361612  0.83443904  1
  I  I111  1  0.00280726  0.49418705  0.16584483  1
  I  I112  1  0.00023507  0.49762611  0.49849154  1
  I  I113  1  0.00010209  0.50070448  0.83546224  1
  I  I114  1  -0.00228387  0.83933093  0.16520933  1
  I  I115  1  0.00003672  0.83652686  0.49505719  1
  I  I116  1  0.00320089  0.83712919  0.83804399  1
  I  I117  1  0.33350648  0.16711581  0.16886877  1
  I  I118  1  0.33314810  0.16711829  0.49587133  1
  I  I119  1  0.33048477  0.16499234  0.83403136  1
  I  I120  1  0.33417289  0.49480311  0.16237707  1
  I  I121  1  0.33336972  0.49621175  0.50186617  1
  I  I122  1  0.33604258  0.49524219  0.83816928  1
  I  I123  1  0.33573816  0.83689715  0.16489644  1
  I  I124  1  0.33323426  0.83655052  0.49685793  1
  I  I125  1  0.33036860  0.84453024  0.83791930  1
  I  I126  1  0.66630667  0.16675274  0.16906545  1
  I  I127  1  0.66668635  0.16834883  0.49539329  1
  I  I128  1  0.66901383  0.16956696  0.83422416  1
  I  I129  1  0.66338653  0.49583737  0.16361164  1
  I  I130  1  0.66639331  0.49510017  0.49691172  1
  I  I131  1  0.66251737  0.49604711  0.84375068  1
  I  I132  1  0.66614337  0.83902646  0.16549852  1
  I  I133  1  0.66661099  0.83589475  0.50321603  1
  I  I134  1  0.66662586  0.83451012  0.83325383  1
