# generated using pymatgen
data_Cs27Sn14Pb13I81
_symmetry_space_group_name_H-M   'P 1'
_cell_length_a   18.98058597
_cell_length_b   18.97050429
_cell_length_c   18.97553699
_cell_angle_alpha   89.99950300
_cell_angle_beta   89.99873072
_cell_angle_gamma   90.00116776
_symmetry_Int_Tables_number   1
_chemical_formula_structural   Cs27Sn14Pb13I81
_chemical_formula_sum   'Cs27 Sn14 Pb13 I81'
_cell_volume   6832.54603710
_cell_formula_units_Z   1
loop_
 _symmetry_equiv_pos_site_id
 _symmetry_equiv_pos_as_xyz
  1  'x, y, z'
loop_
 _atom_site_type_symbol
 _atom_site_label
 _atom_site_symmetry_multiplicity
 _atom_site_fract_x
 _atom_site_fract_y
 _atom_site_fract_z
 _atom_site_occupancy
  Cs  Cs0  1  -0.00232505  -0.00453891  0.00236118  1
  Cs  Cs1  1  -0.00131672  -0.00044902  0.33186507  1
  Cs  Cs2  1  0.00829514  -0.00107858  0.66519326  1
  Cs  Cs3  1  -0.00099910  0.33490631  -0.00152879  1
  Cs  Cs4  1  -0.00071793  0.33425008  0.33408837  1
  Cs  Cs5  1  0.00014930  0.33423579  0.66697239  1
  Cs  Cs6  1  -0.00222734  0.66609076  -0.00040778  1
  Cs  Cs7  1  -0.00022077  0.66405685  0.33373952  1
  Cs  Cs8  1  -0.00035494  0.66487189  0.66679376  1
  Cs  Cs9  1  0.33368432  0.00024866  0.00134943  1
  Cs  Cs10  1  0.33232687  -0.00036552  0.33306407  1
  Cs  Cs11  1  0.32603455  -0.00569288  0.66410784  1
  Cs  Cs12  1  0.33385149  0.33427227  0.00044619  1
  Cs  Cs13  1  0.33439511  0.33409171  0.32916169  1
  Cs  Cs14  1  0.33034736  0.32999948  0.67075956  1
  Cs  Cs15  1  0.33351583  0.66465259  0.00413799  1
  Cs  Cs16  1  0.33604077  0.66625375  0.33061511  1
  Cs  Cs17  1  0.33412158  0.67568058  0.66462228  1
  Cs  Cs18  1  0.66823413  -0.00073261  0.00215650  1
  Cs  Cs19  1  0.66892928  0.00284834  0.33057118  1
  Cs  Cs20  1  0.66538865  0.00123627  0.66592443  1
  Cs  Cs21  1  0.66592014  0.33141860  -0.00282036  1
  Cs  Cs22  1  0.66654573  0.33200527  0.33707541  1
  Cs  Cs23  1  0.66849044  0.33357299  0.66741774  1
  Cs  Cs24  1  0.66922953  0.66910169  -0.00277092  1
  Cs  Cs25  1  0.66442527  0.66273024  0.34017270  1
  Cs  Cs26  1  0.66460476  0.66846643  0.66389600  1
  Sn  Sn27  1  0.83331005  0.83467890  0.50036871  1
  Sn  Sn28  1  0.50011751  0.49969143  0.83314558  1
  Sn  Sn29  1  0.83305371  0.16561797  0.50134112  1
  Sn  Sn30  1  0.49981808  0.83394539  0.16654581  1
  Sn  Sn31  1  0.50006847  0.16675432  0.50061310  1
  Sn  Sn32  1  0.83262149  0.49961361  0.16604228  1
  Sn  Sn33  1  0.16696811  0.16618643  0.16638864  1
  Sn  Sn34  1  0.83283674  0.49919231  0.83406959  1
  Sn  Sn35  1  0.16757278  0.49966941  0.50088940  1
  Sn  Sn36  1  0.50039588  0.16693078  0.83276453  1
  Sn  Sn37  1  0.16700139  0.50000285  0.83223015  1
  Sn  Sn38  1  0.16707119  0.83409830  0.16660738  1
  Sn  Sn39  1  0.83299255  0.16684835  0.83239601  1
  Sn  Sn40  1  0.49918888  0.16610010  0.16650173  1
  Pb  Pb41  1  0.83324612  0.83405061  0.83073719  1
  Pb  Pb42  1  0.16656762  0.16821539  0.49779530  1
  Pb  Pb43  1  0.83429794  0.49916974  0.50104819  1
  Pb  Pb44  1  0.83270235  0.83071322  0.16868866  1
  Pb  Pb45  1  0.50007225  0.83436287  0.83543440  1
  Pb  Pb46  1  0.16476147  0.83092952  0.49739239  1
  Pb  Pb47  1  0.50178633  0.83619265  0.49746569  1
  Pb  Pb48  1  0.16520621  0.49985226  0.16625035  1
  Pb  Pb49  1  0.49718602  0.49738668  0.50313785  1
  Pb  Pb50  1  0.83291436  0.16824162  0.16639102  1
  Pb  Pb51  1  0.16643231  0.16800283  0.83569445  1
  Pb  Pb52  1  0.50264450  0.49953774  0.16468549  1
  Pb  Pb53  1  0.16665867  0.83030072  0.83610930  1
  I  I54  1  0.16978072  0.00058116  0.16746060  1
  I  I55  1  0.16744624  0.00010087  0.50014095  1
  I  I56  1  0.16635154  0.00010587  0.83286252  1
  I  I57  1  0.17062184  0.33111258  0.16686573  1
  I  I58  1  0.16294015  0.33587265  0.50104303  1
  I  I59  1  0.16591231  0.33635011  0.83326110  1
  I  I60  1  0.16965220  0.66870304  0.16675235  1
  I  I61  1  0.16285495  0.66316745  0.50246950  1
  I  I62  1  0.16518220  0.66173555  0.83164701  1
  I  I63  1  0.49658012  0.00166645  0.16466197  1
  I  I64  1  0.50070814  0.00445961  0.50528200  1
  I  I65  1  0.50653916  0.00416079  0.83309748  1
  I  I66  1  0.49601367  0.32997617  0.16789366  1
  I  I67  1  0.50784021  0.32940178  0.49317140  1
  I  I68  1  0.50100334  0.33245969  0.83632511  1
  I  I69  1  0.49612220  0.66873558  0.16485491  1
  I  I70  1  0.50145230  0.66663589  0.49918059  1
  I  I71  1  0.50088633  0.66372588  0.83618071  1
  I  I72  1  0.83445554  0.00012488  0.16474517  1
  I  I73  1  0.82960217  0.00197519  0.50316260  1
  I  I74  1  0.82679210  0.00379551  0.83300487  1
  I  I75  1  0.83516005  0.33594828  0.16705383  1
  I  I76  1  0.83060333  0.33036665  0.50029072  1
  I  I77  1  0.83257958  0.33350689  0.83179098  1
  I  I78  1  0.83538691  0.66310745  0.16191740  1
  I  I79  1  0.83673573  0.66795705  0.49735528  1
  I  I80  1  0.83360691  0.66336390  0.83674995  1
  I  I81  1  0.17038549  0.16658299  0.00360655  1
  I  I82  1  0.16978000  0.16704679  0.32987054  1
  I  I83  1  0.16862095  0.16724946  0.66681535  1
  I  I84  1  0.16707992  0.49959902  -0.00274059  1
  I  I85  1  0.16181254  0.49956636  0.33469090  1
  I  I86  1  0.16232837  0.49739251  0.66786840  1
  I  I87  1  0.16889408  0.83568327  0.00408175  1
  I  I88  1  0.17002013  0.83434193  0.32970305  1
  I  I89  1  0.16561546  0.83369627  0.66643126  1
  I  I90  1  0.50030005  0.16755067  -0.00021273  1
  I  I91  1  0.50083192  0.16207901  0.33294290  1
  I  I92  1  0.50682911  0.17384341  0.66735901  1
  I  I93  1  0.49527698  0.49427863  -0.00327789  1
  I  I94  1  0.50007707  0.49950314  0.33341131  1
  I  I95  1  0.50693754  0.49491082  0.67113544  1
  I  I96  1  0.49715310  0.83836528  0.00352420  1
  I  I97  1  0.49642549  0.83736187  0.32951276  1
  I  I98  1  0.50167090  0.83237300  0.66638749  1
  I  I99  1  0.83072722  0.17102137  -0.00263303  1
  I  I100  1  0.83072791  0.16584942  0.33550755  1
  I  I101  1  0.82523257  0.17000384  0.66710093  1
  I  I102  1  0.83660024  0.49512100  -0.00178743  1
  I  I103  1  0.83733371  0.50003274  0.33207083  1
  I  I104  1  0.83257269  0.49857195  0.66997746  1
  I  I105  1  0.83407068  0.83415467  0.00016397  1
  I  I106  1  0.83374343  0.83841638  0.33615901  1
  I  I107  1  0.83297512  0.83159151  0.66301742  1
  I  I108  1  0.00192295  0.16498839  0.16708283  1
  I  I109  1  -0.00292911  0.16548963  0.50285893  1
  I  I110  1  -0.00294821  0.17214725  0.83009707  1
  I  I111  1  -0.00246730  0.49944635  0.16192421  1
  I  I112  1  0.00200944  0.49807072  0.50366185  1
  I  I113  1  -0.00081808  0.49599629  0.83398646  1
  I  I114  1  0.00218127  0.83643925  0.16817564  1
  I  I115  1  -0.00295767  0.83990653  0.49738746  1
  I  I116  1  -0.00010818  0.83329300  0.83664596  1
  I  I117  1  0.33455081  0.16428925  0.16685606  1
  I  I118  1  0.33615275  0.17028324  0.50180997  1
  I  I119  1  0.33634421  0.17213476  0.83253379  1
  I  I120  1  0.33368588  0.50038113  0.16585144  1
  I  I121  1  0.32974212  0.49834602  0.50225638  1
  I  I122  1  0.33370071  0.49429656  0.83032856  1
  I  I123  1  0.33348847  0.83638228  0.16669161  1
  I  I124  1  0.33340372  0.83309304  0.50082322  1
  I  I125  1  0.33336802  0.83308813  0.83058045  1
  I  I126  1  0.66372320  0.16366058  0.16642111  1
  I  I127  1  0.66687655  0.16423747  0.49748248  1
  I  I128  1  0.66636910  0.17526731  0.83505468  1
  I  I129  1  0.67015819  0.49980829  0.16252007  1
  I  I130  1  0.66632190  0.50232527  0.49870031  1
  I  I131  1  0.66719588  0.49508686  0.83966209  1
  I  I132  1  0.66401535  0.83856506  0.16684094  1
  I  I133  1  0.66960767  0.83185890  0.49742889  1
  I  I134  1  0.66671636  0.82741516  0.83673156  1
