# generated using pymatgen
data_Cs27Sn14Pb13I81
_symmetry_space_group_name_H-M   'P 1'
_cell_length_a   18.97442390
_cell_length_b   18.98204460
_cell_length_c   18.97152911
_cell_angle_alpha   89.99957808
_cell_angle_beta   90.00054991
_cell_angle_gamma   89.99963790
_symmetry_Int_Tables_number   1
_chemical_formula_structural   Cs27Sn14Pb13I81
_chemical_formula_sum   'Cs27 Sn14 Pb13 I81'
_cell_volume   6833.03939742
_cell_formula_units_Z   1
loop_
 _symmetry_equiv_pos_site_id
 _symmetry_equiv_pos_as_xyz
  1  'x, y, z'
loop_
 _atom_site_type_symbol
 _atom_site_label
 _atom_site_symmetry_multiplicity
 _atom_site_fract_x
 _atom_site_fract_y
 _atom_site_fract_z
 _atom_site_occupancy
  Cs  Cs0  1  0.00384083  0.00200798  -0.00067568  1
  Cs  Cs1  1  0.00011215  -0.00148250  0.33202299  1
  Cs  Cs2  1  -0.01006712  -0.00056922  0.67182267  1
  Cs  Cs3  1  0.00125280  0.33232037  -0.00463192  1
  Cs  Cs4  1  0.00110014  0.33472777  0.33332624  1
  Cs  Cs5  1  -0.00346662  0.33460973  0.67197770  1
  Cs  Cs6  1  -0.00088184  0.66552315  -0.00222070  1
  Cs  Cs7  1  0.00224567  0.66565363  0.33242172  1
  Cs  Cs8  1  0.00092626  0.66479258  0.67442901  1
  Cs  Cs9  1  0.33177323  0.00193815  -0.00411343  1
  Cs  Cs10  1  0.33077958  0.00074542  0.33455898  1
  Cs  Cs11  1  0.33470209  -0.00187186  0.66646319  1
  Cs  Cs12  1  0.33527890  0.33011596  -0.00151293  1
  Cs  Cs13  1  0.33274843  0.33377798  0.33513986  1
  Cs  Cs14  1  0.33613654  0.33415179  0.66334042  1
  Cs  Cs15  1  0.33554416  0.67015679  -0.00021686  1
  Cs  Cs16  1  0.33174569  0.66541781  0.33332359  1
  Cs  Cs17  1  0.33189399  0.66739361  0.66606995  1
  Cs  Cs18  1  0.66472348  -0.00110610  0.00137182  1
  Cs  Cs19  1  0.66929602  -0.00143739  0.33457199  1
  Cs  Cs20  1  0.67351493  -0.00581598  0.66548832  1
  Cs  Cs21  1  0.66478558  0.33388661  0.00009399  1
  Cs  Cs22  1  0.66690229  0.33404752  0.33289213  1
  Cs  Cs23  1  0.66399137  0.33248759  0.66680325  1
  Cs  Cs24  1  0.66510351  0.66885219  0.00332859  1
  Cs  Cs25  1  0.66635217  0.66680410  0.33065144  1
  Cs  Cs26  1  0.66812734  0.67310907  0.66751163  1
  Sn  Sn27  1  0.83428043  0.49972939  0.16751579  1
  Sn  Sn28  1  0.16593935  0.83234548  0.16748940  1
  Sn  Sn29  1  0.16631703  0.83338569  0.49961582  1
  Sn  Sn30  1  0.16616427  0.49973944  0.49938991  1
  Sn  Sn31  1  0.50020397  0.16723959  0.83240229  1
  Sn  Sn32  1  0.83451296  0.83301676  0.16725078  1
  Sn  Sn33  1  0.49978743  0.16699668  0.50014515  1
  Sn  Sn34  1  0.83341704  0.49994405  0.49942886  1
  Sn  Sn35  1  0.16606940  0.50041838  0.16695128  1
  Sn  Sn36  1  0.16646447  0.16667154  0.50004700  1
  Sn  Sn37  1  0.50051315  0.16677961  0.16733627  1
  Sn  Sn38  1  0.50040626  0.49965807  0.50073702  1
  Sn  Sn39  1  0.49992895  0.49973334  0.83221626  1
  Sn  Sn40  1  0.83277990  0.16717867  0.16708898  1
  Pb  Pb41  1  0.16662703  0.83333672  0.83350011  1
  Pb  Pb42  1  0.83636407  0.83013713  0.49787486  1
  Pb  Pb43  1  0.83047279  0.16692548  0.83641015  1
  Pb  Pb44  1  0.16654680  0.16705151  0.16821062  1
  Pb  Pb45  1  0.16931305  0.49985040  0.83354722  1
  Pb  Pb46  1  0.83040355  0.49996617  0.83376580  1
  Pb  Pb47  1  0.49906813  0.83647773  0.16702190  1
  Pb  Pb48  1  0.83347772  0.83311930  0.83694784  1
  Pb  Pb49  1  0.49797628  0.83319519  0.49970370  1
  Pb  Pb50  1  0.49951118  0.49834476  0.16715594  1
  Pb  Pb51  1  0.49997019  0.83340761  0.83309842  1
  Pb  Pb52  1  0.16899460  0.16686505  0.82922416  1
  Pb  Pb53  1  0.83327379  0.16865744  0.49814413  1
  I  I54  1  0.16424138  -0.00210769  0.17143756  1
  I  I55  1  0.17449915  0.00021402  0.49401784  1
  I  I56  1  0.17092219  0.00018721  0.83554678  1
  I  I57  1  0.16446583  0.33609469  0.17160140  1
  I  I58  1  0.16944118  0.33441804  0.49467699  1
  I  I59  1  0.16480699  0.33338725  0.83676367  1
  I  I60  1  0.15965971  0.66596380  0.17502207  1
  I  I61  1  0.16790215  0.66544597  0.49498207  1
  I  I62  1  0.17069343  0.66641917  0.82952417  1
  I  I63  1  0.50357078  0.00478732  0.16662148  1
  I  I64  1  0.49487036  0.00353153  0.49996552  1
  I  I65  1  0.49878505  0.00367565  0.83431329  1
  I  I66  1  0.50325091  0.33029114  0.16705507  1
  I  I67  1  0.49517762  0.33353877  0.49979764  1
  I  I68  1  0.49974828  0.33288108  0.83267757  1
  I  I69  1  0.50247861  0.66652567  0.16562939  1
  I  I70  1  0.49926196  0.66294782  0.50436603  1
  I  I71  1  0.49949857  0.66333679  0.82859402  1
  I  I72  1  0.83253586  0.00007423  0.16602940  1
  I  I73  1  0.83258965  -0.00019636  0.49847737  1
  I  I74  1  0.83004234  0.00012933  0.83259731  1
  I  I75  1  0.83252242  0.33420687  0.17092674  1
  I  I76  1  0.83675022  0.33676897  0.49312853  1
  I  I77  1  0.83557124  0.33348913  0.83645122  1
  I  I78  1  0.83753208  0.66577635  0.17059394  1
  I  I79  1  0.83005048  0.66209595  0.49402681  1
  I  I80  1  0.82990082  0.66630119  0.83424221  1
  I  I81  1  0.16780104  0.16564671  0.00009619  1
  I  I82  1  0.17335590  0.16776509  0.33620357  1
  I  I83  1  0.17241183  0.16856662  0.66097137  1
  I  I84  1  0.16290819  0.50503324  0.00356137  1
  I  I85  1  0.16867209  0.50062525  0.33419165  1
  I  I86  1  0.16425460  0.50061337  0.66280355  1
  I  I87  1  0.16280973  0.82856594  0.00399920  1
  I  I88  1  0.16395772  0.83204217  0.33299837  1
  I  I89  1  0.17036595  0.83141396  0.66306450  1
  I  I90  1  0.50515076  0.17083061  0.00024504  1
  I  I91  1  0.49942390  0.17119840  0.33420223  1
  I  I92  1  0.49247926  0.17296892  0.66550839  1
  I  I93  1  0.50002309  0.49497138  -0.00159022  1
  I  I94  1  0.49923767  0.49548722  0.33636114  1
  I  I95  1  0.49893577  0.49129747  0.66476550  1
  I  I96  1  0.49875544  0.83239642  0.00031496  1
  I  I97  1  0.50178447  0.83298625  0.33322725  1
  I  I98  1  0.49755050  0.83676106  0.66629706  1
  I  I99  1  0.82930588  0.16922039  0.00501951  1
  I  I100  1  0.82679174  0.16553543  0.32992248  1
  I  I101  1  0.83393991  0.16815231  0.66645565  1
  I  I102  1  0.83658881  0.50043545  0.00396354  1
  I  I103  1  0.83152410  0.49938305  0.33256348  1
  I  I104  1  0.83716629  0.49871661  0.66341826  1
  I  I105  1  0.83919866  0.83029048  0.00544879  1
  I  I106  1  0.83412027  0.83597257  0.32972427  1
  I  I107  1  0.83380436  0.83282157  0.66626629  1
  I  I108  1  -0.00244213  0.16658150  0.17022525  1
  I  I109  1  0.00269159  0.16774534  0.49507205  1
  I  I110  1  -0.00013577  0.16509720  0.83388184  1
  I  I111  1  -0.00016770  0.49874511  0.17482096  1
  I  I112  1  0.00089905  0.49957453  0.49320940  1
  I  I113  1  -0.00006621  0.50129266  0.83106325  1
  I  I114  1  0.00028292  0.83474646  0.17182986  1
  I  I115  1  0.00436606  0.83584520  0.49644383  1
  I  I116  1  0.00007735  0.83325019  0.83022912  1
  I  I117  1  0.33588942  0.16749031  0.16528707  1
  I  I118  1  0.33413702  0.17137525  0.49700809  1
  I  I119  1  0.33730430  0.17085036  0.84094470  1
  I  I120  1  0.33050712  0.50329708  0.17012106  1
  I  I121  1  0.33291386  0.49920921  0.49944153  1
  I  I122  1  0.33712716  0.49489125  0.82983920  1
  I  I123  1  0.32964549  0.82836273  0.17034562  1
  I  I124  1  0.32973956  0.82925729  0.49275456  1
  I  I125  1  0.33332863  0.83350806  0.83737486  1
  I  I126  1  0.66649857  0.16761322  0.16812673  1
  I  I127  1  0.66349271  0.17247678  0.50081549  1
  I  I128  1  0.66225780  0.17198533  0.82829196  1
  I  I129  1  0.66920367  0.50198240  0.16934520  1
  I  I130  1  0.66611379  0.49362399  0.49875145  1
  I  I131  1  0.66259650  0.49418661  0.83008576  1
  I  I132  1  0.66948213  0.83003602  0.16520631  1
  I  I133  1  0.66725557  0.83362208  0.49926068  1
  I  I134  1  0.66666898  0.83306404  0.83469708  1
