# generated using pymatgen
data_Cs27Sn14Pb13I81
_symmetry_space_group_name_H-M   'P 1'
_cell_length_a   18.97522408
_cell_length_b   18.97006495
_cell_length_c   18.98013679
_cell_angle_alpha   90.00161448
_cell_angle_beta   90.00089220
_cell_angle_gamma   89.99880467
_symmetry_Int_Tables_number   1
_chemical_formula_structural   Cs27Sn14Pb13I81
_chemical_formula_sum   'Cs27 Sn14 Pb13 I81'
_cell_volume   6832.11344324
_cell_formula_units_Z   1
loop_
 _symmetry_equiv_pos_site_id
 _symmetry_equiv_pos_as_xyz
  1  'x, y, z'
loop_
 _atom_site_type_symbol
 _atom_site_label
 _atom_site_symmetry_multiplicity
 _atom_site_fract_x
 _atom_site_fract_y
 _atom_site_fract_z
 _atom_site_occupancy
  Cs  Cs0  1  -0.00112461  0.00000092  0.00222516  1
  Cs  Cs1  1  -0.00187959  -0.00022983  0.33551323  1
  Cs  Cs2  1  0.00041800  -0.00485621  0.65985715  1
  Cs  Cs3  1  0.00019865  0.33483692  -0.00050861  1
  Cs  Cs4  1  0.00125788  0.33133879  0.33203528  1
  Cs  Cs5  1  0.00201958  0.33428720  0.66843200  1
  Cs  Cs6  1  -0.00058764  0.66508770  -0.00051738  1
  Cs  Cs7  1  -0.00129313  0.67043851  0.33541826  1
  Cs  Cs8  1  -0.00101925  0.66918542  0.66510834  1
  Cs  Cs9  1  0.33615034  -0.00742537  -0.00135498  1
  Cs  Cs10  1  0.33184299  0.00213636  0.33266942  1
  Cs  Cs11  1  0.33362071  -0.00232601  0.66825954  1
  Cs  Cs12  1  0.32884191  0.33241587  -0.00226299  1
  Cs  Cs13  1  0.33385480  0.33202228  0.33482655  1
  Cs  Cs14  1  0.33127387  0.33582662  0.66675187  1
  Cs  Cs15  1  0.33412081  0.67494668  -0.00106682  1
  Cs  Cs16  1  0.33999892  0.66512612  0.32770153  1
  Cs  Cs17  1  0.33384179  0.66158084  0.67095126  1
  Cs  Cs18  1  0.66521530  0.00164783  -0.00289726  1
  Cs  Cs19  1  0.66939764  0.00145878  0.33473811  1
  Cs  Cs20  1  0.66577495  0.00065560  0.66762735  1
  Cs  Cs21  1  0.67212628  0.33208429  -0.00199213  1
  Cs  Cs22  1  0.66507293  0.33340737  0.33332251  1
  Cs  Cs23  1  0.66658706  0.33189098  0.66892648  1
  Cs  Cs24  1  0.66855717  0.66562930  0.00417389  1
  Cs  Cs25  1  0.66334469  0.66387201  0.33370888  1
  Cs  Cs26  1  0.66760460  0.66699185  0.66218286  1
  Sn  Sn27  1  0.50052075  0.16581994  0.49966514  1
  Sn  Sn28  1  0.16587111  0.49992062  0.49950475  1
  Sn  Sn29  1  0.83335792  0.83359319  0.83433041  1
  Sn  Sn30  1  0.16642018  0.16653764  0.83409066  1
  Sn  Sn31  1  0.49995464  0.49956341  0.83406099  1
  Sn  Sn32  1  0.49997780  0.16702735  0.16680042  1
  Sn  Sn33  1  0.83420805  0.49859978  0.49978501  1
  Sn  Sn34  1  0.16667845  0.49963711  0.16666318  1
  Sn  Sn35  1  0.49954037  0.83445789  0.49992798  1
  Sn  Sn36  1  0.83332995  0.83406753  0.16572710  1
  Sn  Sn37  1  0.83318760  0.16618983  0.16718033  1
  Sn  Sn38  1  0.83270201  0.16789695  0.49949608  1
  Sn  Sn39  1  0.16744389  0.49940697  0.83376859  1
  Sn  Sn40  1  0.16687854  0.16718498  0.16552976  1
  Pb  Pb41  1  0.83394113  0.50175833  0.83109610  1
  Pb  Pb42  1  0.49773906  0.16815899  0.83320230  1
  Pb  Pb43  1  0.17010432  0.82979271  0.49972616  1
  Pb  Pb44  1  0.83536948  0.49943694  0.16896137  1
  Pb  Pb45  1  0.16462593  0.83387550  0.16688238  1
  Pb  Pb46  1  0.83185351  0.83367876  0.49933832  1
  Pb  Pb47  1  0.50274921  0.83602459  0.16856480  1
  Pb  Pb48  1  0.50248080  0.83085507  0.83146232  1
  Pb  Pb49  1  0.16679082  0.16798556  0.49987932  1
  Pb  Pb50  1  0.83595012  0.16496162  0.83290733  1
  Pb  Pb51  1  0.49740306  0.49721725  0.16375027  1
  Pb  Pb52  1  0.16463509  0.83329117  0.83329802  1
  Pb  Pb53  1  0.49987697  0.49896281  0.50117785  1
  I  I54  1  0.16839709  0.00397250  0.16185760  1
  I  I55  1  0.16349841  0.00016617  0.50068091  1
  I  I56  1  0.16544996  0.00296687  0.83872411  1
  I  I57  1  0.16398439  0.33243509  0.16596440  1
  I  I58  1  0.16746402  0.33622474  0.50066567  1
  I  I59  1  0.16908486  0.33430811  0.83380620  1
  I  I60  1  0.16454474  0.66355521  0.16620877  1
  I  I61  1  0.15964808  0.66144705  0.50160192  1
  I  I62  1  0.16958600  0.66309819  0.83311442  1
  I  I63  1  0.49404196  0.00428173  0.16721659  1
  I  I64  1  0.50714295  0.00191151  0.49714238  1
  I  I65  1  0.49850830  0.00013715  0.83402740  1
  I  I66  1  0.50544306  0.32925921  0.17508031  1
  I  I67  1  0.50126820  0.33030807  0.49671523  1
  I  I68  1  0.49839949  0.33595469  0.82970839  1
  I  I69  1  0.50013613  0.66654633  0.16831263  1
  I  I70  1  0.50100392  0.66788649  0.50322735  1
  I  I71  1  0.49197801  0.66312415  0.83011017  1
  I  I72  1  0.83619130  0.00190794  0.16936939  1
  I  I73  1  0.83154015  0.00295025  0.49895912  1
  I  I74  1  0.83470703  -0.00261888  0.83234346  1
  I  I75  1  0.83211854  0.32992308  0.16935609  1
  I  I76  1  0.83105956  0.33220729  0.49516136  1
  I  I77  1  0.83206807  0.33331069  0.83466485  1
  I  I78  1  0.83590610  0.66863986  0.16468638  1
  I  I79  1  0.83577793  0.66458138  0.50103828  1
  I  I80  1  0.83472776  0.66949040  0.83716971  1
  I  I81  1  0.16523707  0.17566031  0.00122347  1
  I  I82  1  0.16655967  0.17109973  0.33049300  1
  I  I83  1  0.16655122  0.17203089  0.66861592  1
  I  I84  1  0.17019688  0.49453099  -0.00015558  1
  I  I85  1  0.16154707  0.49515979  0.33319251  1
  I  I86  1  0.16724659  0.49559973  0.66704300  1
  I  I87  1  0.16806107  0.82916767  0.00010474  1
  I  I88  1  0.16239450  0.83386877  0.33337702  1
  I  I89  1  0.16205501  0.83502703  0.66651159  1
  I  I90  1  0.50312800  0.16981172  0.00283477  1
  I  I91  1  0.49876389  0.16383224  0.33355349  1
  I  I92  1  0.50412356  0.16482744  0.66377510  1
  I  I93  1  0.49549269  0.49901353  -0.00370819  1
  I  I94  1  0.49896504  0.50261815  0.33306966  1
  I  I95  1  0.49398654  0.49850060  0.66877197  1
  I  I96  1  0.49947127  0.83337665  0.00016574  1
  I  I97  1  0.50273462  0.83166921  0.33637071  1
  I  I98  1  0.50375706  0.84007198  0.66372283  1
  I  I99  1  0.83101214  0.16433007  0.00292697  1
  I  I100  1  0.83540274  0.16422193  0.33287741  1
  I  I101  1  0.82986522  0.16876148  0.66362585  1
  I  I102  1  0.83359520  0.49887701  0.00014578  1
  I  I103  1  0.83757626  0.50100243  0.33687370  1
  I  I104  1  0.83791241  0.49659325  0.66316997  1
  I  I105  1  0.83408358  0.83827061  0.00099685  1
  I  I106  1  0.83305147  0.83532735  0.33096029  1
  I  I107  1  0.83245414  0.83201776  0.66790917  1
  I  I108  1  -0.00011915  0.16676251  0.16711392  1
  I  I109  1  -0.00252745  0.16879504  0.49728445  1
  I  I110  1  0.00365731  0.17421868  0.83725298  1
  I  I111  1  0.00344164  0.49428655  0.16175317  1
  I  I112  1  0.00010499  0.49433697  0.50240418  1
  I  I113  1  0.00331273  0.49717619  0.83454543  1
  I  I114  1  -0.00340704  0.83874800  0.16498966  1
  I  I115  1  -0.00018860  0.83478586  0.50067799  1
  I  I116  1  -0.00312195  0.83130847  0.83520854  1
  I  I117  1  0.33287874  0.17308344  0.16861388  1
  I  I118  1  0.33578356  0.16498184  0.49681106  1
  I  I119  1  0.32972101  0.16943565  0.83610482  1
  I  I120  1  0.32923145  0.49434961  0.17336591  1
  I  I121  1  0.33060586  0.49977882  0.49966322  1
  I  I122  1  0.33145456  0.49601612  0.82892661  1
  I  I123  1  0.33369425  0.83318085  0.16819068  1
  I  I124  1  0.33758140  0.84074669  0.50069422  1
  I  I125  1  0.33347425  0.83405900  0.83154495  1
  I  I126  1  0.66731681  0.16167672  0.17224793  1
  I  I127  1  0.66724187  0.16885768  0.49262226  1
  I  I128  1  0.66678827  0.16811570  0.83525205  1
  I  I129  1  0.66668710  0.50019158  0.16678557  1
  I  I130  1  0.66884487  0.50002339  0.50243773  1
  I  I131  1  0.66487771  0.50169046  0.82922940  1
  I  I132  1  0.67062066  0.83764339  0.16341399  1
  I  I133  1  0.66431684  0.83187773  0.50034449  1
  I  I134  1  0.67001993  0.83269613  0.83655361  1
