# generated using pymatgen
data_Cs27Sn13Pb14I81
_symmetry_space_group_name_H-M   'P 1'
_cell_length_a   18.97735495
_cell_length_b   18.98218095
_cell_length_c   18.97126706
_cell_angle_alpha   90.00138433
_cell_angle_beta   89.99973927
_cell_angle_gamma   89.99959021
_symmetry_Int_Tables_number   1
_chemical_formula_structural   Cs27Sn13Pb14I81
_chemical_formula_sum   'Cs27 Sn13 Pb14 I81'
_cell_volume   6834.04960982
_cell_formula_units_Z   1
loop_
 _symmetry_equiv_pos_site_id
 _symmetry_equiv_pos_as_xyz
  1  'x, y, z'
loop_
 _atom_site_type_symbol
 _atom_site_label
 _atom_site_symmetry_multiplicity
 _atom_site_fract_x
 _atom_site_fract_y
 _atom_site_fract_z
 _atom_site_occupancy
  Cs  Cs0  1  -0.00226226  -0.00240609  -0.00211392  1
  Cs  Cs1  1  0.00267939  0.00535204  0.33514162  1
  Cs  Cs2  1  0.00057680  0.00089896  0.66701899  1
  Cs  Cs3  1  -0.00173928  0.33388048  -0.00024813  1
  Cs  Cs4  1  -0.00231464  0.33363721  0.33443375  1
  Cs  Cs5  1  0.00044462  0.33214605  0.66528122  1
  Cs  Cs6  1  -0.00161945  0.66771898  0.00562497  1
  Cs  Cs7  1  -0.00508977  0.66248251  0.32317561  1
  Cs  Cs8  1  0.00367297  0.66738052  0.66785199  1
  Cs  Cs9  1  0.33394518  0.00115982  0.00347985  1
  Cs  Cs10  1  0.33574094  0.00030293  0.32488943  1
  Cs  Cs11  1  0.33207153  -0.00156212  0.66698889  1
  Cs  Cs12  1  0.33557645  0.33360547  0.00018906  1
  Cs  Cs13  1  0.33290862  0.33165942  0.33249491  1
  Cs  Cs14  1  0.33426104  0.33556256  0.66743886  1
  Cs  Cs15  1  0.33139362  0.66488239  -0.00143957  1
  Cs  Cs16  1  0.33406447  0.66835822  0.33492118  1
  Cs  Cs17  1  0.33260685  0.66544830  0.66626810  1
  Cs  Cs18  1  0.66739361  0.00173997  0.00067467  1
  Cs  Cs19  1  0.66208892  -0.00860892  0.33486372  1
  Cs  Cs20  1  0.66712381  -0.00230632  0.66557055  1
  Cs  Cs21  1  0.66522247  0.33152310  -0.00194226  1
  Cs  Cs22  1  0.66799113  0.33514072  0.33437833  1
  Cs  Cs23  1  0.66466355  0.33416399  0.66754498  1
  Cs  Cs24  1  0.67041429  0.66676654  -0.00085706  1
  Cs  Cs25  1  0.67159943  0.67167953  0.33414805  1
  Cs  Cs26  1  0.66648064  0.66999903  0.66471962  1
  Sn  Sn27  1  0.16663988  0.83231555  0.50045188  1
  Sn  Sn28  1  0.83296294  0.16654160  0.16634873  1
  Sn  Sn29  1  0.16728769  0.50087370  0.50056953  1
  Sn  Sn30  1  0.49981104  0.16715058  0.50071230  1
  Sn  Sn31  1  0.49981968  0.16558456  0.83248847  1
  Sn  Sn32  1  0.83446611  0.49935563  0.83264540  1
  Sn  Sn33  1  0.49937922  0.49941637  0.49890600  1
  Sn  Sn34  1  0.16690338  0.16682157  0.83317477  1
  Sn  Sn35  1  0.49911040  0.83435918  0.83331145  1
  Sn  Sn36  1  0.83328199  0.16767901  0.83377613  1
  Sn  Sn37  1  0.16777020  0.83326355  0.83282717  1
  Sn  Sn38  1  0.49987945  0.50013286  0.16809227  1
  Sn  Sn39  1  0.16555461  0.49993426  0.83276860  1
  Pb  Pb40  1  0.16417015  0.16697876  0.16378267  1
  Pb  Pb41  1  0.49797909  0.83309309  0.50194228  1
  Pb  Pb42  1  0.83387171  0.83358078  0.83313178  1
  Pb  Pb43  1  0.83038285  0.16659188  0.50056900  1
  Pb  Pb44  1  0.16905982  0.16689506  0.50183372  1
  Pb  Pb45  1  0.16670333  0.83332280  0.16677122  1
  Pb  Pb46  1  0.83749754  0.83317127  0.50017666  1
  Pb  Pb47  1  0.83076159  0.49807794  0.16406828  1
  Pb  Pb48  1  0.50189690  0.16818907  0.16668916  1
  Pb  Pb49  1  0.83363911  0.50004475  0.50239562  1
  Pb  Pb50  1  0.16850875  0.49980909  0.16694496  1
  Pb  Pb51  1  0.49989055  0.83028167  0.16344469  1
  Pb  Pb52  1  0.49993603  0.50015131  0.83262950  1
  Pb  Pb53  1  0.83337283  0.83675189  0.16667021  1
  I  I54  1  0.16703645  0.00020911  0.16744221  1
  I  I55  1  0.16669874  -0.00223908  0.50604600  1
  I  I56  1  0.16694520  0.00012620  0.82952674  1
  I  I57  1  0.16752292  0.33340943  0.16593487  1
  I  I58  1  0.16922788  0.33631860  0.50529208  1
  I  I59  1  0.16643096  0.33355455  0.82997684  1
  I  I60  1  0.16677295  0.66644586  0.16068588  1
  I  I61  1  0.17397929  0.66544664  0.51135531  1
  I  I62  1  0.16823761  0.66629037  0.82912059  1
  I  I63  1  0.50155587  0.00004363  0.16872809  1
  I  I64  1  0.50027434  0.00244877  0.50383902  1
  I  I65  1  0.49778089  0.00153505  0.82846023  1
  I  I66  1  0.50020240  0.33592767  0.16438492  1
  I  I67  1  0.49498647  0.33389856  0.50334392  1
  I  I68  1  0.49850111  0.33092290  0.83296307  1
  I  I69  1  0.49956504  0.66255887  0.17075410  1
  I  I70  1  0.49751258  0.66372461  0.49915895  1
  I  I71  1  0.49698847  0.66856627  0.83379729  1
  I  I72  1  0.83223936  0.00453103  0.15638798  1
  I  I73  1  0.83275345  0.00019255  0.50225720  1
  I  I74  1  0.83496815  0.00343178  0.83715786  1
  I  I75  1  0.83273777  0.33049097  0.16212265  1
  I  I76  1  0.83749976  0.33323360  0.49944367  1
  I  I77  1  0.83549930  0.33239753  0.83647661  1
  I  I78  1  0.83269324  0.66635394  0.16483796  1
  I  I79  1  0.82657206  0.66639883  0.50312996  1
  I  I80  1  0.83470548  0.66383655  0.83246577  1
  I  I81  1  0.17265437  0.16721100  -0.00542142  1
  I  I82  1  0.16627404  0.16600232  0.33363907  1
  I  I83  1  0.16234071  0.16690466  0.67068261  1
  I  I84  1  0.16521937  0.50041716  -0.00372791  1
  I  I85  1  0.16971446  0.50497697  0.33700113  1
  I  I86  1  0.16939334  0.50028657  0.66791921  1
  I  I87  1  0.16968907  0.83289942  -0.00423038  1
  I  I88  1  0.16695355  0.82804505  0.33692267  1
  I  I89  1  0.17080583  0.83207986  0.66859450  1
  I  I90  1  0.49842917  0.16561356  -0.00353502  1
  I  I91  1  0.50107045  0.16974521  0.33612657  1
  I  I92  1  0.50163351  0.16984521  0.66845431  1
  I  I93  1  0.50050823  0.49954031  0.00096033  1
  I  I94  1  0.49387823  0.49291838  0.33518553  1
  I  I95  1  0.49859845  0.49817811  0.66435160  1
  I  I96  1  0.49398334  0.83815337  -0.00481009  1
  I  I97  1  0.49812665  0.83685253  0.33355961  1
  I  I98  1  0.49811662  0.83291868  0.67013177  1
  I  I99  1  0.83145139  0.17097434  -0.00289742  1
  I  I100  1  0.83212719  0.16694410  0.33084145  1
  I  I101  1  0.83512635  0.17011668  0.67061962  1
  I  I102  1  0.83712435  0.49826746  -0.00413419  1
  I  I103  1  0.83581061  0.49788252  0.33319527  1
  I  I104  1  0.83218284  0.49246598  0.67068987  1
  I  I105  1  0.83496738  0.83034333  -0.00063691  1
  I  I106  1  0.83295607  0.83432464  0.33333989  1
  I  I107  1  0.82970438  0.83569172  0.66722912  1
  I  I108  1  -0.00368823  0.16764973  0.16109510  1
  I  I109  1  0.00025843  0.16649593  0.50038482  1
  I  I110  1  0.00031788  0.16726700  0.83773913  1
  I  I111  1  -0.00030299  0.49940925  0.16825010  1
  I  I112  1  0.00363071  0.50348141  0.50396940  1
  I  I113  1  0.00137513  0.49650369  0.82840390  1
  I  I114  1  0.00007847  0.83172464  0.16390497  1
  I  I115  1  0.00560990  0.82888258  0.51011966  1
  I  I116  1  0.00357334  0.83588469  0.82915841  1
  I  I117  1  0.33366285  0.16704795  0.16546293  1
  I  I118  1  0.33691407  0.16914923  0.50660953  1
  I  I119  1  0.33355717  0.16693076  0.82844907  1
  I  I120  1  0.33634399  0.49784484  0.16371551  1
  I  I121  1  0.33316816  0.49960719  0.50383508  1
  I  I122  1  0.33070898  0.49808786  0.83271953  1
  I  I123  1  0.33351502  0.83534098  0.16635295  1
  I  I124  1  0.33020405  0.83120241  0.50535384  1
  I  I125  1  0.33240674  0.83551978  0.82996254  1
  I  I126  1  0.66931829  0.16947344  0.15759225  1
  I  I127  1  0.66237670  0.17345478  0.50693978  1
  I  I128  1  0.66629078  0.16807284  0.83388763  1
  I  I129  1  0.66314210  0.49841502  0.16976730  1
  I  I130  1  0.66344421  0.49468667  0.49904631  1
  I  I131  1  0.66836764  0.49609265  0.83459648  1
  I  I132  1  0.66636058  0.83232530  0.16448576  1
  I  I133  1  0.66622610  0.83338890  0.50162292  1
  I  I134  1  0.66398046  0.83543346  0.83381467  1
