# generated using pymatgen
data_Cs27Sn14Pb13I81
_symmetry_space_group_name_H-M   'P 1'
_cell_length_a   18.96154296
_cell_length_b   18.95756313
_cell_length_c   18.96218719
_cell_angle_alpha   90.00159576
_cell_angle_beta   90.00093588
_cell_angle_gamma   90.00155832
_symmetry_Int_Tables_number   1
_chemical_formula_structural   Cs27Sn14Pb13I81
_chemical_formula_sum   'Cs27 Sn14 Pb13 I81'
_cell_volume   6816.23592974
_cell_formula_units_Z   1
loop_
 _symmetry_equiv_pos_site_id
 _symmetry_equiv_pos_as_xyz
  1  'x, y, z'
loop_
 _atom_site_type_symbol
 _atom_site_label
 _atom_site_symmetry_multiplicity
 _atom_site_fract_x
 _atom_site_fract_y
 _atom_site_fract_z
 _atom_site_occupancy
  Cs  Cs0  1  -0.00293624  0.00122022  -0.00274181  1
  Cs  Cs1  1  0.00336866  0.00289076  0.33629562  1
  Cs  Cs2  1  -0.00269899  0.00011955  0.66796708  1
  Cs  Cs3  1  -0.00004953  0.33403455  0.00020366  1
  Cs  Cs4  1  -0.00245055  0.33177844  0.33379234  1
  Cs  Cs5  1  -0.00173427  0.33065136  0.66733029  1
  Cs  Cs6  1  0.00024505  0.66536622  0.00059163  1
  Cs  Cs7  1  0.00002032  0.66562590  0.33276889  1
  Cs  Cs8  1  0.00304975  0.66888385  0.66685552  1
  Cs  Cs9  1  0.33406186  0.00086949  0.00052482  1
  Cs  Cs10  1  0.33557856  0.00514512  0.33114835  1
  Cs  Cs11  1  0.33226737  -0.00298775  0.66730761  1
  Cs  Cs12  1  0.33278181  0.33428005  -0.00092098  1
  Cs  Cs13  1  0.33449875  0.32506663  0.33162422  1
  Cs  Cs14  1  0.33662071  0.33501151  0.66829632  1
  Cs  Cs15  1  0.33251248  0.66521614  -0.00106888  1
  Cs  Cs16  1  0.33091024  0.66836668  0.33256152  1
  Cs  Cs17  1  0.33268897  0.66765947  0.66753953  1
  Cs  Cs18  1  0.66906591  -0.00110663  0.00157007  1
  Cs  Cs19  1  0.66020111  -0.00048838  0.32931369  1
  Cs  Cs20  1  0.67064237  0.00039786  0.66864816  1
  Cs  Cs21  1  0.66826852  0.33490624  -0.00107685  1
  Cs  Cs22  1  0.66898706  0.33392513  0.34124080  1
  Cs  Cs23  1  0.66553076  0.33438792  0.65947288  1
  Cs  Cs24  1  0.66885853  0.66720881  0.00437505  1
  Cs  Cs25  1  0.67127107  0.66591318  0.33053218  1
  Cs  Cs26  1  0.66240105  0.66576066  0.66516031  1
  Sn  Sn27  1  0.49923952  0.49995660  0.16699836  1
  Sn  Sn28  1  0.49933288  0.83419629  0.83298924  1
  Sn  Sn29  1  0.16741062  0.16658011  0.83329237  1
  Sn  Sn30  1  0.16673720  0.83305440  0.16643482  1
  Sn  Sn31  1  0.16700696  0.50012931  0.49992542  1
  Sn  Sn32  1  0.16720070  0.83355109  0.83372224  1
  Sn  Sn33  1  0.16573178  0.49986406  0.83308676  1
  Sn  Sn34  1  0.16779704  0.50038488  0.16703944  1
  Sn  Sn35  1  0.16696466  0.83263911  0.49978716  1
  Sn  Sn36  1  0.49970853  0.83309671  0.50051605  1
  Sn  Sn37  1  0.83335723  0.16663840  0.16667780  1
  Sn  Sn38  1  0.83335972  0.83322748  0.49996331  1
  Sn  Sn39  1  0.83381860  0.50037427  0.83298134  1
  Sn  Sn40  1  0.49953826  0.16588882  0.83343027  1
  Pb  Pb41  1  0.49717155  0.50237729  0.49710519  1
  Pb  Pb42  1  0.83586094  0.50206764  0.50247425  1
  Pb  Pb43  1  0.16681016  0.16654717  0.50297742  1
  Pb  Pb44  1  0.83330222  0.16394285  0.49744203  1
  Pb  Pb45  1  0.50220820  0.16937073  0.16418927  1
  Pb  Pb46  1  0.83286937  0.16877950  0.83424777  1
  Pb  Pb47  1  0.16547115  0.16693782  0.16430170  1
  Pb  Pb48  1  0.49784488  0.83176649  0.16623712  1
  Pb  Pb49  1  0.49982455  0.16389813  0.50285175  1
  Pb  Pb50  1  0.83307549  0.83125289  0.83190506  1
  Pb  Pb51  1  0.49966963  0.50058984  0.83442888  1
  Pb  Pb52  1  0.83637811  0.83523978  0.16909626  1
  Pb  Pb53  1  0.83405879  0.49852666  0.16538477  1
  I  I54  1  0.16468970  -0.00282232  0.16717104  1
  I  I55  1  0.16658718  -0.00400088  0.49954668  1
  I  I56  1  0.17068657  -0.00124538  0.83344467  1
  I  I57  1  0.16844303  0.33656530  0.16565037  1
  I  I58  1  0.16564513  0.33652818  0.49963111  1
  I  I59  1  0.16649490  0.33431024  0.83443661  1
  I  I60  1  0.16922442  0.66631409  0.16272961  1
  I  I61  1  0.16658722  0.66785119  0.50391382  1
  I  I62  1  0.16677995  0.66701065  0.83319327  1
  I  I63  1  0.49967385  -0.00011628  0.16824223  1
  I  I64  1  0.49572196  -0.00461139  0.49942990  1
  I  I65  1  0.49213855  -0.00115617  0.83043339  1
  I  I66  1  0.49204481  0.33701955  0.16323591  1
  I  I67  1  0.49948573  0.33363938  0.50075586  1
  I  I68  1  0.49625526  0.33151213  0.83747950  1
  I  I69  1  0.49812740  0.66394090  0.16326007  1
  I  I70  1  0.50015927  0.67058365  0.50812856  1
  I  I71  1  0.49618768  0.66973865  0.83031954  1
  I  I72  1  0.83457021  0.00256761  0.16437369  1
  I  I73  1  0.83824632  -0.00422018  0.50257419  1
  I  I74  1  0.83592545  -0.00019193  0.83314658  1
  I  I75  1  0.83595791  0.33110227  0.16348925  1
  I  I76  1  0.83482504  0.33361000  0.50022977  1
  I  I77  1  0.83880766  0.33653493  0.83543035  1
  I  I78  1  0.83204983  0.66671675  0.16635120  1
  I  I79  1  0.83265097  0.67011364  0.49964155  1
  I  I80  1  0.83886719  0.66357279  0.83457432  1
  I  I81  1  0.16899065  0.16654883  -0.00389504  1
  I  I82  1  0.16438049  0.16618460  0.33319678  1
  I  I83  1  0.16870999  0.16658752  0.67130513  1
  I  I84  1  0.16658641  0.50283655  -0.00059689  1
  I  I85  1  0.17051577  0.50892850  0.33292838  1
  I  I86  1  0.16214912  0.50341029  0.66754758  1
  I  I87  1  0.17102300  0.83038803  -0.00117867  1
  I  I88  1  0.16554165  0.82609274  0.33398743  1
  I  I89  1  0.16737102  0.83072699  0.66702379  1
  I  I90  1  0.49561708  0.16027185  -0.00371646  1
  I  I91  1  0.50152130  0.16593820  0.33317166  1
  I  I92  1  0.49615254  0.16759532  0.67102495  1
  I  I93  1  0.49417395  0.50188355  0.00212736  1
  I  I94  1  0.49566004  0.50189451  0.32954770  1
  I  I95  1  0.50027139  0.49818641  0.66649278  1
  I  I96  1  0.49487237  0.83513648  -0.00309012  1
  I  I97  1  0.49891363  0.83040964  0.33581691  1
  I  I98  1  0.49495323  0.83572542  0.66742450  1
  I  I99  1  0.83477011  0.16679444  0.00185274  1
  I  I100  1  0.83560433  0.16875210  0.32993946  1
  I  I101  1  0.83373307  0.16705538  0.66668928  1
  I  I102  1  0.83924272  0.50035437  -0.00261340  1
  I  I103  1  0.83371783  0.49933302  0.33362913  1
  I  I104  1  0.83812582  0.49913029  0.67032741  1
  I  I105  1  0.83347480  0.83319169  0.00008847  1
  I  I106  1  0.83312562  0.83269687  0.33701807  1
  I  I107  1  0.83872179  0.83268650  0.66400431  1
  I  I108  1  -0.00194173  0.16797305  0.16330223  1
  I  I109  1  0.00028604  0.16382845  0.50244911  1
  I  I110  1  0.00287683  0.16458430  0.83473705  1
  I  I111  1  0.00377502  0.50291002  0.16693874  1
  I  I112  1  0.00421583  0.50634287  0.49595794  1
  I  I113  1  0.00301417  0.50024177  0.83582984  1
  I  I114  1  0.00470345  0.82675747  0.16471144  1
  I  I115  1  0.00197387  0.82977940  0.50022691  1
  I  I116  1  0.00350220  0.83502701  0.83245803  1
  I  I117  1  0.33333669  0.16565882  0.16692257  1
  I  I118  1  0.33313204  0.16531309  0.49636049  1
  I  I119  1  0.33225387  0.16758199  0.83440840  1
  I  I120  1  0.33085443  0.50387009  0.16289493  1
  I  I121  1  0.32895654  0.50645743  0.50673200  1
  I  I122  1  0.32982155  0.50044068  0.83238954  1
  I  I123  1  0.32940404  0.83199035  0.16939035  1
  I  I124  1  0.33202527  0.82898334  0.50255589  1
  I  I125  1  0.33177078  0.83190207  0.82926823  1
  I  I126  1  0.66943727  0.16701914  0.16329398  1
  I  I127  1  0.66652872  0.16600999  0.50245981  1
  I  I128  1  0.66386227  0.16258197  0.83589091  1
  I  I129  1  0.66475145  0.49924589  0.16201753  1
  I  I130  1  0.66653166  0.50193947  0.50024345  1
  I  I131  1  0.66833910  0.50015898  0.83725999  1
  I  I132  1  0.66660641  0.83199678  0.16681570  1
  I  I133  1  0.66584444  0.83481466  0.50599098  1
  I  I134  1  0.66367485  0.83600211  0.82882960  1
