# generated using pymatgen
data_Cs27Sn14Pb13I81
_symmetry_space_group_name_H-M   'P 1'
_cell_length_a   18.96515774
_cell_length_b   18.95855160
_cell_length_c   18.95999419
_cell_angle_alpha   89.99850539
_cell_angle_beta   90.00259305
_cell_angle_gamma   89.99824282
_symmetry_Int_Tables_number   1
_chemical_formula_structural   Cs27Sn14Pb13I81
_chemical_formula_sum   'Cs27 Sn14 Pb13 I81'
_cell_volume   6817.10233310
_cell_formula_units_Z   1
loop_
 _symmetry_equiv_pos_site_id
 _symmetry_equiv_pos_as_xyz
  1  'x, y, z'
loop_
 _atom_site_type_symbol
 _atom_site_label
 _atom_site_symmetry_multiplicity
 _atom_site_fract_x
 _atom_site_fract_y
 _atom_site_fract_z
 _atom_site_occupancy
  Cs  Cs0  1  0.00123766  -0.00057428  0.00277465  1
  Cs  Cs1  1  -0.00177736  0.00993400  0.33003949  1
  Cs  Cs2  1  -0.00051649  -0.00206686  0.66651698  1
  Cs  Cs3  1  0.00150355  0.33426772  0.00036071  1
  Cs  Cs4  1  0.00104244  0.32835669  0.33377221  1
  Cs  Cs5  1  -0.00102695  0.33551686  0.66491676  1
  Cs  Cs6  1  0.00020253  0.66699348  -0.00148701  1
  Cs  Cs7  1  0.00167657  0.66573375  0.33469767  1
  Cs  Cs8  1  -0.00121452  0.66591992  0.66831241  1
  Cs  Cs9  1  0.32985828  0.00446554  -0.00229448  1
  Cs  Cs10  1  0.33520527  -0.00101050  0.34319273  1
  Cs  Cs11  1  0.33678673  0.00505096  0.66120764  1
  Cs  Cs12  1  0.33371121  0.33108498  0.00064650  1
  Cs  Cs13  1  0.33056267  0.33334134  0.33161316  1
  Cs  Cs14  1  0.33415817  0.32856153  0.66620911  1
  Cs  Cs15  1  0.33264247  0.66579947  0.00058416  1
  Cs  Cs16  1  0.33413433  0.66932875  0.33484467  1
  Cs  Cs17  1  0.33158855  0.66718183  0.66589663  1
  Cs  Cs18  1  0.66775033  -0.00238856  0.00151918  1
  Cs  Cs19  1  0.66620957  0.00071165  0.33242976  1
  Cs  Cs20  1  0.66512479  0.00161217  0.66575874  1
  Cs  Cs21  1  0.66399088  0.33611352  -0.00111984  1
  Cs  Cs22  1  0.66698434  0.33348988  0.33396119  1
  Cs  Cs23  1  0.66723302  0.33386804  0.66703100  1
  Cs  Cs24  1  0.66648984  0.66603952  0.00037397  1
  Cs  Cs25  1  0.66440764  0.66718831  0.33066631  1
  Cs  Cs26  1  0.66932726  0.66492888  0.66873837  1
  Sn  Sn27  1  0.49969606  0.83265908  0.83354812  1
  Sn  Sn28  1  0.83354219  0.16653581  0.83368860  1
  Sn  Sn29  1  0.50010591  0.16633471  0.16648427  1
  Sn  Sn30  1  0.83415905  0.50029088  0.16674833  1
  Sn  Sn31  1  0.16707331  0.83250431  0.83387528  1
  Sn  Sn32  1  0.49963270  0.50078824  0.83244562  1
  Sn  Sn33  1  0.16684127  0.50063225  0.83404435  1
  Sn  Sn34  1  0.50059366  0.50034564  0.50088405  1
  Sn  Sn35  1  0.16579331  0.50120713  0.16579256  1
  Sn  Sn36  1  0.83368369  0.83240606  0.50022199  1
  Sn  Sn37  1  0.16664191  0.83252976  0.16624468  1
  Sn  Sn38  1  0.83343595  0.50006039  0.83347142  1
  Sn  Sn39  1  0.83247698  0.50112438  0.49979666  1
  Sn  Sn40  1  0.83329608  0.83337843  0.83280829  1
  Pb  Pb41  1  0.50263933  0.83092366  0.50257149  1
  Pb  Pb42  1  0.49945687  0.49927921  0.16652199  1
  Pb  Pb43  1  0.49711245  0.83558617  0.16426823  1
  Pb  Pb44  1  0.16646969  0.16656041  0.50030572  1
  Pb  Pb45  1  0.50051557  0.16976060  0.49742755  1
  Pb  Pb46  1  0.16876717  0.16658564  0.16646430  1
  Pb  Pb47  1  0.83320657  0.16685068  0.50235732  1
  Pb  Pb48  1  0.83151121  0.16951260  0.16419255  1
  Pb  Pb49  1  0.16644804  0.49997378  0.50029086  1
  Pb  Pb50  1  0.16378679  0.83324332  0.50041276  1
  Pb  Pb51  1  0.16413289  0.16660889  0.83317164  1
  Pb  Pb52  1  0.83511575  0.83140458  0.16670988  1
  Pb  Pb53  1  0.50209400  0.16673300  0.83454883  1
  I  I54  1  0.16701264  -0.00311934  0.16055918  1
  I  I55  1  0.16507084  -0.00071959  0.49987402  1
  I  I56  1  0.16563831  -0.00373820  0.83781307  1
  I  I57  1  0.16422057  0.33685824  0.16257769  1
  I  I58  1  0.16454762  0.33417835  0.49970718  1
  I  I59  1  0.16667788  0.33715226  0.83732801  1
  I  I60  1  0.16327772  0.66545347  0.16121806  1
  I  I61  1  0.16853336  0.66645313  0.49887042  1
  I  I62  1  0.16283274  0.66596242  0.83724775  1
  I  I63  1  0.50040393  0.00283221  0.16308469  1
  I  I64  1  0.50057844  -0.00028532  0.50049734  1
  I  I65  1  0.50074706  -0.00298609  0.83658602  1
  I  I66  1  0.49956173  0.33193102  0.16409331  1
  I  I67  1  0.50665555  0.33790768  0.50737589  1
  I  I68  1  0.50090566  0.33686545  0.83163527  1
  I  I69  1  0.50145908  0.66669942  0.16783730  1
  I  I70  1  0.50202151  0.66282023  0.50014922  1
  I  I71  1  0.50415582  0.66553840  0.83120880  1
  I  I72  1  0.83437770  -0.00007317  0.16638081  1
  I  I73  1  0.83496412  -0.00314922  0.50572997  1
  I  I74  1  0.83296499  -0.00157927  0.82876493  1
  I  I75  1  0.83873330  0.33802029  0.16665576  1
  I  I76  1  0.83032900  0.33719382  0.50135360  1
  I  I77  1  0.83269846  0.33566651  0.83355866  1
  I  I78  1  0.83296521  0.66285386  0.16195954  1
  I  I79  1  0.83064975  0.66522978  0.50600026  1
  I  I80  1  0.83350691  0.66586320  0.83246076  1
  I  I81  1  0.16674177  0.16734206  -0.00019506  1
  I  I82  1  0.16617690  0.16780345  0.33278526  1
  I  I83  1  0.16745254  0.16775803  0.66741834  1
  I  I84  1  0.16338173  0.50315572  -0.00108565  1
  I  I85  1  0.16423497  0.50279572  0.33016294  1
  I  I86  1  0.16381597  0.50452980  0.67038635  1
  I  I87  1  0.16404541  0.82905094  -0.00171207  1
  I  I88  1  0.16592643  0.82807464  0.33047932  1
  I  I89  1  0.16666341  0.82776667  0.67059200  1
  I  I90  1  0.50087484  0.17077336  0.00188871  1
  I  I91  1  0.49993623  0.16871771  0.32994950  1
  I  I92  1  0.50073467  0.16554190  0.66669256  1
  I  I93  1  0.50330248  0.50167974  -0.00323634  1
  I  I94  1  0.50412284  0.49666784  0.33553348  1
  I  I95  1  0.50379440  0.50290412  0.66842434  1
  I  I96  1  0.50643205  0.82609776  -0.00424142  1
  I  I97  1  0.49985506  0.83324345  0.33348121  1
  I  I98  1  0.49539457  0.83286031  0.67108844  1
  I  I99  1  0.83269411  0.16611483  -0.00375016  1
  I  I100  1  0.83294704  0.16660047  0.33307802  1
  I  I101  1  0.83195950  0.17130177  0.67048858  1
  I  I102  1  0.83304349  0.49991261  -0.00152438  1
  I  I103  1  0.83230400  0.50466157  0.33370920  1
  I  I104  1  0.83296116  0.50011574  0.66818099  1
  I  I105  1  0.83182802  0.83209497  -0.00364048  1
  I  I106  1  0.83471143  0.82726309  0.33577959  1
  I  I107  1  0.83516758  0.82862908  0.66895586  1
  I  I108  1  -0.00008091  0.16591119  0.16631921  1
  I  I109  1  -0.00075373  0.16924465  0.49918353  1
  I  I110  1  -0.00395081  0.16825722  0.83393397  1
  I  I111  1  -0.00014322  0.50279307  0.16264278  1
  I  I112  1  -0.00346622  0.50337147  0.50323285  1
  I  I113  1  -0.00092486  0.50170312  0.83380062  1
  I  I114  1  0.00305288  0.83120190  0.16023044  1
  I  I115  1  -0.00411901  0.82518816  0.50742196  1
  I  I116  1  -0.00057384  0.83042597  0.83306401  1
  I  I117  1  0.33606156  0.17108356  0.16353201  1
  I  I118  1  0.33391697  0.16811004  0.50053621  1
  I  I119  1  0.33350624  0.16726926  0.83474549  1
  I  I120  1  0.33043070  0.50096175  0.16326359  1
  I  I121  1  0.33604981  0.49871509  0.50301162  1
  I  I122  1  0.33328451  0.50620084  0.83405706  1
  I  I123  1  0.32921528  0.82545458  0.16083086  1
  I  I124  1  0.33343951  0.83273193  0.50029166  1
  I  I125  1  0.33288875  0.82534013  0.83907606  1
  I  I126  1  0.66418297  0.16925594  0.16496641  1
  I  I127  1  0.66688621  0.16577427  0.49965280  1
  I  I128  1  0.66996464  0.16827351  0.83453054  1
  I  I129  1  0.66911123  0.49770480  0.16378689  1
  I  I130  1  0.66800111  0.50261849  0.50340520  1
  I  I131  1  0.66760969  0.50165214  0.83345028  1
  I  I132  1  0.66673605  0.83290370  0.16539980  1
  I  I133  1  0.67065413  0.83081038  0.50550654  1
  I  I134  1  0.66750667  0.83048775  0.82945098  1
