# generated using pymatgen
data_Cs27Sn14Pb13I81
_symmetry_space_group_name_H-M   'P 1'
_cell_length_a   18.96250526
_cell_length_b   18.99142432
_cell_length_c   18.97414474
_cell_angle_alpha   90.00009804
_cell_angle_beta   90.00191508
_cell_angle_gamma   89.99928696
_symmetry_Int_Tables_number   1
_chemical_formula_structural   Cs27Sn14Pb13I81
_chemical_formula_sum   'Cs27 Sn14 Pb13 I81'
_cell_volume   6833.06355764
_cell_formula_units_Z   1
loop_
 _symmetry_equiv_pos_site_id
 _symmetry_equiv_pos_as_xyz
  1  'x, y, z'
loop_
 _atom_site_type_symbol
 _atom_site_label
 _atom_site_symmetry_multiplicity
 _atom_site_fract_x
 _atom_site_fract_y
 _atom_site_fract_z
 _atom_site_occupancy
  Cs  Cs0  1  -0.00236046  0.00086532  0.00317840  1
  Cs  Cs1  1  0.00115760  -0.00026111  0.33148178  1
  Cs  Cs2  1  -0.00105961  0.00229200  0.66525078  1
  Cs  Cs3  1  -0.00093755  0.33185815  0.00017293  1
  Cs  Cs4  1  0.00058364  0.33307966  0.33218776  1
  Cs  Cs5  1  0.00114282  0.33049743  0.66786677  1
  Cs  Cs6  1  -0.00072859  0.66786392  0.00230317  1
  Cs  Cs7  1  0.00039587  0.66714159  0.33371627  1
  Cs  Cs8  1  -0.00002534  0.66704785  0.66406849  1
  Cs  Cs9  1  0.33485119  -0.00490561  -0.00070462  1
  Cs  Cs10  1  0.33439700  0.00191115  0.33191650  1
  Cs  Cs11  1  0.33465581  -0.00325304  0.66888191  1
  Cs  Cs12  1  0.33308323  0.33356409  -0.00214329  1
  Cs  Cs13  1  0.33496400  0.33215876  0.33432734  1
  Cs  Cs14  1  0.33270648  0.33369826  0.66783876  1
  Cs  Cs15  1  0.33417339  0.67192733  -0.00255709  1
  Cs  Cs16  1  0.33191045  0.66590219  0.33195185  1
  Cs  Cs17  1  0.33285929  0.66990840  0.67118209  1
  Cs  Cs18  1  0.66968711  0.00121138  -0.00061249  1
  Cs  Cs19  1  0.65999033  0.00030666  0.33534739  1
  Cs  Cs20  1  0.66777500  -0.00061757  0.66570906  1
  Cs  Cs21  1  0.66766070  0.33437399  -0.00202162  1
  Cs  Cs22  1  0.65777534  0.33995083  0.33349816  1
  Cs  Cs23  1  0.66579966  0.33311007  0.66991800  1
  Cs  Cs24  1  0.66613099  0.66467111  0.00052076  1
  Cs  Cs25  1  0.66035962  0.65778870  0.34160473  1
  Cs  Cs26  1  0.66690808  0.66755352  0.66127291  1
  Sn  Sn27  1  0.16620029  0.49963945  0.49936643  1
  Sn  Sn28  1  0.50077726  0.16715179  0.83364910  1
  Sn  Sn29  1  0.83358708  0.16696874  0.49898844  1
  Sn  Sn30  1  0.83347697  0.16622693  0.16774387  1
  Sn  Sn31  1  0.16603285  0.16667909  0.16723885  1
  Sn  Sn32  1  0.50085849  0.49925905  0.83349684  1
  Sn  Sn33  1  0.83274027  0.16658200  0.83334999  1
  Sn  Sn34  1  0.16614238  0.83390291  0.49909747  1
  Sn  Sn35  1  0.16575734  0.16651736  0.49922366  1
  Sn  Sn36  1  0.16628221  0.49972828  0.16703974  1
  Sn  Sn37  1  0.83304961  0.50015663  0.83323271  1
  Sn  Sn38  1  0.16560552  0.83370683  0.16760037  1
  Sn  Sn39  1  0.83381051  0.83336033  0.83381560  1
  Sn  Sn40  1  0.83296320  0.83367421  0.16696507  1
  Pb  Pb41  1  0.50362191  0.83336894  0.83353385  1
  Pb  Pb42  1  0.49669583  0.49983582  0.50288073  1
  Pb  Pb43  1  0.50120925  0.83332838  0.16680712  1
  Pb  Pb44  1  0.49665127  0.83347879  0.49978594  1
  Pb  Pb45  1  0.16385550  0.83352356  0.83379847  1
  Pb  Pb46  1  0.16650923  0.16644567  0.83371481  1
  Pb  Pb47  1  0.83490027  0.49999412  0.16521946  1
  Pb  Pb48  1  0.16643226  0.50005616  0.83352949  1
  Pb  Pb49  1  0.83487650  0.83539701  0.49870912  1
  Pb  Pb50  1  0.83551483  0.49716288  0.50231030  1
  Pb  Pb51  1  0.50032121  0.16661850  0.16418510  1
  Pb  Pb52  1  0.49677197  0.49996347  0.16401295  1
  Pb  Pb53  1  0.49965959  0.16666938  0.50248770  1
  I  I54  1  0.16233587  0.00028449  0.17210927  1
  I  I55  1  0.16244963  0.00076037  0.49523444  1
  I  I56  1  0.16878249  0.00009320  0.83173827  1
  I  I57  1  0.16278640  0.33240945  0.17128419  1
  I  I58  1  0.16306432  0.33248242  0.49511690  1
  I  I59  1  0.16302517  0.33323929  0.83357875  1
  I  I60  1  0.16299510  0.66732550  0.17164183  1
  I  I61  1  0.16737786  0.66680250  0.49484670  1
  I  I62  1  0.16695842  0.66666328  0.83266541  1
  I  I63  1  0.49421545  0.00014461  0.16320120  1
  I  I64  1  0.49794942  0.00037865  0.50396405  1
  I  I65  1  0.50264968  0.00277006  0.83303213  1
  I  I66  1  0.49935573  0.33321465  0.16683922  1
  I  I67  1  0.49719919  0.33321948  0.49941380  1
  I  I68  1  0.50820399  0.33287248  0.83358196  1
  I  I69  1  0.49916878  0.66658244  0.16243141  1
  I  I70  1  0.50033884  0.66642932  0.50361637  1
  I  I71  1  0.50176930  0.66386018  0.83343919  1
  I  I72  1  0.84291922  0.00086854  0.15916988  1
  I  I73  1  0.84006162  0.00350941  0.50697121  1
  I  I74  1  0.83072684  0.00115185  0.83405606  1
  I  I75  1  0.83913064  0.33016972  0.16408006  1
  I  I76  1  0.84058517  0.32901733  0.50038814  1
  I  I77  1  0.82968361  0.33223987  0.83331312  1
  I  I78  1  0.84012621  0.66946094  0.15849280  1
  I  I79  1  0.83556349  0.66659914  0.50241524  1
  I  I80  1  0.83162156  0.66677028  0.83886693  1
  I  I81  1  0.16363594  0.16727887  0.00340763  1
  I  I82  1  0.15925819  0.16690767  0.33309983  1
  I  I83  1  0.16352429  0.16776009  0.66372319  1
  I  I84  1  0.16645413  0.49938724  0.00295417  1
  I  I85  1  0.16524753  0.50000883  0.33308943  1
  I  I86  1  0.16650650  0.49897695  0.66392800  1
  I  I87  1  0.16576297  0.83324535  0.00359989  1
  I  I88  1  0.16050387  0.83285256  0.33236190  1
  I  I89  1  0.16599823  0.83295510  0.66379044  1
  I  I90  1  0.50370420  0.17082645  -0.00378888  1
  I  I91  1  0.50211766  0.16617863  0.33330581  1
  I  I92  1  0.50370286  0.17079477  0.67050853  1
  I  I93  1  0.50231417  0.49517698  -0.00391150  1
  I  I94  1  0.50174279  0.50089784  0.33348387  1
  I  I95  1  0.50239281  0.49476478  0.67068921  1
  I  I96  1  0.49201955  0.83320005  -0.00016483  1
  I  I97  1  0.50520745  0.83357768  0.33325712  1
  I  I98  1  0.49825522  0.83366450  0.66705675  1
  I  I99  1  0.83420508  0.16612506  -0.00009222  1
  I  I100  1  0.84160281  0.16038860  0.33243793  1
  I  I101  1  0.83459733  0.16706469  0.66729349  1
  I  I102  1  0.83337487  0.49527966  -0.00317174  1
  I  I103  1  0.83311011  0.50078411  0.33347878  1
  I  I104  1  0.83258194  0.50037681  0.67068775  1
  I  I105  1  0.83977925  0.83843126  0.00018514  1
  I  I106  1  0.83820262  0.83920557  0.32979769  1
  I  I107  1  0.83467173  0.83459510  0.66890869  1
  I  I108  1  0.00009841  0.16615305  0.16398525  1
  I  I109  1  0.00072554  0.16678719  0.50338521  1
  I  I110  1  -0.00350451  0.16811570  0.83297889  1
  I  I111  1  0.00342988  0.49959862  0.16693211  1
  I  I112  1  0.00378190  0.50175551  0.49938995  1
  I  I113  1  -0.00296688  0.49750542  0.83324300  1
  I  I114  1  0.00075828  0.83464567  0.16505222  1
  I  I115  1  0.00342352  0.83141872  0.49993931  1
  I  I116  1  -0.00409369  0.83451246  0.83463950  1
  I  I117  1  0.32971495  0.16623005  0.17024360  1
  I  I118  1  0.32943206  0.16680864  0.49653877  1
  I  I119  1  0.33574212  0.17315809  0.83285592  1
  I  I120  1  0.32813666  0.49936246  0.16887718  1
  I  I121  1  0.32840052  0.49674245  0.49780648  1
  I  I122  1  0.33567274  0.49365712  0.83285397  1
  I  I123  1  0.32951901  0.83411598  0.17048455  1
  I  I124  1  0.32765521  0.83653546  0.49504500  1
  I  I125  1  0.33338446  0.83259915  0.83273154  1
  I  I126  1  0.67062230  0.16079937  0.16794341  1
  I  I127  1  0.66999509  0.16539782  0.49864094  1
  I  I128  1  0.66896063  0.16735690  0.83337051  1
  I  I129  1  0.66677399  0.49983316  0.16661736  1
  I  I130  1  0.66677470  0.49886306  0.49896471  1
  I  I131  1  0.66794603  0.49789635  0.83456314  1
  I  I132  1  0.67119496  0.84093440  0.15876530  1
  I  I133  1  0.66712473  0.83535777  0.50100033  1
  I  I134  1  0.67161964  0.83479344  0.83980734  1
