# generated using pymatgen
data_Cs27Sn13Pb14I81
_symmetry_space_group_name_H-M   'P 1'
_cell_length_a   18.98252994
_cell_length_b   18.97292245
_cell_length_c   18.97386269
_cell_angle_alpha   90.00291775
_cell_angle_beta   90.00196854
_cell_angle_gamma   90.00121407
_symmetry_Int_Tables_number   1
_chemical_formula_structural   Cs27Sn13Pb14I81
_chemical_formula_sum   'Cs27 Sn13 Pb14 I81'
_cell_volume   6833.51382774
_cell_formula_units_Z   1
loop_
 _symmetry_equiv_pos_site_id
 _symmetry_equiv_pos_as_xyz
  1  'x, y, z'
loop_
 _atom_site_type_symbol
 _atom_site_label
 _atom_site_symmetry_multiplicity
 _atom_site_fract_x
 _atom_site_fract_y
 _atom_site_fract_z
 _atom_site_occupancy
  Cs  Cs0  1  0.00103873  -0.00120491  -0.00099264  1
  Cs  Cs1  1  -0.00161428  -0.00084170  0.33155245  1
  Cs  Cs2  1  0.00298588  0.00321439  0.67141934  1
  Cs  Cs3  1  -0.00065548  0.33285153  -0.00271956  1
  Cs  Cs4  1  0.00031284  0.33467688  0.33325738  1
  Cs  Cs5  1  -0.00414421  0.33286689  0.67015527  1
  Cs  Cs6  1  0.00191872  0.67031422  0.00157786  1
  Cs  Cs7  1  -0.00110682  0.66447856  0.33951660  1
  Cs  Cs8  1  0.00027176  0.66359877  0.66109101  1
  Cs  Cs9  1  0.33121784  -0.00045252  0.00094032  1
  Cs  Cs10  1  0.33345314  0.00126051  0.33315803  1
  Cs  Cs11  1  0.33483504  -0.00057788  0.66614262  1
  Cs  Cs12  1  0.33481402  0.33691509  0.00426029  1
  Cs  Cs13  1  0.33452848  0.33404395  0.33144558  1
  Cs  Cs14  1  0.33456452  0.32934260  0.66495482  1
  Cs  Cs15  1  0.33343486  0.66476146  -0.00095321  1
  Cs  Cs16  1  0.32846691  0.66372898  0.33447929  1
  Cs  Cs17  1  0.33493461  0.67107065  0.66707372  1
  Cs  Cs18  1  0.66733994  -0.00168789  0.00329966  1
  Cs  Cs19  1  0.66895454  0.00079892  0.33143841  1
  Cs  Cs20  1  0.66103229  0.00002092  0.66587627  1
  Cs  Cs21  1  0.66527910  0.33750694  0.00001343  1
  Cs  Cs22  1  0.66410866  0.33050658  0.33276534  1
  Cs  Cs23  1  0.66816251  0.33516419  0.66680981  1
  Cs  Cs24  1  0.66527769  0.66662606  -0.00369615  1
  Cs  Cs25  1  0.67468551  0.67245479  0.33591367  1
  Cs  Cs26  1  0.66397411  0.66367805  0.66837695  1
  Sn  Sn27  1  0.16667288  0.50079634  0.83329370  1
  Sn  Sn28  1  0.49878428  0.83308890  0.16697751  1
  Sn  Sn29  1  0.16756409  0.83384889  0.16637292  1
  Sn  Sn30  1  0.16582834  0.16620776  0.16738648  1
  Sn  Sn31  1  0.83402601  0.83344125  0.83281158  1
  Sn  Sn32  1  0.83353599  0.16646989  0.49956422  1
  Sn  Sn33  1  0.49986574  0.49969111  0.49963944  1
  Sn  Sn34  1  0.16639613  0.16655013  0.49908735  1
  Sn  Sn35  1  0.50008272  0.16743956  0.50071967  1
  Sn  Sn36  1  0.83357399  0.49923234  0.16651423  1
  Sn  Sn37  1  0.16576908  0.83224665  0.83386471  1
  Sn  Sn38  1  0.83427688  0.16777980  0.16698913  1
  Sn  Sn39  1  0.50003927  0.16683841  0.83346273  1
  Pb  Pb40  1  0.83135440  0.49745374  0.49815099  1
  Pb  Pb41  1  0.16840288  0.49703801  0.50246470  1
  Pb  Pb42  1  0.16650256  0.83558977  0.49995530  1
  Pb  Pb43  1  0.49990066  0.83361131  0.49734255  1
  Pb  Pb44  1  0.83102766  0.16515051  0.83391402  1
  Pb  Pb45  1  0.83344635  0.83616977  0.50342983  1
  Pb  Pb46  1  0.16495983  0.49999604  0.16541774  1
  Pb  Pb47  1  0.49784720  0.49775580  0.83148415  1
  Pb  Pb48  1  0.83428702  0.83364603  0.16549284  1
  Pb  Pb49  1  0.16836090  0.16636012  0.83402594  1
  Pb  Pb50  1  0.83529775  0.50240026  0.83521364  1
  Pb  Pb51  1  0.49998700  0.16568938  0.16709182  1
  Pb  Pb52  1  0.50236555  0.50318263  0.16914712  1
  Pb  Pb53  1  0.49934293  0.83499664  0.83511027  1
  I  I54  1  0.16500220  0.00053955  0.16434918  1
  I  I55  1  0.16987679  0.00418359  0.50109561  1
  I  I56  1  0.16431219  -0.00242152  0.83489762  1
  I  I57  1  0.16495527  0.33019032  0.16850611  1
  I  I58  1  0.16571235  0.32875894  0.49552073  1
  I  I59  1  0.16925735  0.33480500  0.83296390  1
  I  I60  1  0.16928487  0.66959393  0.16263952  1
  I  I61  1  0.16904434  0.66643017  0.49792864  1
  I  I62  1  0.16404976  0.66826544  0.84019421  1
  I  I63  1  0.50065840  -0.00212855  0.16737032  1
  I  I64  1  0.49976356  0.00366743  0.50316492  1
  I  I65  1  0.49797860  0.00285083  0.82660371  1
  I  I66  1  0.49813058  0.33337006  0.16465697  1
  I  I67  1  0.49979211  0.33097642  0.50340601  1
  I  I68  1  0.49854631  0.32975468  0.83269647  1
  I  I69  1  0.49490113  0.67064994  0.16592486  1
  I  I70  1  0.49987717  0.66411788  0.49845030  1
  I  I71  1  0.50186461  0.66671195  0.83216052  1
  I  I72  1  0.83370280  0.00285564  0.16954389  1
  I  I73  1  0.83008233  0.00459371  0.49190571  1
  I  I74  1  0.84036760  -0.00246635  0.83610448  1
  I  I75  1  0.83816733  0.33124659  0.16991706  1
  I  I76  1  0.83545161  0.32902725  0.49966575  1
  I  I77  1  0.83440877  0.33322407  0.83221889  1
  I  I78  1  0.83175852  0.66498555  0.16361357  1
  I  I79  1  0.83088366  0.66644326  0.49791110  1
  I  I80  1  0.83332654  0.67027928  0.83761079  1
  I  I81  1  0.16354600  0.16475598  0.00296356  1
  I  I82  1  0.16823041  0.16150404  0.33262330  1
  I  I83  1  0.16558458  0.16684134  0.66438451  1
  I  I84  1  0.16676003  0.49867280  -0.00251061  1
  I  I85  1  0.16652626  0.50231787  0.33346867  1
  I  I86  1  0.16674779  0.50544767  0.67015574  1
  I  I87  1  0.16643457  0.83698188  0.00047214  1
  I  I88  1  0.17091715  0.83676463  0.33002047  1
  I  I89  1  0.16304101  0.83173153  0.66990112  1
  I  I90  1  0.49919898  0.16303840  -0.00160772  1
  I  I91  1  0.49987125  0.16852374  0.33618262  1
  I  I92  1  0.49922981  0.16830976  0.66516306  1
  I  I93  1  0.50039059  0.49833228  0.00016843  1
  I  I94  1  0.49865810  0.49034505  0.33648083  1
  I  I95  1  0.50050792  0.49744520  0.66354555  1
  I  I96  1  0.49934358  0.83712138  0.00287007  1
  I  I97  1  0.49520376  0.83672180  0.32949265  1
  I  I98  1  0.50003287  0.83355070  0.66660933  1
  I  I99  1  0.83702254  0.16758788  0.00312611  1
  I  I100  1  0.83149758  0.16899661  0.33292003  1
  I  I101  1  0.83558065  0.16395496  0.66400335  1
  I  I102  1  0.83260526  0.49206233  0.00307992  1
  I  I103  1  0.83459040  0.50044587  0.33014629  1
  I  I104  1  0.83325793  0.49965950  0.66659655  1
  I  I105  1  0.83478947  0.83662478  -0.00216341  1
  I  I106  1  0.83271491  0.83190112  0.33327681  1
  I  I107  1  0.83924662  0.83499732  0.67111565  1
  I  I108  1  0.00040273  0.16410221  0.17335952  1
  I  I109  1  0.00010773  0.16450812  0.49507723  1
  I  I110  1  0.00014231  0.16745534  0.83049790  1
  I  I111  1  -0.00282634  0.49956957  0.16619552  1
  I  I112  1  -0.00003224  0.49924214  0.50010820  1
  I  I113  1  0.00314765  0.49917788  0.83339423  1
  I  I114  1  0.00301975  0.83634716  0.16273725  1
  I  I115  1  0.00001533  0.83401771  0.49505050  1
  I  I116  1  0.00153321  0.83285902  0.84070279  1
  I  I117  1  0.33065658  0.16333660  0.16865808  1
  I  I118  1  0.33347773  0.16960144  0.50031603  1
  I  I119  1  0.33588490  0.16440140  0.82862414  1
  I  I120  1  0.33326164  0.49777282  0.16617443  1
  I  I121  1  0.33614709  0.49279359  0.49911935  1
  I  I122  1  0.33018370  0.50609011  0.83499388  1
  I  I123  1  0.33158347  0.84032397  0.16114408  1
  I  I124  1  0.33322003  0.83688577  0.50391983  1
  I  I125  1  0.33020056  0.83162336  0.83602821  1
  I  I126  1  0.66911592  0.16690596  0.16927961  1
  I  I127  1  0.66649557  0.16979137  0.49961786  1
  I  I128  1  0.66348113  0.16380105  0.82939215  1
  I  I129  1  0.66993420  0.49361149  0.16634302  1
  I  I130  1  0.66360416  0.49344256  0.50012061  1
  I  I131  1  0.66662169  0.50119436  0.83347657  1
  I  I132  1  0.66538005  0.83468214  0.16531761  1
  I  I133  1  0.66664027  0.83639909  0.49837998  1
  I  I134  1  0.66834545  0.83713526  0.83638447  1
