# generated using pymatgen
data_Cs27Sn13Pb14I81
_symmetry_space_group_name_H-M   'P 1'
_cell_length_a   19.08361855
_cell_length_b   19.09291977
_cell_length_c   19.08878143
_cell_angle_alpha   90.00177555
_cell_angle_beta   89.99869384
_cell_angle_gamma   89.99877343
_symmetry_Int_Tables_number   1
_chemical_formula_structural   Cs27Sn13Pb14I81
_chemical_formula_sum   'Cs27 Sn13 Pb14 I81'
_cell_volume   6955.22653288
_cell_formula_units_Z   1
loop_
 _symmetry_equiv_pos_site_id
 _symmetry_equiv_pos_as_xyz
  1  'x, y, z'
loop_
 _atom_site_type_symbol
 _atom_site_label
 _atom_site_symmetry_multiplicity
 _atom_site_fract_x
 _atom_site_fract_y
 _atom_site_fract_z
 _atom_site_occupancy
  Cs  Cs0  1  -0.00174028  -0.00765043  -0.00057445  1
  Cs  Cs1  1  -0.01001639  -0.00959968  0.32859218  1
  Cs  Cs2  1  -0.00621753  0.00187166  0.66837797  1
  Cs  Cs3  1  0.00700430  0.33615709  -0.00555507  1
  Cs  Cs4  1  -0.00319338  0.33130758  0.33526478  1
  Cs  Cs5  1  0.00463349  0.33219447  0.66955220  1
  Cs  Cs6  1  -0.00272983  0.67079019  -0.00280476  1
  Cs  Cs7  1  -0.00629821  0.68210087  0.32547356  1
  Cs  Cs8  1  -0.00213399  0.66660825  0.67379564  1
  Cs  Cs9  1  0.33920930  -0.00109951  0.00203989  1
  Cs  Cs10  1  0.33098537  -0.00758320  0.34202980  1
  Cs  Cs11  1  0.33465527  0.00443835  0.66326703  1
  Cs  Cs12  1  0.33253877  0.33250083  0.00106117  1
  Cs  Cs13  1  0.33280483  0.33334669  0.33345773  1
  Cs  Cs14  1  0.33018615  0.32849947  0.66695140  1
  Cs  Cs15  1  0.33511636  0.66925611  -0.00092463  1
  Cs  Cs16  1  0.33936811  0.67636900  0.33938810  1
  Cs  Cs17  1  0.33529924  0.66701472  0.66653552  1
  Cs  Cs18  1  0.65866448  0.00079585  0.00619450  1
  Cs  Cs19  1  0.68590649  0.00729876  0.33754062  1
  Cs  Cs20  1  0.67122974  -0.00230964  0.66264600  1
  Cs  Cs21  1  0.65971065  0.32963313  0.01189372  1
  Cs  Cs22  1  0.68194810  0.34467796  0.32165334  1
  Cs  Cs23  1  0.67117544  0.33263644  0.66570261  1
  Cs  Cs24  1  0.66617958  0.67008535  0.00071605  1
  Cs  Cs25  1  0.66609722  0.64394444  0.34767664  1
  Cs  Cs26  1  0.66376834  0.67009380  0.65801813  1
  Sn  Sn27  1  0.16749242  0.16705174  0.16720354  1
  Sn  Sn28  1  0.83196226  0.49828372  0.83379276  1
  Sn  Sn29  1  0.16651382  0.16593709  0.83411460  1
  Sn  Sn30  1  0.49893400  0.83262495  0.83377369  1
  Sn  Sn31  1  0.16896305  0.83399951  0.83286710  1
  Sn  Sn32  1  0.16716251  0.16761040  0.49898994  1
  Sn  Sn33  1  0.49951122  0.16755680  0.49931960  1
  Sn  Sn34  1  0.16778840  0.50025116  0.83346873  1
  Sn  Sn35  1  0.16654448  0.49953668  0.49896658  1
  Sn  Sn36  1  0.83373863  0.16816572  0.83429192  1
  Sn  Sn37  1  0.50013128  0.50003766  0.83312468  1
  Sn  Sn38  1  0.50002173  0.83347329  0.16736353  1
  Sn  Sn39  1  0.16727456  0.49974255  0.16786138  1
  Pb  Pb40  1  0.83699830  0.16695271  0.16283355  1
  Pb  Pb41  1  0.83460995  0.16769874  0.50238252  1
  Pb  Pb42  1  0.16641331  0.83340638  0.50306009  1
  Pb  Pb43  1  0.49692342  0.16447689  0.17017261  1
  Pb  Pb44  1  0.49708651  0.49661074  0.50276231  1
  Pb  Pb45  1  0.49998638  0.83610389  0.49995269  1
  Pb  Pb46  1  0.83788776  0.49953309  0.50308820  1
  Pb  Pb47  1  0.83330109  0.83224864  0.50024112  1
  Pb  Pb48  1  0.16852101  0.83328402  0.16417134  1
  Pb  Pb49  1  0.83209041  0.83330321  0.83372846  1
  Pb  Pb50  1  0.50001281  0.16680558  0.83190359  1
  Pb  Pb51  1  0.49662406  0.50177258  0.16452701  1
  Pb  Pb52  1  0.83702562  0.50005295  0.16302983  1
  Pb  Pb53  1  0.82854023  0.83247186  0.16585899  1
  I  I54  1  0.16827827  0.00279472  0.16565296  1
  I  I55  1  0.17335908  0.00314024  0.50092297  1
  I  I56  1  0.16517999  0.00050201  0.83318024  1
  I  I57  1  0.16799335  0.33322776  0.15680246  1
  I  I58  1  0.17219109  0.33286114  0.50948348  1
  I  I59  1  0.16534469  0.33349235  0.83293833  1
  I  I60  1  0.16679146  0.66370064  0.16520787  1
  I  I61  1  0.16621978  0.66349774  0.50164710  1
  I  I62  1  0.16518186  0.66564752  0.83317789  1
  I  I63  1  0.49482631  -0.00226910  0.14939472  1
  I  I64  1  0.48630966  0.00317738  0.50685542  1
  I  I65  1  0.49470915  -0.00231974  0.83626393  1
  I  I66  1  0.50420623  0.33312015  0.16505801  1
  I  I67  1  0.49367672  0.32979525  0.50676496  1
  I  I68  1  0.49527923  0.33609953  0.82886769  1
  I  I69  1  0.49383166  0.66940255  0.16201783  1
  I  I70  1  0.50108790  0.66662664  0.49658574  1
  I  I71  1  0.49314127  0.66636602  0.83808582  1
  I  I72  1  0.83841436  0.00006858  0.16529146  1
  I  I73  1  0.83455896  0.00082223  0.50384210  1
  I  I74  1  0.84141838  0.00244214  0.83089462  1
  I  I75  1  0.82282388  0.33337674  0.17163556  1
  I  I76  1  0.82580081  0.33332732  0.49667705  1
  I  I77  1  0.84219185  0.33351356  0.83034967  1
  I  I78  1  0.84260979  0.66641811  0.16217491  1
  I  I79  1  0.83260378  0.66569892  0.50383425  1
  I  I80  1  0.84148439  0.66400559  0.83354960  1
  I  I81  1  0.15906502  0.17107653  -0.00152935  1
  I  I82  1  0.17755505  0.17920412  0.33357289  1
  I  I83  1  0.16674104  0.16992576  0.66781755  1
  I  I84  1  0.16586435  0.49558688  -0.00248308  1
  I  I85  1  0.16917833  0.48517075  0.33343280  1
  I  I86  1  0.16607929  0.49663519  0.66884598  1
  I  I87  1  0.16646807  0.83327575  -0.00382760  1
  I  I88  1  0.16805809  0.83215370  0.33337920  1
  I  I89  1  0.17570314  0.83213929  0.67115719  1
  I  I90  1  0.50298537  0.16940274  0.00020502  1
  I  I91  1  0.48592570  0.16133303  0.33729605  1
  I  I92  1  0.48981666  0.16470942  0.66518657  1
  I  I93  1  0.49662298  0.49837051  -0.00389539  1
  I  I94  1  0.49899803  0.50524612  0.33363905  1
  I  I95  1  0.49794296  0.51152746  0.67049779  1
  I  I96  1  0.49289038  0.82959504  -0.00238176  1
  I  I97  1  0.49372747  0.83716559  0.33058923  1
  I  I98  1  0.49576573  0.82729357  0.66972981  1
  I  I99  1  0.83989816  0.17221265  -0.00431773  1
  I  I100  1  0.83119326  0.16198080  0.33300503  1
  I  I101  1  0.84289364  0.17047029  0.66992408  1
  I  I102  1  0.83790234  0.49510874  -0.00447332  1
  I  I103  1  0.83010673  0.50279603  0.33317311  1
  I  I104  1  0.83693980  0.49496907  0.67082474  1
  I  I105  1  0.84088565  0.83345848  -0.00057479  1
  I  I106  1  0.83616343  0.83801208  0.33272734  1
  I  I107  1  0.83041582  0.83498973  0.66766448  1
  I  I108  1  0.00459101  0.17129350  0.17683306  1
  I  I109  1  0.00384802  0.17382528  0.49863673  1
  I  I110  1  0.00266086  0.17066722  0.82955811  1
  I  I111  1  0.00467496  0.49377229  0.16361734  1
  I  I112  1  0.00497536  0.48694295  0.50406564  1
  I  I113  1  0.00236983  0.49964460  0.83250699  1
  I  I114  1  -0.00034449  0.83412872  0.16849690  1
  I  I115  1  0.00038211  0.83751074  0.50125590  1
  I  I116  1  0.00243355  0.82999459  0.83155820  1
  I  I117  1  0.32949564  0.17268728  0.15372595  1
  I  I118  1  0.33066204  0.16991980  0.50728355  1
  I  I119  1  0.32971556  0.17023524  0.83546176  1
  I  I120  1  0.32915266  0.49313245  0.15985173  1
  I  I121  1  0.32950506  0.49882407  0.50593511  1
  I  I122  1  0.33138891  0.50097443  0.83321971  1
  I  I123  1  0.33527979  0.83296697  0.16172295  1
  I  I124  1  0.33312985  0.82997775  0.49661762  1
  I  I125  1  0.33249705  0.82824978  0.83783977  1
  I  I126  1  0.66688245  0.16191437  0.16736790  1
  I  I127  1  0.66473457  0.15761289  0.50776370  1
  I  I128  1  0.66916553  0.17040377  0.82639044  1
  I  I129  1  0.66679717  0.50266735  0.16685825  1
  I  I130  1  0.66699247  0.50135204  0.50077059  1
  I  I131  1  0.66651491  0.50073315  0.83237973  1
  I  I132  1  0.66176640  0.83715377  0.14810503  1
  I  I133  1  0.66595269  0.83932813  0.50675663  1
  I  I134  1  0.66326481  0.82937052  0.83825913  1
