# generated using pymatgen
data_Cs27Sn14Pb13I81
_symmetry_space_group_name_H-M   'P 1'
_cell_length_a   18.96858381
_cell_length_b   18.98269082
_cell_length_c   18.97770250
_cell_angle_alpha   90.00153364
_cell_angle_beta   89.99963999
_cell_angle_gamma   90.00122212
_symmetry_Int_Tables_number   1
_chemical_formula_structural   Cs27Sn14Pb13I81
_chemical_formula_sum   'Cs27 Sn14 Pb13 I81'
_cell_volume   6833.39169975
_cell_formula_units_Z   1
loop_
 _symmetry_equiv_pos_site_id
 _symmetry_equiv_pos_as_xyz
  1  'x, y, z'
loop_
 _atom_site_type_symbol
 _atom_site_label
 _atom_site_symmetry_multiplicity
 _atom_site_fract_x
 _atom_site_fract_y
 _atom_site_fract_z
 _atom_site_occupancy
  Cs  Cs0  1  -0.00295071  -0.00307991  -0.00096265  1
  Cs  Cs1  1  0.00218390  -0.00011511  0.33438818  1
  Cs  Cs2  1  -0.00271120  0.00179094  0.66566837  1
  Cs  Cs3  1  0.00180829  0.33675614  0.00107604  1
  Cs  Cs4  1  -0.00064941  0.33292834  0.33441453  1
  Cs  Cs5  1  -0.00197839  0.33358591  0.66389632  1
  Cs  Cs6  1  0.00074881  0.66656024  0.00138615  1
  Cs  Cs7  1  -0.00128765  0.66643544  0.33073464  1
  Cs  Cs8  1  0.00200068  0.66629585  0.66765391  1
  Cs  Cs9  1  0.33415852  0.00177345  -0.00046272  1
  Cs  Cs10  1  0.33541237  0.00156452  0.33698727  1
  Cs  Cs11  1  0.33358144  0.00011332  0.66547163  1
  Cs  Cs12  1  0.33434884  0.33251657  -0.00149282  1
  Cs  Cs13  1  0.33267970  0.32721620  0.32784619  1
  Cs  Cs14  1  0.33512190  0.33269097  0.67085474  1
  Cs  Cs15  1  0.33026162  0.66525104  -0.00249922  1
  Cs  Cs16  1  0.33850286  0.67118491  0.33679110  1
  Cs  Cs17  1  0.33338018  0.66785756  0.66633117  1
  Cs  Cs18  1  0.66887557  -0.00084161  -0.00142054  1
  Cs  Cs19  1  0.66384775  -0.00449945  0.32992480  1
  Cs  Cs20  1  0.66851251  0.00396684  0.67083570  1
  Cs  Cs21  1  0.66529796  0.33544303  0.00190769  1
  Cs  Cs22  1  0.66756437  0.33602202  0.33597248  1
  Cs  Cs23  1  0.66611234  0.33255210  0.66163567  1
  Cs  Cs24  1  0.66753221  0.66620952  0.00118466  1
  Cs  Cs25  1  0.66254548  0.66790147  0.33601033  1
  Cs  Cs26  1  0.66461585  0.66357452  0.66296492  1
  Sn  Sn27  1  0.49991052  0.16662689  0.50051684  1
  Sn  Sn28  1  0.16628868  0.83282943  0.16617799  1
  Sn  Sn29  1  0.83403656  0.50007023  0.16593409  1
  Sn  Sn30  1  0.16633513  0.50102137  0.16700662  1
  Sn  Sn31  1  0.16657415  0.16638108  0.83342745  1
  Sn  Sn32  1  0.49925611  0.83385704  0.83374114  1
  Sn  Sn33  1  0.83362686  0.16678453  0.16646090  1
  Sn  Sn34  1  0.83426207  0.83309015  0.16768413  1
  Sn  Sn35  1  0.16570922  0.49990844  0.83320974  1
  Sn  Sn36  1  0.16700624  0.49998161  0.49954537  1
  Sn  Sn37  1  0.83383478  0.83332474  0.49935573  1
  Sn  Sn38  1  0.49947122  0.16573080  0.83271197  1
  Sn  Sn39  1  0.83396538  0.50006477  0.83369309  1
  Sn  Sn40  1  0.16720052  0.83371193  0.83390949  1
  Pb  Pb41  1  0.50248852  0.16658272  0.16581227  1
  Pb  Pb42  1  0.49924731  0.83323659  0.16410969  1
  Pb  Pb43  1  0.16820882  0.16894163  0.50261411  1
  Pb  Pb44  1  0.16524886  0.83178702  0.49996424  1
  Pb  Pb45  1  0.16480523  0.16617608  0.16447561  1
  Pb  Pb46  1  0.83321204  0.16946707  0.83501443  1
  Pb  Pb47  1  0.49937979  0.50028463  0.16675121  1
  Pb  Pb48  1  0.49665719  0.49757805  0.49991005  1
  Pb  Pb49  1  0.83142626  0.16435818  0.49729353  1
  Pb  Pb50  1  0.50236072  0.83527891  0.50303517  1
  Pb  Pb51  1  0.49997390  0.49988547  0.83342351  1
  Pb  Pb52  1  0.83353340  0.83112900  0.83373913  1
  Pb  Pb53  1  0.83512686  0.50174785  0.49951946  1
  I  I54  1  0.16157884  -0.00307138  0.16127945  1
  I  I55  1  0.16647253  0.00006793  0.49967766  1
  I  I56  1  0.17155286  -0.00078057  0.83843198  1
  I  I57  1  0.16277202  0.33633935  0.16578145  1
  I  I58  1  0.16547313  0.33697970  0.49894195  1
  I  I59  1  0.16737432  0.33415656  0.83384289  1
  I  I60  1  0.15783826  0.66642648  0.16022727  1
  I  I61  1  0.16512865  0.66386616  0.50527103  1
  I  I62  1  0.16682451  0.66651239  0.83439410  1
  I  I63  1  0.50107399  -0.00006853  0.16787380  1
  I  I64  1  0.49921451  0.00290490  0.50212252  1
  I  I65  1  0.49251120  0.00031020  0.83024531  1
  I  I66  1  0.49989197  0.33322001  0.16416466  1
  I  I67  1  0.50167363  0.32992972  0.50866888  1
  I  I68  1  0.49657549  0.33043235  0.83020997  1
  I  I69  1  0.50510402  0.66690712  0.16505959  1
  I  I70  1  0.50095084  0.66691948  0.50099003  1
  I  I71  1  0.49684233  0.66922660  0.83494347  1
  I  I72  1  0.83647495  -0.00135666  0.17051709  1
  I  I73  1  0.83463237  -0.00342104  0.49618159  1
  I  I74  1  0.83520934  -0.00009968  0.83438662  1
  I  I75  1  0.83652410  0.33479316  0.16074759  1
  I  I76  1  0.83253917  0.33338171  0.49956113  1
  I  I77  1  0.83790136  0.33720144  0.83883040  1
  I  I78  1  0.83834605  0.66653933  0.16557158  1
  I  I79  1  0.83346599  0.66940760  0.49546300  1
  I  I80  1  0.83751511  0.66349403  0.83831136  1
  I  I81  1  0.17293629  0.17123768  -0.00367217  1
  I  I82  1  0.16837010  0.16742700  0.33318314  1
  I  I83  1  0.16712376  0.16587990  0.67111949  1
  I  I84  1  0.16238827  0.50093757  -0.00039749  1
  I  I85  1  0.16168226  0.50439405  0.33171582  1
  I  I86  1  0.16279281  0.50002754  0.66859317  1
  I  I87  1  0.16442265  0.82878190  -0.00053083  1
  I  I88  1  0.16290421  0.82807340  0.33017160  1
  I  I89  1  0.16869525  0.83161732  0.66993999  1
  I  I90  1  0.49638670  0.16361773  -0.00355218  1
  I  I91  1  0.50192128  0.16838712  0.33558819  1
  I  I92  1  0.49626567  0.16281918  0.66850993  1
  I  I93  1  0.49772761  0.49683482  -0.00025241  1
  I  I94  1  0.50107139  0.49733434  0.33348135  1
  I  I95  1  0.50139693  0.50226208  0.66690754  1
  I  I96  1  0.50097853  0.84029854  -0.00376545  1
  I  I97  1  0.49813408  0.83541005  0.33346595  1
  I  I98  1  0.49469597  0.83411194  0.67077302  1
  I  I99  1  0.83176549  0.16129137  0.00274367  1
  I  I100  1  0.83257523  0.17285844  0.32942808  1
  I  I101  1  0.83471186  0.16619403  0.66683040  1
  I  I102  1  0.84058088  0.50195329  0.00087556  1
  I  I103  1  0.83809983  0.49783523  0.32984955  1
  I  I104  1  0.83806908  0.50223955  0.66905448  1
  I  I105  1  0.83397792  0.83453951  0.00286948  1
  I  I106  1  0.83871943  0.83177844  0.33108260  1
  I  I107  1  0.83304846  0.83105298  0.66532406  1
  I  I108  1  -0.00313248  0.16693281  0.16441349  1
  I  I109  1  -0.00002653  0.16679162  0.50127489  1
  I  I110  1  0.00280493  0.16418077  0.83589802  1
  I  I111  1  0.00020377  0.50079840  0.16439709  1
  I  I112  1  0.00304523  0.49964544  0.50179066  1
  I  I113  1  0.00172835  0.50038417  0.83470521  1
  I  I114  1  -0.00010577  0.83216577  0.16349734  1
  I  I115  1  -0.00266858  0.83323889  0.50053076  1
  I  I116  1  0.00305242  0.83519550  0.83447110  1
  I  I117  1  0.33312065  0.16730062  0.16821509  1
  I  I118  1  0.33617982  0.16637512  0.50090712  1
  I  I119  1  0.33271857  0.16863413  0.83095073  1
  I  I120  1  0.32874899  0.50418328  0.16416719  1
  I  I121  1  0.32862295  0.50243943  0.50230823  1
  I  I122  1  0.32966080  0.49984842  0.83480081  1
  I  I123  1  0.32952275  0.82740548  0.16385870  1
  I  I124  1  0.33333562  0.83276753  0.49729210  1
  I  I125  1  0.33145744  0.83135197  0.83831869  1
  I  I126  1  0.67062715  0.16673469  0.16409372  1
  I  I127  1  0.66374030  0.16682266  0.50911904  1
  I  I128  1  0.66404279  0.16256281  0.83155023  1
  I  I129  1  0.67052538  0.50022839  0.16069372  1
  I  I130  1  0.66678041  0.50033455  0.50087326  1
  I  I131  1  0.66959928  0.50097193  0.83912985  1
  I  I132  1  0.66994060  0.83268947  0.16889527  1
  I  I133  1  0.67014093  0.83160740  0.49354303  1
  I  I134  1  0.66476864  0.83750438  0.83313625  1
