# generated using pymatgen
data_Cs27Sn13Pb14I81
_symmetry_space_group_name_H-M   'P 1'
_cell_length_a   18.97138876
_cell_length_b   18.98406302
_cell_length_c   18.97509045
_cell_angle_alpha   89.99969719
_cell_angle_beta   89.99915445
_cell_angle_gamma   89.99837781
_symmetry_Int_Tables_number   1
_chemical_formula_structural   Cs27Sn13Pb14I81
_chemical_formula_sum   'Cs27 Sn13 Pb14 I81'
_cell_volume   6833.95547610
_cell_formula_units_Z   1
loop_
 _symmetry_equiv_pos_site_id
 _symmetry_equiv_pos_as_xyz
  1  'x, y, z'
loop_
 _atom_site_type_symbol
 _atom_site_label
 _atom_site_symmetry_multiplicity
 _atom_site_fract_x
 _atom_site_fract_y
 _atom_site_fract_z
 _atom_site_occupancy
  Cs  Cs0  1  0.00278849  0.00067862  0.00518873  1
  Cs  Cs1  1  -0.00090960  0.00030272  0.33075067  1
  Cs  Cs2  1  0.00059348  0.00187753  0.66615769  1
  Cs  Cs3  1  0.00041277  0.33221195  0.00517230  1
  Cs  Cs4  1  0.00010942  0.33669746  0.32552782  1
  Cs  Cs5  1  0.00103567  0.32992997  0.66740180  1
  Cs  Cs6  1  0.00938772  0.66661239  0.00181095  1
  Cs  Cs7  1  -0.00959919  0.66017188  0.32936633  1
  Cs  Cs8  1  0.00101741  0.66443160  0.66725175  1
  Cs  Cs9  1  0.33379516  -0.00192240  0.00094386  1
  Cs  Cs10  1  0.33283157  -0.00021388  0.33532036  1
  Cs  Cs11  1  0.33243438  0.00174653  0.66499377  1
  Cs  Cs12  1  0.33449644  0.33407652  0.00123514  1
  Cs  Cs13  1  0.33382503  0.33579174  0.33649236  1
  Cs  Cs14  1  0.33250301  0.33090577  0.66204296  1
  Cs  Cs15  1  0.33229892  0.66794791  -0.00092231  1
  Cs  Cs16  1  0.33441002  0.66555887  0.33496524  1
  Cs  Cs17  1  0.32986038  0.66660467  0.66706089  1
  Cs  Cs18  1  0.66511811  0.00033405  -0.00211656  1
  Cs  Cs19  1  0.66838813  -0.00284263  0.33252469  1
  Cs  Cs20  1  0.66749233  0.00110959  0.66793526  1
  Cs  Cs21  1  0.66619820  0.33418698  -0.00210891  1
  Cs  Cs22  1  0.66584778  0.33707317  0.33381638  1
  Cs  Cs23  1  0.66567226  0.33126940  0.66773679  1
  Cs  Cs24  1  0.66419773  0.66568285  -0.00238751  1
  Cs  Cs25  1  0.67144042  0.66700820  0.33519437  1
  Cs  Cs26  1  0.66823781  0.66774642  0.66798699  1
  Sn  Sn27  1  0.83414288  0.16665488  0.50030291  1
  Sn  Sn28  1  0.50042360  0.50067668  0.83351698  1
  Sn  Sn29  1  0.16599638  0.16641211  0.83305258  1
  Sn  Sn30  1  0.50017335  0.16662736  0.16685175  1
  Sn  Sn31  1  0.16534584  0.16566803  0.50055653  1
  Sn  Sn32  1  0.50008383  0.83316635  0.16670149  1
  Sn  Sn33  1  0.16645990  0.83354435  0.49972996  1
  Sn  Sn34  1  0.83304153  0.50009317  0.83330839  1
  Sn  Sn35  1  0.50040219  0.83270152  0.83293353  1
  Sn  Sn36  1  0.83441994  0.16645775  0.83284318  1
  Sn  Sn37  1  0.49945972  0.83355151  0.50043946  1
  Sn  Sn38  1  0.83339872  0.83333825  0.83347813  1
  Sn  Sn39  1  0.50018648  0.50043627  0.16590089  1
  Pb  Pb40  1  0.16631451  0.49996451  0.50004282  1
  Pb  Pb41  1  0.50013696  0.50302932  0.50079931  1
  Pb  Pb42  1  0.50030748  0.16461402  0.49761195  1
  Pb  Pb43  1  0.16874859  0.83326488  0.17021911  1
  Pb  Pb44  1  0.83087547  0.16659157  0.16643427  1
  Pb  Pb45  1  0.16702729  0.49710553  0.83323262  1
  Pb  Pb46  1  0.83334449  0.49684073  0.50280069  1
  Pb  Pb47  1  0.49994532  0.16664227  0.83454523  1
  Pb  Pb48  1  0.83122632  0.83330927  0.16339957  1
  Pb  Pb49  1  0.16952742  0.50020229  0.16660741  1
  Pb  Pb50  1  0.16917738  0.16658014  0.16733110  1
  Pb  Pb51  1  0.16677379  0.83545542  0.83163676  1
  Pb  Pb52  1  0.83083146  0.50010659  0.16347638  1
  Pb  Pb53  1  0.83375777  0.83502292  0.50202985  1
  I  I54  1  0.17123298  0.00001672  0.16380724  1
  I  I55  1  0.16888477  0.00085511  0.50486311  1
  I  I56  1  0.16444694  0.00334188  0.83091493  1
  I  I57  1  0.17041540  0.33303657  0.16797775  1
  I  I58  1  0.16450910  0.32941513  0.50479979  1
  I  I59  1  0.16482920  0.32910568  0.82703413  1
  I  I60  1  0.16927748  0.66696161  0.16627374  1
  I  I61  1  0.17439848  0.67010808  0.50095887  1
  I  I62  1  0.16478947  0.66684208  0.83193912  1
  I  I63  1  0.49999101  -0.00107229  0.16544585  1
  I  I64  1  0.49899327  -0.00341492  0.50164471  1
  I  I65  1  0.50277198  -0.00277427  0.83451703  1
  I  I66  1  0.50015128  0.33389424  0.16055653  1
  I  I67  1  0.49918034  0.33317343  0.49924927  1
  I  I68  1  0.50287006  0.33560937  0.83906677  1
  I  I69  1  0.49940052  0.66710307  0.16466950  1
  I  I70  1  0.49475350  0.67129836  0.49678510  1
  I  I71  1  0.50728836  0.66746999  0.83753577  1
  I  I72  1  0.82840390  0.00005348  0.16350301  1
  I  I73  1  0.83276647  0.00296937  0.50719112  1
  I  I74  1  0.83057994  0.00031129  0.82914636  1
  I  I75  1  0.82932339  0.33323312  0.16527347  1
  I  I76  1  0.83750707  0.32864569  0.50557890  1
  I  I77  1  0.83123133  0.33284623  0.82925313  1
  I  I78  1  0.83088756  0.66669425  0.16851973  1
  I  I79  1  0.83283550  0.66680025  0.50081565  1
  I  I80  1  0.82544132  0.66695542  0.83353878  1
  I  I81  1  0.16293752  0.16732971  -0.00270216  1
  I  I82  1  0.16403299  0.16203267  0.33696425  1
  I  I83  1  0.16431660  0.16340718  0.66648632  1
  I  I84  1  0.16518470  0.49790942  -0.00046544  1
  I  I85  1  0.16991333  0.49701274  0.33336702  1
  I  I86  1  0.17084139  0.50116226  0.66696460  1
  I  I87  1  0.16749505  0.83515976  -0.00011086  1
  I  I88  1  0.17372704  0.84237934  0.33816652  1
  I  I89  1  0.17415450  0.83648356  0.66385726  1
  I  I90  1  0.50019866  0.16263148  0.00239101  1
  I  I91  1  0.49961208  0.16705247  0.32988021  1
  I  I92  1  0.49971902  0.16656485  0.66653458  1
  I  I93  1  0.50384856  0.50369613  -0.00076419  1
  I  I94  1  0.49795329  0.49936621  0.33049244  1
  I  I95  1  0.50385094  0.50360601  0.67036318  1
  I  I96  1  0.50508847  0.83317212  -0.00064149  1
  I  I97  1  0.49417673  0.83497722  0.33328347  1
  I  I98  1  0.50041364  0.82979467  0.66767419  1
  I  I99  1  0.83586668  0.16695306  -0.00384298  1
  I  I100  1  0.83627313  0.16449636  0.33625594  1
  I  I101  1  0.83570240  0.16661746  0.66811164  1
  I  I102  1  0.82988649  0.49603805  -0.00473384  1
  I  I103  1  0.83222802  0.49838076  0.33318755  1
  I  I104  1  0.82529731  0.50219204  0.67112039  1
  I  I105  1  0.82716962  0.83710419  -0.00514979  1
  I  I106  1  0.83163619  0.83633926  0.33351213  1
  I  I107  1  0.82580244  0.83251373  0.67029714  1
  I  I108  1  -0.00004770  0.16682721  0.16604922  1
  I  I109  1  0.00042633  0.15999668  0.50655809  1
  I  I110  1  -0.00108482  0.16656195  0.82872903  1
  I  I111  1  -0.00039123  0.49910604  0.16621648  1
  I  I112  1  -0.00024448  0.50579021  0.50257706  1
  I  I113  1  -0.00321582  0.50286567  0.83064714  1
  I  I114  1  -0.00003412  0.83445101  0.16606992  1
  I  I115  1  0.00266206  0.83744495  0.50439074  1
  I  I116  1  -0.00278156  0.83118160  0.82976961  1
  I  I117  1  0.33730431  0.16617255  0.16516158  1
  I  I118  1  0.33080742  0.16442070  0.50382525  1
  I  I119  1  0.33122832  0.16620201  0.83018877  1
  I  I120  1  0.33840716  0.49979137  0.15923233  1
  I  I121  1  0.33362692  0.49504439  0.50167237  1
  I  I122  1  0.33691527  0.50426027  0.83804957  1
  I  I123  1  0.33799507  0.83386670  0.16013274  1
  I  I124  1  0.33446414  0.83956651  0.50171408  1
  I  I125  1  0.33672255  0.83054390  0.83552357  1
  I  I126  1  0.66275055  0.16571224  0.16551744  1
  I  I127  1  0.66915351  0.16535721  0.50507041  1
  I  I128  1  0.66931892  0.16652522  0.83049683  1
  I  I129  1  0.66236407  0.49997690  0.16482459  1
  I  I130  1  0.66652001  0.49888004  0.49796845  1
  I  I131  1  0.66596182  0.49851529  0.83702428  1
  I  I132  1  0.66199664  0.83384999  0.17201461  1
  I  I133  1  0.66387289  0.83489919  0.49831634  1
  I  I134  1  0.66540193  0.83530295  0.83177640  1
