# generated using pymatgen
data_Cs27Sn13Pb14I81
_symmetry_space_group_name_H-M   'P 1'
_cell_length_a   18.97069792
_cell_length_b   18.98076852
_cell_length_c   18.97977917
_cell_angle_alpha   90.00101514
_cell_angle_beta   89.99973462
_cell_angle_gamma   89.99788876
_symmetry_Int_Tables_number   1
_chemical_formula_structural   Cs27Sn13Pb14I81
_chemical_formula_sum   'Cs27 Sn13 Pb14 I81'
_cell_volume   6834.20900256
_cell_formula_units_Z   1
loop_
 _symmetry_equiv_pos_site_id
 _symmetry_equiv_pos_as_xyz
  1  'x, y, z'
loop_
 _atom_site_type_symbol
 _atom_site_label
 _atom_site_symmetry_multiplicity
 _atom_site_fract_x
 _atom_site_fract_y
 _atom_site_fract_z
 _atom_site_occupancy
  Cs  Cs0  1  0.00107731  0.00356585  0.00171078  1
  Cs  Cs1  1  -0.00161154  0.00069089  0.33228158  1
  Cs  Cs2  1  0.00048327  -0.00000957  0.66654192  1
  Cs  Cs3  1  -0.00179577  0.32972646  -0.00066688  1
  Cs  Cs4  1  -0.00062992  0.33354921  0.33391367  1
  Cs  Cs5  1  0.00245300  0.33193413  0.66666262  1
  Cs  Cs6  1  -0.00157135  0.66309792  0.00261093  1
  Cs  Cs7  1  0.00218985  0.66455679  0.33135726  1
  Cs  Cs8  1  -0.00062946  0.66894168  0.66683120  1
  Cs  Cs9  1  0.33662615  -0.00389213  0.00186622  1
  Cs  Cs10  1  0.33565506  -0.00121186  0.33263478  1
  Cs  Cs11  1  0.33194818  0.00081127  0.66623574  1
  Cs  Cs12  1  0.34056662  0.33410939  -0.00219936  1
  Cs  Cs13  1  0.33527852  0.33555379  0.33490869  1
  Cs  Cs14  1  0.33160942  0.33255686  0.66551210  1
  Cs  Cs15  1  0.33868457  0.66984253  0.00802876  1
  Cs  Cs16  1  0.33097382  0.66666614  0.33017058  1
  Cs  Cs17  1  0.33166097  0.66640503  0.66420074  1
  Cs  Cs18  1  0.66082109  -0.00262907  0.00092384  1
  Cs  Cs19  1  0.66944250  0.00173614  0.33430854  1
  Cs  Cs20  1  0.66587490  -0.00382495  0.66693316  1
  Cs  Cs21  1  0.66219195  0.34245576  -0.00042029  1
  Cs  Cs22  1  0.66617779  0.33266005  0.33402465  1
  Cs  Cs23  1  0.66336019  0.33357600  0.66493644  1
  Cs  Cs24  1  0.66165138  0.65866539  -0.00686299  1
  Cs  Cs25  1  0.66766609  0.66545951  0.33564722  1
  Cs  Cs26  1  0.66851785  0.66923085  0.66973052  1
  Sn  Sn27  1  0.49918345  0.83256777  0.49999710  1
  Sn  Sn28  1  0.50079294  0.50121029  0.50031627  1
  Sn  Sn29  1  0.16655019  0.50025356  0.83367742  1
  Sn  Sn30  1  0.16581394  0.16571716  0.49947552  1
  Sn  Sn31  1  0.16620935  0.83326167  0.83324602  1
  Sn  Sn32  1  0.83419922  0.16736770  0.50047159  1
  Sn  Sn33  1  0.83370432  0.16583355  0.16616029  1
  Sn  Sn34  1  0.83294671  0.49925004  0.50033522  1
  Sn  Sn35  1  0.16717626  0.83423661  0.50037589  1
  Sn  Sn36  1  0.16617601  0.16638622  0.83369518  1
  Sn  Sn37  1  0.83332674  0.16638006  0.83338006  1
  Sn  Sn38  1  0.83317464  0.83363042  0.16605071  1
  Sn  Sn39  1  0.16650412  0.16683474  0.16674886  1
  Pb  Pb40  1  0.83344714  0.49925957  0.16865098  1
  Pb  Pb41  1  0.49994977  0.50003431  0.16967880  1
  Pb  Pb42  1  0.83535040  0.49761585  0.83067457  1
  Pb  Pb43  1  0.50343052  0.83340673  0.16943431  1
  Pb  Pb44  1  0.83559870  0.83553814  0.83626231  1
  Pb  Pb45  1  0.50001880  0.16632762  0.50004154  1
  Pb  Pb46  1  0.16502734  0.83525432  0.16680490  1
  Pb  Pb47  1  0.16650233  0.49665107  0.16337028  1
  Pb  Pb48  1  0.50004265  0.16653090  0.83319901  1
  Pb  Pb49  1  0.83405850  0.83363491  0.49888331  1
  Pb  Pb50  1  0.50059375  0.16663085  0.16674438  1
  Pb  Pb51  1  0.49707055  0.50015755  0.83037287  1
  Pb  Pb52  1  0.16637530  0.50005384  0.50117747  1
  Pb  Pb53  1  0.49728468  0.83339918  0.83086557  1
  I  I54  1  0.16356541  0.00356218  0.16398697  1
  I  I55  1  0.16661599  0.00093529  0.50449725  1
  I  I56  1  0.16281140  0.00110669  0.83081406  1
  I  I57  1  0.15900447  0.32822914  0.17010216  1
  I  I58  1  0.16586724  0.33023132  0.50106448  1
  I  I59  1  0.16270594  0.33154403  0.83169953  1
  I  I60  1  0.16472042  0.66680498  0.16743565  1
  I  I61  1  0.16674797  0.66922525  0.50495228  1
  I  I62  1  0.16691509  0.66744734  0.82449987  1
  I  I63  1  0.49823413  -0.00008590  0.16972446  1
  I  I64  1  0.49814901  -0.00266849  0.49986111  1
  I  I65  1  0.49820945  -0.00007524  0.82994415  1
  I  I66  1  0.50077295  0.33322881  0.16900074  1
  I  I67  1  0.50082702  0.33558284  0.50019693  1
  I  I68  1  0.49710781  0.33339791  0.83064776  1
  I  I69  1  0.50056163  0.66695032  0.16627236  1
  I  I70  1  0.49963129  0.66686852  0.50025451  1
  I  I71  1  0.49936883  0.66673432  0.83351349  1
  I  I72  1  0.83807386  0.00218877  0.17072196  1
  I  I73  1  0.83451599  0.00320332  0.50088680  1
  I  I74  1  0.84011717  0.00403032  0.82652582  1
  I  I75  1  0.83833822  0.32931454  0.16614415  1
  I  I76  1  0.83383283  0.33157568  0.49798914  1
  I  I77  1  0.84043813  0.32919147  0.83740440  1
  I  I78  1  0.83460474  0.66905829  0.17125605  1
  I  I79  1  0.83304580  0.66473700  0.49712108  1
  I  I80  1  0.83611434  0.66664218  0.83323336  1
  I  I81  1  0.15934721  0.16696974  -0.00074386  1
  I  I82  1  0.16061110  0.16197406  0.33451477  1
  I  I83  1  0.16164756  0.16617577  0.66644787  1
  I  I84  1  0.16468941  0.50094104  -0.00461030  1
  I  I85  1  0.16726462  0.49986566  0.33344615  1
  I  I86  1  0.16665117  0.49456650  0.66889329  1
  I  I87  1  0.16347055  0.83516461  -0.00267035  1
  I  I88  1  0.16905819  0.83756200  0.33644232  1
  I  I89  1  0.16963572  0.83845245  0.66584422  1
  I  I90  1  0.49868031  0.16657631  -0.00002654  1
  I  I91  1  0.49907488  0.16743611  0.33367196  1
  I  I92  1  0.49960990  0.16704756  0.66632845  1
  I  I93  1  0.49955180  0.49909396  -0.00042336  1
  I  I94  1  0.50214753  0.50237002  0.33800553  1
  I  I95  1  0.50421548  0.50284479  0.66258780  1
  I  I96  1  0.49852238  0.83428609  0.00008364  1
  I  I97  1  0.49171422  0.82980341  0.33750635  1
  I  I98  1  0.50031255  0.83069427  0.66257824  1
  I  I99  1  0.84287694  0.16083651  0.00004135  1
  I  I100  1  0.83913605  0.16661727  0.33399488  1
  I  I101  1  0.84025639  0.17152400  0.66594812  1
  I  I102  1  0.83477325  0.49925461  -0.00036386  1
  I  I103  1  0.83110708  0.49422406  0.33706992  1
  I  I104  1  0.83043970  0.49561616  0.66262214  1
  I  I105  1  0.83732556  0.84051717  0.00369194  1
  I  I106  1  0.83493013  0.83997650  0.33140338  1
  I  I107  1  0.83155667  0.83392760  0.66670255  1
  I  I108  1  -0.00021777  0.16307924  0.16737783  1
  I  I109  1  0.00038250  0.16690238  0.50025876  1
  I  I110  1  0.00122611  0.16695027  0.83239043  1
  I  I111  1  0.00004038  0.50268756  0.17126253  1
  I  I112  1  -0.00233865  0.49774890  0.50093303  1
  I  I113  1  0.00334369  0.50051316  0.82927235  1
  I  I114  1  -0.00261440  0.83686400  0.17067115  1
  I  I115  1  0.00305059  0.83486493  0.50290264  1
  I  I116  1  0.00397647  0.83278328  0.82433890  1
  I  I117  1  0.32980431  0.16690860  0.16711929  1
  I  I118  1  0.32975868  0.16660307  0.50100060  1
  I  I119  1  0.32886576  0.16718102  0.83176519  1
  I  I120  1  0.33297662  0.49840273  0.16910726  1
  I  I121  1  0.33515977  0.50016112  0.50249092  1
  I  I122  1  0.32907782  0.49450854  0.82961770  1
  I  I123  1  0.33323768  0.83489194  0.16513446  1
  I  I124  1  0.33185768  0.83367107  0.50382327  1
  I  I125  1  0.32854087  0.83798923  0.83221695  1
  I  I126  1  0.67089171  0.16255754  0.16938796  1
  I  I127  1  0.67011087  0.16750226  0.49916120  1
  I  I128  1  0.67036788  0.16654848  0.83179112  1
  I  I129  1  0.66693565  0.49731541  0.16511787  1
  I  I130  1  0.66725112  0.49888900  0.49912752  1
  I  I131  1  0.66673969  0.49779261  0.83424803  1
  I  I132  1  0.67101855  0.84317407  0.16998626  1
  I  I133  1  0.66493534  0.83285930  0.49650572  1
  I  I134  1  0.66693682  0.83572253  0.83234113  1
