# generated using pymatgen
data_Cs27Sn13Pb14I81
_symmetry_space_group_name_H-M   'P 1'
_cell_length_a   18.98945308
_cell_length_b   18.98754267
_cell_length_c   18.99799102
_cell_angle_alpha   89.99927925
_cell_angle_beta   89.99970937
_cell_angle_gamma   90.00325528
_symmetry_Int_Tables_number   1
_chemical_formula_structural   Cs27Sn13Pb14I81
_chemical_formula_sum   'Cs27 Sn13 Pb14 I81'
_cell_volume   6849.97358530
_cell_formula_units_Z   1
loop_
 _symmetry_equiv_pos_site_id
 _symmetry_equiv_pos_as_xyz
  1  'x, y, z'
loop_
 _atom_site_type_symbol
 _atom_site_label
 _atom_site_symmetry_multiplicity
 _atom_site_fract_x
 _atom_site_fract_y
 _atom_site_fract_z
 _atom_site_occupancy
  Cs  Cs0  1  0.00082973  0.00191097  0.00081622  1
  Cs  Cs1  1  -0.00226105  0.00265556  0.33218102  1
  Cs  Cs2  1  0.00058879  0.00008387  0.66909534  1
  Cs  Cs3  1  0.00105525  0.33081380  -0.00330574  1
  Cs  Cs4  1  0.00169769  0.33055810  0.33535726  1
  Cs  Cs5  1  -0.00414353  0.33420579  0.66671844  1
  Cs  Cs6  1  0.00005199  0.66618722  0.00445532  1
  Cs  Cs7  1  -0.00091083  0.66229835  0.33421466  1
  Cs  Cs8  1  0.00355049  0.66490868  0.66136059  1
  Cs  Cs9  1  0.33087071  0.00002294  0.00004617  1
  Cs  Cs10  1  0.33392375  0.00158877  0.33275128  1
  Cs  Cs11  1  0.33208451  -0.00153363  0.66953546  1
  Cs  Cs12  1  0.33731514  0.33666784  -0.00007949  1
  Cs  Cs13  1  0.33387726  0.32935193  0.33119771  1
  Cs  Cs14  1  0.33771417  0.33070550  0.66919269  1
  Cs  Cs15  1  0.33303994  0.66584412  -0.00039948  1
  Cs  Cs16  1  0.33208560  0.66755491  0.33593302  1
  Cs  Cs17  1  0.33119248  0.66938394  0.66322475  1
  Cs  Cs18  1  0.66865811  -0.00308409  -0.00134049  1
  Cs  Cs19  1  0.66806505  -0.00026067  0.33577519  1
  Cs  Cs20  1  0.66707879  -0.00136440  0.66394734  1
  Cs  Cs21  1  0.65893326  0.34295995  -0.00963548  1
  Cs  Cs22  1  0.66309908  0.33241530  0.33159464  1
  Cs  Cs23  1  0.66706425  0.33506797  0.67610197  1
  Cs  Cs24  1  0.66779516  0.66403330  0.00131259  1
  Cs  Cs25  1  0.66926283  0.66727928  0.33288324  1
  Cs  Cs26  1  0.66554755  0.66808299  0.66595377  1
  Sn  Sn27  1  0.50016797  0.50046722  0.49960450  1
  Sn  Sn28  1  0.16598270  0.16681060  0.16741037  1
  Sn  Sn29  1  0.49939834  0.83355779  0.16691286  1
  Sn  Sn30  1  0.83390877  0.16602938  0.49919837  1
  Sn  Sn31  1  0.16657726  0.49971984  0.16623986  1
  Sn  Sn32  1  0.83308045  0.16721364  0.16676667  1
  Sn  Sn33  1  0.16637195  0.50025417  0.83357595  1
  Sn  Sn34  1  0.50054281  0.83266350  0.49984280  1
  Sn  Sn35  1  0.83312202  0.83387935  0.50075391  1
  Sn  Sn36  1  0.16708450  0.83335974  0.16715302  1
  Sn  Sn37  1  0.83330740  0.83322053  0.83231632  1
  Sn  Sn38  1  0.50055724  0.83321277  0.83327271  1
  Sn  Sn39  1  0.16606001  0.16627459  0.49973953  1
  Pb  Pb40  1  0.16622200  0.83541824  0.49775900  1
  Pb  Pb41  1  0.83087147  0.49937125  0.49981343  1
  Pb  Pb42  1  0.83337471  0.83462131  0.16713029  1
  Pb  Pb43  1  0.16664950  0.16893212  0.83367410  1
  Pb  Pb44  1  0.50068916  0.16619915  0.50006695  1
  Pb  Pb45  1  0.50006619  0.16365998  0.83354424  1
  Pb  Pb46  1  0.83329540  0.16459010  0.83340786  1
  Pb  Pb47  1  0.16867464  0.49706105  0.49967150  1
  Pb  Pb48  1  0.16625707  0.83165801  0.83565653  1
  Pb  Pb49  1  0.49780498  0.50270258  0.16873318  1
  Pb  Pb50  1  0.83553772  0.49607559  0.16679999  1
  Pb  Pb51  1  0.50040161  0.16460524  0.16633343  1
  Pb  Pb52  1  0.83580978  0.50349565  0.83330716  1
  Pb  Pb53  1  0.49778379  0.50324366  0.83107594  1
  I  I54  1  0.16743106  0.00021326  0.17116130  1
  I  I55  1  0.16792340  0.00308606  0.49410662  1
  I  I56  1  0.16777250  -0.00027979  0.83427959  1
  I  I57  1  0.16098074  0.33262514  0.16746346  1
  I  I58  1  0.16224586  0.32949875  0.49416118  1
  I  I59  1  0.16744186  0.33660110  0.83874521  1
  I  I60  1  0.17225654  0.66703488  0.16159142  1
  I  I61  1  0.16474220  0.66674110  0.49869684  1
  I  I62  1  0.16713988  0.66407238  0.83904885  1
  I  I63  1  0.49358287  -0.00401454  0.16988799  1
  I  I64  1  0.50114937  -0.00355215  0.49995419  1
  I  I65  1  0.50161385  -0.00513400  0.82941426  1
  I  I66  1  0.49896912  0.33356231  0.16985522  1
  I  I67  1  0.49717119  0.33550933  0.49882098  1
  I  I68  1  0.49920287  0.33417693  0.83114304  1
  I  I69  1  0.49513540  0.67105011  0.16469061  1
  I  I70  1  0.50379009  0.66918087  0.50002461  1
  I  I71  1  0.50379383  0.67101966  0.83601637  1
  I  I72  1  0.83998657  0.00235316  0.16812707  1
  I  I73  1  0.83073996  -0.00074596  0.49962518  1
  I  I74  1  0.82998231  -0.00353074  0.83199727  1
  I  I75  1  0.83973159  0.32805484  0.17560156  1
  I  I76  1  0.83751342  0.32971006  0.49455080  1
  I  I77  1  0.83443891  0.33347080  0.83256654  1
  I  I78  1  0.83472664  0.66671647  0.16669946  1
  I  I79  1  0.83103700  0.66989889  0.50415041  1
  I  I80  1  0.82822172  0.67146449  0.82772259  1
  I  I81  1  0.16200986  0.16345410  0.00372578  1
  I  I82  1  0.16292402  0.16818327  0.33223403  1
  I  I83  1  0.16289859  0.16746760  0.66373547  1
  I  I84  1  0.16717461  0.49919701  0.00154604  1
  I  I85  1  0.16857081  0.50188067  0.33041014  1
  I  I86  1  0.16859295  0.50032980  0.66844726  1
  I  I87  1  0.17002073  0.83818760  0.00375017  1
  I  I88  1  0.17101553  0.82904828  0.32974209  1
  I  I89  1  0.16930380  0.83306718  0.66650495  1
  I  I90  1  0.49889890  0.16494149  0.00024469  1
  I  I91  1  0.49878114  0.16404231  0.33334933  1
  I  I92  1  0.49792353  0.16576385  0.66628846  1
  I  I93  1  0.50037679  0.50048924  -0.00005021  1
  I  I94  1  0.49786217  0.50655269  0.33626579  1
  I  I95  1  0.49680075  0.50529577  0.66356637  1
  I  I96  1  0.49956111  0.83604764  0.00014915  1
  I  I97  1  0.49959896  0.83001066  0.33391389  1
  I  I98  1  0.50485297  0.82968617  0.66597315  1
  I  I99  1  0.84091813  0.16267703  0.00308144  1
  I  I100  1  0.83905449  0.15872314  0.33411436  1
  I  I101  1  0.83812548  0.16390461  0.66330261  1
  I  I102  1  0.83080901  0.50098449  0.00008085  1
  I  I103  1  0.83532488  0.50700382  0.33336602  1
  I  I104  1  0.83695944  0.49513768  0.66652991  1
  I  I105  1  0.83038285  0.83495209  -0.00175138  1
  I  I106  1  0.82952998  0.83607978  0.33612053  1
  I  I107  1  0.82498382  0.83927591  0.66541081  1
  I  I108  1  0.00134543  0.16337899  0.17125752  1
  I  I109  1  -0.00042974  0.16130181  0.49511720  1
  I  I110  1  0.00006123  0.16326177  0.83323270  1
  I  I111  1  0.00427486  0.50802960  0.16494434  1
  I  I112  1  0.00016777  0.50316705  0.50006498  1
  I  I113  1  0.00355159  0.50149476  0.83712196  1
  I  I114  1  0.00273658  0.83215817  0.16582814  1
  I  I115  1  -0.00288102  0.83594938  0.50397048  1
  I  I116  1  -0.00265163  0.83265337  0.82922558  1
  I  I117  1  0.32991973  0.16744598  0.17176721  1
  I  I118  1  0.33087612  0.16715039  0.49446921  1
  I  I119  1  0.33300956  0.16383672  0.83160997  1
  I  I120  1  0.32959630  0.49460971  0.16319628  1
  I  I121  1  0.33603854  0.50775822  0.50009180  1
  I  I122  1  0.33036528  0.50158673  0.83845777  1
  I  I123  1  0.33314491  0.83538688  0.16668790  1
  I  I124  1  0.33596682  0.83110294  0.50227682  1
  I  I125  1  0.33595847  0.83163056  0.83025216  1
  I  I126  1  0.66991548  0.16113926  0.17405661  1
  I  I127  1  0.66999632  0.16357116  0.49428847  1
  I  I128  1  0.66691325  0.17001583  0.83333232  1
  I  I129  1  0.66636671  0.50018407  0.16755408  1
  I  I130  1  0.66309678  0.50157779  0.50018316  1
  I  I131  1  0.66637452  0.49731201  0.83207858  1
  I  I132  1  0.66415139  0.83628276  0.16678663  1
  I  I133  1  0.66638259  0.83558643  0.49865153  1
  I  I134  1  0.66611052  0.83462499  0.83469380  1
