# generated using pymatgen
data_Cs27Sn14Pb13I81
_symmetry_space_group_name_H-M   'P 1'
_cell_length_a   18.96042460
_cell_length_b   18.96151329
_cell_length_c   18.96112645
_cell_angle_alpha   89.99949861
_cell_angle_beta   89.99975632
_cell_angle_gamma   89.99982809
_symmetry_Int_Tables_number   1
_chemical_formula_structural   Cs27Sn14Pb13I81
_chemical_formula_sum   'Cs27 Sn14 Pb13 I81'
_cell_volume   6816.87276259
_cell_formula_units_Z   1
loop_
 _symmetry_equiv_pos_site_id
 _symmetry_equiv_pos_as_xyz
  1  'x, y, z'
loop_
 _atom_site_type_symbol
 _atom_site_label
 _atom_site_symmetry_multiplicity
 _atom_site_fract_x
 _atom_site_fract_y
 _atom_site_fract_z
 _atom_site_occupancy
  Cs  Cs0  1  -0.00082722  0.00059848  -0.00130348  1
  Cs  Cs1  1  0.00710037  -0.00125493  0.33372139  1
  Cs  Cs2  1  -0.00050218  0.00064578  0.66634692  1
  Cs  Cs3  1  -0.00159776  0.33427081  0.00885468  1
  Cs  Cs4  1  -0.00062075  0.33395613  0.32834806  1
  Cs  Cs5  1  0.00059974  0.33365338  0.66612879  1
  Cs  Cs6  1  -0.00043419  0.66514361  0.00044172  1
  Cs  Cs7  1  0.00429986  0.66705408  0.33385176  1
  Cs  Cs8  1  -0.00105041  0.66564583  0.66699899  1
  Cs  Cs9  1  0.33569330  -0.00124656  -0.00216521  1
  Cs  Cs10  1  0.32887222  -0.00177522  0.33468853  1
  Cs  Cs11  1  0.33092356  0.00214312  0.66895978  1
  Cs  Cs12  1  0.33362528  0.33161871  0.00006368  1
  Cs  Cs13  1  0.33370843  0.33411501  0.33348275  1
  Cs  Cs14  1  0.33194977  0.33404466  0.66614015  1
  Cs  Cs15  1  0.33329620  0.66837840  0.00033913  1
  Cs  Cs16  1  0.33274720  0.66770837  0.33351147  1
  Cs  Cs17  1  0.33465860  0.66346476  0.66594887  1
  Cs  Cs18  1  0.66546103  -0.00073524  -0.00026549  1
  Cs  Cs19  1  0.66690418  0.00113628  0.33246493  1
  Cs  Cs20  1  0.66804977  -0.00011513  0.66757887  1
  Cs  Cs21  1  0.66827245  0.33429687  0.00023915  1
  Cs  Cs22  1  0.66751399  0.33084276  0.33346195  1
  Cs  Cs23  1  0.66699470  0.33414500  0.66608946  1
  Cs  Cs24  1  0.66723218  0.66797470  -0.00200282  1
  Cs  Cs25  1  0.66372247  0.67025953  0.33681167  1
  Cs  Cs26  1  0.66609912  0.66429614  0.66541051  1
  Sn  Sn27  1  0.50032878  0.16644495  0.16660258  1
  Sn  Sn28  1  0.50063490  0.16641959  0.50038664  1
  Sn  Sn29  1  0.50049494  0.50032327  0.16641659  1
  Sn  Sn30  1  0.83256312  0.16636035  0.83282774  1
  Sn  Sn31  1  0.83314151  0.83384368  0.83392357  1
  Sn  Sn32  1  0.83270710  0.83349661  0.16621346  1
  Sn  Sn33  1  0.50020456  0.83373102  0.83357350  1
  Sn  Sn34  1  0.83393078  0.49932309  0.50012763  1
  Sn  Sn35  1  0.83274764  0.16732845  0.50062463  1
  Sn  Sn36  1  0.16662919  0.83238205  0.83321497  1
  Sn  Sn37  1  0.16648057  0.50037867  0.83310257  1
  Sn  Sn38  1  0.16565549  0.49971859  0.50073506  1
  Sn  Sn39  1  0.50107258  0.16619729  0.83302523  1
  Sn  Sn40  1  0.50098736  0.83333005  0.16603492  1
  Pb  Pb41  1  0.16682910  0.83339071  0.16411559  1
  Pb  Pb42  1  0.83091126  0.50293517  0.16956315  1
  Pb  Pb43  1  0.49827306  0.49971309  0.83499967  1
  Pb  Pb44  1  0.16679925  0.83078491  0.50307424  1
  Pb  Pb45  1  0.83158800  0.16445692  0.16670906  1
  Pb  Pb46  1  0.49993803  0.83618768  0.50037318  1
  Pb  Pb47  1  0.16883283  0.50014127  0.16648471  1
  Pb  Pb48  1  0.50016352  0.49773224  0.49797376  1
  Pb  Pb49  1  0.16596367  0.16892789  0.50006150  1
  Pb  Pb50  1  0.83332594  0.83397908  0.50004054  1
  Pb  Pb51  1  0.16602699  0.16697865  0.83345536  1
  Pb  Pb52  1  0.83524464  0.49961164  0.83201098  1
  Pb  Pb53  1  0.16970164  0.16641910  0.16657117  1
  I  I54  1  0.16792545  -0.00039807  0.16612693  1
  I  I55  1  0.16670728  0.00010542  0.49991220  1
  I  I56  1  0.16780030  -0.00289533  0.83527418  1
  I  I57  1  0.16852860  0.33358882  0.16357812  1
  I  I58  1  0.16711359  0.33677391  0.50785092  1
  I  I59  1  0.16877743  0.33605423  0.82848937  1
  I  I60  1  0.17001108  0.66676878  0.16876953  1
  I  I61  1  0.16120778  0.66274301  0.50096981  1
  I  I62  1  0.16738568  0.66754577  0.82962205  1
  I  I63  1  0.50404300  -0.00030026  0.16500697  1
  I  I64  1  0.50675124  0.00438446  0.49670695  1
  I  I65  1  0.49835968  -0.00012572  0.83711209  1
  I  I66  1  0.49787802  0.33217193  0.16690172  1
  I  I67  1  0.50072084  0.32953338  0.50089635  1
  I  I68  1  0.50246644  0.33007322  0.83443108  1
  I  I69  1  0.50274829  0.66816043  0.16207479  1
  I  I70  1  0.49992739  0.66650331  0.49916088  1
  I  I71  1  0.50178967  0.66969067  0.83810793  1
  I  I72  1  0.82695323  -0.00343089  0.16613594  1
  I  I73  1  0.82728563  0.00326888  0.50177974  1
  I  I74  1  0.83404884  -0.00026960  0.83119343  1
  I  I75  1  0.83183604  0.33323257  0.16426364  1
  I  I76  1  0.83239106  0.33227130  0.50590269  1
  I  I77  1  0.82907091  0.33029834  0.83034839  1
  I  I78  1  0.82744006  0.67063934  0.16066795  1
  I  I79  1  0.83771519  0.66426341  0.49982624  1
  I  I80  1  0.83090913  0.66968104  0.83523970  1
  I  I81  1  0.16607404  0.17008735  -0.00051267  1
  I  I82  1  0.16676008  0.16862983  0.33357657  1
  I  I83  1  0.17242852  0.16489998  0.66689940  1
  I  I84  1  0.16882494  0.50417101  -0.00291078  1
  I  I85  1  0.16417255  0.49783282  0.33618568  1
  I  I86  1  0.16493953  0.50426646  0.66683962  1
  I  I87  1  0.16755028  0.82708545  -0.00416450  1
  I  I88  1  0.16689833  0.83234174  0.33330116  1
  I  I89  1  0.16683713  0.83293899  0.67139319  1
  I  I90  1  0.50257696  0.16552072  -0.00063092  1
  I  I91  1  0.50382800  0.16781089  0.33321885  1
  I  I92  1  0.50334929  0.16254567  0.66768956  1
  I  I93  1  0.49791395  0.49636989  0.00295383  1
  I  I94  1  0.49852257  0.50111548  0.32999274  1
  I  I95  1  0.50023525  0.50034411  0.66660785  1
  I  I96  1  0.49986424  0.83748832  -0.00058300  1
  I  I97  1  0.50483798  0.83361026  0.33005915  1
  I  I98  1  0.50099277  0.83685405  0.67052161  1
  I  I99  1  0.83002677  0.16416381  -0.00298562  1
  I  I100  1  0.82842700  0.16969681  0.33598771  1
  I  I101  1  0.82548850  0.16465785  0.66731483  1
  I  I102  1  0.83479338  0.49759561  0.00017836  1
  I  I103  1  0.83893501  0.49413091  0.33735261  1
  I  I104  1  0.83351304  0.50062367  0.66385693  1
  I  I105  1  0.83224725  0.83809612  -0.00164727  1
  I  I106  1  0.82652333  0.83260501  0.33061345  1
  I  I107  1  0.83252478  0.83433905  0.67020340  1
  I  I108  1  -0.00057415  0.16567062  0.16648720  1
  I  I109  1  -0.00363422  0.16766106  0.50649139  1
  I  I110  1  -0.00354068  0.16260374  0.82697243  1
  I  I111  1  -0.00036806  0.50136795  0.16562636  1
  I  I112  1  -0.00034018  0.49513546  0.50440468  1
  I  I113  1  0.00322049  0.50436518  0.83107670  1
  I  I114  1  -0.00295014  0.83322011  0.16315336  1
  I  I115  1  -0.00015360  0.83759968  0.49887013  1
  I  I116  1  -0.00105876  0.83371053  0.83643540  1
  I  I117  1  0.33894202  0.16410153  0.16589297  1
  I  I118  1  0.33646046  0.16728600  0.50002094  1
  I  I119  1  0.33667352  0.16368424  0.83374834  1
  I  I120  1  0.33707895  0.50162210  0.16831520  1
  I  I121  1  0.33115123  0.49914033  0.50255688  1
  I  I122  1  0.33030602  0.50377411  0.82799708  1
  I  I123  1  0.33706535  0.83393769  0.16291176  1
  I  I124  1  0.33350836  0.83328356  0.49910421  1
  I  I125  1  0.33459053  0.83399047  0.83705121  1
  I  I126  1  0.66297780  0.16816295  0.16687889  1
  I  I127  1  0.66673666  0.17261816  0.50104814  1
  I  I128  1  0.66598981  0.15964751  0.83264316  1
  I  I129  1  0.66293915  0.49731270  0.16703854  1
  I  I130  1  0.66911362  0.49788968  0.49864927  1
  I  I131  1  0.66668242  0.50234513  0.83218886  1
  I  I132  1  0.66530613  0.83331856  0.15892675  1
  I  I133  1  0.66670112  0.82709315  0.50343578  1
  I  I134  1  0.66643046  0.83850230  0.83802481  1
