# generated using pymatgen
data_Cs27Sn13Pb14I81
_symmetry_space_group_name_H-M   'P 1'
_cell_length_a   18.99705513
_cell_length_b   18.99613138
_cell_length_c   18.98047004
_cell_angle_alpha   89.99867472
_cell_angle_beta   90.00153363
_cell_angle_gamma   89.99959184
_symmetry_Int_Tables_number   1
_chemical_formula_structural   Cs27Sn13Pb14I81
_chemical_formula_sum   'Cs27 Sn13 Pb14 I81'
_cell_volume   6849.49275146
_cell_formula_units_Z   1
loop_
 _symmetry_equiv_pos_site_id
 _symmetry_equiv_pos_as_xyz
  1  'x, y, z'
loop_
 _atom_site_type_symbol
 _atom_site_label
 _atom_site_symmetry_multiplicity
 _atom_site_fract_x
 _atom_site_fract_y
 _atom_site_fract_z
 _atom_site_occupancy
  Cs  Cs0  1  -0.00228706  0.00132758  -0.00046954  1
  Cs  Cs1  1  -0.00023685  0.00046384  0.33599654  1
  Cs  Cs2  1  0.00105408  -0.00189168  0.66458018  1
  Cs  Cs3  1  0.00223373  0.33328381  -0.00166024  1
  Cs  Cs4  1  -0.01026949  0.33073301  0.33407926  1
  Cs  Cs5  1  0.00111380  0.33367060  0.66749985  1
  Cs  Cs6  1  0.00060091  0.66557583  -0.00050964  1
  Cs  Cs7  1  0.00301520  0.66866961  0.32120356  1
  Cs  Cs8  1  0.00023343  0.66770039  0.66844208  1
  Cs  Cs9  1  0.33856679  0.00410647  -0.00018305  1
  Cs  Cs10  1  0.33058116  0.00065201  0.33728369  1
  Cs  Cs11  1  0.33536600  -0.00052099  0.66431907  1
  Cs  Cs12  1  0.33177908  0.33022541  -0.00023515  1
  Cs  Cs13  1  0.33604810  0.33313191  0.33174759  1
  Cs  Cs14  1  0.33283139  0.33477540  0.66761052  1
  Cs  Cs15  1  0.33433972  0.66763198  0.00652573  1
  Cs  Cs16  1  0.33275435  0.66581493  0.32408996  1
  Cs  Cs17  1  0.33171197  0.66478690  0.66696940  1
  Cs  Cs18  1  0.66319193  -0.00114767  0.00137733  1
  Cs  Cs19  1  0.66866662  0.00112012  0.33280639  1
  Cs  Cs20  1  0.66352633  -0.00319598  0.66771593  1
  Cs  Cs21  1  0.66814899  0.33021165  -0.00196188  1
  Cs  Cs22  1  0.67209887  0.33879400  0.33543456  1
  Cs  Cs23  1  0.66628500  0.33639477  0.66555218  1
  Cs  Cs24  1  0.66437429  0.67109759  0.00502575  1
  Cs  Cs25  1  0.66495273  0.65918488  0.33059669  1
  Cs  Cs26  1  0.66835266  0.66764929  0.66479806  1
  Sn  Sn27  1  0.49984355  0.50034742  0.83335760  1
  Sn  Sn28  1  0.83279784  0.83273819  0.50051159  1
  Sn  Sn29  1  0.49949535  0.16686882  0.16836096  1
  Sn  Sn30  1  0.83408067  0.16618559  0.83273889  1
  Sn  Sn31  1  0.83310658  0.50043073  0.83293560  1
  Sn  Sn32  1  0.83400423  0.83341762  0.83268681  1
  Sn  Sn33  1  0.50010451  0.16657573  0.49910611  1
  Sn  Sn34  1  0.16659688  0.83365045  0.83322898  1
  Sn  Sn35  1  0.50058454  0.83323625  0.50008031  1
  Sn  Sn36  1  0.16700355  0.16676434  0.16645650  1
  Sn  Sn37  1  0.16643774  0.50007409  0.50002975  1
  Sn  Sn38  1  0.16606308  0.16610783  0.83351876  1
  Sn  Sn39  1  0.16696806  0.50032295  0.83254156  1
  Pb  Pb40  1  0.49813006  0.50040061  0.50154719  1
  Pb  Pb41  1  0.50003795  0.83598054  0.17030298  1
  Pb  Pb42  1  0.50000464  0.49700194  0.16372973  1
  Pb  Pb43  1  0.16651415  0.49702606  0.16632743  1
  Pb  Pb44  1  0.83084263  0.16469630  0.50297982  1
  Pb  Pb45  1  0.16668663  0.83677016  0.16322483  1
  Pb  Pb46  1  0.16660507  0.83094415  0.50165378  1
  Pb  Pb47  1  0.49990139  0.16816989  0.83280515  1
  Pb  Pb48  1  0.83344771  0.49993703  0.16351816  1
  Pb  Pb49  1  0.83618034  0.50305342  0.50198102  1
  Pb  Pb50  1  0.83338468  0.16654746  0.16440772  1
  Pb  Pb51  1  0.16815018  0.16866392  0.50029865  1
  Pb  Pb52  1  0.83327624  0.83350126  0.16657014  1
  Pb  Pb53  1  0.49989738  0.83086558  0.83179372  1
  I  I54  1  0.17087738  0.00444247  0.16142083  1
  I  I55  1  0.16614341  -0.00009502  0.50103905  1
  I  I56  1  0.15959168  0.00046460  0.83752866  1
  I  I57  1  0.17188659  0.32965751  0.15787788  1
  I  I58  1  0.16981551  0.33611579  0.50874732  1
  I  I59  1  0.16435362  0.33335041  0.83387688  1
  I  I60  1  0.16659595  0.66664821  0.16647887  1
  I  I61  1  0.16848576  0.66352013  0.50992994  1
  I  I62  1  0.16365877  0.66619106  0.82697306  1
  I  I63  1  0.49596609  0.00379575  0.16338370  1
  I  I64  1  0.50204377  0.00025222  0.49869637  1
  I  I65  1  0.49994301  -0.00004597  0.83491268  1
  I  I66  1  0.49491442  0.32929498  0.17222452  1
  I  I67  1  0.49679846  0.33089410  0.49839424  1
  I  I68  1  0.49962770  0.33595057  0.83163296  1
  I  I69  1  0.50039110  0.66660928  0.16666482  1
  I  I70  1  0.50344801  0.66927506  0.50576457  1
  I  I71  1  0.49907090  0.66316286  0.82953100  1
  I  I72  1  0.83340854  0.00022718  0.16233222  1
  I  I73  1  0.83345857  -0.00305983  0.50735742  1
  I  I74  1  0.84092758  -0.00030028  0.83023152  1
  I  I75  1  0.83318833  0.33298148  0.16541450  1
  I  I76  1  0.83224028  0.33361583  0.50108778  1
  I  I77  1  0.83597554  0.33339188  0.83539770  1
  I  I78  1  0.83326970  0.66679366  0.16446562  1
  I  I79  1  0.82502970  0.67047103  0.50935310  1
  I  I80  1  0.83701562  0.66690994  0.82877168  1
  I  I81  1  0.16932482  0.16857014  -0.00220159  1
  I  I82  1  0.17104616  0.16896282  0.33097669  1
  I  I83  1  0.16440019  0.16606252  0.67026976  1
  I  I84  1  0.16554253  0.50153739  -0.00413653  1
  I  I85  1  0.16935056  0.50014467  0.33591733  1
  I  I86  1  0.16710896  0.49709199  0.66987212  1
  I  I87  1  0.16022689  0.82653282  -0.00530357  1
  I  I88  1  0.16605494  0.83186478  0.33330810  1
  I  I89  1  0.16524457  0.83819791  0.67034943  1
  I  I90  1  0.49863718  0.17016091  0.00139771  1
  I  I91  1  0.49180194  0.16163115  0.33343472  1
  I  I92  1  0.49999357  0.16400042  0.66448697  1
  I  I93  1  0.49728102  0.49909886  -0.00462897  1
  I  I94  1  0.49702455  0.50202261  0.33336918  1
  I  I95  1  0.50084612  0.49605032  0.66978658  1
  I  I96  1  0.50040689  0.83335902  -0.00002296  1
  I  I97  1  0.50573516  0.83334017  0.33830394  1
  I  I98  1  0.50092902  0.84120117  0.66423246  1
  I  I99  1  0.83216774  0.16515869  -0.00443118  1
  I  I100  1  0.83648766  0.16441090  0.33364812  1
  I  I101  1  0.83904281  0.16952203  0.67113423  1
  I  I102  1  0.83731612  0.50195933  -0.00581471  1
  I  I103  1  0.83481288  0.50084819  0.33386717  1
  I  I104  1  0.83190194  0.49716131  0.67083237  1
  I  I105  1  0.83809158  0.83264357  -0.00426425  1
  I  I106  1  0.82891806  0.83457535  0.33679173  1
  I  I107  1  0.83303162  0.83377523  0.66855907  1
  I  I108  1  0.00291172  0.16760462  0.16199607  1
  I  I109  1  -0.00010980  0.16611334  0.49725633  1
  I  I110  1  0.00099984  0.17063836  0.83876924  1
  I  I111  1  0.00026945  0.49774372  0.16591010  1
  I  I112  1  0.00349412  0.49887683  0.50854560  1
  I  I113  1  0.00048856  0.49936650  0.82977772  1
  I  I114  1  0.00018220  0.83572204  0.17181127  1
  I  I115  1  -0.00258307  0.83215482  0.50493616  1
  I  I116  1  -0.00032492  0.83036369  0.82780561  1
  I  I117  1  0.33300282  0.16693512  0.16170385  1
  I  I118  1  0.33607230  0.16063421  0.50243025  1
  I  I119  1  0.33058676  0.16750599  0.83434011  1
  I  I120  1  0.33321072  0.50141944  0.16332224  1
  I  I121  1  0.33067921  0.50072198  0.50989045  1
  I  I122  1  0.33197280  0.49823129  0.82878531  1
  I  I123  1  0.33330567  0.83136173  0.16582352  1
  I  I124  1  0.33565348  0.83717972  0.50298544  1
  I  I125  1  0.33051960  0.83403015  0.83128996  1
  I  I126  1  0.66376968  0.16621464  0.16795323  1
  I  I127  1  0.66292944  0.16651448  0.49609473  1
  I  I128  1  0.66909687  0.16729758  0.83314019  1
  I  I129  1  0.66653233  0.49719020  0.16553251  1
  I  I130  1  0.66690198  0.49800742  0.50252456  1
  I  I131  1  0.66742198  0.49768510  0.83343904  1
  I  I132  1  0.66650041  0.83709308  0.15928849  1
  I  I133  1  0.66687562  0.83844118  0.50882721  1
  I  I134  1  0.66960939  0.83402959  0.83126948  1
