# generated using pymatgen
data_Cs27Sn14Pb13I81
_symmetry_space_group_name_H-M   'P 1'
_cell_length_a   18.97192662
_cell_length_b   18.97324620
_cell_length_c   18.98119972
_cell_angle_alpha   89.99976013
_cell_angle_beta   90.00080630
_cell_angle_gamma   89.99862543
_symmetry_Int_Tables_number   1
_chemical_formula_structural   Cs27Sn14Pb13I81
_chemical_formula_sum   'Cs27 Sn14 Pb13 I81'
_cell_volume   6832.45432560
_cell_formula_units_Z   1
loop_
 _symmetry_equiv_pos_site_id
 _symmetry_equiv_pos_as_xyz
  1  'x, y, z'
loop_
 _atom_site_type_symbol
 _atom_site_label
 _atom_site_symmetry_multiplicity
 _atom_site_fract_x
 _atom_site_fract_y
 _atom_site_fract_z
 _atom_site_occupancy
  Cs  Cs0  1  -0.00256415  0.00398314  0.00045417  1
  Cs  Cs1  1  -0.00049846  0.00245746  0.33385627  1
  Cs  Cs2  1  -0.00145240  -0.00073562  0.66711099  1
  Cs  Cs3  1  -0.00054985  0.33099146  -0.00053829  1
  Cs  Cs4  1  -0.00318992  0.33505333  0.32832357  1
  Cs  Cs5  1  -0.00073309  0.33273569  0.67009211  1
  Cs  Cs6  1  0.00146695  0.66593729  -0.00178001  1
  Cs  Cs7  1  0.00311678  0.66443422  0.33510845  1
  Cs  Cs8  1  0.00132435  0.66750967  0.66587688  1
  Cs  Cs9  1  0.33451584  0.00207933  0.00142088  1
  Cs  Cs10  1  0.33385905  -0.00030319  0.33603876  1
  Cs  Cs11  1  0.33084100  0.00290582  0.66148891  1
  Cs  Cs12  1  0.33377355  0.33392745  0.00038163  1
  Cs  Cs13  1  0.33563926  0.33041592  0.33217888  1
  Cs  Cs14  1  0.33775887  0.33075598  0.66541729  1
  Cs  Cs15  1  0.33378241  0.66521612  0.00106749  1
  Cs  Cs16  1  0.32988215  0.66839513  0.33136551  1
  Cs  Cs17  1  0.33169660  0.66582768  0.66813448  1
  Cs  Cs18  1  0.66662541  -0.00540127  0.00084939  1
  Cs  Cs19  1  0.66604929  -0.00142636  0.33246358  1
  Cs  Cs20  1  0.67015595  0.00078109  0.66736013  1
  Cs  Cs21  1  0.66553397  0.33186983  -0.00091561  1
  Cs  Cs22  1  0.66789984  0.33688400  0.33428215  1
  Cs  Cs23  1  0.66551448  0.33360307  0.66651651  1
  Cs  Cs24  1  0.66434338  0.67707625  -0.00095349  1
  Cs  Cs25  1  0.67053960  0.66500806  0.33266261  1
  Cs  Cs26  1  0.66379487  0.66410344  0.66867143  1
  Sn  Sn27  1  0.50005752  0.83270304  0.50028838  1
  Sn  Sn28  1  0.16734418  0.50045899  0.16654216  1
  Sn  Sn29  1  0.49969636  0.49968450  0.16646729  1
  Sn  Sn30  1  0.50016481  0.16731824  0.16604019  1
  Sn  Sn31  1  0.16670891  0.83300869  0.83344011  1
  Sn  Sn32  1  0.16683628  0.49991086  0.50018537  1
  Sn  Sn33  1  0.83338966  0.83367351  0.50023416  1
  Sn  Sn34  1  0.83359758  0.16648278  0.50049704  1
  Sn  Sn35  1  0.16649456  0.83269671  0.50007001  1
  Sn  Sn36  1  0.83222351  0.16740899  0.83264188  1
  Sn  Sn37  1  0.50076853  0.16648779  0.83386442  1
  Sn  Sn38  1  0.16647869  0.83305880  0.16652225  1
  Sn  Sn39  1  0.83350740  0.49979629  0.83377163  1
  Sn  Sn40  1  0.16619677  0.50045244  0.83315208  1
  Pb  Pb41  1  0.16881249  0.16706200  0.16678058  1
  Pb  Pb42  1  0.83663788  0.83312037  0.16950863  1
  Pb  Pb43  1  0.50250500  0.16501114  0.49988875  1
  Pb  Pb44  1  0.16397700  0.16707654  0.49986659  1
  Pb  Pb45  1  0.16654202  0.16702789  0.83328665  1
  Pb  Pb46  1  0.49705498  0.83604035  0.83102833  1
  Pb  Pb47  1  0.83041659  0.16670125  0.16635334  1
  Pb  Pb48  1  0.83539986  0.83333228  0.83148033  1
  Pb  Pb49  1  0.49794855  0.83307159  0.16856511  1
  Pb  Pb50  1  0.83545670  0.50009608  0.50221059  1
  Pb  Pb51  1  0.49970364  0.49852521  0.83523735  1
  Pb  Pb52  1  0.83343986  0.50022551  0.16339359  1
  Pb  Pb53  1  0.49747357  0.50230632  0.49752874  1
  I  I54  1  0.16765509  -0.00306060  0.16776415  1
  I  I55  1  0.16853355  -0.00351474  0.50026711  1
  I  I56  1  0.16715201  -0.00283745  0.83184894  1
  I  I57  1  0.16824872  0.33696753  0.16642281  1
  I  I58  1  0.16536749  0.33667035  0.50036180  1
  I  I59  1  0.16532432  0.33668023  0.83394712  1
  I  I60  1  0.17242915  0.66599586  0.16713987  1
  I  I61  1  0.16440746  0.66781472  0.49962576  1
  I  I62  1  0.16114823  0.66590175  0.83272190  1
  I  I63  1  0.49897654  0.00227985  0.16422885  1
  I  I64  1  0.49323145  -0.00293949  0.49819367  1
  I  I65  1  0.50551095  0.00377153  0.84010038  1
  I  I66  1  0.49287045  0.33357324  0.16361244  1
  I  I67  1  0.49922165  0.33345203  0.50097856  1
  I  I68  1  0.49876800  0.33038186  0.83383812  1
  I  I69  1  0.49639342  0.66413844  0.16816019  1
  I  I70  1  0.50446452  0.67035874  0.49910874  1
  I  I71  1  0.50310826  0.66684487  0.83427997  1
  I  I72  1  0.83396442  -0.00003705  0.16261499  1
  I  I73  1  0.83593958  -0.00047972  0.50599570  1
  I  I74  1  0.83154199  0.00263635  0.83070765  1
  I  I75  1  0.83860788  0.33342707  0.17184222  1
  I  I76  1  0.83465657  0.33101705  0.50260516  1
  I  I77  1  0.83631760  0.33274599  0.82766328  1
  I  I78  1  0.82689274  0.66659802  0.16644857  1
  I  I79  1  0.83347251  0.66947580  0.50064894  1
  I  I80  1  0.83724668  0.66424064  0.83242278  1
  I  I81  1  0.16255236  0.16463797  -0.00011126  1
  I  I82  1  0.16696756  0.16591011  0.33339682  1
  I  I83  1  0.17180300  0.16640131  0.66669684  1
  I  I84  1  0.16685695  0.50627062  -0.00014153  1
  I  I85  1  0.17081951  0.50700513  0.33313618  1
  I  I86  1  0.16129344  0.50698556  0.66705972  1
  I  I87  1  0.16745519  0.82680577  -0.00009512  1
  I  I88  1  0.16666952  0.82745035  0.33414599  1
  I  I89  1  0.16646310  0.82766610  0.66583611  1
  I  I90  1  0.50420783  0.17003057  -0.00026654  1
  I  I91  1  0.49924501  0.16894174  0.33094841  1
  I  I92  1  0.50140495  0.16507958  0.66902787  1
  I  I93  1  0.49334108  0.49836543  0.00303922  1
  I  I94  1  0.49464601  0.49317358  0.32969393  1
  I  I95  1  0.49864812  0.49887569  0.66665440  1
  I  I96  1  0.49832076  0.83270572  -0.00004156  1
  I  I97  1  0.49702387  0.83611001  0.33640589  1
  I  I98  1  0.49712583  0.83504610  0.66322763  1
  I  I99  1  0.83319867  0.17127972  -0.00335197  1
  I  I100  1  0.83403641  0.16133380  0.33609015  1
  I  I101  1  0.82816029  0.16620467  0.66755651  1
  I  I102  1  0.84047750  0.49239386  -0.00435386  1
  I  I103  1  0.83450727  0.49919130  0.33340314  1
  I  I104  1  0.83940604  0.49860204  0.66997571  1
  I  I105  1  0.83470845  0.83420317  -0.00027764  1
  I  I106  1  0.83490284  0.83964572  0.33788327  1
  I  I107  1  0.83708442  0.83533938  0.66345074  1
  I  I108  1  -0.00019292  0.16638693  0.16638895  1
  I  I109  1  -0.00369476  0.16056614  0.50719238  1
  I  I110  1  -0.00277487  0.16723504  0.82850148  1
  I  I111  1  0.00366801  0.50495171  0.16929982  1
  I  I112  1  0.00373660  0.50581450  0.49528229  1
  I  I113  1  0.00144814  0.49759311  0.83467469  1
  I  I114  1  0.00494078  0.82647832  0.16820053  1
  I  I115  1  0.00126377  0.83366841  0.50021999  1
  I  I116  1  0.00364841  0.83385751  0.83087877  1
  I  I117  1  0.33664196  0.16781334  0.16053926  1
  I  I118  1  0.33350931  0.16506681  0.50091698  1
  I  I119  1  0.33579647  0.16607331  0.83767664  1
  I  I120  1  0.33167420  0.50003665  0.16456050  1
  I  I121  1  0.32909528  0.50545860  0.50546635  1
  I  I122  1  0.32994018  0.50298929  0.83205604  1
  I  I123  1  0.32970464  0.83205872  0.16947385  1
  I  I124  1  0.33154882  0.82971884  0.49952467  1
  I  I125  1  0.32902530  0.82746550  0.83116912  1
  I  I126  1  0.66257327  0.17285801  0.16614928  1
  I  I127  1  0.67023387  0.16073227  0.50170113  1
  I  I128  1  0.66754849  0.17291409  0.83240435  1
  I  I129  1  0.66381380  0.49406037  0.16677579  1
  I  I130  1  0.66670391  0.50175048  0.49961483  1
  I  I131  1  0.66904004  0.49631473  0.83330899  1
  I  I132  1  0.66647719  0.83300720  0.16861144  1
  I  I133  1  0.66725401  0.83989172  0.49974622  1
  I  I134  1  0.66664031  0.83065740  0.83134666  1
