# generated using pymatgen
data_Cs27Sn14Pb13I81
_symmetry_space_group_name_H-M   'P 1'
_cell_length_a   18.98341187
_cell_length_b   18.97785604
_cell_length_c   18.96688037
_cell_angle_alpha   90.00096927
_cell_angle_beta   89.99876252
_cell_angle_gamma   90.00035128
_symmetry_Int_Tables_number   1
_chemical_formula_structural   Cs27Sn14Pb13I81
_chemical_formula_sum   'Cs27 Sn14 Pb13 I81'
_cell_volume   6833.09286713
_cell_formula_units_Z   1
loop_
 _symmetry_equiv_pos_site_id
 _symmetry_equiv_pos_as_xyz
  1  'x, y, z'
loop_
 _atom_site_type_symbol
 _atom_site_label
 _atom_site_symmetry_multiplicity
 _atom_site_fract_x
 _atom_site_fract_y
 _atom_site_fract_z
 _atom_site_occupancy
  Cs  Cs0  1  0.00226054  -0.00163141  0.00146851  1
  Cs  Cs1  1  -0.00185563  0.00246631  0.33144652  1
  Cs  Cs2  1  0.00053787  -0.00010471  0.66613296  1
  Cs  Cs3  1  0.00295293  0.33551590  -0.00113278  1
  Cs  Cs4  1  0.00117711  0.33168754  0.33380135  1
  Cs  Cs5  1  -0.00016370  0.33251498  0.66687304  1
  Cs  Cs6  1  0.00095115  0.66534662  0.00061311  1
  Cs  Cs7  1  -0.00052328  0.66683741  0.33170571  1
  Cs  Cs8  1  -0.00347812  0.66754040  0.66711916  1
  Cs  Cs9  1  0.33155586  -0.00010262  0.00037037  1
  Cs  Cs10  1  0.34263454  -0.00797068  0.34000708  1
  Cs  Cs11  1  0.33076782  -0.00273290  0.66329301  1
  Cs  Cs12  1  0.33098064  0.33452614  -0.00053924  1
  Cs  Cs13  1  0.33204317  0.33316386  0.33939047  1
  Cs  Cs14  1  0.33262420  0.33369162  0.66408859  1
  Cs  Cs15  1  0.33136100  0.66474753  -0.00022309  1
  Cs  Cs16  1  0.33523554  0.67265627  0.34305738  1
  Cs  Cs17  1  0.33289395  0.66874630  0.66053440  1
  Cs  Cs18  1  0.66555005  0.00066225  0.00292953  1
  Cs  Cs19  1  0.66051346  0.00713922  0.32468405  1
  Cs  Cs20  1  0.66833093  -0.00137176  0.66881637  1
  Cs  Cs21  1  0.66564731  0.33513229  -0.00194102  1
  Cs  Cs22  1  0.66523703  0.32646883  0.33330575  1
  Cs  Cs23  1  0.66727052  0.33356628  0.66916687  1
  Cs  Cs24  1  0.66726068  0.66425143  -0.00127824  1
  Cs  Cs25  1  0.66649439  0.66812583  0.33496877  1
  Cs  Cs26  1  0.66897622  0.66630677  0.66806490  1
  Sn  Sn27  1  0.16677038  0.49945369  0.83348487  1
  Sn  Sn28  1  0.16676457  0.16762601  0.83396065  1
  Sn  Sn29  1  0.83308265  0.49979233  0.16685370  1
  Sn  Sn30  1  0.83306371  0.83319254  0.50022691  1
  Sn  Sn31  1  0.83258574  0.83326707  0.83311563  1
  Sn  Sn32  1  0.83327271  0.50043509  0.49986742  1
  Sn  Sn33  1  0.50067143  0.83296903  0.83378500  1
  Sn  Sn34  1  0.49952032  0.50016540  0.83378379  1
  Sn  Sn35  1  0.49941550  0.50003308  0.16617741  1
  Sn  Sn36  1  0.83358378  0.50003083  0.83356324  1
  Sn  Sn37  1  0.16738730  0.16735617  0.16601096  1
  Sn  Sn38  1  0.16739748  0.49955702  0.16618230  1
  Sn  Sn39  1  0.49957971  0.16669830  0.83361380  1
  Sn  Sn40  1  0.83361686  0.16655597  0.83367622  1
  Pb  Pb41  1  0.83526512  0.16936115  0.16378651  1
  Pb  Pb42  1  0.49694617  0.16930956  0.16419859  1
  Pb  Pb43  1  0.16403374  0.50003387  0.49995691  1
  Pb  Pb44  1  0.16649690  0.83310618  0.83335080  1
  Pb  Pb45  1  0.50002638  0.83039162  0.16380630  1
  Pb  Pb46  1  0.83326014  0.16630863  0.50195180  1
  Pb  Pb47  1  0.16662799  0.16668825  0.49979283  1
  Pb  Pb48  1  0.50362652  0.83329505  0.50280668  1
  Pb  Pb49  1  0.50292252  0.49976388  0.50026774  1
  Pb  Pb50  1  0.16684666  0.83305433  0.16667836  1
  Pb  Pb51  1  0.50016992  0.16681619  0.50293100  1
  Pb  Pb52  1  0.83324493  0.83139936  0.16634795  1
  Pb  Pb53  1  0.16309739  0.83336983  0.49995440  1
  I  I54  1  0.16410538  0.00350036  0.15887618  1
  I  I55  1  0.16389274  0.00012970  0.50209438  1
  I  I56  1  0.16598322  0.00333849  0.83720146  1
  I  I57  1  0.16500065  0.33502399  0.16020020  1
  I  I58  1  0.16321643  0.33357891  0.50172332  1
  I  I59  1  0.16527824  0.33422045  0.83656746  1
  I  I60  1  0.16467925  0.66220234  0.16007900  1
  I  I61  1  0.16835360  0.66632182  0.50081476  1
  I  I62  1  0.16551059  0.66305897  0.83806174  1
  I  I63  1  0.49878637  0.00036428  0.16572624  1
  I  I64  1  0.50166057  -0.00019185  0.50104772  1
  I  I65  1  0.50369700  0.00028389  0.83129291  1
  I  I66  1  0.50428443  0.33743748  0.15942926  1
  I  I67  1  0.50288151  0.33371973  0.50311390  1
  I  I68  1  0.50333301  0.33425799  0.83665292  1
  I  I69  1  0.49873879  0.66190447  0.15952636  1
  I  I70  1  0.49789719  0.66647220  0.50178583  1
  I  I71  1  0.50395713  0.66548335  0.83714490  1
  I  I72  1  0.83623039  0.00044170  0.16686667  1
  I  I73  1  0.83475500  -0.00308421  0.50873542  1
  I  I74  1  0.83128800  -0.00012826  0.82748094  1
  I  I75  1  0.83107404  0.33794165  0.16675851  1
  I  I76  1  0.83400469  0.33645730  0.50184997  1
  I  I77  1  0.83151403  0.33458521  0.83339683  1
  I  I78  1  0.83648662  0.66230567  0.16077427  1
  I  I79  1  0.83364180  0.66552482  0.50679618  1
  I  I80  1  0.83121323  0.66517556  0.83286543  1
  I  I81  1  0.16568380  0.17200398  -0.00202507  1
  I  I82  1  0.16376789  0.17450080  0.32974657  1
  I  I83  1  0.16626792  0.17128123  0.67090942  1
  I  I84  1  0.16215992  0.49669026  -0.00132171  1
  I  I85  1  0.16578647  0.49503151  0.32974172  1
  I  I86  1  0.16694611  0.49588829  0.67033725  1
  I  I87  1  0.16295731  0.83270740  -0.00044825  1
  I  I88  1  0.16471626  0.83230594  0.33331815  1
  I  I89  1  0.16930718  0.83312233  0.66723349  1
  I  I90  1  0.50385830  0.16502392  -0.00445646  1
  I  I91  1  0.49914554  0.16819577  0.33262731  1
  I  I92  1  0.49825116  0.17101286  0.67241277  1
  I  I93  1  0.50461165  0.50014693  -0.00198384  1
  I  I94  1  0.49951784  0.49951469  0.33016222  1
  I  I95  1  0.49995504  0.49980488  0.67092307  1
  I  I96  1  0.50791549  0.83518791  -0.00458835  1
  I  I97  1  0.49996982  0.83199323  0.33340374  1
  I  I98  1  0.50124939  0.82987281  0.67129612  1
  I  I99  1  0.83048358  0.16573718  -0.00483031  1
  I  I100  1  0.83616335  0.16669208  0.33282770  1
  I  I101  1  0.83545160  0.17202096  0.67130171  1
  I  I102  1  0.83348340  0.49996051  -0.00158023  1
  I  I103  1  0.83459892  0.50635982  0.33291347  1
  I  I104  1  0.83338664  0.50046328  0.66887984  1
  I  I105  1  0.83020054  0.83222619  -0.00385754  1
  I  I106  1  0.83651806  0.82570112  0.33614326  1
  I  I107  1  0.83001110  0.82747184  0.66888571  1
  I  I108  1  0.00307521  0.17260993  0.16015369  1
  I  I109  1  -0.00022940  0.16669947  0.50388611  1
  I  I110  1  -0.00004420  0.17013257  0.83570933  1
  I  I111  1  -0.00008385  0.49741224  0.16291204  1
  I  I112  1  -0.00402031  0.50375578  0.50254626  1
  I  I113  1  -0.00084023  0.49814512  0.83499598  1
  I  I114  1  -0.00019949  0.83013540  0.16414049  1
  I  I115  1  -0.00475921  0.82781820  0.50965306  1
  I  I116  1  -0.00336880  0.83235999  0.82938520  1
  I  I117  1  0.32933792  0.17386152  0.15786325  1
  I  I118  1  0.33329142  0.16756217  0.50320090  1
  I  I119  1  0.33305149  0.17002329  0.83736468  1
  I  I120  1  0.33293011  0.49569323  0.15508176  1
  I  I121  1  0.33343646  0.49965942  0.50094537  1
  I  I122  1  0.33344241  0.49749322  0.84059660  1
  I  I123  1  0.33351275  0.83087048  0.16352149  1
  I  I124  1  0.33386573  0.83390873  0.50073428  1
  I  I125  1  0.33629382  0.83266912  0.83548612  1
  I  I126  1  0.66636265  0.16743465  0.16645014  1
  I  I127  1  0.66702317  0.16833013  0.50131157  1
  I  I128  1  0.66689383  0.16992752  0.83097645  1
  I  I129  1  0.66699282  0.50241890  0.16160681  1
  I  I130  1  0.67093253  0.50425071  0.50282297  1
  I  I131  1  0.66731894  0.49837888  0.83502682  1
  I  I132  1  0.66674267  0.83206220  0.16780213  1
  I  I133  1  0.67104621  0.82585826  0.50469467  1
  I  I134  1  0.66765449  0.83207500  0.82944200  1
