# generated using pymatgen
data_Cs27Sn13Pb14I81
_symmetry_space_group_name_H-M   'P 1'
_cell_length_a   18.97924100
_cell_length_b   18.97437967
_cell_length_c   18.97918550
_cell_angle_alpha   90.00106291
_cell_angle_beta   90.00027335
_cell_angle_gamma   89.99967036
_symmetry_Int_Tables_number   1
_chemical_formula_structural   Cs27Sn13Pb14I81
_chemical_formula_sum   'Cs27 Sn13 Pb14 I81'
_cell_volume   6834.77146085
_cell_formula_units_Z   1
loop_
 _symmetry_equiv_pos_site_id
 _symmetry_equiv_pos_as_xyz
  1  'x, y, z'
loop_
 _atom_site_type_symbol
 _atom_site_label
 _atom_site_symmetry_multiplicity
 _atom_site_fract_x
 _atom_site_fract_y
 _atom_site_fract_z
 _atom_site_occupancy
  Cs  Cs0  1  -0.00029636  -0.00001933  0.00248846  1
  Cs  Cs1  1  -0.00023852  -0.00109538  0.33274646  1
  Cs  Cs2  1  -0.00059266  -0.00256910  0.66440701  1
  Cs  Cs3  1  -0.00270321  0.33367423  -0.00108889  1
  Cs  Cs4  1  -0.00128528  0.33434144  0.33996382  1
  Cs  Cs5  1  0.00778250  0.33366742  0.66087197  1
  Cs  Cs6  1  -0.00214605  0.66663053  0.00180768  1
  Cs  Cs7  1  -0.00163015  0.66684776  0.33443008  1
  Cs  Cs8  1  0.00224773  0.66848578  0.66234624  1
  Cs  Cs9  1  0.33113609  0.00073634  0.00547270  1
  Cs  Cs10  1  0.33337106  0.00496663  0.32660727  1
  Cs  Cs11  1  0.33385577  -0.00440041  0.66738002  1
  Cs  Cs12  1  0.33072867  0.33350940  -0.00173494  1
  Cs  Cs13  1  0.33353913  0.32662969  0.33356179  1
  Cs  Cs14  1  0.32746659  0.33208788  0.66740169  1
  Cs  Cs15  1  0.33445372  0.66583177  -0.00059541  1
  Cs  Cs16  1  0.33464136  0.66792577  0.33426023  1
  Cs  Cs17  1  0.33365979  0.66793415  0.66657581  1
  Cs  Cs18  1  0.66794320  0.00084030  -0.00113267  1
  Cs  Cs19  1  0.66613919  0.00397378  0.33285660  1
  Cs  Cs20  1  0.66748842  0.00053009  0.66760972  1
  Cs  Cs21  1  0.66887366  0.33508982  -0.00140417  1
  Cs  Cs22  1  0.66729442  0.33219832  0.33374169  1
  Cs  Cs23  1  0.66624790  0.33259674  0.66875631  1
  Cs  Cs24  1  0.66668920  0.66470925  -0.00063095  1
  Cs  Cs25  1  0.66648642  0.66627488  0.33313195  1
  Cs  Cs26  1  0.66430238  0.66744437  0.66798150  1
  Sn  Sn27  1  0.83315169  0.49920174  0.83326147  1
  Sn  Sn28  1  0.49976707  0.49997818  0.16667536  1
  Sn  Sn29  1  0.50002654  0.50023786  0.50040747  1
  Sn  Sn30  1  0.16806420  0.83324162  0.50032303  1
  Sn  Sn31  1  0.83315649  0.16782139  0.16576535  1
  Sn  Sn32  1  0.16662568  0.49995672  0.16655560  1
  Sn  Sn33  1  0.49923361  0.83285071  0.50045440  1
  Sn  Sn34  1  0.83292109  0.16794197  0.83375384  1
  Sn  Sn35  1  0.50032988  0.49969762  0.83306358  1
  Sn  Sn36  1  0.83341524  0.49917444  0.16596918  1
  Sn  Sn37  1  0.16738076  0.83304573  0.83323680  1
  Sn  Sn38  1  0.49914586  0.83347085  0.83306746  1
  Sn  Sn39  1  0.50019482  0.16683905  0.83344968  1
  Pb  Pb40  1  0.16701549  0.16321068  0.50002856  1
  Pb  Pb41  1  0.16355830  0.16976461  0.16638272  1
  Pb  Pb42  1  0.50020284  0.83163751  0.16652961  1
  Pb  Pb43  1  0.16613040  0.16392299  0.83334759  1
  Pb  Pb44  1  0.49997129  0.16638330  0.50264168  1
  Pb  Pb45  1  0.83304641  0.83310482  0.16663960  1
  Pb  Pb46  1  0.83091843  0.50004548  0.50061245  1
  Pb  Pb47  1  0.16632929  0.50199240  0.83458834  1
  Pb  Pb48  1  0.83230183  0.83325583  0.50005671  1
  Pb  Pb49  1  0.50197266  0.16960301  0.16383122  1
  Pb  Pb50  1  0.16973108  0.50186964  0.49741339  1
  Pb  Pb51  1  0.83319006  0.16688315  0.50078814  1
  Pb  Pb52  1  0.16682269  0.83135840  0.16676335  1
  Pb  Pb53  1  0.83304462  0.83308699  0.83332664  1
  I  I54  1  0.16467686  0.00010401  0.16745528  1
  I  I55  1  0.17307487  -0.00504755  0.50434148  1
  I  I56  1  0.17060886  -0.00413705  0.82958013  1
  I  I57  1  0.17121188  0.33781076  0.16475410  1
  I  I58  1  0.16683116  0.33369132  0.49880904  1
  I  I59  1  0.16935001  0.33354609  0.83537121  1
  I  I60  1  0.16419455  0.66324224  0.16566300  1
  I  I61  1  0.16850806  0.66975186  0.50449702  1
  I  I62  1  0.17109690  0.66982933  0.83069567  1
  I  I63  1  0.50186695  0.00053968  0.16725733  1
  I  I64  1  0.49668797  -0.00354506  0.50546042  1
  I  I65  1  0.50135695  -0.00058756  0.82755819  1
  I  I66  1  0.49791195  0.33809879  0.16832304  1
  I  I67  1  0.50237240  0.33655122  0.49933368  1
  I  I68  1  0.50557399  0.33458663  0.83419110  1
  I  I69  1  0.50320695  0.66259724  0.16196897  1
  I  I70  1  0.49727926  0.66641403  0.50448775  1
  I  I71  1  0.50053775  0.66579376  0.83323731  1
  I  I72  1  0.83315776  0.00344151  0.16155313  1
  I  I73  1  0.83202908  0.00004993  0.49951488  1
  I  I74  1  0.82983003  0.00295206  0.83780216  1
  I  I75  1  0.83243744  0.33497778  0.16106307  1
  I  I76  1  0.83155972  0.33367140  0.49963628  1
  I  I77  1  0.82337416  0.33421142  0.83919432  1
  I  I78  1  0.83298207  0.66240254  0.16199399  1
  I  I79  1  0.83494424  0.66643585  0.49927649  1
  I  I80  1  0.82924462  0.66332120  0.83865109  1
  I  I81  1  0.16958867  0.16255885  -0.00013667  1
  I  I82  1  0.16539805  0.16467372  0.33298612  1
  I  I83  1  0.16383971  0.17112377  0.66701105  1
  I  I84  1  0.17090768  0.50350542  0.00251562  1
  I  I85  1  0.16418806  0.50295377  0.32959526  1
  I  I86  1  0.16549414  0.49942198  0.66646631  1
  I  I87  1  0.17121334  0.83228502  -0.00290080  1
  I  I88  1  0.17124838  0.83103855  0.33642465  1
  I  I89  1  0.17106526  0.83205724  0.66718870  1
  I  I90  1  0.50160085  0.16460986  -0.00429991  1
  I  I91  1  0.50171190  0.16596314  0.33300324  1
  I  I92  1  0.50699995  0.17049025  0.67098952  1
  I  I93  1  0.50112499  0.50092694  -0.00084071  1
  I  I94  1  0.50056552  0.50657621  0.33311577  1
  I  I95  1  0.50549686  0.50168780  0.66807240  1
  I  I96  1  0.49651573  0.83199118  -0.00368694  1
  I  I97  1  0.49589796  0.82728109  0.33659543  1
  I  I98  1  0.49653498  0.82807295  0.66788681  1
  I  I99  1  0.82903910  0.17125859  -0.00101781  1
  I  I100  1  0.83402060  0.17164915  0.33012818  1
  I  I101  1  0.82823025  0.16982699  0.67085744  1
  I  I102  1  0.82841566  0.49724311  -0.00017252  1
  I  I103  1  0.83260096  0.49642030  0.33001679  1
  I  I104  1  0.82802976  0.49680869  0.67038440  1
  I  I105  1  0.83388525  0.83256363  -0.00037769  1
  I  I106  1  0.83416696  0.83294512  0.33335368  1
  I  I107  1  0.83417702  0.83336121  0.66705697  1
  I  I108  1  -0.00440624  0.17084626  0.15856666  1
  I  I109  1  -0.00002096  0.16521592  0.50185885  1
  I  I110  1  -0.00364403  0.17028404  0.83795912  1
  I  I111  1  -0.00129817  0.49771447  0.16046222  1
  I  I112  1  0.00029446  0.50196747  0.49940136  1
  I  I113  1  -0.00305603  0.49751308  0.83960335  1
  I  I114  1  0.00008732  0.83016915  0.16642088  1
  I  I115  1  0.00311100  0.83383931  0.50482130  1
  I  I116  1  0.00267085  0.83256230  0.82921893  1
  I  I117  1  0.33350108  0.16750609  0.16629258  1
  I  I118  1  0.33381284  0.17057412  0.50115521  1
  I  I119  1  0.33648459  0.17040714  0.83170832  1
  I  I120  1  0.33458948  0.50371223  0.16550208  1
  I  I121  1  0.33781150  0.50254852  0.50226802  1
  I  I122  1  0.33675261  0.49835534  0.83469415  1
  I  I123  1  0.33354407  0.83066680  0.16542517  1
  I  I124  1  0.33460363  0.82731932  0.50647749  1
  I  I125  1  0.33509820  0.83190149  0.82908452  1
  I  I126  1  0.66988767  0.17195154  0.16508051  1
  I  I127  1  0.66640773  0.16337357  0.49785631  1
  I  I128  1  0.66626099  0.16541171  0.83665046  1
  I  I129  1  0.66658716  0.49742570  0.16546887  1
  I  I130  1  0.66263946  0.50685783  0.49672459  1
  I  I131  1  0.66532941  0.50194817  0.83741720  1
  I  I132  1  0.66644977  0.83000110  0.16691955  1
  I  I133  1  0.66236654  0.82901889  0.50516058  1
  I  I134  1  0.66316778  0.83249166  0.82917117  1
