# generated using pymatgen
data_Cs27Sn13Pb14I81
_symmetry_space_group_name_H-M   'P 1'
_cell_length_a   18.97705873
_cell_length_b   18.97576175
_cell_length_c   18.97712664
_cell_angle_alpha   90.00119208
_cell_angle_beta   89.99889045
_cell_angle_gamma   90.00191098
_symmetry_Int_Tables_number   1
_chemical_formula_structural   Cs27Sn13Pb14I81
_chemical_formula_sum   'Cs27 Sn13 Pb14 I81'
_cell_volume   6833.74195852
_cell_formula_units_Z   1
loop_
 _symmetry_equiv_pos_site_id
 _symmetry_equiv_pos_as_xyz
  1  'x, y, z'
loop_
 _atom_site_type_symbol
 _atom_site_label
 _atom_site_symmetry_multiplicity
 _atom_site_fract_x
 _atom_site_fract_y
 _atom_site_fract_z
 _atom_site_occupancy
  Cs  Cs0  1  -0.00225002  -0.00173945  -0.00434410  1
  Cs  Cs1  1  0.00087958  0.00840124  0.33359280  1
  Cs  Cs2  1  -0.00070563  0.00078531  0.66995237  1
  Cs  Cs3  1  0.00372854  0.33521911  0.00383453  1
  Cs  Cs4  1  -0.00002191  0.32415786  0.33508816  1
  Cs  Cs5  1  0.00027806  0.33040481  0.66225576  1
  Cs  Cs6  1  0.00497311  0.66743840  -0.00216545  1
  Cs  Cs7  1  -0.00394371  0.66584201  0.33376372  1
  Cs  Cs8  1  0.00004254  0.66857508  0.66844281  1
  Cs  Cs9  1  0.33459035  0.00078774  0.00890729  1
  Cs  Cs10  1  0.33213411  -0.00039595  0.32980785  1
  Cs  Cs11  1  0.33434963  0.00158425  0.66472528  1
  Cs  Cs12  1  0.33136208  0.33375959  -0.00089537  1
  Cs  Cs13  1  0.32997756  0.33299470  0.33462207  1
  Cs  Cs14  1  0.33417547  0.33269169  0.66751856  1
  Cs  Cs15  1  0.32693142  0.66643680  0.00121761  1
  Cs  Cs16  1  0.33501619  0.66768933  0.33408243  1
  Cs  Cs17  1  0.33455619  0.66599687  0.66563889  1
  Cs  Cs18  1  0.66674540  0.00882619  -0.00102944  1
  Cs  Cs19  1  0.66528678  -0.00327613  0.32904170  1
  Cs  Cs20  1  0.66566360  -0.00126159  0.67104853  1
  Cs  Cs21  1  0.66558074  0.33083193  -0.00070803  1
  Cs  Cs22  1  0.67084364  0.33690194  0.33323411  1
  Cs  Cs23  1  0.66669590  0.33457186  0.66765931  1
  Cs  Cs24  1  0.66764456  0.66517454  0.00135059  1
  Cs  Cs25  1  0.66710979  0.66581597  0.33354224  1
  Cs  Cs26  1  0.66593847  0.66583395  0.66551030  1
  Sn  Sn27  1  0.16668173  0.83257141  0.49994963  1
  Sn  Sn28  1  0.49928977  0.49982069  0.49994960  1
  Sn  Sn29  1  0.83323912  0.83320152  0.49932836  1
  Sn  Sn30  1  0.83313601  0.83251216  0.16705509  1
  Sn  Sn31  1  0.16706462  0.50085031  0.50003645  1
  Sn  Sn32  1  0.83292692  0.50029599  0.83414232  1
  Sn  Sn33  1  0.16710757  0.16651913  0.83329854  1
  Sn  Sn34  1  0.49996699  0.83349330  0.50059910  1
  Sn  Sn35  1  0.50056933  0.50112171  0.83363035  1
  Sn  Sn36  1  0.50040126  0.50045585  0.16655227  1
  Sn  Sn37  1  0.83268479  0.50106745  0.16565195  1
  Sn  Sn38  1  0.49979308  0.83255744  0.83338006  1
  Sn  Sn39  1  0.50058372  0.16663381  0.49977472  1
  Pb  Pb40  1  0.49860678  0.16690143  0.83179469  1
  Pb  Pb41  1  0.50173734  0.83126235  0.16639657  1
  Pb  Pb42  1  0.16605482  0.50015921  0.16971923  1
  Pb  Pb43  1  0.83109311  0.83138228  0.83355828  1
  Pb  Pb44  1  0.83339408  0.50139889  0.49995119  1
  Pb  Pb45  1  0.50008799  0.17009799  0.16968794  1
  Pb  Pb46  1  0.83007068  0.16288712  0.50022160  1
  Pb  Pb47  1  0.83316015  0.16696919  0.16656898  1
  Pb  Pb48  1  0.16683249  0.49893371  0.83090283  1
  Pb  Pb49  1  0.83562865  0.17014062  0.83324457  1
  Pb  Pb50  1  0.16982222  0.83518652  0.83122076  1
  Pb  Pb51  1  0.16341433  0.83312047  0.16951807  1
  Pb  Pb52  1  0.16874465  0.16621112  0.50117820  1
  Pb  Pb53  1  0.16679509  0.16657334  0.16351426  1
  I  I54  1  0.16643046  -0.00030550  0.16989017  1
  I  I55  1  0.16765881  -0.00311650  0.50158666  1
  I  I56  1  0.16769305  0.00254233  0.82902016  1
  I  I57  1  0.16479026  0.33376641  0.17047891  1
  I  I58  1  0.17156139  0.33588523  0.50144178  1
  I  I59  1  0.16888649  0.33148308  0.82907569  1
  I  I60  1  0.16856561  0.66652904  0.16373420  1
  I  I61  1  0.17238212  0.66682732  0.50108498  1
  I  I62  1  0.16544327  0.66672563  0.83322914  1
  I  I63  1  0.50152208  -0.00020798  0.16642019  1
  I  I64  1  0.50015457  -0.00174476  0.50588894  1
  I  I65  1  0.49885073  -0.00273513  0.82660491  1
  I  I66  1  0.50638177  0.33855654  0.16543848  1
  I  I67  1  0.49453307  0.33525825  0.50056957  1
  I  I68  1  0.50214457  0.33694902  0.83153965  1
  I  I69  1  0.50267892  0.66303496  0.17188373  1
  I  I70  1  0.49927351  0.66650214  0.50090476  1
  I  I71  1  0.50332267  0.66539127  0.82661455  1
  I  I72  1  0.83359308  -0.00330942  0.17277641  1
  I  I73  1  0.83512850  -0.00536471  0.49452246  1
  I  I74  1  0.83233438  -0.00027476  0.83334708  1
  I  I75  1  0.82888810  0.33731739  0.16297976  1
  I  I76  1  0.83410907  0.33344174  0.49957742  1
  I  I77  1  0.82564592  0.33830935  0.83755398  1
  I  I78  1  0.82835636  0.66566860  0.16853266  1
  I  I79  1  0.82904770  0.66947644  0.49916915  1
  I  I80  1  0.83154289  0.66332302  0.83340995  1
  I  I81  1  0.16854224  0.16912652  -0.00408136  1
  I  I82  1  0.16695997  0.16744719  0.33365303  1
  I  I83  1  0.16827610  0.16797100  0.66850328  1
  I  I84  1  0.16904159  0.49700128  -0.00015189  1
  I  I85  1  0.17188032  0.50331166  0.33778777  1
  I  I86  1  0.17105839  0.50291012  0.66302391  1
  I  I87  1  0.16686903  0.83539760  -0.00017644  1
  I  I88  1  0.17396008  0.82987088  0.33809885  1
  I  I89  1  0.16259352  0.82953794  0.66274973  1
  I  I90  1  0.49834164  0.16564038  0.00001066  1
  I  I91  1  0.49825087  0.16389155  0.33782141  1
  I  I92  1  0.49835544  0.17020690  0.66374582  1
  I  I93  1  0.50517299  0.50434880  -0.00077248  1
  I  I94  1  0.50055212  0.50023075  0.33449490  1
  I  I95  1  0.50030462  0.50064972  0.66603622  1
  I  I96  1  0.50163702  0.82873063  -0.00273072  1
  I  I97  1  0.49867385  0.83251970  0.33680982  1
  I  I98  1  0.50214677  0.82888381  0.66472623  1
  I  I99  1  0.83313795  0.16141130  -0.00015145  1
  I  I100  1  0.83468806  0.17214948  0.33363993  1
  I  I101  1  0.83380176  0.16766568  0.66655787  1
  I  I102  1  0.82494897  0.50510056  0.00038245  1
  I  I103  1  0.82926114  0.50311701  0.33108189  1
  I  I104  1  0.82970660  0.50139283  0.66862142  1
  I  I105  1  0.83126693  0.83036648  0.00251210  1
  I  I106  1  0.83057284  0.82622749  0.33433416  1
  I  I107  1  0.83383995  0.83142885  0.66387911  1
  I  I108  1  -0.00013474  0.16981605  0.16899993  1
  I  I109  1  0.00009196  0.16813185  0.50073527  1
  I  I110  1  0.00318927  0.16678225  0.83031010  1
  I  I111  1  -0.00356406  0.50422440  0.16215370  1
  I  I112  1  0.00217604  0.50486197  0.50127918  1
  I  I113  1  -0.00250682  0.49847071  0.83643299  1
  I  I114  1  -0.00466048  0.82560181  0.17054013  1
  I  I115  1  0.00005463  0.82677187  0.49595311  1
  I  I116  1  -0.00008545  0.83326224  0.83180625  1
  I  I117  1  0.33375899  0.16755117  0.16731295  1
  I  I118  1  0.33648985  0.16441402  0.50202636  1
  I  I119  1  0.33123327  0.16958450  0.82948305  1
  I  I120  1  0.33641859  0.49950808  0.16485005  1
  I  I121  1  0.33543440  0.50386632  0.50048121  1
  I  I122  1  0.33678218  0.50174642  0.83429404  1
  I  I123  1  0.33354966  0.83248909  0.16704748  1
  I  I124  1  0.33468864  0.83198273  0.50534960  1
  I  I125  1  0.33784271  0.82620686  0.82673440  1
  I  I126  1  0.66643276  0.16470814  0.16624777  1
  I  I127  1  0.66224474  0.17085143  0.50181625  1
  I  I128  1  0.66642924  0.16516581  0.83231193  1
  I  I129  1  0.66621881  0.50373327  0.16915497  1
  I  I130  1  0.66345957  0.50086537  0.50025448  1
  I  I131  1  0.66503781  0.50291194  0.83070248  1
  I  I132  1  0.66952709  0.82972986  0.17406688  1
  I  I133  1  0.66550845  0.83231876  0.49983294  1
  I  I134  1  0.66315303  0.83160484  0.82562083  1
