# generated using pymatgen
data_Cs27Sn13Pb14I81
_symmetry_space_group_name_H-M   'P 1'
_cell_length_a   18.98448983
_cell_length_b   18.97527388
_cell_length_c   18.97100786
_cell_angle_alpha   90.00144718
_cell_angle_beta   90.00089201
_cell_angle_gamma   89.99999423
_symmetry_Int_Tables_number   1
_chemical_formula_structural   Cs27Sn13Pb14I81
_chemical_formula_sum   'Cs27 Sn13 Pb14 I81'
_cell_volume   6834.03797227
_cell_formula_units_Z   1
loop_
 _symmetry_equiv_pos_site_id
 _symmetry_equiv_pos_as_xyz
  1  'x, y, z'
loop_
 _atom_site_type_symbol
 _atom_site_label
 _atom_site_symmetry_multiplicity
 _atom_site_fract_x
 _atom_site_fract_y
 _atom_site_fract_z
 _atom_site_occupancy
  Cs  Cs0  1  0.00383525  -0.00066675  0.00086514  1
  Cs  Cs1  1  -0.00148928  -0.00588779  0.33241636  1
  Cs  Cs2  1  0.00141359  -0.00069515  0.66552626  1
  Cs  Cs3  1  -0.00016575  0.33169761  -0.00132648  1
  Cs  Cs4  1  -0.00178306  0.33258455  0.33624279  1
  Cs  Cs5  1  -0.00098660  0.33471976  0.66614482  1
  Cs  Cs6  1  -0.00056587  0.66779581  -0.00142378  1
  Cs  Cs7  1  -0.00032296  0.67497585  0.33193292  1
  Cs  Cs8  1  0.00129143  0.66506539  0.66867105  1
  Cs  Cs9  1  0.33586823  0.00379718  -0.00193983  1
  Cs  Cs10  1  0.33121107  0.00059112  0.33289281  1
  Cs  Cs11  1  0.33657554  -0.00274678  0.66951179  1
  Cs  Cs12  1  0.32960829  0.33399205  0.00197337  1
  Cs  Cs13  1  0.33482337  0.33521333  0.33224353  1
  Cs  Cs14  1  0.33117327  0.33389033  0.66523830  1
  Cs  Cs15  1  0.33292131  0.66273346  -0.00022277  1
  Cs  Cs16  1  0.33448697  0.66384207  0.33265501  1
  Cs  Cs17  1  0.33394509  0.66771558  0.66685294  1
  Cs  Cs18  1  0.66308042  -0.00025575  0.00132578  1
  Cs  Cs19  1  0.66910862  0.00245334  0.33096197  1
  Cs  Cs20  1  0.66124782  -0.00148646  0.66882346  1
  Cs  Cs21  1  0.67050711  0.33340954  -0.00022825  1
  Cs  Cs22  1  0.66620955  0.33239441  0.33355397  1
  Cs  Cs23  1  0.67130131  0.33282823  0.66611917  1
  Cs  Cs24  1  0.66804077  0.66680306  -0.00073083  1
  Cs  Cs25  1  0.66558761  0.66704816  0.33427203  1
  Cs  Cs26  1  0.66261188  0.66838336  0.66699974  1
  Sn  Sn27  1  0.50018637  0.16683960  0.49942194  1
  Sn  Sn28  1  0.50062414  0.16612469  0.16754143  1
  Sn  Sn29  1  0.16744342  0.50049709  0.83259500  1
  Sn  Sn30  1  0.16591985  0.83270474  0.83330415  1
  Sn  Sn31  1  0.49926343  0.49922801  0.83320094  1
  Sn  Sn32  1  0.83292447  0.16752058  0.16735875  1
  Sn  Sn33  1  0.83419908  0.49990867  0.49895474  1
  Sn  Sn34  1  0.16639663  0.16724753  0.49998486  1
  Sn  Sn35  1  0.16579067  0.49953380  0.50034012  1
  Sn  Sn36  1  0.83389036  0.83370507  0.83307284  1
  Sn  Sn37  1  0.49980725  0.83361946  0.16705067  1
  Sn  Sn38  1  0.83343195  0.16708918  0.49931343  1
  Sn  Sn39  1  0.83374213  0.49956033  0.16775834  1
  Pb  Pb40  1  0.50229856  0.49905179  0.16490945  1
  Pb  Pb41  1  0.83334125  0.16393647  0.83329643  1
  Pb  Pb42  1  0.49945668  0.83132599  0.83527983  1
  Pb  Pb43  1  0.16679491  0.83276899  0.50192101  1
  Pb  Pb44  1  0.50006859  0.16944796  0.83381922  1
  Pb  Pb45  1  0.16354130  0.49993200  0.16729361  1
  Pb  Pb46  1  0.16626634  0.16684492  0.16951665  1
  Pb  Pb47  1  0.83397332  0.50131645  0.83282403  1
  Pb  Pb48  1  0.50001876  0.83611323  0.49720703  1
  Pb  Pb49  1  0.16967490  0.83330132  0.16377185  1
  Pb  Pb50  1  0.16657234  0.16713445  0.83081263  1
  Pb  Pb51  1  0.83194348  0.83377643  0.16476052  1
  Pb  Pb52  1  0.50023404  0.49798232  0.50162213  1
  Pb  Pb53  1  0.83319972  0.83334053  0.50223484  1
  I  I54  1  0.16226360  0.00015292  0.16683424  1
  I  I55  1  0.16579525  0.00320410  0.50057010  1
  I  I56  1  0.16249413  -0.00265588  0.83258070  1
  I  I57  1  0.17169375  0.33341563  0.16025078  1
  I  I58  1  0.16539714  0.33377136  0.50640508  1
  I  I59  1  0.17052605  0.33672805  0.83134958  1
  I  I60  1  0.16700749  0.66651211  0.17096840  1
  I  I61  1  0.16124111  0.66296483  0.50279922  1
  I  I62  1  0.16664816  0.66546487  0.82743923  1
  I  I63  1  0.50637663  0.00167105  0.16888394  1
  I  I64  1  0.50075885  0.00478295  0.50129795  1
  I  I65  1  0.49959850  0.00012557  0.83164038  1
  I  I66  1  0.50247305  0.33003002  0.16993104  1
  I  I67  1  0.49990405  0.32978882  0.49398218  1
  I  I68  1  0.49462992  0.33710551  0.83472720  1
  I  I69  1  0.50182839  0.66820415  0.16223644  1
  I  I70  1  0.49995063  0.66633380  0.49984567  1
  I  I71  1  0.49956428  0.66361979  0.83481696  1
  I  I72  1  0.83080808  0.00326547  0.17057695  1
  I  I73  1  0.83426756  0.00371249  0.49624168  1
  I  I74  1  0.83869602  -0.00371396  0.83341851  1
  I  I75  1  0.82716916  0.33259580  0.16921838  1
  I  I76  1  0.83380043  0.33302152  0.49739460  1
  I  I77  1  0.83326437  0.33332816  0.83406997  1
  I  I78  1  0.83177859  0.66418770  0.16922448  1
  I  I79  1  0.83901597  0.66316321  0.49685019  1
  I  I80  1  0.83411550  0.66893223  0.83434338  1
  I  I81  1  0.16697561  0.16637356  0.00002849  1
  I  I82  1  0.16748482  0.17370372  0.33773325  1
  I  I83  1  0.16581376  0.16810849  0.66242827  1
  I  I84  1  0.16931168  0.50460928  -0.00297962  1
  I  I85  1  0.16579823  0.49440764  0.33701575  1
  I  I86  1  0.16437798  0.49936798  0.66635197  1
  I  I87  1  0.16177998  0.82675790  -0.00427478  1
  I  I88  1  0.16735093  0.83284447  0.33333470  1
  I  I89  1  0.16381143  0.83204695  0.67003426  1
  I  I90  1  0.50554728  0.16335573  0.00342650  1
  I  I91  1  0.50124203  0.16358988  0.33339209  1
  I  I92  1  0.50131089  0.16878049  0.66355852  1
  I  I93  1  0.49580762  0.49934971  -0.00298938  1
  I  I94  1  0.49738953  0.50240844  0.33334076  1
  I  I95  1  0.50092506  0.49975022  0.66949857  1
  I  I96  1  0.50081327  0.84077448  0.00283044  1
  I  I97  1  0.50232775  0.83276973  0.32937171  1
  I  I98  1  0.50023906  0.83444268  0.66691879  1
  I  I99  1  0.82733571  0.17064055  0.00339922  1
  I  I100  1  0.83185511  0.17072141  0.33384704  1
  I  I101  1  0.83282473  0.17117620  0.66296561  1
  I  I102  1  0.83165198  0.49696640  0.00211491  1
  I  I103  1  0.83704091  0.49583695  0.33423295  1
  I  I104  1  0.83435090  0.49566521  0.66371021  1
  I  I105  1  0.83658653  0.83141576  -0.00292344  1
  I  I106  1  0.83175709  0.83271234  0.33322668  1
  I  I107  1  0.83638906  0.83232736  0.67002602  1
  I  I108  1  -0.00355691  0.17098454  0.16923819  1
  I  I109  1  -0.00074169  0.17137027  0.49783027  1
  I  I110  1  -0.00009026  0.16990835  0.83423653  1
  I  I111  1  -0.00440651  0.49368335  0.16469529  1
  I  I112  1  -0.00008043  0.49110781  0.50349864  1
  I  I113  1  0.00269429  0.50279452  0.83170160  1
  I  I114  1  -0.00008457  0.83385383  0.16644344  1
  I  I115  1  -0.00003904  0.83824603  0.49821795  1
  I  I116  1  0.00071163  0.82697657  0.83340578  1
  I  I117  1  0.33636534  0.16217131  0.16968686  1
  I  I118  1  0.33333609  0.17056568  0.49700368  1
  I  I119  1  0.33335473  0.16244588  0.83310059  1
  I  I120  1  0.33338775  0.50043481  0.16733442  1
  I  I121  1  0.33060801  0.49586904  0.50377019  1
  I  I122  1  0.33186421  0.50570859  0.82859921  1
  I  I123  1  0.33745390  0.84012423  0.16517198  1
  I  I124  1  0.33339407  0.83370432  0.50270791  1
  I  I125  1  0.33061109  0.83055874  0.83387441  1
  I  I126  1  0.66695333  0.16662136  0.17411184  1
  I  I127  1  0.66738619  0.17074978  0.49592213  1
  I  I128  1  0.66670687  0.16680827  0.82850234  1
  I  I129  1  0.67013096  0.49877275  0.16999144  1
  I  I130  1  0.66969037  0.49594500  0.49870421  1
  I  I131  1  0.66536907  0.50182209  0.83395568  1
  I  I132  1  0.66429042  0.83536283  0.16245388  1
  I  I133  1  0.66667966  0.83129676  0.50540936  1
  I  I134  1  0.66830692  0.83145046  0.83439778  1
