# generated using pymatgen
data_Cs27Sn13Pb14I81
_symmetry_space_group_name_H-M   'P 1'
_cell_length_a   18.97445496
_cell_length_b   18.97968980
_cell_length_c   18.97525886
_cell_angle_alpha   89.99831665
_cell_angle_beta   90.00090171
_cell_angle_gamma   89.99725368
_symmetry_Int_Tables_number   1
_chemical_formula_structural   Cs27Sn13Pb14I81
_chemical_formula_sum   'Cs27 Sn13 Pb14 I81'
_cell_volume   6833.54609684
_cell_formula_units_Z   1
loop_
 _symmetry_equiv_pos_site_id
 _symmetry_equiv_pos_as_xyz
  1  'x, y, z'
loop_
 _atom_site_type_symbol
 _atom_site_label
 _atom_site_symmetry_multiplicity
 _atom_site_fract_x
 _atom_site_fract_y
 _atom_site_fract_z
 _atom_site_occupancy
  Cs  Cs0  1  -0.00249004  0.00183960  0.00072943  1
  Cs  Cs1  1  -0.00649168  -0.00094186  0.33287579  1
  Cs  Cs2  1  0.00427161  -0.00300406  0.66635444  1
  Cs  Cs3  1  0.00143818  0.33375010  0.00055149  1
  Cs  Cs4  1  -0.00035786  0.33151002  0.33072546  1
  Cs  Cs5  1  0.00041031  0.33341572  0.66897345  1
  Cs  Cs6  1  -0.00099975  0.66337306  0.00011804  1
  Cs  Cs7  1  -0.00053265  0.66956480  0.33954238  1
  Cs  Cs8  1  0.00015370  0.66981325  0.66079059  1
  Cs  Cs9  1  0.33464531  0.00096198  0.00020753  1
  Cs  Cs10  1  0.33356934  -0.00326679  0.33341676  1
  Cs  Cs11  1  0.33059466  0.00111545  0.66608562  1
  Cs  Cs12  1  0.33030145  0.33442953  0.00059914  1
  Cs  Cs13  1  0.33308387  0.33300663  0.33228867  1
  Cs  Cs14  1  0.33381193  0.33392551  0.66637324  1
  Cs  Cs15  1  0.33400385  0.66476834  -0.00044292  1
  Cs  Cs16  1  0.33274538  0.67177896  0.33129882  1
  Cs  Cs17  1  0.33420356  0.66528408  0.66884859  1
  Cs  Cs18  1  0.66713272  -0.00262246  -0.00094634  1
  Cs  Cs19  1  0.66879534  0.00322518  0.33264693  1
  Cs  Cs20  1  0.66805211  0.00163678  0.67005804  1
  Cs  Cs21  1  0.66794289  0.33375015  0.00006793  1
  Cs  Cs22  1  0.66684259  0.33408103  0.34096437  1
  Cs  Cs23  1  0.66656244  0.33431081  0.65896054  1
  Cs  Cs24  1  0.66625688  0.66850296  -0.00074337  1
  Cs  Cs25  1  0.66675740  0.66350779  0.33147970  1
  Cs  Cs26  1  0.66638724  0.66407985  0.66965296  1
  Sn  Sn27  1  0.83342163  0.49923147  0.83386730  1
  Sn  Sn28  1  0.16684745  0.83377319  0.83482687  1
  Sn  Sn29  1  0.50057604  0.49973358  0.16639769  1
  Sn  Sn30  1  0.16680867  0.83355553  0.16545018  1
  Sn  Sn31  1  0.16679560  0.16753282  0.50010938  1
  Sn  Sn32  1  0.50027764  0.83348485  0.49974180  1
  Sn  Sn33  1  0.83337169  0.16766402  0.83343361  1
  Sn  Sn34  1  0.49940245  0.83356272  0.16742509  1
  Sn  Sn35  1  0.49990820  0.16703589  0.83392388  1
  Sn  Sn36  1  0.83262263  0.49994689  0.16600587  1
  Sn  Sn37  1  0.16677180  0.16614282  0.83301335  1
  Sn  Sn38  1  0.49982164  0.16678100  0.16611231  1
  Sn  Sn39  1  0.16707675  0.49886477  0.49988263  1
  Pb  Pb40  1  0.49804977  0.16493440  0.49999125  1
  Pb  Pb41  1  0.16651884  0.50233128  0.16862875  1
  Pb  Pb42  1  0.82931842  0.83344931  0.50002501  1
  Pb  Pb43  1  0.83280816  0.83097600  0.16662230  1
  Pb  Pb44  1  0.16797528  0.83392675  0.49990347  1
  Pb  Pb45  1  0.83630095  0.16652014  0.50288789  1
  Pb  Pb46  1  0.16470765  0.49987439  0.83175009  1
  Pb  Pb47  1  0.83610081  0.83329544  0.83345812  1
  Pb  Pb48  1  0.83045627  0.16897396  0.16461144  1
  Pb  Pb49  1  0.16832166  0.16453674  0.16652218  1
  Pb  Pb50  1  0.83546677  0.49987233  0.49998936  1
  Pb  Pb51  1  0.49776921  0.50217541  0.49751117  1
  Pb  Pb52  1  0.49806616  0.83524325  0.83376756  1
  Pb  Pb53  1  0.50213615  0.49727265  0.83527810  1
  I  I54  1  0.17325161  -0.00333624  0.16711836  1
  I  I55  1  0.16914425  0.00241150  0.50328716  1
  I  I56  1  0.16535325  0.00134528  0.83054447  1
  I  I57  1  0.16818535  0.33332075  0.16537487  1
  I  I58  1  0.16767990  0.33232067  0.50580984  1
  I  I59  1  0.16806230  0.33019196  0.83085524  1
  I  I60  1  0.17266677  0.67013173  0.16285082  1
  I  I61  1  0.16722615  0.66526039  0.49943003  1
  I  I62  1  0.16595259  0.66913357  0.83493118  1
  I  I63  1  0.49394270  -0.00027377  0.16645869  1
  I  I64  1  0.49552237  -0.00267164  0.49398009  1
  I  I65  1  0.50371379  0.00349985  0.83849347  1
  I  I66  1  0.50330978  0.33314631  0.16127627  1
  I  I67  1  0.49992265  0.33326157  0.49913633  1
  I  I68  1  0.49383652  0.32906055  0.83822716  1
  I  I69  1  0.49977981  0.66706601  0.17177738  1
  I  I70  1  0.49585676  0.66992382  0.49496751  1
  I  I71  1  0.49966016  0.66658253  0.83342535  1
  I  I72  1  0.83308326  0.00020875  0.16560757  1
  I  I73  1  0.83712939  0.00022371  0.50114564  1
  I  I74  1  0.83159103  0.00337543  0.83252520  1
  I  I75  1  0.82991727  0.33687709  0.16447916  1
  I  I76  1  0.83082262  0.33319928  0.49814127  1
  I  I77  1  0.83617696  0.33253311  0.83836718  1
  I  I78  1  0.82838713  0.66307421  0.15993088  1
  I  I79  1  0.83849484  0.66640232  0.50250211  1
  I  I80  1  0.83474542  0.66368878  0.83722108  1
  I  I81  1  0.16568628  0.16406800  -0.00310323  1
  I  I82  1  0.17036914  0.16904425  0.33552161  1
  I  I83  1  0.16836204  0.16423632  0.66833999  1
  I  I84  1  0.16767688  0.49895008  0.00018009  1
  I  I85  1  0.16589009  0.49564607  0.33623043  1
  I  I86  1  0.16494066  0.50122891  0.66402239  1
  I  I87  1  0.17248478  0.83799316  -0.00004642  1
  I  I88  1  0.17031095  0.83219286  0.33095237  1
  I  I89  1  0.16773077  0.83510784  0.66891170  1
  I  I90  1  0.49760264  0.16446011  -0.00003683  1
  I  I91  1  0.49720249  0.16763909  0.33038821  1
  I  I92  1  0.50108360  0.16378778  0.66962026  1
  I  I93  1  0.49967886  0.50537486  0.00363827  1
  I  I94  1  0.50608057  0.49525040  0.32914771  1
  I  I95  1  0.50087200  0.50121651  0.66666932  1
  I  I96  1  0.49754018  0.83208935  0.00319413  1
  I  I97  1  0.49243100  0.83453761  0.33114214  1
  I  I98  1  0.49683537  0.83570117  0.66488644  1
  I  I99  1  0.83908670  0.16833670  -0.00360397  1
  I  I100  1  0.83375819  0.16759601  0.33317265  1
  I  I101  1  0.82718156  0.17352338  0.67139375  1
  I  I102  1  0.83087855  0.49659633  -0.00002328  1
  I  I103  1  0.82947070  0.50179747  0.33033873  1
  I  I104  1  0.83566830  0.49568759  0.66965679  1
  I  I105  1  0.83003476  0.83454978  -0.00004925  1
  I  I106  1  0.84032940  0.83115148  0.33305562  1
  I  I107  1  0.83443595  0.83068764  0.66702925  1
  I  I108  1  -0.00004179  0.16660040  0.16648918  1
  I  I109  1  0.00456914  0.16890663  0.50419210  1
  I  I110  1  0.00071061  0.16664420  0.82828068  1
  I  I111  1  -0.00241111  0.50133112  0.16362435  1
  I  I112  1  0.00337659  0.49807584  0.49839647  1
  I  I113  1  -0.00303464  0.49440856  0.84013137  1
  I  I114  1  0.00281094  0.83216442  0.16303012  1
  I  I115  1  0.00039549  0.83262316  0.49992099  1
  I  I116  1  0.00431078  0.83888071  0.83763122  1
  I  I117  1  0.33663518  0.17072222  0.16116076  1
  I  I118  1  0.33024948  0.16922913  0.50656486  1
  I  I119  1  0.33279125  0.16125740  0.83319589  1
  I  I120  1  0.33615781  0.49934648  0.16875728  1
  I  I121  1  0.33014945  0.49642243  0.50001268  1
  I  I122  1  0.33327011  0.49943168  0.83374867  1
  I  I123  1  0.33437764  0.83126653  0.16690143  1
  I  I124  1  0.33555441  0.83362862  0.49687770  1
  I  I125  1  0.33003617  0.83869494  0.83423028  1
  I  I126  1  0.66221444  0.16051382  0.16159200  1
  I  I127  1  0.66644896  0.16488768  0.50071906  1
  I  I128  1  0.66633875  0.16979096  0.83912770  1
  I  I129  1  0.66573783  0.50263555  0.16240401  1
  I  I130  1  0.66645456  0.50204079  0.50141566  1
  I  I131  1  0.67014896  0.49629188  0.83425219  1
  I  I132  1  0.66293055  0.83506744  0.17063036  1
  I  I133  1  0.66148004  0.83359457  0.49260076  1
  I  I134  1  0.66651227  0.83464657  0.83300515  1
