# generated using pymatgen
data_Cs27Sn14Pb13I81
_symmetry_space_group_name_H-M   'P 1'
_cell_length_a   18.97882031
_cell_length_b   18.97329974
_cell_length_c   18.97325155
_cell_angle_alpha   90.00199966
_cell_angle_beta   89.99978845
_cell_angle_gamma   89.99933511
_symmetry_Int_Tables_number   1
_chemical_formula_structural   Cs27Sn14Pb13I81
_chemical_formula_sum   'Cs27 Sn14 Pb13 I81'
_cell_volume   6832.09420393
_cell_formula_units_Z   1
loop_
 _symmetry_equiv_pos_site_id
 _symmetry_equiv_pos_as_xyz
  1  'x, y, z'
loop_
 _atom_site_type_symbol
 _atom_site_label
 _atom_site_symmetry_multiplicity
 _atom_site_fract_x
 _atom_site_fract_y
 _atom_site_fract_z
 _atom_site_occupancy
  Cs  Cs0  1  0.00062095  0.00046944  0.00147435  1
  Cs  Cs1  1  -0.00028786  -0.00078912  0.33271908  1
  Cs  Cs2  1  -0.00097000  0.00184094  0.66502002  1
  Cs  Cs3  1  -0.00290604  0.33180349  -0.00061233  1
  Cs  Cs4  1  0.00051538  0.33669382  0.33379344  1
  Cs  Cs5  1  0.00044368  0.33785560  0.66849529  1
  Cs  Cs6  1  0.00431728  0.66839591  0.00286837  1
  Cs  Cs7  1  -0.00104287  0.66539813  0.33399571  1
  Cs  Cs8  1  0.00285030  0.65740699  0.66417330  1
  Cs  Cs9  1  0.32655690  -0.00018729  -0.00206315  1
  Cs  Cs10  1  0.33205889  0.00282778  0.33380522  1
  Cs  Cs11  1  0.33413730  0.00122908  0.66652255  1
  Cs  Cs12  1  0.33843585  0.33367072  0.00448298  1
  Cs  Cs13  1  0.33847057  0.33060482  0.33038787  1
  Cs  Cs14  1  0.33006375  0.33011733  0.66548018  1
  Cs  Cs15  1  0.33434287  0.66676445  -0.00982865  1
  Cs  Cs16  1  0.33531783  0.66676497  0.33478779  1
  Cs  Cs17  1  0.33216657  0.66488598  0.67295034  1
  Cs  Cs18  1  0.67127330  -0.00225041  -0.00278614  1
  Cs  Cs19  1  0.66744674  -0.00221991  0.33556837  1
  Cs  Cs20  1  0.66637515  0.00018356  0.66541162  1
  Cs  Cs21  1  0.66608231  0.33703311  -0.00172549  1
  Cs  Cs22  1  0.66209031  0.33310477  0.33218890  1
  Cs  Cs23  1  0.67067365  0.33159008  0.67002319  1
  Cs  Cs24  1  0.66223505  0.66676469  0.00167183  1
  Cs  Cs25  1  0.66783024  0.66841490  0.33331546  1
  Cs  Cs26  1  0.66533369  0.66708314  0.66631576  1
  Sn  Sn27  1  0.49994358  0.83389578  0.16705620  1
  Sn  Sn28  1  0.83426737  0.16631417  0.49901936  1
  Sn  Sn29  1  0.49979109  0.83233534  0.49935596  1
  Sn  Sn30  1  0.16648382  0.83370889  0.49993794  1
  Sn  Sn31  1  0.83396140  0.50022485  0.16703162  1
  Sn  Sn32  1  0.16669125  0.50030082  0.16684332  1
  Sn  Sn33  1  0.83316077  0.16667184  0.16780597  1
  Sn  Sn34  1  0.16746797  0.16651757  0.83284352  1
  Sn  Sn35  1  0.50012203  0.50072470  0.50026278  1
  Sn  Sn36  1  0.83378528  0.83367734  0.50039608  1
  Sn  Sn37  1  0.83389497  0.83286148  0.83281373  1
  Sn  Sn38  1  0.83273174  0.83333363  0.16660380  1
  Sn  Sn39  1  0.49922806  0.16624328  0.83349434  1
  Sn  Sn40  1  0.16550860  0.16600677  0.50040031  1
  Pb  Pb41  1  0.50013422  0.50255887  0.16808241  1
  Pb  Pb42  1  0.83383416  0.16526017  0.83294312  1
  Pb  Pb43  1  0.50035645  0.16598399  0.50110797  1
  Pb  Pb44  1  0.83145389  0.49976810  0.49810585  1
  Pb  Pb45  1  0.50007345  0.49728684  0.83024981  1
  Pb  Pb46  1  0.83338016  0.50358601  0.83645071  1
  Pb  Pb47  1  0.50283999  0.16346613  0.16421326  1
  Pb  Pb48  1  0.50156793  0.83508264  0.83296859  1
  Pb  Pb49  1  0.16455707  0.16841301  0.16733137  1
  Pb  Pb50  1  0.16883288  0.49946003  0.49823725  1
  Pb  Pb51  1  0.16383087  0.83524194  0.83024539  1
  Pb  Pb52  1  0.16686238  0.83166845  0.16870215  1
  Pb  Pb53  1  0.16662507  0.49688757  0.83624705  1
  I  I54  1  0.16626865  0.00004164  0.16501745  1
  I  I55  1  0.16746165  0.00003687  0.50210728  1
  I  I56  1  0.17004357  0.00315141  0.83341929  1
  I  I57  1  0.16061803  0.33609567  0.16847073  1
  I  I58  1  0.16302826  0.33005651  0.50311342  1
  I  I59  1  0.16796106  0.32899232  0.82467346  1
  I  I60  1  0.15959876  0.66414558  0.17039483  1
  I  I61  1  0.16294197  0.66944880  0.49677433  1
  I  I62  1  0.16558085  0.66682137  0.83271303  1
  I  I63  1  0.50536334  -0.00418029  0.17484868  1
  I  I64  1  0.50123102  -0.00315920  0.49790669  1
  I  I65  1  0.49764487  0.00268188  0.83046914  1
  I  I66  1  0.50121923  0.33322367  0.16758173  1
  I  I67  1  0.49989780  0.33482579  0.50120885  1
  I  I68  1  0.49800963  0.32942394  0.83226580  1
  I  I69  1  0.50702556  0.67036529  0.16900086  1
  I  I70  1  0.50138819  0.66907040  0.49541902  1
  I  I71  1  0.50183811  0.66696449  0.83536639  1
  I  I72  1  0.82889872  -0.00098720  0.16750835  1
  I  I73  1  0.83184018  -0.00098694  0.49571485  1
  I  I74  1  0.83267519  -0.00256266  0.83740215  1
  I  I75  1  0.83873246  0.33285183  0.17127526  1
  I  I76  1  0.83582415  0.33022778  0.49631005  1
  I  I77  1  0.83274612  0.33325740  0.83353388  1
  I  I78  1  0.83327269  0.66805050  0.16724947  1
  I  I79  1  0.83537807  0.67009884  0.49889129  1
  I  I80  1  0.83154575  0.67153371  0.83022299  1
  I  I81  1  0.16868001  0.16872996  -0.00206977  1
  I  I82  1  0.16426044  0.16351256  0.33650269  1
  I  I83  1  0.16484297  0.16238702  0.66519369  1
  I  I84  1  0.16184273  0.50055332  0.00403015  1
  I  I85  1  0.16143283  0.49858408  0.33077621  1
  I  I86  1  0.16827332  0.50171407  0.66642497  1
  I  I87  1  0.16640746  0.83368355  -0.00009551  1
  I  I88  1  0.16291493  0.83940362  0.33698757  1
  I  I89  1  0.16812702  0.83446842  0.66200009  1
  I  I90  1  0.49496478  0.16534379  -0.00318765  1
  I  I91  1  0.49765070  0.16880288  0.33324524  1
  I  I92  1  0.50160772  0.16461038  0.66871557  1
  I  I93  1  0.50016712  0.50056544  0.00015666  1
  I  I94  1  0.50036705  0.50063086  0.33596380  1
  I  I95  1  0.49988236  0.50884267  0.66249698  1
  I  I96  1  0.50687457  0.83475003  0.00248178  1
  I  I97  1  0.50600234  0.83042788  0.33455178  1
  I  I98  1  0.50199386  0.83163717  0.66323065  1
  I  I99  1  0.83308265  0.16488351  0.00250567  1
  I  I100  1  0.83828564  0.16136786  0.33410533  1
  I  I101  1  0.83278086  0.16083772  0.66367527  1
  I  I102  1  0.83580520  0.49697571  0.00479027  1
  I  I103  1  0.83629720  0.50442405  0.33008980  1
  I  I104  1  0.83166298  0.49923030  0.66643442  1
  I  I105  1  0.82794666  0.83427996  0.00164559  1
  I  I106  1  0.83219465  0.83418846  0.33360184  1
  I  I107  1  0.83166290  0.84099416  0.66474279  1
  I  I108  1  -0.00369371  0.16067156  0.16546061  1
  I  I109  1  -0.00046330  0.15858281  0.50152169  1
  I  I110  1  0.00221756  0.16451460  0.83215993  1
  I  I111  1  -0.00164155  0.50228557  0.16843773  1
  I  I112  1  -0.00010049  0.50223127  0.49986728  1
  I  I113  1  -0.00009643  0.49729435  0.82951418  1
  I  I114  1  -0.00347863  0.83493876  0.16732697  1
  I  I115  1  -0.00113461  0.83912173  0.49902840  1
  I  I116  1  -0.00392963  0.83737711  0.83711340  1
  I  I117  1  0.33343229  0.16825748  0.16853335  1
  I  I118  1  0.33097593  0.16394631  0.50302386  1
  I  I119  1  0.33251681  0.16528067  0.82613199  1
  I  I120  1  0.33136605  0.49966873  0.16975749  1
  I  I121  1  0.33635153  0.50400175  0.49618776  1
  I  I122  1  0.33333394  0.50351819  0.83675108  1
  I  I123  1  0.33588205  0.83137814  0.17247837  1
  I  I124  1  0.33374491  0.83430325  0.49401645  1
  I  I125  1  0.33300205  0.83336139  0.83441495  1
  I  I126  1  0.67096891  0.17074131  0.17183764  1
  I  I127  1  0.66956502  0.16339831  0.49817082  1
  I  I128  1  0.66537091  0.16453772  0.83258747  1
  I  I129  1  0.66957192  0.49901029  0.16823554  1
  I  I130  1  0.66386746  0.50409866  0.49673248  1
  I  I131  1  0.66676907  0.49537450  0.83541287  1
  I  I132  1  0.66855276  0.83173905  0.17125631  1
  I  I133  1  0.66765858  0.83397402  0.49874219  1
  I  I134  1  0.66952752  0.83813643  0.83025834  1
