# generated using pymatgen
data_Cs27Sn14Pb13I81
_symmetry_space_group_name_H-M   'P 1'
_cell_length_a   18.95881063
_cell_length_b   18.96223208
_cell_length_c   18.96141836
_cell_angle_alpha   89.99831642
_cell_angle_beta   90.00036508
_cell_angle_gamma   89.99977561
_symmetry_Int_Tables_number   1
_chemical_formula_structural   Cs27Sn14Pb13I81
_chemical_formula_sum   'Cs27 Sn14 Pb13 I81'
_cell_volume   6816.65581811
_cell_formula_units_Z   1
loop_
 _symmetry_equiv_pos_site_id
 _symmetry_equiv_pos_as_xyz
  1  'x, y, z'
loop_
 _atom_site_type_symbol
 _atom_site_label
 _atom_site_symmetry_multiplicity
 _atom_site_fract_x
 _atom_site_fract_y
 _atom_site_fract_z
 _atom_site_occupancy
  Cs  Cs0  1  0.00009230  0.00149583  0.00049250  1
  Cs  Cs1  1  -0.00031215  0.00022200  0.33182267  1
  Cs  Cs2  1  0.00097467  0.00084907  0.66668673  1
  Cs  Cs3  1  0.00105651  0.33194789  -0.00159136  1
  Cs  Cs4  1  -0.00207974  0.33091374  0.33365048  1
  Cs  Cs5  1  0.00220113  0.33249493  0.66789092  1
  Cs  Cs6  1  0.00076188  0.66420327  0.00362415  1
  Cs  Cs7  1  -0.00694243  0.66635263  0.32498221  1
  Cs  Cs8  1  0.00147958  0.66630968  0.66803842  1
  Cs  Cs9  1  0.33456667  -0.00006509  -0.00019233  1
  Cs  Cs10  1  0.33109107  -0.00113955  0.33316543  1
  Cs  Cs11  1  0.33225478  -0.00193705  0.66734181  1
  Cs  Cs12  1  0.33467237  0.33402671  0.00247729  1
  Cs  Cs13  1  0.34025915  0.33527745  0.33334673  1
  Cs  Cs14  1  0.33131110  0.33348552  0.66593550  1
  Cs  Cs15  1  0.33178241  0.66631336  0.00040435  1
  Cs  Cs16  1  0.33348355  0.66746716  0.33236192  1
  Cs  Cs17  1  0.33300423  0.66877675  0.66742259  1
  Cs  Cs18  1  0.66514443  0.00048863  -0.00229267  1
  Cs  Cs19  1  0.66927175  0.00037799  0.33684423  1
  Cs  Cs20  1  0.66696064  -0.00001743  0.66724972  1
  Cs  Cs21  1  0.66533958  0.33171304  0.00057994  1
  Cs  Cs22  1  0.65989108  0.34137822  0.33981138  1
  Cs  Cs23  1  0.66518518  0.33335553  0.66208550  1
  Cs  Cs24  1  0.66717253  0.66717299  -0.00243733  1
  Cs  Cs25  1  0.67322786  0.66007943  0.33269978  1
  Cs  Cs26  1  0.66635450  0.66769900  0.66860168  1
  Sn  Sn27  1  0.83260595  0.49952337  0.83320282  1
  Sn  Sn28  1  0.50038399  0.83347521  0.16705032  1
  Sn  Sn29  1  0.16633896  0.83400658  0.83307168  1
  Sn  Sn30  1  0.83402414  0.16693446  0.83395807  1
  Sn  Sn31  1  0.16632139  0.16653218  0.16644150  1
  Sn  Sn32  1  0.83318494  0.16686446  0.16618015  1
  Sn  Sn33  1  0.16670742  0.16666340  0.49985499  1
  Sn  Sn34  1  0.49979137  0.83261450  0.83319829  1
  Sn  Sn35  1  0.16616499  0.16583586  0.83361567  1
  Sn  Sn36  1  0.83389744  0.83334040  0.83331405  1
  Sn  Sn37  1  0.50044857  0.50051997  0.83323566  1
  Sn  Sn38  1  0.16689112  0.83273657  0.50026026  1
  Sn  Sn39  1  0.49971283  0.83331947  0.49967553  1
  Sn  Sn40  1  0.16621312  0.50084609  0.49962820  1
  Pb  Pb41  1  0.83083304  0.83559408  0.16402145  1
  Pb  Pb42  1  0.83516383  0.16673159  0.50019969  1
  Pb  Pb43  1  0.50002458  0.50287678  0.16408298  1
  Pb  Pb44  1  0.49790405  0.50293856  0.50248932  1
  Pb  Pb45  1  0.16673592  0.50002726  0.83235572  1
  Pb  Pb46  1  0.83586050  0.50007872  0.50259349  1
  Pb  Pb47  1  0.83327261  0.49665447  0.16398453  1
  Pb  Pb48  1  0.49739723  0.16413508  0.50004738  1
  Pb  Pb49  1  0.49995052  0.16669138  0.83318393  1
  Pb  Pb50  1  0.83394475  0.83324170  0.50197063  1
  Pb  Pb51  1  0.50068884  0.16479601  0.16684704  1
  Pb  Pb52  1  0.16667847  0.49687025  0.16997049  1
  Pb  Pb53  1  0.16788676  0.83495739  0.16657706  1
  I  I54  1  0.16408405  0.00323590  0.16926075  1
  I  I55  1  0.17070704  -0.00031483  0.50208190  1
  I  I56  1  0.16490789  -0.00025891  0.82945400  1
  I  I57  1  0.16337504  0.32838416  0.16273056  1
  I  I58  1  0.16414039  0.33224161  0.50237874  1
  I  I59  1  0.16390198  0.33041511  0.83187920  1
  I  I60  1  0.16850868  0.66681664  0.16600059  1
  I  I61  1  0.17188689  0.66823739  0.50859385  1
  I  I62  1  0.16561423  0.66974130  0.82829797  1
  I  I63  1  0.49852780  -0.00336275  0.16165729  1
  I  I64  1  0.49497975  -0.00430030  0.50475227  1
  I  I65  1  0.50121757  -0.00358792  0.83303251  1
  I  I66  1  0.49909118  0.33337634  0.16456284  1
  I  I67  1  0.49828477  0.33376400  0.50130090  1
  I  I68  1  0.50210542  0.33598737  0.83344947  1
  I  I69  1  0.49804090  0.67108551  0.16747374  1
  I  I70  1  0.49272501  0.67097276  0.50022023  1
  I  I71  1  0.50255765  0.66864573  0.83303781  1
  I  I72  1  0.83799431  0.00339893  0.16031572  1
  I  I73  1  0.83419554  -0.00005003  0.50293321  1
  I  I74  1  0.83393742  -0.00002760  0.83632761  1
  I  I75  1  0.83904712  0.32872443  0.15982985  1
  I  I76  1  0.83600587  0.33323391  0.50310420  1
  I  I77  1  0.83480162  0.33238553  0.83701985  1
  I  I78  1  0.83236636  0.66676853  0.16574130  1
  I  I79  1  0.83624879  0.66683455  0.50202042  1
  I  I80  1  0.83224069  0.66748805  0.83080272  1
  I  I81  1  0.16275664  0.16154498  -0.00130942  1
  I  I82  1  0.16283071  0.16522751  0.33368168  1
  I  I83  1  0.16332746  0.16540378  0.66740773  1
  I  I84  1  0.16683256  0.50006456  -0.00010377  1
  I  I85  1  0.16805108  0.50240455  0.33800954  1
  I  I86  1  0.16667945  0.49615302  0.66456079  1
  I  I87  1  0.16780670  0.83753190  -0.00344736  1
  I  I88  1  0.17293077  0.83536201  0.33633150  1
  I  I89  1  0.17073516  0.83780373  0.66758344  1
  I  I90  1  0.49465121  0.16392395  -0.00029035  1
  I  I91  1  0.49963326  0.16396190  0.33344029  1
  I  I92  1  0.50046375  0.16471819  0.66694791  1
  I  I93  1  0.50177377  0.50520687  -0.00425444  1
  I  I94  1  0.49847824  0.50042100  0.33371765  1
  I  I95  1  0.50344222  0.50554610  0.67046594  1
  I  I96  1  0.49979311  0.83075259  -0.00190544  1
  I  I97  1  0.49196193  0.83717002  0.33422481  1
  I  I98  1  0.49823476  0.82999898  0.66795197  1
  I  I99  1  0.84186733  0.16617700  -0.00188501  1
  I  I100  1  0.83908964  0.16399623  0.33056202  1
  I  I101  1  0.83721270  0.16587796  0.67051689  1
  I  I102  1  0.83158833  0.50326476  -0.00463400  1
  I  I103  1  0.83435342  0.49899123  0.33329614  1
  I  I104  1  0.82981109  0.49783193  0.67121850  1
  I  I105  1  0.83427123  0.83181310  -0.00476106  1
  I  I106  1  0.83296095  0.83559045  0.33300768  1
  I  I107  1  0.82976341  0.83655103  0.67110246  1
  I  I108  1  0.00093529  0.16510765  0.16501749  1
  I  I109  1  0.00421504  0.16288344  0.50146281  1
  I  I110  1  0.00075099  0.16411860  0.83320752  1
  I  I111  1  -0.00000590  0.50401026  0.16430106  1
  I  I112  1  0.00405532  0.50160615  0.50405761  1
  I  I113  1  -0.00246476  0.50162931  0.83102228  1
  I  I114  1  -0.00025605  0.83294002  0.16695670  1
  I  I115  1  0.00402158  0.83514009  0.50586568  1
  I  I116  1  0.00077005  0.83454775  0.82795199  1
  I  I117  1  0.33021382  0.16481549  0.16555055  1
  I  I118  1  0.32848628  0.16827704  0.50164144  1
  I  I119  1  0.32975664  0.16341925  0.83311928  1
  I  I120  1  0.33332567  0.49694075  0.16291053  1
  I  I121  1  0.32996254  0.49659095  0.50406511  1
  I  I122  1  0.33554032  0.50411772  0.83127453  1
  I  I123  1  0.33589312  0.83647761  0.16134274  1
  I  I124  1  0.33227006  0.83458007  0.50582056  1
  I  I125  1  0.33319105  0.83354556  0.83237745  1
  I  I126  1  0.66986589  0.16342108  0.15729073  1
  I  I127  1  0.66659491  0.16513823  0.50028197  1
  I  I128  1  0.66986884  0.16372205  0.83911150  1
  I  I129  1  0.66667505  0.49757460  0.16874156  1
  I  I130  1  0.66643324  0.50067332  0.49948274  1
  I  I131  1  0.66694270  0.50412909  0.83377028  1
  I  I132  1  0.66285937  0.83628712  0.16576703  1
  I  I133  1  0.66376166  0.83386843  0.50238434  1
  I  I134  1  0.66631054  0.83326613  0.83351579  1
