# generated using pymatgen
data_Cs27Sn13Pb14I81
_symmetry_space_group_name_H-M   'P 1'
_cell_length_a   18.99181980
_cell_length_b   18.98490391
_cell_length_c   18.99674947
_cell_angle_alpha   90.00051753
_cell_angle_beta   89.99765411
_cell_angle_gamma   90.00112361
_symmetry_Int_Tables_number   1
_chemical_formula_structural   Cs27Sn13Pb14I81
_chemical_formula_sum   'Cs27 Sn13 Pb14 I81'
_cell_volume   6849.42759134
_cell_formula_units_Z   1
loop_
 _symmetry_equiv_pos_site_id
 _symmetry_equiv_pos_as_xyz
  1  'x, y, z'
loop_
 _atom_site_type_symbol
 _atom_site_label
 _atom_site_symmetry_multiplicity
 _atom_site_fract_x
 _atom_site_fract_y
 _atom_site_fract_z
 _atom_site_occupancy
  Cs  Cs0  1  -0.00183873  0.00131001  -0.00112109  1
  Cs  Cs1  1  -0.00583808  0.00234280  0.33528572  1
  Cs  Cs2  1  -0.00355200  -0.00035344  0.66699692  1
  Cs  Cs3  1  -0.00053021  0.33379006  -0.00037873  1
  Cs  Cs4  1  0.00206294  0.33373757  0.33287741  1
  Cs  Cs5  1  0.00198693  0.33177775  0.66738776  1
  Cs  Cs6  1  -0.00232534  0.66500047  0.00233548  1
  Cs  Cs7  1  0.01020251  0.66174418  0.33385000  1
  Cs  Cs8  1  0.00450660  0.66841738  0.66437861  1
  Cs  Cs9  1  0.33407104  -0.00360223  -0.00073432  1
  Cs  Cs10  1  0.33640714  -0.00040819  0.33026694  1
  Cs  Cs11  1  0.33431847  -0.00417226  0.67056223  1
  Cs  Cs12  1  0.33506242  0.33083332  -0.00165317  1
  Cs  Cs13  1  0.33518916  0.33327134  0.33461997  1
  Cs  Cs14  1  0.33362693  0.33265672  0.66588299  1
  Cs  Cs15  1  0.33261840  0.68087901  -0.00025195  1
  Cs  Cs16  1  0.32795159  0.67092113  0.33270767  1
  Cs  Cs17  1  0.32979790  0.67645891  0.66750527  1
  Cs  Cs18  1  0.66931740  0.00095868  0.00116927  1
  Cs  Cs19  1  0.66834811  -0.00127364  0.33444845  1
  Cs  Cs20  1  0.67013332  -0.00246391  0.66408415  1
  Cs  Cs21  1  0.66607464  0.33604565  -0.00128691  1
  Cs  Cs22  1  0.66417386  0.33342175  0.33426841  1
  Cs  Cs23  1  0.66360020  0.33651451  0.66547551  1
  Cs  Cs24  1  0.66977486  0.66266984  -0.00220268  1
  Cs  Cs25  1  0.66411225  0.66544382  0.33486573  1
  Cs  Cs26  1  0.66425162  0.66240678  0.66568452  1
  Sn  Sn27  1  0.16781376  0.16689590  0.50013003  1
  Sn  Sn28  1  0.16738645  0.49923796  0.83383286  1
  Sn  Sn29  1  0.50007115  0.49931372  0.49899608  1
  Sn  Sn30  1  0.83328477  0.49952589  0.49977840  1
  Sn  Sn31  1  0.83310949  0.16665041  0.16587377  1
  Sn  Sn32  1  0.16596529  0.16774158  0.83338388  1
  Sn  Sn33  1  0.49921963  0.16713303  0.49947577  1
  Sn  Sn34  1  0.83325524  0.83376048  0.83401632  1
  Sn  Sn35  1  0.83361908  0.16663844  0.83387576  1
  Sn  Sn36  1  0.16670927  0.16699692  0.16656270  1
  Sn  Sn37  1  0.49938738  0.49945703  0.16694879  1
  Sn  Sn38  1  0.83326470  0.83338574  0.16645397  1
  Sn  Sn39  1  0.50022243  0.16753614  0.16725499  1
  Pb  Pb40  1  0.49670829  0.50000519  0.83330027  1
  Pb  Pb41  1  0.16996862  0.49773408  0.16418632  1
  Pb  Pb42  1  0.50010439  0.83346110  0.49971629  1
  Pb  Pb43  1  0.50273522  0.83359938  0.16672087  1
  Pb  Pb44  1  0.16386958  0.83431762  0.83355420  1
  Pb  Pb45  1  0.83515050  0.49961673  0.83128924  1
  Pb  Pb46  1  0.16651876  0.83744038  0.49971603  1
  Pb  Pb47  1  0.83330197  0.83004153  0.49947050  1
  Pb  Pb48  1  0.83287388  0.16830268  0.50006043  1
  Pb  Pb49  1  0.83176233  0.49952116  0.16864547  1
  Pb  Pb50  1  0.50036647  0.16655999  0.83326387  1
  Pb  Pb51  1  0.50381873  0.83343325  0.83343586  1
  Pb  Pb52  1  0.16798753  0.49798188  0.50175913  1
  Pb  Pb53  1  0.16335928  0.83663398  0.16677488  1
  I  I54  1  0.17347541  0.00532925  0.16326634  1
  I  I55  1  0.17119672  0.00599587  0.50319049  1
  I  I56  1  0.16507891  0.00402812  0.83316707  1
  I  I57  1  0.16011666  0.32910841  0.16861902  1
  I  I58  1  0.16708794  0.32962720  0.49844590  1
  I  I59  1  0.15995151  0.33062681  0.83301765  1
  I  I60  1  0.16669123  0.66655447  0.16495116  1
  I  I61  1  0.16601023  0.66637727  0.50320205  1
  I  I62  1  0.16647124  0.66442508  0.83105820  1
  I  I63  1  0.49781697  0.00393008  0.17066760  1
  I  I64  1  0.49595161  0.00390252  0.49550432  1
  I  I65  1  0.49404890  0.00045290  0.83286033  1
  I  I66  1  0.50269610  0.33145018  0.17103891  1
  I  I67  1  0.50066038  0.33251783  0.49553359  1
  I  I68  1  0.50546549  0.33318525  0.83371190  1
  I  I69  1  0.50248509  0.66363436  0.17112382  1
  I  I70  1  0.50639511  0.66298594  0.49628382  1
  I  I71  1  0.49909722  0.66638646  0.83332699  1
  I  I72  1  0.83210640  0.00231643  0.16317689  1
  I  I73  1  0.83372333  0.00025233  0.50064952  1
  I  I74  1  0.83911603  0.00182200  0.83622385  1
  I  I75  1  0.83516261  0.32964673  0.16293021  1
  I  I76  1  0.83159450  0.33569469  0.50039355  1
  I  I77  1  0.83608608  0.33013364  0.83744466  1
  I  I78  1  0.82966441  0.66893076  0.16170629  1
  I  I79  1  0.82572934  0.66248698  0.50136864  1
  I  I80  1  0.83441658  0.66904802  0.83773317  1
  I  I81  1  0.16527941  0.17086721  -0.00003479  1
  I  I82  1  0.16597017  0.16602366  0.33292438  1
  I  I83  1  0.16564946  0.17136218  0.66708231  1
  I  I84  1  0.16489082  0.49207687  -0.00314784  1
  I  I85  1  0.16357657  0.49909596  0.33326820  1
  I  I86  1  0.16607478  0.49217752  0.66927798  1
  I  I87  1  0.16959759  0.83417649  0.00009234  1
  I  I88  1  0.16341186  0.83172346  0.33308286  1
  I  I89  1  0.16396339  0.83423096  0.66689053  1
  I  I90  1  0.49863207  0.17070115  0.00335323  1
  I  I91  1  0.49734241  0.17056803  0.33275161  1
  I  I92  1  0.49741739  0.17187049  0.66353400  1
  I  I93  1  0.50055536  0.49319888  0.00308744  1
  I  I94  1  0.50558250  0.49357565  0.33373511  1
  I  I95  1  0.50466416  0.49380597  0.66332163  1
  I  I96  1  0.49693972  0.83345359  0.00032497  1
  I  I97  1  0.50428252  0.83466016  0.33312096  1
  I  I98  1  0.50191758  0.83353208  0.66648131  1
  I  I99  1  0.83619351  0.16336529  0.00048092  1
  I  I100  1  0.83569750  0.16348060  0.33047724  1
  I  I101  1  0.83713619  0.16350608  0.66918164  1
  I  I102  1  0.83215868  0.50038232  0.00007663  1
  I  I103  1  0.83192529  0.49844006  0.33627935  1
  I  I104  1  0.82653251  0.49849544  0.66377698  1
  I  I105  1  0.83333824  0.83890192  0.00007775  1
  I  I106  1  0.83186832  0.84099750  0.33018017  1
  I  I107  1  0.83432035  0.83942741  0.66948658  1
  I  I108  1  -0.00022506  0.16150704  0.16634645  1
  I  I109  1  0.00205120  0.16880080  0.49807348  1
  I  I110  1  -0.00001865  0.16663413  0.83566479  1
  I  I111  1  0.00026149  0.50003320  0.16824566  1
  I  I112  1  -0.00140871  0.49891004  0.50208890  1
  I  I113  1  0.00273008  0.49655355  0.83097293  1
  I  I114  1  -0.00442129  0.83826659  0.16192228  1
  I  I115  1  -0.00035511  0.83228521  0.50027805  1
  I  I116  1  -0.00358045  0.83606083  0.83752594  1
  I  I117  1  0.33355526  0.17266485  0.16761188  1
  I  I118  1  0.33367097  0.17323825  0.49720138  1
  I  I119  1  0.33028899  0.17173201  0.83489286  1
  I  I120  1  0.33762914  0.49273525  0.17439021  1
  I  I121  1  0.33667668  0.49558768  0.49693728  1
  I  I122  1  0.32930846  0.48918782  0.83158681  1
  I  I123  1  0.33329663  0.83337335  0.16723909  1
  I  I124  1  0.33329032  0.82806519  0.50103338  1
  I  I125  1  0.33292882  0.83281986  0.83185790  1
  I  I126  1  0.66685072  0.16599197  0.16693653  1
  I  I127  1  0.66401874  0.16900098  0.49677999  1
  I  I128  1  0.66998108  0.16203992  0.83661743  1
  I  I129  1  0.66390488  0.49355754  0.16764460  1
  I  I130  1  0.66549817  0.49350945  0.49821083  1
  I  I131  1  0.66652548  0.50055183  0.83365904  1
  I  I132  1  0.67027568  0.84094125  0.16221084  1
  I  I133  1  0.66696845  0.83902791  0.50137298  1
  I  I134  1  0.67174559  0.84072684  0.83743819  1
