# generated using pymatgen
data_Cs27Sn14Pb13I81
_symmetry_space_group_name_H-M   'P 1'
_cell_length_a   18.98075675
_cell_length_b   18.97172364
_cell_length_c   18.97417906
_cell_angle_alpha   89.99968600
_cell_angle_beta   90.00204319
_cell_angle_gamma   89.99711382
_symmetry_Int_Tables_number   1
_chemical_formula_structural   Cs27Sn14Pb13I81
_chemical_formula_sum   'Cs27 Sn14 Pb13 I81'
_cell_volume   6832.55768280
_cell_formula_units_Z   1
loop_
 _symmetry_equiv_pos_site_id
 _symmetry_equiv_pos_as_xyz
  1  'x, y, z'
loop_
 _atom_site_type_symbol
 _atom_site_label
 _atom_site_symmetry_multiplicity
 _atom_site_fract_x
 _atom_site_fract_y
 _atom_site_fract_z
 _atom_site_occupancy
  Cs  Cs0  1  0.00222647  -0.00650460  0.00092030  1
  Cs  Cs1  1  0.00046203  -0.00029779  0.33467021  1
  Cs  Cs2  1  -0.00184004  0.00266637  0.66235877  1
  Cs  Cs3  1  -0.00169075  0.33431734  0.00155260  1
  Cs  Cs4  1  -0.00089671  0.33164306  0.33208808  1
  Cs  Cs5  1  0.00052091  0.33358724  0.66944563  1
  Cs  Cs6  1  0.00252660  0.67246961  -0.00397968  1
  Cs  Cs7  1  -0.00404414  0.67005788  0.33057635  1
  Cs  Cs8  1  -0.00037107  0.66484015  0.67636061  1
  Cs  Cs9  1  0.33572265  -0.00165028  -0.00376655  1
  Cs  Cs10  1  0.33329207  0.00161443  0.33404844  1
  Cs  Cs11  1  0.33410510  -0.00012730  0.66462971  1
  Cs  Cs12  1  0.33532225  0.33155652  0.00402360  1
  Cs  Cs13  1  0.33342459  0.33328282  0.33344520  1
  Cs  Cs14  1  0.32910428  0.33701118  0.66142706  1
  Cs  Cs15  1  0.33355792  0.66959653  -0.00074926  1
  Cs  Cs16  1  0.33560342  0.66515225  0.33398537  1
  Cs  Cs17  1  0.33208167  0.66340502  0.66723538  1
  Cs  Cs18  1  0.66128872  0.00122326  -0.01174718  1
  Cs  Cs19  1  0.66701906  -0.00055397  0.33450964  1
  Cs  Cs20  1  0.66692324  -0.00198340  0.67105454  1
  Cs  Cs21  1  0.66667959  0.33272949  0.00005919  1
  Cs  Cs22  1  0.66786134  0.33390742  0.33186517  1
  Cs  Cs23  1  0.66983131  0.33346343  0.66688007  1
  Cs  Cs24  1  0.66521742  0.66526022  -0.00053983  1
  Cs  Cs25  1  0.66678866  0.66613827  0.33339129  1
  Cs  Cs26  1  0.66769416  0.66929297  0.66873499  1
  Sn  Sn27  1  0.83325197  0.16772236  0.49892651  1
  Sn  Sn28  1  0.83377284  0.49955039  0.16751074  1
  Sn  Sn29  1  0.49975031  0.49933532  0.83410824  1
  Sn  Sn30  1  0.16627442  0.49982799  0.16719048  1
  Sn  Sn31  1  0.50031096  0.83305198  0.16759203  1
  Sn  Sn32  1  0.16590023  0.16716569  0.16643647  1
  Sn  Sn33  1  0.49996388  0.50078299  0.16603672  1
  Sn  Sn34  1  0.16666911  0.16687383  0.83369464  1
  Sn  Sn35  1  0.16661541  0.16627418  0.49974991  1
  Sn  Sn36  1  0.50029433  0.16621631  0.49968586  1
  Sn  Sn37  1  0.49900162  0.83399120  0.49881501  1
  Sn  Sn38  1  0.83372867  0.49947932  0.49924776  1
  Sn  Sn39  1  0.83379728  0.16668515  0.16716518  1
  Sn  Sn40  1  0.16726183  0.83325822  0.49951279  1
  Pb  Pb41  1  0.49756082  0.16929058  0.82978869  1
  Pb  Pb42  1  0.83347688  0.83353170  0.83358382  1
  Pb  Pb43  1  0.16698428  0.83607470  0.82989505  1
  Pb  Pb44  1  0.16881808  0.83385995  0.16871729  1
  Pb  Pb45  1  0.50034584  0.16661081  0.16818087  1
  Pb  Pb46  1  0.83331806  0.83346242  0.49996035  1
  Pb  Pb47  1  0.16873255  0.49771742  0.83657783  1
  Pb  Pb48  1  0.49968937  0.83106586  0.83256845  1
  Pb  Pb49  1  0.16380998  0.50031243  0.49779929  1
  Pb  Pb50  1  0.83034774  0.83421823  0.16649332  1
  Pb  Pb51  1  0.83575631  0.16676242  0.83390316  1
  Pb  Pb52  1  0.83156691  0.49969918  0.83428009  1
  Pb  Pb53  1  0.50193407  0.50020072  0.49940688  1
  I  I54  1  0.16279397  0.00362196  0.16609613  1
  I  I55  1  0.16568613  0.00215173  0.49806358  1
  I  I56  1  0.16776958  0.00409220  0.83965749  1
  I  I57  1  0.16900333  0.33248174  0.16927308  1
  I  I58  1  0.17013897  0.33002682  0.50117156  1
  I  I59  1  0.16751641  0.33006079  0.82586131  1
  I  I60  1  0.16491696  0.66403721  0.16941579  1
  I  I61  1  0.17231278  0.66897132  0.49692711  1
  I  I62  1  0.16692575  0.66647325  0.83245088  1
  I  I63  1  0.49919405  -0.00209871  0.17090778  1
  I  I64  1  0.50026803  0.00033578  0.49394372  1
  I  I65  1  0.49972656  0.00028689  0.83639179  1
  I  I66  1  0.49981422  0.33599446  0.16498341  1
  I  I67  1  0.49676525  0.33073184  0.49977671  1
  I  I68  1  0.50049299  0.33649510  0.84101109  1
  I  I69  1  0.49974793  0.66539337  0.16914662  1
  I  I70  1  0.49654367  0.66909711  0.49910462  1
  I  I71  1  0.49994403  0.66327024  0.83319904  1
  I  I72  1  0.83908151  0.00386992  0.17328995  1
  I  I73  1  0.83442318  0.00362877  0.49541689  1
  I  I74  1  0.83126863  0.00071318  0.83273929  1
  I  I75  1  0.83194462  0.33356652  0.17124624  1
  I  I76  1  0.83217115  0.33197559  0.49604154  1
  I  I77  1  0.83219596  0.33323571  0.83133273  1
  I  I78  1  0.83479350  0.66335967  0.17163577  1
  I  I79  1  0.83150625  0.66378716  0.49465441  1
  I  I80  1  0.83337204  0.66605936  0.83106682  1
  I  I81  1  0.16229282  0.17320809  0.00169775  1
  I  I82  1  0.16617468  0.16663643  0.33363272  1
  I  I83  1  0.16754731  0.16169196  0.66485294  1
  I  I84  1  0.16197806  0.49485950  0.00485340  1
  I  I85  1  0.17326806  0.49409670  0.32979865  1
  I  I86  1  0.16753724  0.49959599  0.66647181  1
  I  I87  1  0.16786112  0.83398517  0.00020281  1
  I  I88  1  0.16895119  0.84015444  0.33648375  1
  I  I89  1  0.17315102  0.83768066  0.66174731  1
  I  I90  1  0.50004793  0.16390456  0.00002215  1
  I  I91  1  0.49549163  0.16794968  0.33637367  1
  I  I92  1  0.50128062  0.16193949  0.66163139  1
  I  I93  1  0.50175225  0.50504157  0.00258324  1
  I  I94  1  0.49880892  0.50098912  0.33040380  1
  I  I95  1  0.50186084  0.49879591  0.66797428  1
  I  I96  1  0.50099855  0.83105454  0.00274938  1
  I  I97  1  0.49652227  0.83054516  0.33411250  1
  I  I98  1  0.49713222  0.83655168  0.66298671  1
  I  I99  1  0.83669125  0.17223830  0.00383884  1
  I  I100  1  0.83787416  0.17127072  0.33398621  1
  I  I101  1  0.83388134  0.17009808  0.66310055  1
  I  I102  1  0.83374964  0.49459687  0.00417910  1
  I  I103  1  0.83020528  0.49544529  0.33213120  1
  I  I104  1  0.83106081  0.49619917  0.66385810  1
  I  I105  1  0.83181504  0.83331485  0.00071240  1
  I  I106  1  0.83413712  0.83235265  0.33334841  1
  I  I107  1  0.83067075  0.83256319  0.66591160  1
  I  I108  1  0.00060364  0.17534636  0.17198199  1
  I  I109  1  0.00053548  0.16586757  0.49975524  1
  I  I110  1  0.00352199  0.16820969  0.82758891  1
  I  I111  1  -0.00031727  0.49351130  0.17302207  1
  I  I112  1  -0.00385906  0.49554625  0.49452484  1
  I  I113  1  0.00028164  0.49968117  0.83240930  1
  I  I114  1  0.00013991  0.83055586  0.16775512  1
  I  I115  1  0.00268728  0.83838182  0.49948547  1
  I  I116  1  0.00070382  0.83156960  0.83248836  1
  I  I117  1  0.33067356  0.17017025  0.16874532  1
  I  I118  1  0.33267192  0.16225651  0.49963406  1
  I  I119  1  0.32994941  0.16737452  0.83554685  1
  I  I120  1  0.33350615  0.49880078  0.16264439  1
  I  I121  1  0.33321907  0.49733717  0.49940081  1
  I  I122  1  0.33649808  0.49943405  0.83686454  1
  I  I123  1  0.33663159  0.82896341  0.16952213  1
  I  I124  1  0.33396184  0.84210950  0.49624293  1
  I  I125  1  0.33338513  0.83330724  0.83534452  1
  I  I126  1  0.66925227  0.17038857  0.17345477  1
  I  I127  1  0.66718922  0.16732420  0.49408432  1
  I  I128  1  0.66638027  0.16660576  0.83342017  1
  I  I129  1  0.66677319  0.49960052  0.16712035  1
  I  I130  1  0.66957550  0.49543616  0.49477360  1
  I  I131  1  0.66366384  0.49992611  0.83830743  1
  I  I132  1  0.66247914  0.82850679  0.17469317  1
  I  I133  1  0.66355389  0.83595550  0.49642547  1
  I  I134  1  0.66593441  0.83433508  0.83100668  1
