# generated using pymatgen
data_Cs27Sn14Pb13I81
_symmetry_space_group_name_H-M   'P 1'
_cell_length_a   18.96146690
_cell_length_b   18.98726113
_cell_length_c   18.97783278
_cell_angle_alpha   89.99949330
_cell_angle_beta   89.99962551
_cell_angle_gamma   89.99939670
_symmetry_Int_Tables_number   1
_chemical_formula_structural   Cs27Sn14Pb13I81
_chemical_formula_sum   'Cs27 Sn14 Pb13 I81'
_cell_volume   6832.51936339
_cell_formula_units_Z   1
loop_
 _symmetry_equiv_pos_site_id
 _symmetry_equiv_pos_as_xyz
  1  'x, y, z'
loop_
 _atom_site_type_symbol
 _atom_site_label
 _atom_site_symmetry_multiplicity
 _atom_site_fract_x
 _atom_site_fract_y
 _atom_site_fract_z
 _atom_site_occupancy
  Cs  Cs0  1  -0.00149589  0.00152276  -0.00252838  1
  Cs  Cs1  1  0.00060704  -0.00023472  0.33235678  1
  Cs  Cs2  1  0.00220752  0.00121890  0.66999869  1
  Cs  Cs3  1  0.00011924  0.33019558  -0.00330540  1
  Cs  Cs4  1  -0.00093198  0.33259970  0.33284880  1
  Cs  Cs5  1  0.00630955  0.33029571  0.67083140  1
  Cs  Cs6  1  -0.00122065  0.66805389  0.00044694  1
  Cs  Cs7  1  0.00069777  0.66756094  0.33223200  1
  Cs  Cs8  1  -0.00066416  0.66835059  0.66732389  1
  Cs  Cs9  1  0.34077365  -0.00420935  0.00475717  1
  Cs  Cs10  1  0.33049531  -0.00116658  0.33066869  1
  Cs  Cs11  1  0.33357630  0.00145828  0.66483917  1
  Cs  Cs12  1  0.33534394  0.34308866  0.00123136  1
  Cs  Cs13  1  0.33265823  0.33407176  0.33106081  1
  Cs  Cs14  1  0.32611378  0.33276774  0.66857584  1
  Cs  Cs15  1  0.33856144  0.66089379  0.00302313  1
  Cs  Cs16  1  0.32117584  0.66736006  0.32687400  1
  Cs  Cs17  1  0.33348989  0.66397758  0.67009279  1
  Cs  Cs18  1  0.66498464  0.00021268  -0.00033842  1
  Cs  Cs19  1  0.66707246  0.00215295  0.33538689  1
  Cs  Cs20  1  0.66644596  0.00048922  0.66536204  1
  Cs  Cs21  1  0.66640291  0.33244315  0.00164355  1
  Cs  Cs22  1  0.66717421  0.33201929  0.33526149  1
  Cs  Cs23  1  0.66716425  0.33146311  0.66324620  1
  Cs  Cs24  1  0.66449817  0.66754591  -0.00285119  1
  Cs  Cs25  1  0.67091843  0.66492558  0.33919383  1
  Cs  Cs26  1  0.66692121  0.66725842  0.66563200  1
  Sn  Sn27  1  0.83312827  0.83367500  0.50020935  1
  Sn  Sn28  1  0.16682037  0.83340332  0.83357746  1
  Sn  Sn29  1  0.50058866  0.16680038  0.50108999  1
  Sn  Sn30  1  0.50029248  0.83296364  0.49968158  1
  Sn  Sn31  1  0.83305728  0.50051071  0.83281180  1
  Sn  Sn32  1  0.83332060  0.16660091  0.49956306  1
  Sn  Sn33  1  0.50025012  0.50014016  0.49980217  1
  Sn  Sn34  1  0.50012521  0.16684618  0.83260807  1
  Sn  Sn35  1  0.16594095  0.16660153  0.16621773  1
  Sn  Sn36  1  0.83383926  0.83266229  0.83303479  1
  Sn  Sn37  1  0.83297758  0.83352099  0.16676478  1
  Sn  Sn38  1  0.83415292  0.16654384  0.16749620  1
  Sn  Sn39  1  0.83339453  0.49967124  0.50052472  1
  Sn  Sn40  1  0.83312694  0.49990143  0.16659914  1
  Pb  Pb41  1  0.50283433  0.50034163  0.16990233  1
  Pb  Pb42  1  0.16631981  0.83341918  0.50192238  1
  Pb  Pb43  1  0.16407203  0.50260811  0.83346372  1
  Pb  Pb44  1  0.50049802  0.16677849  0.16742028  1
  Pb  Pb45  1  0.16419127  0.83510142  0.16396219  1
  Pb  Pb46  1  0.16358176  0.49767124  0.16655478  1
  Pb  Pb47  1  0.50055520  0.83458150  0.83121361  1
  Pb  Pb48  1  0.16619632  0.50005016  0.50006900  1
  Pb  Pb49  1  0.50270152  0.49771141  0.83073447  1
  Pb  Pb50  1  0.17019344  0.16440532  0.83643108  1
  Pb  Pb51  1  0.83209885  0.16646926  0.83318685  1
  Pb  Pb52  1  0.50278063  0.83293630  0.17006915  1
  Pb  Pb53  1  0.16673039  0.16648636  0.49822533  1
  I  I54  1  0.15979836  0.00280678  0.16766589  1
  I  I55  1  0.16616936  0.00000082  0.49980425  1
  I  I56  1  0.15638169  -0.00280110  0.83242109  1
  I  I57  1  0.16068027  0.32984684  0.16735024  1
  I  I58  1  0.16551687  0.33316936  0.50033773  1
  I  I59  1  0.16593805  0.33315252  0.83366280  1
  I  I60  1  0.16603430  0.66677677  0.16682227  1
  I  I61  1  0.16629866  0.66678355  0.49935008  1
  I  I62  1  0.16419548  0.67041410  0.83212344  1
  I  I63  1  0.50232866  0.00005947  0.16804941  1
  I  I64  1  0.50774371  0.00038299  0.50413450  1
  I  I65  1  0.50321226  0.00245969  0.82743068  1
  I  I66  1  0.50208826  0.33329841  0.16775459  1
  I  I67  1  0.50894886  0.33286085  0.50310565  1
  I  I68  1  0.50266194  0.33002249  0.82837368  1
  I  I69  1  0.50037999  0.66667903  0.16509059  1
  I  I70  1  0.51003370  0.66676734  0.50029851  1
  I  I71  1  0.49819255  0.66652940  0.83204715  1
  I  I72  1  0.83690857  0.00021715  0.16958440  1
  I  I73  1  0.82777735  0.00000816  0.49730060  1
  I  I74  1  0.83516240  -0.00277421  0.83315327  1
  I  I75  1  0.83653874  0.33296321  0.16983321  1
  I  I76  1  0.82718556  0.33313930  0.49632178  1
  I  I77  1  0.82983505  0.33560326  0.83344761  1
  I  I78  1  0.83166396  0.66686396  0.16971233  1
  I  I79  1  0.82784229  0.66680891  0.49797091  1
  I  I80  1  0.83666446  0.66739859  0.83301190  1
  I  I81  1  0.15690390  0.16549920  0.00353171  1
  I  I82  1  0.16488300  0.16538488  0.33044959  1
  I  I83  1  0.16431467  0.16617393  0.66702685  1
  I  I84  1  0.16534454  0.49897068  0.00002291  1
  I  I85  1  0.16530384  0.50068175  0.33320642  1
  I  I86  1  0.16361153  0.49876189  0.66685156  1
  I  I87  1  0.15893658  0.83575401  -0.00348563  1
  I  I88  1  0.16711803  0.83420692  0.33297816  1
  I  I89  1  0.15839431  0.83455859  0.66947502  1
  I  I90  1  0.50179850  0.16440097  -0.00199095  1
  I  I91  1  0.50256973  0.16676640  0.33706274  1
  I  I92  1  0.50740528  0.16562882  0.66450297  1
  I  I93  1  0.50136505  0.49702807  -0.00012521  1
  I  I94  1  0.50747179  0.49541410  0.33807994  1
  I  I95  1  0.50809772  0.50251777  0.66274245  1
  I  I96  1  0.50130705  0.83764490  -0.00008049  1
  I  I97  1  0.50618437  0.83828498  0.33835279  1
  I  I98  1  0.50739219  0.83247977  0.66307165  1
  I  I99  1  0.83476227  0.16677045  0.00252500  1
  I  I100  1  0.83138108  0.16647389  0.33403140  1
  I  I101  1  0.82982453  0.16642027  0.66367639  1
  I  I102  1  0.83538113  0.50216540  0.00015160  1
  I  I103  1  0.82976169  0.50134074  0.33400925  1
  I  I104  1  0.82904109  0.50356890  0.66570481  1
  I  I105  1  0.83872736  0.83152900  -0.00018558  1
  I  I106  1  0.82853736  0.83207282  0.33395413  1
  I  I107  1  0.83311542  0.83085660  0.66605636  1
  I  I108  1  -0.00303009  0.16658463  0.17209630  1
  I  I109  1  -0.00374039  0.16652416  0.49781718  1
  I  I110  1  -0.00010636  0.16851952  0.83107980  1
  I  I111  1  -0.00519394  0.50326743  0.17103269  1
  I  I112  1  -0.00491707  0.50062774  0.49902627  1
  I  I113  1  -0.00476771  0.49911434  0.83008206  1
  I  I114  1  -0.00473629  0.83081947  0.17283515  1
  I  I115  1  -0.00432478  0.83294378  0.49762963  1
  I  I116  1  -0.00295092  0.83076297  0.83119143  1
  I  I117  1  0.33113216  0.16474300  0.16691589  1
  I  I118  1  0.33692682  0.16626544  0.50260964  1
  I  I119  1  0.33749661  0.16420013  0.82552388  1
  I  I120  1  0.33333629  0.49762572  0.16811712  1
  I  I121  1  0.33674007  0.49877114  0.50112810  1
  I  I122  1  0.33371636  0.50035182  0.83172502  1
  I  I123  1  0.33322100  0.83679661  0.16694709  1
  I  I124  1  0.33649345  0.83515302  0.50313530  1
  I  I125  1  0.33145302  0.83865760  0.83000666  1
  I  I126  1  0.67039363  0.16679511  0.16851635  1
  I  I127  1  0.66800213  0.16635531  0.49782971  1
  I  I128  1  0.66453557  0.16428613  0.83277046  1
  I  I129  1  0.67159834  0.49593809  0.16485163  1
  I  I130  1  0.66863950  0.49988893  0.49943266  1
  I  I131  1  0.67100089  0.50751666  0.83559005  1
  I  I132  1  0.67172934  0.83755443  0.16067296  1
  I  I133  1  0.66870446  0.83387581  0.50180300  1
  I  I134  1  0.67036475  0.83055008  0.83487949  1
