# generated using pymatgen
data_Cs27Sn13Pb14I81
_symmetry_space_group_name_H-M   'P 1'
_cell_length_a   19.00544192
_cell_length_b   18.98066696
_cell_length_c   18.99089017
_cell_angle_alpha   89.99928880
_cell_angle_beta   90.00078865
_cell_angle_gamma   90.00024237
_symmetry_Int_Tables_number   1
_chemical_formula_structural   Cs27Sn13Pb14I81
_chemical_formula_sum   'Cs27 Sn13 Pb14 I81'
_cell_volume   6850.69705924
_cell_formula_units_Z   1
loop_
 _symmetry_equiv_pos_site_id
 _symmetry_equiv_pos_as_xyz
  1  'x, y, z'
loop_
 _atom_site_type_symbol
 _atom_site_label
 _atom_site_symmetry_multiplicity
 _atom_site_fract_x
 _atom_site_fract_y
 _atom_site_fract_z
 _atom_site_occupancy
  Cs  Cs0  1  -0.00016510  -0.00268467  0.00010881  1
  Cs  Cs1  1  -0.00348220  0.00099216  0.33240126  1
  Cs  Cs2  1  0.00332558  0.00259345  0.66776070  1
  Cs  Cs3  1  -0.00168192  0.33469189  0.00168546  1
  Cs  Cs4  1  0.00144225  0.33318980  0.33211947  1
  Cs  Cs5  1  -0.00103909  0.33132303  0.66629176  1
  Cs  Cs6  1  0.00069172  0.66669399  0.00046638  1
  Cs  Cs7  1  0.00425943  0.67430386  0.33838263  1
  Cs  Cs8  1  -0.00087463  0.66992835  0.66406261  1
  Cs  Cs9  1  0.33674314  -0.00259806  0.00243379  1
  Cs  Cs10  1  0.33990834  -0.00167495  0.33153623  1
  Cs  Cs11  1  0.32946819  0.00018473  0.66671569  1
  Cs  Cs12  1  0.33551054  0.33500204  0.00093849  1
  Cs  Cs13  1  0.32987294  0.33365025  0.33382795  1
  Cs  Cs14  1  0.33333094  0.33258985  0.66604159  1
  Cs  Cs15  1  0.33085525  0.66454398  -0.00147454  1
  Cs  Cs16  1  0.32766679  0.67198421  0.34039934  1
  Cs  Cs17  1  0.33548568  0.67017373  0.66490516  1
  Cs  Cs18  1  0.66333446  0.00036603  0.00056543  1
  Cs  Cs19  1  0.66544485  -0.00656982  0.33045005  1
  Cs  Cs20  1  0.66703928  0.00255163  0.67025507  1
  Cs  Cs21  1  0.66674984  0.33491651  -0.00050684  1
  Cs  Cs22  1  0.66838461  0.33409390  0.33241736  1
  Cs  Cs23  1  0.66733074  0.33333791  0.66848472  1
  Cs  Cs24  1  0.66735439  0.66320843  -0.00197330  1
  Cs  Cs25  1  0.66725682  0.67511686  0.34032444  1
  Cs  Cs26  1  0.66581512  0.66499035  0.66472611  1
  Sn  Sn27  1  0.16611908  0.16697486  0.16630770  1
  Sn  Sn28  1  0.83352252  0.50072081  0.83386886  1
  Sn  Sn29  1  0.83370294  0.16748721  0.16715637  1
  Sn  Sn30  1  0.50011205  0.50058827  0.83387612  1
  Sn  Sn31  1  0.83281357  0.16723284  0.49878473  1
  Sn  Sn32  1  0.50048074  0.16735607  0.49992291  1
  Sn  Sn33  1  0.50078828  0.50019648  0.16705879  1
  Sn  Sn34  1  0.83259900  0.49992838  0.16672381  1
  Sn  Sn35  1  0.16641699  0.49898656  0.83305281  1
  Sn  Sn36  1  0.16678034  0.16710543  0.49946819  1
  Sn  Sn37  1  0.83236784  0.83224445  0.83371518  1
  Sn  Sn38  1  0.16671257  0.16771041  0.83424622  1
  Sn  Sn39  1  0.50111099  0.83242972  0.83365909  1
  Pb  Pb40  1  0.16666118  0.83616382  0.16643845  1
  Pb  Pb41  1  0.49750325  0.16709907  0.83201412  1
  Pb  Pb42  1  0.50016687  0.49826022  0.49959216  1
  Pb  Pb43  1  0.83330824  0.49825610  0.49938684  1
  Pb  Pb44  1  0.50048238  0.16871872  0.16868153  1
  Pb  Pb45  1  0.50016738  0.83610486  0.50298019  1
  Pb  Pb46  1  0.16626351  0.49860627  0.16511850  1
  Pb  Pb47  1  0.83324426  0.83261207  0.16427513  1
  Pb  Pb48  1  0.16657203  0.83651615  0.50005667  1
  Pb  Pb49  1  0.16669108  0.83286844  0.83350421  1
  Pb  Pb50  1  0.83330333  0.83653468  0.50317704  1
  Pb  Pb51  1  0.16651833  0.49806002  0.50263639  1
  Pb  Pb52  1  0.83506298  0.16698507  0.83412138  1
  Pb  Pb53  1  0.50017527  0.82920541  0.16417317  1
  I  I54  1  0.16024874  0.00570989  0.16323983  1
  I  I55  1  0.16596958  0.00557943  0.50612874  1
  I  I56  1  0.16582003  0.00314024  0.83120521  1
  I  I57  1  0.16517098  0.32985498  0.16859392  1
  I  I58  1  0.16648633  0.32899634  0.49882070  1
  I  I59  1  0.16653010  0.33305853  0.83232791  1
  I  I60  1  0.16618096  0.66614305  0.16296715  1
  I  I61  1  0.16725640  0.66667475  0.50137140  1
  I  I62  1  0.16683807  0.66318196  0.83529342  1
  I  I63  1  0.49888000  -0.00003566  0.16629977  1
  I  I64  1  0.49836448  0.00434673  0.50092790  1
  I  I65  1  0.50358484  -0.00199165  0.82971362  1
  I  I66  1  0.50144411  0.33616871  0.15773836  1
  I  I67  1  0.49885428  0.32992813  0.50432864  1
  I  I68  1  0.50268872  0.33653632  0.83525365  1
  I  I69  1  0.50752918  0.66130227  0.16386415  1
  I  I70  1  0.50021302  0.66678867  0.49839618  1
  I  I71  1  0.49829732  0.66513774  0.83736177  1
  I  I72  1  0.83880234  0.00317799  0.16961319  1
  I  I73  1  0.83493613  0.00499330  0.49539242  1
  I  I74  1  0.83042088  -0.00176602  0.83173207  1
  I  I75  1  0.83366954  0.33297633  0.16338606  1
  I  I76  1  0.83466438  0.32948612  0.50294557  1
  I  I77  1  0.83070915  0.33612350  0.83354159  1
  I  I78  1  0.82838335  0.66282762  0.16149156  1
  I  I79  1  0.83261979  0.66686919  0.49777812  1
  I  I80  1  0.83526388  0.66486793  0.83955268  1
  I  I81  1  0.16103878  0.17093432  -0.00016331  1
  I  I82  1  0.16522035  0.16634242  0.33325088  1
  I  I83  1  0.16621897  0.17030764  0.66684317  1
  I  I84  1  0.16712155  0.49272270  -0.00348444  1
  I  I85  1  0.16767466  0.49747514  0.33309018  1
  I  I86  1  0.16689095  0.49331769  0.67155682  1
  I  I87  1  0.16674331  0.83881739  -0.00059039  1
  I  I88  1  0.16685078  0.83218290  0.33339931  1
  I  I89  1  0.16638513  0.83701113  0.66717710  1
  I  I90  1  0.49937745  0.16419942  -0.00002327  1
  I  I91  1  0.49447370  0.16980699  0.33648228  1
  I  I92  1  0.50065727  0.16796426  0.66408596  1
  I  I93  1  0.50065467  0.50133343  -0.00163317  1
  I  I94  1  0.50571134  0.49388337  0.33003863  1
  I  I95  1  0.50044849  0.50224236  0.67032497  1
  I  I96  1  0.50368365  0.83613434  -0.00394677  1
  I  I97  1  0.49910682  0.83347039  0.33342581  1
  I  I98  1  0.50337831  0.82568443  0.67079595  1
  I  I99  1  0.83860483  0.16764810  0.00269488  1
  I  I100  1  0.83917104  0.17303393  0.33267701  1
  I  I101  1  0.83508653  0.16586884  0.66491660  1
  I  I102  1  0.83247803  0.49617749  -0.00108213  1
  I  I103  1  0.82751533  0.49418905  0.32959780  1
  I  I104  1  0.83241176  0.50153934  0.67020115  1
  I  I105  1  0.83007882  0.83585324  -0.00372655  1
  I  I106  1  0.83399542  0.83141261  0.33337228  1
  I  I107  1  0.82996256  0.82781330  0.67103808  1
  I  I108  1  -0.00049196  0.17244363  0.17066498  1
  I  I109  1  0.00018462  0.16720216  0.50059398  1
  I  I110  1  0.00292440  0.16971092  0.82852578  1
  I  I111  1  -0.00315806  0.49494664  0.15988000  1
  I  I112  1  -0.00012656  0.49593906  0.50137660  1
  I  I113  1  -0.00065763  0.49857952  0.83712752  1
  I  I114  1  -0.00025238  0.82976489  0.16262728  1
  I  I115  1  -0.00023895  0.83463449  0.50339058  1
  I  I116  1  -0.00263094  0.83128423  0.83352494  1
  I  I117  1  0.33079411  0.16830290  0.16682972  1
  I  I118  1  0.33248202  0.16759011  0.50234037  1
  I  I119  1  0.32955232  0.17003830  0.83283445  1
  I  I120  1  0.33562159  0.49639911  0.15972791  1
  I  I121  1  0.33338101  0.49488381  0.50020697  1
  I  I122  1  0.33376977  0.49864774  0.83737696  1
  I  I123  1  0.33361429  0.83510452  0.16289725  1
  I  I124  1  0.33351238  0.83575066  0.50334038  1
  I  I125  1  0.33598290  0.83100857  0.83283850  1
  I  I126  1  0.66974986  0.16876816  0.17073265  1
  I  I127  1  0.66740546  0.16775991  0.49730814  1
  I  I128  1  0.66663626  0.16781958  0.83136926  1
  I  I129  1  0.66766322  0.49098660  0.15556890  1
  I  I130  1  0.66675774  0.49349452  0.50593613  1
  I  I131  1  0.66685988  0.50404217  0.83686614  1
  I  I132  1  0.66670193  0.84143985  0.16708425  1
  I  I133  1  0.66673730  0.83776688  0.49918367  1
  I  I134  1  0.66678337  0.82639659  0.83291988  1
