# generated using pymatgen
data_Cs27Sn14Pb13I81
_symmetry_space_group_name_H-M   'P 1'
_cell_length_a   18.98371230
_cell_length_b   18.96283179
_cell_length_c   18.97882996
_cell_angle_alpha   89.99701862
_cell_angle_beta   90.00106334
_cell_angle_gamma   90.00033327
_symmetry_Int_Tables_number   1
_chemical_formula_structural   Cs27Sn14Pb13I81
_chemical_formula_sum   'Cs27 Sn14 Pb13 I81'
_cell_volume   6832.09301340
_cell_formula_units_Z   1
loop_
 _symmetry_equiv_pos_site_id
 _symmetry_equiv_pos_as_xyz
  1  'x, y, z'
loop_
 _atom_site_type_symbol
 _atom_site_label
 _atom_site_symmetry_multiplicity
 _atom_site_fract_x
 _atom_site_fract_y
 _atom_site_fract_z
 _atom_site_occupancy
  Cs  Cs0  1  0.00148933  0.00277306  -0.00057226  1
  Cs  Cs1  1  -0.00491250  0.00009555  0.33462430  1
  Cs  Cs2  1  0.00190490  -0.00469839  0.66555875  1
  Cs  Cs3  1  0.00041876  0.33128799  -0.00072954  1
  Cs  Cs4  1  0.00102027  0.33292134  0.33315455  1
  Cs  Cs5  1  0.00171565  0.33584799  0.66800875  1
  Cs  Cs6  1  -0.00392482  0.66568389  0.00390590  1
  Cs  Cs7  1  0.00099838  0.66656193  0.33117483  1
  Cs  Cs8  1  -0.00061620  0.66707445  0.66513022  1
  Cs  Cs9  1  0.33338440  -0.00006839  -0.00235075  1
  Cs  Cs10  1  0.34530397  0.00155896  0.33304637  1
  Cs  Cs11  1  0.33115091  -0.01085058  0.66950895  1
  Cs  Cs12  1  0.33156959  0.33245776  -0.00128354  1
  Cs  Cs13  1  0.33211345  0.33550566  0.33502408  1
  Cs  Cs14  1  0.33312488  0.33441518  0.66638498  1
  Cs  Cs15  1  0.33444489  0.66741407  0.00157689  1
  Cs  Cs16  1  0.33100683  0.66389847  0.33184067  1
  Cs  Cs17  1  0.33269109  0.66987611  0.66650943  1
  Cs  Cs18  1  0.66567218  -0.00170149  0.00087607  1
  Cs  Cs19  1  0.66085015  0.00946739  0.34109279  1
  Cs  Cs20  1  0.66689852  0.00106795  0.66071411  1
  Cs  Cs21  1  0.66799916  0.33381811  -0.00462829  1
  Cs  Cs22  1  0.66644714  0.32935583  0.33475848  1
  Cs  Cs23  1  0.66608521  0.33374862  0.67030223  1
  Cs  Cs24  1  0.66950367  0.66717602  0.00066015  1
  Cs  Cs25  1  0.66800146  0.66638913  0.33044992  1
  Cs  Cs26  1  0.66831539  0.66640546  0.66842891  1
  Sn  Sn27  1  0.50011760  0.49991599  0.50016725  1
  Sn  Sn28  1  0.49873836  0.49963168  0.83342830  1
  Sn  Sn29  1  0.83336734  0.83492215  0.83403586  1
  Sn  Sn30  1  0.83386456  0.83327446  0.16631325  1
  Sn  Sn31  1  0.83292899  0.16495418  0.83336641  1
  Sn  Sn32  1  0.16761967  0.50017958  0.83357684  1
  Sn  Sn33  1  0.83332477  0.49999121  0.16776885  1
  Sn  Sn34  1  0.16659428  0.49946183  0.50008986  1
  Sn  Sn35  1  0.50021054  0.49978220  0.16643460  1
  Sn  Sn36  1  0.16600987  0.83315633  0.16701335  1
  Sn  Sn37  1  0.16650342  0.50022625  0.16635448  1
  Sn  Sn38  1  0.83336281  0.49991070  0.49869844  1
  Sn  Sn39  1  0.16681017  0.16679587  0.49997074  1
  Sn  Sn40  1  0.50035880  0.16716209  0.83314319  1
  Pb  Pb41  1  0.50062904  0.83146514  0.16665900  1
  Pb  Pb42  1  0.49991338  0.16967817  0.16397502  1
  Pb  Pb43  1  0.50250217  0.83294798  0.83342321  1
  Pb  Pb44  1  0.83332733  0.16643150  0.16482911  1
  Pb  Pb45  1  0.16416427  0.83028287  0.83590833  1
  Pb  Pb46  1  0.16664330  0.16629041  0.16911296  1
  Pb  Pb47  1  0.83324683  0.83119114  0.49888685  1
  Pb  Pb48  1  0.50002086  0.83041746  0.49992614  1
  Pb  Pb49  1  0.16668238  0.83309217  0.49666615  1
  Pb  Pb50  1  0.49738166  0.16912493  0.50312087  1
  Pb  Pb51  1  0.16698164  0.16829558  0.83135723  1
  Pb  Pb52  1  0.83341246  0.50012628  0.83358960  1
  Pb  Pb53  1  0.83535548  0.16951068  0.50275034  1
  I  I54  1  0.15913460  -0.00328385  0.16735819  1
  I  I55  1  0.16515993  0.00248468  0.50103235  1
  I  I56  1  0.16915769  -0.00029853  0.83241304  1
  I  I57  1  0.16605182  0.33735566  0.16504984  1
  I  I58  1  0.16656654  0.33678652  0.49823541  1
  I  I59  1  0.16479235  0.33717247  0.83778288  1
  I  I60  1  0.16589640  0.66391145  0.16800183  1
  I  I61  1  0.16696900  0.66255249  0.50183905  1
  I  I62  1  0.17154608  0.66188324  0.82773058  1
  I  I63  1  0.49909532  0.00008156  0.16510109  1
  I  I64  1  0.49831038  0.00070237  0.50101843  1
  I  I65  1  0.50195417  0.00283920  0.83329087  1
  I  I66  1  0.49922367  0.33867251  0.16937325  1
  I  I67  1  0.50177980  0.33788526  0.49742564  1
  I  I68  1  0.50352723  0.33542147  0.83380476  1
  I  I69  1  0.49984583  0.66203259  0.16385178  1
  I  I70  1  0.49650437  0.66097680  0.50331527  1
  I  I71  1  0.49748474  0.66276779  0.83311117  1
  I  I72  1  0.84083527  -0.00343592  0.16232961  1
  I  I73  1  0.83554606  0.00032775  0.49832740  1
  I  I74  1  0.82856977  -0.00006221  0.83975750  1
  I  I75  1  0.83447175  0.33702430  0.16865103  1
  I  I76  1  0.83160423  0.33797315  0.49557933  1
  I  I77  1  0.83213337  0.33195927  0.83261961  1
  I  I78  1  0.83390744  0.66495688  0.16359732  1
  I  I79  1  0.83622243  0.66229825  0.50235901  1
  I  I80  1  0.83390243  0.66825893  0.83457788  1
  I  I81  1  0.16652196  0.16890999  -0.00024263  1
  I  I82  1  0.16561792  0.17585803  0.33660733  1
  I  I83  1  0.16587221  0.17648568  0.66384280  1
  I  I84  1  0.16849837  0.50371061  0.00052123  1
  I  I85  1  0.16865528  0.50025174  0.33313176  1
  I  I86  1  0.16775782  0.49473024  0.66631668  1
  I  I87  1  0.16526122  0.82645079  0.00357012  1
  I  I88  1  0.15829242  0.82403707  0.32918411  1
  I  I89  1  0.16565085  0.83191318  0.66665016  1
  I  I90  1  0.50267900  0.17390941  -0.00391377  1
  I  I91  1  0.49946636  0.16651368  0.33383971  1
  I  I92  1  0.50525289  0.17573688  0.67049007  1
  I  I93  1  0.49772156  0.49668363  -0.00015868  1
  I  I94  1  0.49727821  0.50254736  0.33319910  1
  I  I95  1  0.49818484  0.49582087  0.66704036  1
  I  I96  1  0.49817188  0.82990523  0.00001545  1
  I  I97  1  0.50155332  0.83219754  0.33303623  1
  I  I98  1  0.50115170  0.82974557  0.66701000  1
  I  I99  1  0.83123749  0.17027518  -0.00332682  1
  I  I100  1  0.83441870  0.16490425  0.33371034  1
  I  I101  1  0.82916724  0.16376324  0.67059629  1
  I  I102  1  0.83360221  0.50083398  0.00250166  1
  I  I103  1  0.83375479  0.50554994  0.33238773  1
  I  I104  1  0.83401693  0.49941936  0.66477868  1
  I  I105  1  0.83627380  0.82868194  0.00078592  1
  I  I106  1  0.83908986  0.82735729  0.32958328  1
  I  I107  1  0.83209828  0.83426058  0.66912012  1
  I  I108  1  -0.00002958  0.17293163  0.16342853  1
  I  I109  1  0.00279635  0.17533981  0.50173853  1
  I  I110  1  -0.00232131  0.16600343  0.83257725  1
  I  I111  1  0.00008325  0.50387094  0.16852863  1
  I  I112  1  0.00058583  0.49675497  0.49887225  1
  I  I113  1  0.00216740  0.49983719  0.83260650  1
  I  I114  1  -0.00065189  0.82195301  0.16219675  1
  I  I115  1  -0.00000794  0.83018155  0.50351645  1
  I  I116  1  -0.00358269  0.83697124  0.83472746  1
  I  I117  1  0.33326548  0.16613959  0.16413153  1
  I  I118  1  0.33010502  0.17539336  0.50005902  1
  I  I119  1  0.33585818  0.17250075  0.83264368  1
  I  I120  1  0.33275405  0.50329063  0.16838978  1
  I  I121  1  0.33288229  0.49617010  0.49784007  1
  I  I122  1  0.33380795  0.49408533  0.83373370  1
  I  I123  1  0.33061349  0.82714549  0.16817643  1
  I  I124  1  0.33296925  0.83155997  0.49947648  1
  I  I125  1  0.33310520  0.83565238  0.83426636  1
  I  I126  1  0.66665413  0.16758871  0.16870170  1
  I  I127  1  0.66644294  0.16783736  0.49917541  1
  I  I128  1  0.66656309  0.17202480  0.83411314  1
  I  I129  1  0.66713009  0.50389798  0.16799276  1
  I  I130  1  0.66661323  0.50206025  0.49862626  1
  I  I131  1  0.66448945  0.49931593  0.83302178  1
  I  I132  1  0.67025987  0.82552843  0.16065899  1
  I  I133  1  0.66693489  0.83078307  0.49880136  1
  I  I134  1  0.67034358  0.82978381  0.84045463  1
