# generated using pymatgen
data_Cs27Sn13Pb14I81
_symmetry_space_group_name_H-M   'P 1'
_cell_length_a   18.98129315
_cell_length_b   18.97752164
_cell_length_c   18.97154327
_cell_angle_alpha   90.00221393
_cell_angle_beta   90.00128599
_cell_angle_gamma   89.99925445
_symmetry_Int_Tables_number   1
_chemical_formula_structural   Cs27Sn13Pb14I81
_chemical_formula_sum   'Cs27 Sn13 Pb14 I81'
_cell_volume   6833.88949805
_cell_formula_units_Z   1
loop_
 _symmetry_equiv_pos_site_id
 _symmetry_equiv_pos_as_xyz
  1  'x, y, z'
loop_
 _atom_site_type_symbol
 _atom_site_label
 _atom_site_symmetry_multiplicity
 _atom_site_fract_x
 _atom_site_fract_y
 _atom_site_fract_z
 _atom_site_occupancy
  Cs  Cs0  1  -0.00079417  -0.00155484  0.00116813  1
  Cs  Cs1  1  0.00222139  0.00827259  0.33367757  1
  Cs  Cs2  1  0.00091205  -0.00058833  0.66428118  1
  Cs  Cs3  1  0.00311731  0.33059157  0.00600501  1
  Cs  Cs4  1  -0.00562958  0.32700410  0.32907770  1
  Cs  Cs5  1  -0.00260490  0.33552897  0.66397272  1
  Cs  Cs6  1  0.00196857  0.66862134  -0.00283905  1
  Cs  Cs7  1  -0.00557861  0.66377840  0.33167725  1
  Cs  Cs8  1  -0.00022375  0.66658143  0.66831837  1
  Cs  Cs9  1  0.33232336  0.00063791  -0.00281925  1
  Cs  Cs10  1  0.33362457  0.00013143  0.33891920  1
  Cs  Cs11  1  0.33293668  -0.00103719  0.66435078  1
  Cs  Cs12  1  0.33304791  0.33422793  0.00152067  1
  Cs  Cs13  1  0.33320284  0.33196286  0.33043527  1
  Cs  Cs14  1  0.33576564  0.33608564  0.66778447  1
  Cs  Cs15  1  0.33219561  0.66534440  -0.00076328  1
  Cs  Cs16  1  0.33720163  0.66826005  0.33412932  1
  Cs  Cs17  1  0.33262496  0.66610470  0.66664086  1
  Cs  Cs18  1  0.66928881  0.00227769  0.00006943  1
  Cs  Cs19  1  0.66418890  -0.00419133  0.32800763  1
  Cs  Cs20  1  0.66663779  0.00135217  0.66889015  1
  Cs  Cs21  1  0.66498316  0.32812374  -0.00048794  1
  Cs  Cs22  1  0.67068913  0.33588690  0.33590627  1
  Cs  Cs23  1  0.66609165  0.33179720  0.66571429  1
  Cs  Cs24  1  0.66678351  0.66802045  0.00342608  1
  Cs  Cs25  1  0.66751514  0.66807547  0.32483349  1
  Cs  Cs26  1  0.66812706  0.66542252  0.66651391  1
  Sn  Sn27  1  0.16699213  0.50008034  0.50020191  1
  Sn  Sn28  1  0.83335414  0.83337369  0.50066364  1
  Sn  Sn29  1  0.49988357  0.16734239  0.49913507  1
  Sn  Sn30  1  0.16672684  0.83352683  0.83375463  1
  Sn  Sn31  1  0.50034714  0.50095123  0.83271175  1
  Sn  Sn32  1  0.16693362  0.83292382  0.16674612  1
  Sn  Sn33  1  0.83327866  0.83237920  0.83217152  1
  Sn  Sn34  1  0.49921691  0.49955279  0.50064352  1
  Sn  Sn35  1  0.50002942  0.83251997  0.83308067  1
  Sn  Sn36  1  0.16641512  0.16695176  0.83267094  1
  Sn  Sn37  1  0.49969542  0.16676561  0.16787520  1
  Sn  Sn38  1  0.16642489  0.49961344  0.83258532  1
  Sn  Sn39  1  0.83326132  0.50044251  0.83335219  1
  Pb  Pb40  1  0.16862972  0.16438110  0.16467728  1
  Pb  Pb41  1  0.16680222  0.50195785  0.16709761  1
  Pb  Pb42  1  0.49987370  0.49820861  0.16663153  1
  Pb  Pb43  1  0.83647385  0.16673029  0.83314111  1
  Pb  Pb44  1  0.83339152  0.50006060  0.16297440  1
  Pb  Pb45  1  0.83593571  0.83340706  0.16615294  1
  Pb  Pb46  1  0.83043190  0.16386383  0.50031681  1
  Pb  Pb47  1  0.83295727  0.50164202  0.50167024  1
  Pb  Pb48  1  0.49829843  0.16696828  0.83279522  1
  Pb  Pb49  1  0.83058192  0.16650774  0.16660757  1
  Pb  Pb50  1  0.49763465  0.83530803  0.16366245  1
  Pb  Pb51  1  0.16480470  0.83099340  0.50016981  1
  Pb  Pb52  1  0.16859345  0.16958139  0.50219908  1
  Pb  Pb53  1  0.50193033  0.83249542  0.50203872  1
  I  I54  1  0.16688381  -0.00340764  0.15917434  1
  I  I55  1  0.16723591  -0.00012518  0.50143582  1
  I  I56  1  0.16778792  -0.00136498  0.83819942  1
  I  I57  1  0.16788528  0.33316732  0.16387751  1
  I  I58  1  0.16799930  0.33752840  0.50743490  1
  I  I59  1  0.16845337  0.33476438  0.82904896  1
  I  I60  1  0.16711574  0.66967152  0.15807041  1
  I  I61  1  0.17370721  0.66327720  0.50730021  1
  I  I62  1  0.16677116  0.66663284  0.83383562  1
  I  I63  1  0.49877450  0.00297249  0.17141344  1
  I  I64  1  0.50180833  0.00188249  0.49861905  1
  I  I65  1  0.49936052  -0.00248714  0.83351278  1
  I  I66  1  0.49794076  0.33043300  0.16366530  1
  I  I67  1  0.49637634  0.33455822  0.50355824  1
  I  I68  1  0.49953240  0.33642836  0.83282171  1
  I  I69  1  0.49988206  0.66690452  0.16837882  1
  I  I70  1  0.49646451  0.66347943  0.50454451  1
  I  I71  1  0.49599533  0.66600451  0.82846133  1
  I  I72  1  0.83306022  -0.00037572  0.16342360  1
  I  I73  1  0.83366902  -0.00395319  0.50863868  1
  I  I74  1  0.83223890  -0.00360268  0.83097252  1
  I  I75  1  0.83484666  0.33330312  0.16541762  1
  I  I76  1  0.83459046  0.33358719  0.50168122  1
  I  I77  1  0.83165730  0.33673637  0.83285420  1
  I  I78  1  0.83166227  0.66701868  0.16923678  1
  I  I79  1  0.83236420  0.66943679  0.50440722  1
  I  I80  1  0.83703225  0.66737326  0.82948414  1
  I  I81  1  0.17010571  0.17126325  -0.00360879  1
  I  I82  1  0.16656283  0.16540850  0.33353154  1
  I  I83  1  0.16961891  0.16048972  0.67029298  1
  I  I84  1  0.16746877  0.49894912  -0.00404813  1
  I  I85  1  0.17348635  0.50355165  0.33668390  1
  I  I86  1  0.16825087  0.50233743  0.66892712  1
  I  I87  1  0.16530018  0.83171100  -0.00332477  1
  I  I88  1  0.16545260  0.83157095  0.33129947  1
  I  I89  1  0.16810252  0.83431283  0.67040434  1
  I  I90  1  0.49784057  0.16569167  0.00126161  1
  I  I91  1  0.49870889  0.17147073  0.33437180  1
  I  I92  1  0.49857399  0.16822432  0.66445096  1
  I  I93  1  0.49879467  0.50228629  -0.00388416  1
  I  I94  1  0.49446492  0.49805524  0.33684091  1
  I  I95  1  0.49859894  0.49761739  0.66794606  1
  I  I96  1  0.50374891  0.82950729  -0.00479516  1
  I  I97  1  0.50067187  0.83163654  0.33336474  1
  I  I98  1  0.49475112  0.83451965  0.67054165  1
  I  I99  1  0.82999381  0.16530260  -0.00051420  1
  I  I100  1  0.83708233  0.16478800  0.33362077  1
  I  I101  1  0.83005286  0.16717225  0.66693632  1
  I  I102  1  0.83372944  0.50776104  -0.00583243  1
  I  I103  1  0.83302731  0.50268177  0.33369739  1
  I  I104  1  0.83400183  0.50310999  0.67030600  1
  I  I105  1  0.83198922  0.82945339  -0.00400174  1
  I  I106  1  0.83339931  0.83280235  0.33587716  1
  I  I107  1  0.83554216  0.82975063  0.66934750  1
  I  I108  1  0.00043654  0.16582106  0.16495101  1
  I  I109  1  0.00017118  0.16719949  0.50124867  1
  I  I110  1  0.00440801  0.16613203  0.83401594  1
  I  I111  1  0.00023121  0.50012323  0.16749137  1
  I  I112  1  0.00245170  0.50398247  0.50626316  1
  I  I113  1  0.00099242  0.50391342  0.82933724  1
  I  I114  1  0.00340007  0.83285010  0.15845478  1
  I  I115  1  -0.00270172  0.83039559  0.50724928  1
  I  I116  1  0.00054614  0.83044584  0.83389863  1
  I  I117  1  0.33628236  0.16644639  0.16914773  1
  I  I118  1  0.33663051  0.16610182  0.49797556  1
  I  I119  1  0.33056924  0.16551890  0.83349296  1
  I  I120  1  0.33336597  0.50045119  0.16112606  1
  I  I121  1  0.33396744  0.49767620  0.50955802  1
  I  I122  1  0.33320103  0.50267312  0.82986023  1
  I  I123  1  0.33014453  0.83295171  0.15968107  1
  I  I124  1  0.33343187  0.83508627  0.50084097  1
  I  I125  1  0.33278068  0.83125220  0.83768452  1
  I  I126  1  0.66245582  0.16548289  0.16720172  1
  I  I127  1  0.66237456  0.17434559  0.49915674  1
  I  I128  1  0.66646701  0.16602154  0.83437260  1
  I  I129  1  0.66645494  0.50043538  0.16696510  1
  I  I130  1  0.66350255  0.49628899  0.50558676  1
  I  I131  1  0.66578814  0.50684056  0.82946937  1
  I  I132  1  0.66652461  0.83497763  0.16555279  1
  I  I133  1  0.66948949  0.83264610  0.50757498  1
  I  I134  1  0.66670183  0.82742419  0.82854404  1
