# generated using pymatgen
data_Cs27Sn14Pb13I81
_symmetry_space_group_name_H-M   'P 1'
_cell_length_a   18.97241946
_cell_length_b   18.97222426
_cell_length_c   18.98192309
_cell_angle_alpha   89.99913188
_cell_angle_beta   90.00021192
_cell_angle_gamma   90.00088276
_symmetry_Int_Tables_number   1
_chemical_formula_structural   Cs27Sn14Pb13I81
_chemical_formula_sum   'Cs27 Sn14 Pb13 I81'
_cell_volume   6832.52417158
_cell_formula_units_Z   1
loop_
 _symmetry_equiv_pos_site_id
 _symmetry_equiv_pos_as_xyz
  1  'x, y, z'
loop_
 _atom_site_type_symbol
 _atom_site_label
 _atom_site_symmetry_multiplicity
 _atom_site_fract_x
 _atom_site_fract_y
 _atom_site_fract_z
 _atom_site_occupancy
  Cs  Cs0  1  -0.00231596  -0.00037652  -0.00581635  1
  Cs  Cs1  1  0.00139698  -0.00238241  0.33317002  1
  Cs  Cs2  1  -0.00246447  -0.00273555  0.67267704  1
  Cs  Cs3  1  -0.00374639  0.33453729  -0.00102996  1
  Cs  Cs4  1  0.00035243  0.33420732  0.33405178  1
  Cs  Cs5  1  0.00009119  0.33533673  0.66631638  1
  Cs  Cs6  1  0.00118066  0.66513997  0.00119328  1
  Cs  Cs7  1  0.00116123  0.66738455  0.33349182  1
  Cs  Cs8  1  -0.00107345  0.66422103  0.66614026  1
  Cs  Cs9  1  0.33245910  -0.00032045  -0.00028161  1
  Cs  Cs10  1  0.33194472  0.00277170  0.33194115  1
  Cs  Cs11  1  0.33123306  0.00339001  0.67038478  1
  Cs  Cs12  1  0.33295636  0.33159248  -0.00150702  1
  Cs  Cs13  1  0.33133771  0.33012388  0.33596263  1
  Cs  Cs14  1  0.33356914  0.33226347  0.66531439  1
  Cs  Cs15  1  0.33880923  0.66887724  -0.00104475  1
  Cs  Cs16  1  0.33293487  0.66812497  0.33241657  1
  Cs  Cs17  1  0.33911566  0.66504149  0.66942502  1
  Cs  Cs18  1  0.67013417  0.00056602  -0.00219962  1
  Cs  Cs19  1  0.66650287  -0.00094381  0.33494360  1
  Cs  Cs20  1  0.67085820  -0.00641169  0.66572684  1
  Cs  Cs21  1  0.67083060  0.33430497  0.00277413  1
  Cs  Cs22  1  0.66907479  0.33357943  0.33178067  1
  Cs  Cs23  1  0.66539146  0.33404582  0.66506012  1
  Cs  Cs24  1  0.65476376  0.66505291  0.00312523  1
  Cs  Cs25  1  0.65821278  0.67037746  0.33147351  1
  Cs  Cs26  1  0.66274601  0.67346506  0.66671753  1
  Sn  Sn27  1  0.49955271  0.16685651  0.16653197  1
  Sn  Sn28  1  0.16594089  0.16613726  0.49967057  1
  Sn  Sn29  1  0.16654301  0.49975270  0.16665471  1
  Sn  Sn30  1  0.50018788  0.16688418  0.50004178  1
  Sn  Sn31  1  0.16613791  0.49982140  0.83314211  1
  Sn  Sn32  1  0.83351460  0.50046531  0.83248895  1
  Sn  Sn33  1  0.50033321  0.16699558  0.83333296  1
  Sn  Sn34  1  0.16666764  0.16659514  0.16689615  1
  Sn  Sn35  1  0.16536486  0.83365817  0.16726432  1
  Sn  Sn36  1  0.16655170  0.83338318  0.49987609  1
  Sn  Sn37  1  0.16612831  0.50038155  0.50006155  1
  Sn  Sn38  1  0.83420196  0.83297399  0.16670148  1
  Sn  Sn39  1  0.83413287  0.16711673  0.49990829  1
  Sn  Sn40  1  0.83370034  0.49985968  0.50060254  1
  Pb  Pb41  1  0.49641578  0.83650016  0.49992674  1
  Pb  Pb42  1  0.83350251  0.82951438  0.83637754  1
  Pb  Pb43  1  0.83509292  0.50227862  0.16752839  1
  Pb  Pb44  1  0.50012240  0.49815037  0.49986496  1
  Pb  Pb45  1  0.49989275  0.83658356  0.83323636  1
  Pb  Pb46  1  0.83094186  0.16886281  0.83039588  1
  Pb  Pb47  1  0.16751771  0.16881116  0.83334525  1
  Pb  Pb48  1  0.49675011  0.49692533  0.16702486  1
  Pb  Pb49  1  0.16657839  0.83030824  0.83343878  1
  Pb  Pb50  1  0.83545817  0.83249506  0.49840533  1
  Pb  Pb51  1  0.50042772  0.49788135  0.83313677  1
  Pb  Pb52  1  0.49908181  0.83637548  0.16679941  1
  Pb  Pb53  1  0.83427425  0.16501127  0.16876191  1
  I  I54  1  0.16825293  0.00065257  0.17475248  1
  I  I55  1  0.16818137  0.00128588  0.49197786  1
  I  I56  1  0.16965561  0.00013992  0.83313230  1
  I  I57  1  0.17191228  0.33303405  0.16991383  1
  I  I58  1  0.16720455  0.33295499  0.49752915  1
  I  I59  1  0.16444252  0.33688467  0.83326834  1
  I  I60  1  0.16067699  0.66655419  0.17010258  1
  I  I61  1  0.16051523  0.66558413  0.49643679  1
  I  I62  1  0.16300504  0.66203462  0.83300799  1
  I  I63  1  0.49311295  0.00432056  0.16811679  1
  I  I64  1  0.50138735  0.00508136  0.49892547  1
  I  I65  1  0.49767348  0.00486694  0.83310832  1
  I  I66  1  0.49571770  0.32876770  0.16772365  1
  I  I67  1  0.49417138  0.32938010  0.49967717  1
  I  I68  1  0.49796620  0.32997606  0.83259220  1
  I  I69  1  0.50006198  0.66681755  0.16527089  1
  I  I70  1  0.50051617  0.66690143  0.50080553  1
  I  I71  1  0.49973223  0.66634814  0.83408630  1
  I  I72  1  0.83904844  -0.00262589  0.16958629  1
  I  I73  1  0.83284989  0.00262513  0.49709136  1
  I  I74  1  0.83096583  -0.00006816  0.83251143  1
  I  I75  1  0.83285600  0.33350241  0.16488629  1
  I  I76  1  0.83795873  0.33325526  0.50222602  1
  I  I77  1  0.83829753  0.33660060  0.83374567  1
  I  I78  1  0.84154978  0.66974881  0.16822968  1
  I  I79  1  0.84045451  0.66333853  0.50300337  1
  I  I80  1  0.83964175  0.66189687  0.82457765  1
  I  I81  1  0.17239230  0.16643562  0.00306366  1
  I  I82  1  0.17126070  0.17024224  0.33396661  1
  I  I83  1  0.16848741  0.16676583  0.66320821  1
  I  I84  1  0.16297132  0.49877708  0.00047343  1
  I  I85  1  0.16329973  0.49888775  0.33395186  1
  I  I86  1  0.16304085  0.49851004  0.66540447  1
  I  I87  1  0.16400175  0.83463408  0.00361176  1
  I  I88  1  0.16340365  0.83040637  0.33293134  1
  I  I89  1  0.16715994  0.83584980  0.66343103  1
  I  I90  1  0.49284924  0.16696807  0.00087385  1
  I  I91  1  0.49696015  0.16678146  0.33370533  1
  I  I92  1  0.49779139  0.16837032  0.66543672  1
  I  I93  1  0.50039523  0.49657397  0.00010304  1
  I  I94  1  0.50189032  0.49768531  0.33337334  1
  I  I95  1  0.49394127  0.49547502  0.66648652  1
  I  I96  1  0.49790614  0.83509501  0.00034736  1
  I  I97  1  0.50268217  0.83449106  0.33332207  1
  I  I98  1  0.49904779  0.83530487  0.66632629  1
  I  I99  1  0.83206978  0.16701070  0.00002035  1
  I  I100  1  0.83016338  0.17308257  0.33684637  1
  I  I101  1  0.83564594  0.16719426  0.66219060  1
  I  I102  1  0.83860970  0.50092309  -0.00194784  1
  I  I103  1  0.83845040  0.49545077  0.33664222  1
  I  I104  1  0.84342212  0.49419892  0.66547558  1
  I  I105  1  0.84181781  0.83544247  0.00396627  1
  I  I106  1  0.83705821  0.83260047  0.33073430  1
  I  I107  1  0.83409683  0.83600610  0.66655931  1
  I  I108  1  0.00370456  0.16889158  0.17207699  1
  I  I109  1  0.00139401  0.16857423  0.49396873  1
  I  I110  1  -0.00034385  0.16583774  0.83405297  1
  I  I111  1  0.00389690  0.49433554  0.16707024  1
  I  I112  1  0.00161432  0.49439322  0.50042479  1
  I  I113  1  0.00112937  0.49814571  0.83231344  1
  I  I114  1  0.00261247  0.83548339  0.17131644  1
  I  I115  1  0.00371295  0.83789551  0.49679796  1
  I  I116  1  0.00010730  0.83850407  0.83234004  1
  I  I117  1  0.33180431  0.16593240  0.17132118  1
  I  I118  1  0.33210939  0.16686539  0.49904712  1
  I  I119  1  0.33556386  0.17002817  0.82896420  1
  I  I120  1  0.32797912  0.50551143  0.16722709  1
  I  I121  1  0.32934713  0.49907864  0.50009004  1
  I  I122  1  0.33025343  0.49884277  0.83270133  1
  I  I123  1  0.32935799  0.83129209  0.17069392  1
  I  I124  1  0.32818819  0.83109296  0.49237211  1
  I  I125  1  0.33296287  0.82996823  0.83508611  1
  I  I126  1  0.66440298  0.16414928  0.16812999  1
  I  I127  1  0.66681654  0.17269601  0.49947118  1
  I  I128  1  0.66305025  0.16963919  0.83567934  1
  I  I129  1  0.66673489  0.50112427  0.16540686  1
  I  I130  1  0.67013577  0.49407912  0.50543597  1
  I  I131  1  0.66984067  0.49769636  0.82800889  1
  I  I132  1  0.66889866  0.83423498  0.16640367  1
  I  I133  1  0.66672516  0.83361770  0.49824540  1
  I  I134  1  0.66690584  0.83125584  0.83494144  1
