# generated using pymatgen
data_Cs27Sn13Pb14I81
_symmetry_space_group_name_H-M   'P 1'
_cell_length_a   18.98649356
_cell_length_b   18.97556418
_cell_length_c   18.97097042
_cell_angle_alpha   90.00046158
_cell_angle_beta   90.00124985
_cell_angle_gamma   90.00183144
_symmetry_Int_Tables_number   1
_chemical_formula_structural   Cs27Sn13Pb14I81
_chemical_formula_sum   'Cs27 Sn13 Pb14 I81'
_cell_volume   6834.85034778
_cell_formula_units_Z   1
loop_
 _symmetry_equiv_pos_site_id
 _symmetry_equiv_pos_as_xyz
  1  'x, y, z'
loop_
 _atom_site_type_symbol
 _atom_site_label
 _atom_site_symmetry_multiplicity
 _atom_site_fract_x
 _atom_site_fract_y
 _atom_site_fract_z
 _atom_site_occupancy
  Cs  Cs0  1  0.00235298  -0.00679082  0.00074146  1
  Cs  Cs1  1  0.00329301  0.00305166  0.33220921  1
  Cs  Cs2  1  -0.00052329  -0.00043449  0.66728252  1
  Cs  Cs3  1  -0.00083535  0.33556821  0.00082014  1
  Cs  Cs4  1  0.00071866  0.33266153  0.33425357  1
  Cs  Cs5  1  0.00141983  0.33217756  0.66413507  1
  Cs  Cs6  1  -0.00887936  0.67210689  -0.00821356  1
  Cs  Cs7  1  -0.00274730  0.66395724  0.33287081  1
  Cs  Cs8  1  0.00411347  0.66931741  0.67133543  1
  Cs  Cs9  1  0.33146472  -0.00073720  0.00588600  1
  Cs  Cs10  1  0.33348901  -0.00390254  0.33071168  1
  Cs  Cs11  1  0.33372440  -0.00166147  0.66564933  1
  Cs  Cs12  1  0.33460109  0.33345996  0.00111210  1
  Cs  Cs13  1  0.33319224  0.33342069  0.33257290  1
  Cs  Cs14  1  0.33385007  0.33362076  0.66761075  1
  Cs  Cs15  1  0.33200440  0.66676222  -0.00436073  1
  Cs  Cs16  1  0.33639080  0.66803670  0.33488779  1
  Cs  Cs17  1  0.33070294  0.66898592  0.66916248  1
  Cs  Cs18  1  0.66757636  -0.00110120  -0.00403321  1
  Cs  Cs19  1  0.66459274  0.00089121  0.33462641  1
  Cs  Cs20  1  0.66664602  0.00250455  0.66786948  1
  Cs  Cs21  1  0.66589629  0.33359969  -0.00492726  1
  Cs  Cs22  1  0.66618696  0.33358150  0.33444690  1
  Cs  Cs23  1  0.66478724  0.33097434  0.66820048  1
  Cs  Cs24  1  0.67569543  0.66806336  0.00159725  1
  Cs  Cs25  1  0.66556245  0.66679740  0.33113894  1
  Cs  Cs26  1  0.66482710  0.66639478  0.66584083  1
  Sn  Sn27  1  0.49930161  0.49916774  0.16733975  1
  Sn  Sn28  1  0.16706204  0.49919538  0.49903619  1
  Sn  Sn29  1  0.83337211  0.83351358  0.49953273  1
  Sn  Sn30  1  0.16705031  0.50015759  0.16730396  1
  Sn  Sn31  1  0.16684671  0.16706090  0.83281298  1
  Sn  Sn32  1  0.50116554  0.16762856  0.16758349  1
  Sn  Sn33  1  0.83321385  0.16673521  0.49927929  1
  Sn  Sn34  1  0.16714239  0.16725004  0.50084489  1
  Sn  Sn35  1  0.49998530  0.83344050  0.83333596  1
  Sn  Sn36  1  0.83231729  0.16686641  0.16735595  1
  Sn  Sn37  1  0.49961957  0.16723801  0.49925274  1
  Sn  Sn38  1  0.49971730  0.49918683  0.49938925  1
  Sn  Sn39  1  0.83327871  0.49999012  0.49991748  1
  Pb  Pb40  1  0.16661348  0.82869104  0.16706182  1
  Pb  Pb41  1  0.16679619  0.16809741  0.16724863  1
  Pb  Pb42  1  0.50001607  0.50188196  0.83366410  1
  Pb  Pb43  1  0.83301900  0.49790326  0.16852839  1
  Pb  Pb44  1  0.83575729  0.16672805  0.83344255  1
  Pb  Pb45  1  0.16434660  0.83304775  0.49955081  1
  Pb  Pb46  1  0.50174955  0.83327698  0.50109949  1
  Pb  Pb47  1  0.50006789  0.83284639  0.16453994  1
  Pb  Pb48  1  0.83112038  0.83370740  0.83049995  1
  Pb  Pb49  1  0.49804328  0.16536119  0.83361936  1
  Pb  Pb50  1  0.83317680  0.83655001  0.16945972  1
  Pb  Pb51  1  0.16876197  0.83620197  0.83316252  1
  Pb  Pb52  1  0.16674732  0.49799702  0.83340662  1
  Pb  Pb53  1  0.83331483  0.49952583  0.82997803  1
  I  I54  1  0.16687001  0.00036610  0.16610988  1
  I  I55  1  0.16650079  0.00360157  0.50400051  1
  I  I56  1  0.16632834  0.00410438  0.82625470  1
  I  I57  1  0.16814017  0.33599003  0.16931296  1
  I  I58  1  0.16283956  0.33298644  0.50045835  1
  I  I59  1  0.16838003  0.33023538  0.82934753  1
  I  I60  1  0.17414851  0.66069233  0.17499851  1
  I  I61  1  0.16727144  0.66275374  0.49612507  1
  I  I62  1  0.16744480  0.66666787  0.83267019  1
  I  I63  1  0.50305900  0.00352815  0.17063085  1
  I  I64  1  0.50029183  0.00351230  0.49768971  1
  I  I65  1  0.49927757  -0.00208450  0.83117294  1
  I  I66  1  0.49957777  0.33294743  0.17109588  1
  I  I67  1  0.50342295  0.33293277  0.49770396  1
  I  I68  1  0.49908290  0.33321221  0.83264017  1
  I  I69  1  0.49532554  0.66282542  0.17169386  1
  I  I70  1  0.50047320  0.66319094  0.49749172  1
  I  I71  1  0.49934518  0.66937550  0.83067892  1
  I  I72  1  0.82799864  0.00481440  0.17258085  1
  I  I73  1  0.83264314  0.00179273  0.49723367  1
  I  I74  1  0.83339935  0.00031663  0.83038402  1
  I  I75  1  0.83285796  0.32996829  0.17387969  1
  I  I76  1  0.83403849  0.33269549  0.49635015  1
  I  I77  1  0.83190786  0.33284673  0.83131503  1
  I  I78  1  0.83309971  0.66636136  0.16806111  1
  I  I79  1  0.83247927  0.66549256  0.50122264  1
  I  I80  1  0.83354204  0.66677185  0.83277703  1
  I  I81  1  0.16779401  0.16823795  -0.00146715  1
  I  I82  1  0.16514543  0.16903420  0.33670873  1
  I  I83  1  0.16649919  0.17186416  0.66367592  1
  I  I84  1  0.17386102  0.49639769  0.00321098  1
  I  I85  1  0.16694432  0.49315541  0.33516239  1
  I  I86  1  0.16673120  0.49804911  0.66284639  1
  I  I87  1  0.16734850  0.83597347  -0.00005292  1
  I  I88  1  0.16789063  0.84033462  0.33364893  1
  I  I89  1  0.16634937  0.82942341  0.66631367  1
  I  I90  1  0.50274756  0.16985464  0.00341149  1
  I  I91  1  0.49951480  0.16958418  0.33459695  1
  I  I92  1  0.50264437  0.16958410  0.66315709  1
  I  I93  1  0.49413248  0.49532526  0.00376934  1
  I  I94  1  0.49938331  0.49652700  0.33466796  1
  I  I95  1  0.50022188  0.49631257  0.66281934  1
  I  I96  1  0.49882789  0.83525683  -0.00297734  1
  I  I97  1  0.50132650  0.83362910  0.33331525  1
  I  I98  1  0.50156577  0.83421248  0.66866786  1
  I  I99  1  0.82913535  0.16800515  0.00326682  1
  I  I100  1  0.83460187  0.16674398  0.33549182  1
  I  I101  1  0.83069418  0.16715067  0.66259209  1
  I  I102  1  0.83338311  0.49861305  0.00053446  1
  I  I103  1  0.83373731  0.50108950  0.33737664  1
  I  I104  1  0.83304365  0.49614316  0.66066814  1
  I  I105  1  0.83308373  0.83408857  0.00001412  1
  I  I106  1  0.83116312  0.83054968  0.33745133  1
  I  I107  1  0.83311120  0.83599713  0.66253159  1
  I  I108  1  -0.00200414  0.16826135  0.17102928  1
  I  I109  1  -0.00026149  0.16911650  0.50013015  1
  I  I110  1  0.00344561  0.16772509  0.82766490  1
  I  I111  1  0.00227837  0.49648514  0.17250949  1
  I  I112  1  0.00034592  0.49628164  0.49622643  1
  I  I113  1  0.00018418  0.50015518  0.83459229  1
  I  I114  1  -0.00020536  0.83532455  0.16634424  1
  I  I115  1  -0.00369330  0.83428574  0.50044407  1
  I  I116  1  -0.00010083  0.83324127  0.83305690  1
  I  I117  1  0.33614313  0.16836351  0.16895940  1
  I  I118  1  0.33370292  0.17307435  0.50089490  1
  I  I119  1  0.33052850  0.16609723  0.82769001  1
  I  I120  1  0.33426147  0.49318151  0.17507932  1
  I  I121  1  0.33357060  0.49278639  0.49651141  1
  I  I122  1  0.33339896  0.50099409  0.82861886  1
  I  I123  1  0.33354667  0.83973330  0.16703311  1
  I  I124  1  0.33351487  0.83376078  0.50214936  1
  I  I125  1  0.33613556  0.83260369  0.83045277  1
  I  I126  1  0.66562406  0.17129834  0.17520149  1
  I  I127  1  0.66649149  0.16869622  0.49614024  1
  I  I128  1  0.66643032  0.16480789  0.83069328  1
  I  I129  1  0.66364413  0.49853304  0.17128524  1
  I  I130  1  0.66616440  0.49774442  0.49708058  1
  I  I131  1  0.66645857  0.49983964  0.83289242  1
  I  I132  1  0.66663750  0.82875270  0.16578257  1
  I  I133  1  0.66959908  0.83401660  0.50163448  1
  I  I134  1  0.66382469  0.83525168  0.83294762  1
