# generated using pymatgen
data_Cs27Sn13Pb14I81
_symmetry_space_group_name_H-M   'P 1'
_cell_length_a   18.98002215
_cell_length_b   18.98542169
_cell_length_c   18.96427156
_cell_angle_alpha   89.99853567
_cell_angle_beta   89.99987902
_cell_angle_gamma   89.99926074
_symmetry_Int_Tables_number   1
_chemical_formula_structural   Cs27Sn13Pb14I81
_chemical_formula_sum   'Cs27 Sn13 Pb14 I81'
_cell_volume   6833.65623942
_cell_formula_units_Z   1
loop_
 _symmetry_equiv_pos_site_id
 _symmetry_equiv_pos_as_xyz
  1  'x, y, z'
loop_
 _atom_site_type_symbol
 _atom_site_label
 _atom_site_symmetry_multiplicity
 _atom_site_fract_x
 _atom_site_fract_y
 _atom_site_fract_z
 _atom_site_occupancy
  Cs  Cs0  1  -0.00281943  -0.00193063  -0.00093346  1
  Cs  Cs1  1  -0.00328113  0.00401843  0.33368014  1
  Cs  Cs2  1  0.00790346  0.00063497  0.66992484  1
  Cs  Cs3  1  0.00026739  0.33197387  0.00181461  1
  Cs  Cs4  1  -0.00332728  0.33138808  0.33875058  1
  Cs  Cs5  1  0.00487658  0.33838790  0.65701613  1
  Cs  Cs6  1  -0.00217231  0.66910656  -0.00207482  1
  Cs  Cs7  1  -0.00075909  0.66478237  0.33210212  1
  Cs  Cs8  1  0.00300625  0.66042328  0.67371277  1
  Cs  Cs9  1  0.33465732  0.00209341  0.00070216  1
  Cs  Cs10  1  0.33576104  -0.00180297  0.33379342  1
  Cs  Cs11  1  0.32607995  0.00032597  0.66479629  1
  Cs  Cs12  1  0.33531211  0.33224812  -0.00253946  1
  Cs  Cs13  1  0.33544294  0.33402805  0.33123284  1
  Cs  Cs14  1  0.32942350  0.33147630  0.67617012  1
  Cs  Cs15  1  0.33435645  0.66478707  0.00324518  1
  Cs  Cs16  1  0.33558034  0.66777635  0.33241555  1
  Cs  Cs17  1  0.32532413  0.66812995  0.66310664  1
  Cs  Cs18  1  0.66777064  0.00046702  -0.00020260  1
  Cs  Cs19  1  0.66657759  0.00016605  0.33389012  1
  Cs  Cs20  1  0.66551583  -0.00141717  0.66806467  1
  Cs  Cs21  1  0.66452557  0.33155888  -0.00160414  1
  Cs  Cs22  1  0.66756842  0.33224259  0.33315278  1
  Cs  Cs23  1  0.66724430  0.33577881  0.66897736  1
  Cs  Cs24  1  0.66747501  0.66791452  -0.00036838  1
  Cs  Cs25  1  0.66484900  0.66785291  0.33317515  1
  Cs  Cs26  1  0.67007262  0.66642964  0.66877092  1
  Sn  Sn27  1  0.16655907  0.49979677  0.16690315  1
  Sn  Sn28  1  0.83375267  0.83332750  0.49986772  1
  Sn  Sn29  1  0.16658113  0.83359033  0.16694702  1
  Sn  Sn30  1  0.50017395  0.83346049  0.16580146  1
  Sn  Sn31  1  0.49995086  0.49888177  0.49951653  1
  Sn  Sn32  1  0.49936829  0.16662757  0.16739666  1
  Sn  Sn33  1  0.16745813  0.16658939  0.16684416  1
  Sn  Sn34  1  0.49968561  0.83321487  0.83366489  1
  Sn  Sn35  1  0.83296310  0.50062399  0.16669915  1
  Sn  Sn36  1  0.50016600  0.16780722  0.49970113  1
  Sn  Sn37  1  0.83315278  0.83257209  0.16782426  1
  Sn  Sn38  1  0.50031390  0.49985261  0.16719535  1
  Sn  Sn39  1  0.83356534  0.16706985  0.83265292  1
  Pb  Pb40  1  0.83303262  0.16665459  0.16588392  1
  Pb  Pb41  1  0.83112880  0.16458319  0.50293933  1
  Pb  Pb42  1  0.83109639  0.50215913  0.49781756  1
  Pb  Pb43  1  0.16675240  0.49996497  0.83609722  1
  Pb  Pb44  1  0.16317765  0.83314767  0.49726909  1
  Pb  Pb45  1  0.16964582  0.49999966  0.49730348  1
  Pb  Pb46  1  0.49991675  0.50264856  0.83310169  1
  Pb  Pb47  1  0.16954994  0.83332895  0.83604792  1
  Pb  Pb48  1  0.16958377  0.16669695  0.49730519  1
  Pb  Pb49  1  0.83322407  0.49724226  0.83571141  1
  Pb  Pb50  1  0.16374468  0.16677392  0.83593211  1
  Pb  Pb51  1  0.50109429  0.83307879  0.50001376  1
  Pb  Pb52  1  0.50100064  0.16471574  0.83311210  1
  Pb  Pb53  1  0.83201484  0.83456497  0.83338489  1
  I  I54  1  0.16996181  -0.00033358  0.16639446  1
  I  I55  1  0.16979118  -0.00009104  0.49670427  1
  I  I56  1  0.16671563  -0.00002277  0.83671712  1
  I  I57  1  0.17002268  0.33347435  0.16571761  1
  I  I58  1  0.16265393  0.33331405  0.49631318  1
  I  I59  1  0.16830647  0.33315490  0.83790983  1
  I  I60  1  0.16980695  0.66680530  0.16687325  1
  I  I61  1  0.17093574  0.66666758  0.49647528  1
  I  I62  1  0.16620448  0.66691277  0.83554141  1
  I  I63  1  0.49823949  -0.00024041  0.16663908  1
  I  I64  1  0.50247195  0.00208176  0.49503023  1
  I  I65  1  0.50285194  -0.00283742  0.84007402  1
  I  I66  1  0.49829782  0.33338498  0.17059701  1
  I  I67  1  0.50168990  0.33326979  0.48891223  1
  I  I68  1  0.50151113  0.33326676  0.83650955  1
  I  I69  1  0.49843655  0.66676240  0.16673988  1
  I  I70  1  0.50179084  0.66436997  0.49431692  1
  I  I71  1  0.50280026  0.67026303  0.84046415  1
  I  I72  1  0.83250312  -0.00285448  0.16778859  1
  I  I73  1  0.82852122  -0.00303801  0.49028859  1
  I  I74  1  0.83016256  0.00195931  0.83837179  1
  I  I75  1  0.83265438  0.33583925  0.16364162  1
  I  I76  1  0.83332585  0.33346101  0.49910574  1
  I  I77  1  0.82929132  0.32991171  0.83782781  1
  I  I78  1  0.83220495  0.66751690  0.16937678  1
  I  I79  1  0.82854849  0.66996417  0.49623720  1
  I  I80  1  0.83164976  0.66668710  0.83291680  1
  I  I81  1  0.17413508  0.16688904  0.00482882  1
  I  I82  1  0.16638938  0.16618697  0.32851528  1
  I  I83  1  0.16790268  0.16562785  0.66654515  1
  I  I84  1  0.17065462  0.50057287  0.00560632  1
  I  I85  1  0.16507410  0.50072895  0.32828977  1
  I  I86  1  0.16799142  0.50032606  0.66620267  1
  I  I87  1  0.16151817  0.83296977  0.00517749  1
  I  I88  1  0.17414268  0.83269607  0.32822073  1
  I  I89  1  0.16771966  0.83416719  0.66666537  1
  I  I90  1  0.49774311  0.16844936  0.00356945  1
  I  I91  1  0.49769559  0.16469981  0.33101970  1
  I  I92  1  0.50477896  0.16912982  0.66386928  1
  I  I93  1  0.49940631  0.49781943  0.00416593  1
  I  I94  1  0.49988040  0.50167007  0.33050970  1
  I  I95  1  0.50226264  0.49652429  0.66349569  1
  I  I96  1  0.50225527  0.83390166  0.00340003  1
  I  I97  1  0.49854166  0.83329544  0.32962707  1
  I  I98  1  0.50560978  0.83404671  0.66867119  1
  I  I99  1  0.83066154  0.16410502  -0.00120374  1
  I  I100  1  0.83469845  0.16747691  0.33326749  1
  I  I101  1  0.82793134  0.16264110  0.67003086  1
  I  I102  1  0.83047500  0.50700670  0.00490849  1
  I  I103  1  0.83481402  0.50049832  0.32891331  1
  I  I104  1  0.83021719  0.50201261  0.66632347  1
  I  I105  1  0.83442471  0.83104588  0.00380430  1
  I  I106  1  0.82988943  0.83109357  0.33040283  1
  I  I107  1  0.82633077  0.83648391  0.66434055  1
  I  I108  1  0.00232291  0.16616200  0.16276828  1
  I  I109  1  0.00002115  0.16491340  0.49922846  1
  I  I110  1  -0.00353589  0.16292329  0.83798882  1
  I  I111  1  -0.00004160  0.50324835  0.16424354  1
  I  I112  1  -0.00005586  0.50090013  0.49821610  1
  I  I113  1  -0.00016587  0.50132623  0.83605916  1
  I  I114  1  -0.00046636  0.83105241  0.17120135  1
  I  I115  1  -0.00454492  0.83496708  0.49293273  1
  I  I116  1  0.00012266  0.83539547  0.83481162  1
  I  I117  1  0.33463279  0.16582911  0.16934321  1
  I  I118  1  0.33791381  0.16755312  0.49790048  1
  I  I119  1  0.33322248  0.16541943  0.83248307  1
  I  I120  1  0.33424475  0.50286659  0.17008624  1
  I  I121  1  0.33778337  0.49923248  0.49241331  1
  I  I122  1  0.33370058  0.49921132  0.83633651  1
  I  I123  1  0.33424528  0.83164255  0.16203822  1
  I  I124  1  0.33333026  0.83360327  0.50014515  1
  I  I125  1  0.33755997  0.83486117  0.83880321  1
  I  I126  1  0.66356467  0.16607556  0.16813692  1
  I  I127  1  0.66309393  0.16863187  0.49097071  1
  I  I128  1  0.66838134  0.16430839  0.83849651  1
  I  I129  1  0.66573959  0.50288492  0.16978924  1
  I  I130  1  0.66318116  0.49741736  0.49190852  1
  I  I131  1  0.66646091  0.50021000  0.83756583  1
  I  I132  1  0.66610387  0.83142858  0.16640909  1
  I  I133  1  0.66864385  0.83367673  0.49222055  1
  I  I134  1  0.66416214  0.83473035  0.84114598  1
