# generated using pymatgen
data_Cs27Sn14Pb13I81
_symmetry_space_group_name_H-M   'P 1'
_cell_length_a   18.96776572
_cell_length_b   18.98128450
_cell_length_c   18.98138327
_cell_angle_alpha   89.99960938
_cell_angle_beta   89.99928270
_cell_angle_gamma   89.99902089
_symmetry_Int_Tables_number   1
_chemical_formula_structural   Cs27Sn14Pb13I81
_chemical_formula_sum   'Cs27 Sn14 Pb13 I81'
_cell_volume   6833.91596143
_cell_formula_units_Z   1
loop_
 _symmetry_equiv_pos_site_id
 _symmetry_equiv_pos_as_xyz
  1  'x, y, z'
loop_
 _atom_site_type_symbol
 _atom_site_label
 _atom_site_symmetry_multiplicity
 _atom_site_fract_x
 _atom_site_fract_y
 _atom_site_fract_z
 _atom_site_occupancy
  Cs  Cs0  1  -0.00027593  -0.00071841  -0.00070931  1
  Cs  Cs1  1  -0.00255191  0.00056917  0.33335832  1
  Cs  Cs2  1  0.00461792  -0.00179528  0.66852719  1
  Cs  Cs3  1  0.00796651  0.33448280  0.00119125  1
  Cs  Cs4  1  0.00385492  0.33285582  0.33109061  1
  Cs  Cs5  1  0.00297534  0.33492050  0.66881671  1
  Cs  Cs6  1  -0.00024621  0.66581985  -0.00666633  1
  Cs  Cs7  1  -0.00094560  0.66707480  0.33279259  1
  Cs  Cs8  1  0.00460497  0.66728549  0.67674645  1
  Cs  Cs9  1  0.33578670  0.00685857  -0.00231677  1
  Cs  Cs10  1  0.33212079  -0.00289538  0.33419545  1
  Cs  Cs11  1  0.32741755  0.00138100  0.66837451  1
  Cs  Cs12  1  0.32821580  0.32471710  -0.00072672  1
  Cs  Cs13  1  0.32549995  0.33512449  0.33228844  1
  Cs  Cs14  1  0.32885947  0.33013198  0.66781779  1
  Cs  Cs15  1  0.33696910  0.66613251  0.00442074  1
  Cs  Cs16  1  0.33485628  0.66717927  0.33188840  1
  Cs  Cs17  1  0.33367839  0.66770226  0.66523638  1
  Cs  Cs18  1  0.66605386  0.00233299  0.00128341  1
  Cs  Cs19  1  0.66801484  -0.00083850  0.33408484  1
  Cs  Cs20  1  0.66734674  0.00160072  0.66415069  1
  Cs  Cs21  1  0.66603554  0.33058020  0.00062690  1
  Cs  Cs22  1  0.66760273  0.33506257  0.33610215  1
  Cs  Cs23  1  0.66715417  0.33326853  0.66445737  1
  Cs  Cs24  1  0.66642001  0.66673089  0.00003234  1
  Cs  Cs25  1  0.66587518  0.66693110  0.33392788  1
  Cs  Cs26  1  0.66637787  0.66541169  0.66640098  1
  Sn  Sn27  1  0.50044028  0.16677077  0.49944615  1
  Sn  Sn28  1  0.50045717  0.83287571  0.16654982  1
  Sn  Sn29  1  0.50042766  0.49969180  0.49993938  1
  Sn  Sn30  1  0.50088606  0.83354873  0.50036206  1
  Sn  Sn31  1  0.50068829  0.83286383  0.83304331  1
  Sn  Sn32  1  0.83314256  0.50060075  0.49960866  1
  Sn  Sn33  1  0.83223973  0.50088462  0.16727852  1
  Sn  Sn34  1  0.83266623  0.16680306  0.50125508  1
  Sn  Sn35  1  0.50111066  0.50021188  0.16656538  1
  Sn  Sn36  1  0.83312732  0.83212600  0.16720900  1
  Sn  Sn37  1  0.50050369  0.50020196  0.83345972  1
  Sn  Sn38  1  0.83278941  0.83262668  0.49995512  1
  Sn  Sn39  1  0.83267147  0.16686317  0.83245426  1
  Sn  Sn40  1  0.16647600  0.83305668  0.16674121  1
  Pb  Pb41  1  0.50154097  0.16680376  0.83071761  1
  Pb  Pb42  1  0.83313973  0.16723396  0.16737381  1
  Pb  Pb43  1  0.16591023  0.16648550  0.49980265  1
  Pb  Pb44  1  0.16609879  0.50052175  0.49996245  1
  Pb  Pb45  1  0.17034121  0.83309745  0.83646440  1
  Pb  Pb46  1  0.16653641  0.50233387  0.16678749  1
  Pb  Pb47  1  0.83128735  0.49805954  0.83359512  1
  Pb  Pb48  1  0.17073060  0.50034353  0.83350545  1
  Pb  Pb49  1  0.83105752  0.83483851  0.83323415  1
  Pb  Pb50  1  0.16299832  0.16645952  0.83307564  1
  Pb  Pb51  1  0.16666030  0.16334745  0.16707546  1
  Pb  Pb52  1  0.50019803  0.16719896  0.16981571  1
  Pb  Pb53  1  0.16623037  0.83300096  0.49820252  1
  I  I54  1  0.16708887  -0.00480117  0.16792368  1
  I  I55  1  0.16786011  -0.00022326  0.49775698  1
  I  I56  1  0.16999161  -0.00028347  0.83468249  1
  I  I57  1  0.16661063  0.33363550  0.16592731  1
  I  I58  1  0.16812101  0.33341549  0.49921644  1
  I  I59  1  0.16921193  0.33322772  0.83463954  1
  I  I60  1  0.16870712  0.66999817  0.16820836  1
  I  I61  1  0.16817842  0.66681453  0.49930648  1
  I  I62  1  0.16068848  0.66699942  0.83233880  1
  I  I63  1  0.50067447  -0.00362713  0.16583401  1
  I  I64  1  0.50607448  -0.00120389  0.49922630  1
  I  I65  1  0.50146496  -0.00272779  0.83514258  1
  I  I66  1  0.50620503  0.33712358  0.16589285  1
  I  I67  1  0.50691142  0.33430990  0.50041260  1
  I  I68  1  0.50262180  0.33613561  0.83381055  1
  I  I69  1  0.49983625  0.66748779  0.17005271  1
  I  I70  1  0.50448915  0.66687998  0.49974300  1
  I  I71  1  0.50117230  0.66692056  0.82982147  1
  I  I72  1  0.83250836  -0.00339601  0.16959441  1
  I  I73  1  0.82682767  -0.00082883  0.49865200  1
  I  I74  1  0.82967761  0.00249482  0.82931122  1
  I  I75  1  0.82684321  0.33688992  0.16980342  1
  I  I76  1  0.82590654  0.33397788  0.49959130  1
  I  I77  1  0.82893098  0.33057373  0.82840816  1
  I  I78  1  0.83184603  0.66747435  0.17442579  1
  I  I79  1  0.82594816  0.66684508  0.49332714  1
  I  I80  1  0.83495963  0.66658665  0.83124658  1
  I  I81  1  0.16625700  0.16672781  -0.00005395  1
  I  I82  1  0.16500883  0.16767955  0.33349470  1
  I  I83  1  0.17002160  0.16491253  0.66647144  1
  I  I84  1  0.16447214  0.50093456  0.00026242  1
  I  I85  1  0.17166549  0.49972588  0.33324783  1
  I  I86  1  0.16543751  0.50029508  0.66672538  1
  I  I87  1  0.16363885  0.83225730  0.00432229  1
  I  I88  1  0.17216402  0.83263401  0.33035580  1
  I  I89  1  0.16654558  0.83461368  0.66699361  1
  I  I90  1  0.50069703  0.16594330  -0.00012049  1
  I  I91  1  0.50840316  0.16507226  0.33777287  1
  I  I92  1  0.50317432  0.16631770  0.66275178  1
  I  I93  1  0.50460267  0.50936309  0.00107778  1
  I  I94  1  0.50374078  0.50320440  0.33356932  1
  I  I95  1  0.50429718  0.50345402  0.66539865  1
  I  I96  1  0.49999463  0.82636888  0.00113576  1
  I  I97  1  0.49989394  0.83171791  0.33336848  1
  I  I98  1  0.50558711  0.83028348  0.66528132  1
  I  I99  1  0.83307661  0.16523775  -0.00200088  1
  I  I100  1  0.82902151  0.16546573  0.33690256  1
  I  I101  1  0.82761099  0.16643108  0.66440989  1
  I  I102  1  0.82876939  0.50394940  0.00311582  1
  I  I103  1  0.82565155  0.49928450  0.33385739  1
  I  I104  1  0.82830306  0.50180403  0.66339396  1
  I  I105  1  0.83240601  0.83101542  0.00327978  1
  I  I106  1  0.82921406  0.83541852  0.33348581  1
  I  I107  1  0.82760348  0.83150537  0.66333633  1
  I  I108  1  -0.00044776  0.16714953  0.16815867  1
  I  I109  1  -0.00438091  0.16582710  0.50296322  1
  I  I110  1  -0.00482578  0.16578633  0.82582681  1
  I  I111  1  -0.00371264  0.50254576  0.17250402  1
  I  I112  1  -0.00441360  0.49855609  0.49366628  1
  I  I113  1  -0.00029347  0.49733988  0.83339291  1
  I  I114  1  -0.00184216  0.83109045  0.17299242  1
  I  I115  1  -0.00400980  0.83497348  0.49457415  1
  I  I116  1  -0.00016363  0.83629095  0.83320629  1
  I  I117  1  0.33376547  0.16721574  0.16783305  1
  I  I118  1  0.33674098  0.16624687  0.49919355  1
  I  I119  1  0.33354242  0.16683533  0.83263857  1
  I  I120  1  0.33713676  0.50470088  0.16821885  1
  I  I121  1  0.33778268  0.50036138  0.49908329  1
  I  I122  1  0.33923372  0.50399778  0.83267164  1
  I  I123  1  0.33557594  0.82925513  0.16734245  1
  I  I124  1  0.33735439  0.83332335  0.49928458  1
  I  I125  1  0.33869278  0.83019189  0.83067044  1
  I  I126  1  0.66671582  0.16116316  0.16338080  1
  I  I127  1  0.66709679  0.16612363  0.50340292  1
  I  I128  1  0.66909867  0.16598218  0.83099338  1
  I  I129  1  0.66594115  0.50817569  0.16830628  1
  I  I130  1  0.66593698  0.50011479  0.49884496  1
  I  I131  1  0.66311381  0.50447027  0.83286622  1
  I  I132  1  0.66621795  0.82973012  0.16819064  1
  I  I133  1  0.66592087  0.83374345  0.49536548  1
  I  I134  1  0.66296652  0.82973530  0.83742388  1
