# generated using pymatgen
data_Cs27Sn14Pb13I81
_symmetry_space_group_name_H-M   'P 1'
_cell_length_a   18.96986297
_cell_length_b   18.98168772
_cell_length_c   18.97658006
_cell_angle_alpha   90.00071806
_cell_angle_beta   89.99921010
_cell_angle_gamma   89.99916393
_symmetry_Int_Tables_number   1
_chemical_formula_structural   Cs27Sn14Pb13I81
_chemical_formula_sum   'Cs27 Sn14 Pb13 I81'
_cell_volume   6833.08723271
_cell_formula_units_Z   1
loop_
 _symmetry_equiv_pos_site_id
 _symmetry_equiv_pos_as_xyz
  1  'x, y, z'
loop_
 _atom_site_type_symbol
 _atom_site_label
 _atom_site_symmetry_multiplicity
 _atom_site_fract_x
 _atom_site_fract_y
 _atom_site_fract_z
 _atom_site_occupancy
  Cs  Cs0  1  0.00213384  -0.00327057  -0.00046899  1
  Cs  Cs1  1  0.00575516  0.00084440  0.33601355  1
  Cs  Cs2  1  -0.00324405  0.00530211  0.66482609  1
  Cs  Cs3  1  0.00102009  0.33700457  -0.00178443  1
  Cs  Cs4  1  -0.00557209  0.33124661  0.33836372  1
  Cs  Cs5  1  0.00668594  0.33115055  0.66514416  1
  Cs  Cs6  1  -0.00148768  0.66687589  0.00137890  1
  Cs  Cs7  1  -0.00042131  0.66803888  0.32916356  1
  Cs  Cs8  1  -0.00056786  0.66549380  0.66926149  1
  Cs  Cs9  1  0.33330967  0.00114307  0.00327371  1
  Cs  Cs10  1  0.32435118  -0.00334619  0.32830898  1
  Cs  Cs11  1  0.33478569  -0.00231163  0.66615836  1
  Cs  Cs12  1  0.33335319  0.33109491  -0.00090286  1
  Cs  Cs13  1  0.33299722  0.33303412  0.33168869  1
  Cs  Cs14  1  0.32727809  0.33794641  0.66815522  1
  Cs  Cs15  1  0.33389500  0.66697408  -0.00067817  1
  Cs  Cs16  1  0.33201336  0.66888728  0.34106746  1
  Cs  Cs17  1  0.33336342  0.66424181  0.65919192  1
  Cs  Cs18  1  0.66559135  -0.00062749  -0.00173917  1
  Cs  Cs19  1  0.66684960  0.00198149  0.33370534  1
  Cs  Cs20  1  0.66788065  0.00136558  0.66828611  1
  Cs  Cs21  1  0.66548144  0.33426397  0.00114635  1
  Cs  Cs22  1  0.66872736  0.33229993  0.33218147  1
  Cs  Cs23  1  0.66646377  0.33120270  0.66691700  1
  Cs  Cs24  1  0.66774417  0.66663999  -0.00049856  1
  Cs  Cs25  1  0.66670058  0.66553015  0.33338613  1
  Cs  Cs26  1  0.66558385  0.66799692  0.66720922  1
  Sn  Sn27  1  0.83237829  0.83469767  0.16765977  1
  Sn  Sn28  1  0.83259808  0.16792527  0.83465043  1
  Sn  Sn29  1  0.50074136  0.50009524  0.83392211  1
  Sn  Sn30  1  0.50065991  0.16697499  0.83211967  1
  Sn  Sn31  1  0.83265727  0.50101286  0.50161033  1
  Sn  Sn32  1  0.16820261  0.49999360  0.16658142  1
  Sn  Sn33  1  0.16819042  0.83321853  0.83317710  1
  Sn  Sn34  1  0.83313924  0.16522657  0.16527563  1
  Sn  Sn35  1  0.50089672  0.83238400  0.16623788  1
  Sn  Sn36  1  0.49871417  0.83298205  0.83390150  1
  Sn  Sn37  1  0.49983320  0.16645192  0.50074208  1
  Sn  Sn38  1  0.83250554  0.49880818  0.83217819  1
  Sn  Sn39  1  0.83269950  0.83253949  0.49887683  1
  Sn  Sn40  1  0.49881232  0.50111473  0.16611191  1
  Pb  Pb41  1  0.50188187  0.49813304  0.49995690  1
  Pb  Pb42  1  0.50132449  0.16646853  0.16622521  1
  Pb  Pb43  1  0.16702088  0.50195527  0.83476264  1
  Pb  Pb44  1  0.16697407  0.83157200  0.16507791  1
  Pb  Pb45  1  0.83216777  0.16659473  0.50044748  1
  Pb  Pb46  1  0.83256283  0.83339530  0.83356873  1
  Pb  Pb47  1  0.16305182  0.16963142  0.16628692  1
  Pb  Pb48  1  0.50184744  0.83532429  0.49961812  1
  Pb  Pb49  1  0.16701033  0.16427096  0.83348563  1
  Pb  Pb50  1  0.16339738  0.83322646  0.50314533  1
  Pb  Pb51  1  0.83250619  0.50017198  0.16618272  1
  Pb  Pb52  1  0.16348800  0.50013397  0.49691803  1
  Pb  Pb53  1  0.17080104  0.16666724  0.50015899  1
  I  I54  1  0.16863101  -0.00014444  0.16605280  1
  I  I55  1  0.16263002  -0.00025346  0.49915560  1
  I  I56  1  0.16903302  -0.00353869  0.83534186  1
  I  I57  1  0.17293085  0.33726407  0.16427788  1
  I  I58  1  0.16231650  0.33358666  0.50044195  1
  I  I59  1  0.16760590  0.33349610  0.83446261  1
  I  I60  1  0.16383310  0.66399933  0.16396552  1
  I  I61  1  0.16985939  0.66668469  0.50055521  1
  I  I62  1  0.16843747  0.66959490  0.83562270  1
  I  I63  1  0.50403916  -0.00277406  0.16305916  1
  I  I64  1  0.50577784  0.00281913  0.50548860  1
  I  I65  1  0.50153499  -0.00012974  0.83344619  1
  I  I66  1  0.49904832  0.33591380  0.16365068  1
  I  I67  1  0.50518088  0.33048565  0.50327488  1
  I  I68  1  0.50643314  0.33379446  0.83435941  1
  I  I69  1  0.50371807  0.66696203  0.15828624  1
  I  I70  1  0.50036176  0.66671059  0.50212055  1
  I  I71  1  0.50203863  0.66642940  0.83911743  1
  I  I72  1  0.82656349  -0.00106952  0.16609264  1
  I  I73  1  0.83121781  -0.00215102  0.49983478  1
  I  I74  1  0.83022353  0.00216183  0.83372272  1
  I  I75  1  0.83270383  0.33159611  0.16626482  1
  I  I76  1  0.83127005  0.33543872  0.49891249  1
  I  I77  1  0.82547026  0.33353811  0.83469839  1
  I  I78  1  0.83268079  0.66897029  0.16688884  1
  I  I79  1  0.83165088  0.66658493  0.49987485  1
  I  I80  1  0.83060522  0.66437801  0.83315850  1
  I  I81  1  0.17039667  0.16617382  -0.00005057  1
  I  I82  1  0.16610602  0.16603798  0.33304610  1
  I  I83  1  0.15955788  0.16650410  0.66703107  1
  I  I84  1  0.16422173  0.50149539  0.00246582  1
  I  I85  1  0.17228048  0.50191688  0.32917615  1
  I  I86  1  0.16790098  0.50109325  0.66666869  1
  I  I87  1  0.16497632  0.83247621  -0.00263634  1
  I  I88  1  0.16840550  0.83251810  0.33329862  1
  I  I89  1  0.17278770  0.83177574  0.67086219  1
  I  I90  1  0.50307220  0.16663280  -0.00315192  1
  I  I91  1  0.50480232  0.16797026  0.33474695  1
  I  I92  1  0.50822047  0.16534705  0.66928012  1
  I  I93  1  0.50340320  0.49881923  -0.00093483  1
  I  I94  1  0.49895782  0.50280014  0.33027102  1
  I  I95  1  0.50343377  0.50276602  0.67005631  1
  I  I96  1  0.50314700  0.83443214  -0.00043867  1
  I  I97  1  0.50396051  0.82983079  0.33013439  1
  I  I98  1  0.49859961  0.83122396  0.66991550  1
  I  I99  1  0.82656654  0.16716218  -0.00109835  1
  I  I100  1  0.83048722  0.16764849  0.33133364  1
  I  I101  1  0.83044891  0.16605791  0.66965650  1
  I  I102  1  0.83211532  0.49938811  -0.00265232  1
  I  I103  1  0.83362220  0.50018327  0.33480314  1
  I  I104  1  0.82724095  0.50122319  0.66817144  1
  I  I105  1  0.83228589  0.83353788  0.00233646  1
  I  I106  1  0.82736203  0.83229550  0.33192526  1
  I  I107  1  0.83346122  0.83249949  0.66513968  1
  I  I108  1  -0.00530171  0.16191227  0.16151099  1
  I  I109  1  -0.00028631  0.16674570  0.49958977  1
  I  I110  1  -0.00348651  0.16939390  0.83698552  1
  I  I111  1  0.00103853  0.50003960  0.16634943  1
  I  I112  1  -0.00483109  0.50217174  0.50468577  1
  I  I113  1  -0.00312834  0.49798569  0.83224516  1
  I  I114  1  -0.00300374  0.83441716  0.16778203  1
  I  I115  1  -0.00480473  0.83050579  0.49466895  1
  I  I116  1  0.00106104  0.83243149  0.83379227  1
  I  I117  1  0.33341576  0.16426964  0.16741812  1
  I  I118  1  0.33868945  0.16718879  0.50710980  1
  I  I119  1  0.33726109  0.16980365  0.82928922  1
  I  I120  1  0.33574942  0.50460060  0.16000531  1
  I  I121  1  0.33352429  0.49779427  0.50225337  1
  I  I122  1  0.33694783  0.49690095  0.83637771  1
  I  I123  1  0.33666646  0.83222522  0.16361129  1
  I  I124  1  0.33351672  0.83580682  0.49750309  1
  I  I125  1  0.33613824  0.83425508  0.84006331  1
  I  I126  1  0.66944444  0.16798790  0.16501549  1
  I  I127  1  0.66463833  0.16663834  0.50241086  1
  I  I128  1  0.66637025  0.16506628  0.83352453  1
  I  I129  1  0.66402329  0.50107911  0.16479973  1
  I  I130  1  0.66986673  0.50327695  0.49876217  1
  I  I131  1  0.66613660  0.50164439  0.83631730  1
  I  I132  1  0.66642845  0.83040054  0.16326535  1
  I  I133  1  0.66984059  0.82997337  0.50096970  1
  I  I134  1  0.66373415  0.83335343  0.83457565  1
