# generated using pymatgen
data_Cs27Sn14Pb13I81
_symmetry_space_group_name_H-M   'P 1'
_cell_length_a   18.97884579
_cell_length_b   18.96692902
_cell_length_c   18.98260521
_cell_angle_alpha   90.00042395
_cell_angle_beta   89.99961079
_cell_angle_gamma   90.00007627
_symmetry_Int_Tables_number   1
_chemical_formula_structural   Cs27Sn14Pb13I81
_chemical_formula_sum   'Cs27 Sn14 Pb13 I81'
_cell_volume   6833.17638734
_cell_formula_units_Z   1
loop_
 _symmetry_equiv_pos_site_id
 _symmetry_equiv_pos_as_xyz
  1  'x, y, z'
loop_
 _atom_site_type_symbol
 _atom_site_label
 _atom_site_symmetry_multiplicity
 _atom_site_fract_x
 _atom_site_fract_y
 _atom_site_fract_z
 _atom_site_occupancy
  Cs  Cs0  1  0.00117608  -0.00079588  0.00147186  1
  Cs  Cs1  1  0.00049730  -0.00175584  0.33200431  1
  Cs  Cs2  1  -0.00206142  0.00126836  0.66594892  1
  Cs  Cs3  1  0.00090872  0.33572070  -0.00163326  1
  Cs  Cs4  1  0.00221038  0.33296450  0.33734451  1
  Cs  Cs5  1  0.00085487  0.33252570  0.66662523  1
  Cs  Cs6  1  -0.00465326  0.66500607  0.00359145  1
  Cs  Cs7  1  -0.00130288  0.66806819  0.33165365  1
  Cs  Cs8  1  0.00067435  0.66686313  0.66676975  1
  Cs  Cs9  1  0.33496672  -0.00449707  0.00563895  1
  Cs  Cs10  1  0.33280745  -0.00488498  0.32390455  1
  Cs  Cs11  1  0.33271479  -0.00514832  0.66863608  1
  Cs  Cs12  1  0.33299326  0.33214565  0.00047247  1
  Cs  Cs13  1  0.33285326  0.33477737  0.33110212  1
  Cs  Cs14  1  0.33288093  0.33394163  0.66744104  1
  Cs  Cs15  1  0.33308191  0.66727460  -0.00380995  1
  Cs  Cs16  1  0.33565581  0.66631114  0.34043319  1
  Cs  Cs17  1  0.33496263  0.67234923  0.66470550  1
  Cs  Cs18  1  0.66489138  -0.00037504  0.00104384  1
  Cs  Cs19  1  0.66785398  0.00122156  0.32791771  1
  Cs  Cs20  1  0.66995377  0.00349686  0.66797688  1
  Cs  Cs21  1  0.66624372  0.33458350  -0.00166309  1
  Cs  Cs22  1  0.66470035  0.33176181  0.33715381  1
  Cs  Cs23  1  0.66537903  0.33139271  0.66720442  1
  Cs  Cs24  1  0.67171825  0.66634548  0.00329800  1
  Cs  Cs25  1  0.66563155  0.66905276  0.33325414  1
  Cs  Cs26  1  0.66461511  0.66702710  0.66524905  1
  Sn  Sn27  1  0.16588012  0.49919980  0.50049421  1
  Sn  Sn28  1  0.16760910  0.49935697  0.83308560  1
  Sn  Sn29  1  0.49912402  0.16717114  0.83255045  1
  Sn  Sn30  1  0.83366622  0.16764979  0.16527421  1
  Sn  Sn31  1  0.16845208  0.16697993  0.50072119  1
  Sn  Sn32  1  0.16761758  0.49963095  0.16657272  1
  Sn  Sn33  1  0.83347059  0.83408949  0.83242606  1
  Sn  Sn34  1  0.83387648  0.50088017  0.50040986  1
  Sn  Sn35  1  0.16727441  0.16698327  0.83267387  1
  Sn  Sn36  1  0.49791645  0.16656856  0.50063126  1
  Sn  Sn37  1  0.49909520  0.49929284  0.83407320  1
  Sn  Sn38  1  0.83336008  0.83233569  0.50105132  1
  Sn  Sn39  1  0.49928126  0.49949198  0.16555658  1
  Sn  Sn40  1  0.83361021  0.16602599  0.83456290  1
  Pb  Pb41  1  0.50273593  0.83753004  0.50025559  1
  Pb  Pb42  1  0.83381777  0.16664668  0.50056007  1
  Pb  Pb43  1  0.83316688  0.49784199  0.16943633  1
  Pb  Pb44  1  0.16675277  0.82935175  0.16657554  1
  Pb  Pb45  1  0.16496241  0.16845961  0.16646983  1
  Pb  Pb46  1  0.16421392  0.83336702  0.83335965  1
  Pb  Pb47  1  0.50154795  0.16854605  0.16615421  1
  Pb  Pb48  1  0.49992754  0.82939037  0.16647826  1
  Pb  Pb49  1  0.16477013  0.83390015  0.50017977  1
  Pb  Pb50  1  0.49937966  0.49851754  0.50069082  1
  Pb  Pb51  1  0.50252297  0.83331596  0.83330656  1
  Pb  Pb52  1  0.83340503  0.83595187  0.16659393  1
  Pb  Pb53  1  0.83321691  0.49956745  0.83143093  1
  I  I54  1  0.16374724  0.00034349  0.16760611  1
  I  I55  1  0.16732131  0.00379666  0.50646828  1
  I  I56  1  0.16762524  0.00382785  0.82726609  1
  I  I57  1  0.16915948  0.33670605  0.16708792  1
  I  I58  1  0.16257327  0.33396991  0.50095526  1
  I  I59  1  0.16402486  0.33330757  0.83235848  1
  I  I60  1  0.16793561  0.66078955  0.16641825  1
  I  I61  1  0.16411601  0.66311224  0.49996708  1
  I  I62  1  0.17004391  0.66276715  0.83263325  1
  I  I63  1  0.50310813  0.00033135  0.16749221  1
  I  I64  1  0.49668770  0.00554252  0.50776038  1
  I  I65  1  0.49872501  0.00374607  0.82813914  1
  I  I66  1  0.49680605  0.33640663  0.16533242  1
  I  I67  1  0.50363653  0.33057661  0.50159223  1
  I  I68  1  0.50267822  0.33275202  0.83318868  1
  I  I69  1  0.49791899  0.66109446  0.16104710  1
  I  I70  1  0.49902227  0.66665072  0.49918624  1
  I  I71  1  0.49657756  0.66307700  0.83714155  1
  I  I72  1  0.83286857  0.00392702  0.16859160  1
  I  I73  1  0.83248765  -0.00168882  0.50134900  1
  I  I74  1  0.83323248  0.00177529  0.83007377  1
  I  I75  1  0.83319755  0.33042094  0.16070405  1
  I  I76  1  0.83484928  0.33529896  0.49961761  1
  I  I77  1  0.83321678  0.33034997  0.83497892  1
  I  I78  1  0.83343460  0.66632635  0.16478404  1
  I  I79  1  0.83880756  0.66586537  0.50502372  1
  I  I80  1  0.83351308  0.66839246  0.83006422  1
  I  I81  1  0.16725854  0.17120809  -0.00345587  1
  I  I82  1  0.16727963  0.17176902  0.33627057  1
  I  I83  1  0.16351098  0.17521076  0.66733875  1
  I  I84  1  0.17056886  0.49535794  -0.00110532  1
  I  I85  1  0.16566619  0.49533091  0.33422948  1
  I  I86  1  0.16507449  0.49512350  0.66683347  1
  I  I87  1  0.16276527  0.83469426  -0.00023295  1
  I  I88  1  0.16215620  0.83549321  0.33352261  1
  I  I89  1  0.16672781  0.82822356  0.66677686  1
  I  I90  1  0.49908270  0.16922701  -0.00355279  1
  I  I91  1  0.50001017  0.16942874  0.33572766  1
  I  I92  1  0.50367146  0.17354666  0.66810668  1
  I  I93  1  0.49352231  0.49363703  -0.00137479  1
  I  I94  1  0.49807007  0.49768606  0.33180019  1
  I  I95  1  0.49874006  0.49707459  0.66959308  1
  I  I96  1  0.50339754  0.83839957  -0.00026734  1
  I  I97  1  0.50368980  0.83355177  0.33355543  1
  I  I98  1  0.49946724  0.82702880  0.66671506  1
  I  I99  1  0.83301605  0.16184649  -0.00239314  1
  I  I100  1  0.83271809  0.16822449  0.33209195  1
  I  I101  1  0.83302375  0.16594037  0.66945976  1
  I  I102  1  0.83549628  0.50254456  -0.00016883  1
  I  I103  1  0.83683556  0.50253222  0.33723602  1
  I  I104  1  0.83701678  0.49810580  0.66366680  1
  I  I105  1  0.83329084  0.83523769  -0.00303741  1
  I  I106  1  0.83384084  0.83060990  0.33622664  1
  I  I107  1  0.83384683  0.83650724  0.66688821  1
  I  I108  1  -0.00287282  0.16936964  0.16371618  1
  I  I109  1  0.00243841  0.16875395  0.50292889  1
  I  I110  1  0.00035870  0.16770349  0.83219110  1
  I  I111  1  0.00271073  0.49811320  0.16384096  1
  I  I112  1  0.00127729  0.49685963  0.50021606  1
  I  I113  1  0.00279703  0.49702975  0.83499478  1
  I  I114  1  -0.00039246  0.83124578  0.16669418  1
  I  I115  1  -0.00331665  0.83436638  0.50433593  1
  I  I116  1  -0.00372535  0.83755894  0.82871446  1
  I  I117  1  0.33322715  0.16596289  0.16591496  1
  I  I118  1  0.33229920  0.17521483  0.50787571  1
  I  I119  1  0.33308852  0.17390831  0.82721829  1
  I  I120  1  0.33271316  0.49727878  0.16818976  1
  I  I121  1  0.33022013  0.49666425  0.49886198  1
  I  I122  1  0.33269704  0.49201473  0.83316692  1
  I  I123  1  0.33335938  0.84005462  0.16646804  1
  I  I124  1  0.33341861  0.82984471  0.49930591  1
  I  I125  1  0.33333261  0.83496819  0.83415200  1
  I  I126  1  0.66947995  0.16924245  0.16464315  1
  I  I127  1  0.66511412  0.16785535  0.50300830  1
  I  I128  1  0.66645102  0.16746919  0.83206029  1
  I  I129  1  0.66426487  0.49781966  0.16239040  1
  I  I130  1  0.66855636  0.50084130  0.50004315  1
  I  I131  1  0.66421948  0.49667830  0.83608031  1
  I  I132  1  0.66707396  0.83104566  0.16736757  1
  I  I133  1  0.67077449  0.82688977  0.50428344  1
  I  I134  1  0.67051405  0.83755667  0.82874883  1
