# generated using pymatgen
data_Cs27Sn13Pb14I81
_symmetry_space_group_name_H-M   'P 1'
_cell_length_a   19.00175382
_cell_length_b   18.99202771
_cell_length_c   18.98163196
_cell_angle_alpha   90.00074759
_cell_angle_beta   90.00156738
_cell_angle_gamma   90.00050742
_symmetry_Int_Tables_number   1
_chemical_formula_structural   Cs27Sn13Pb14I81
_chemical_formula_sum   'Cs27 Sn13 Pb14 I81'
_cell_volume   6850.12617191
_cell_formula_units_Z   1
loop_
 _symmetry_equiv_pos_site_id
 _symmetry_equiv_pos_as_xyz
  1  'x, y, z'
loop_
 _atom_site_type_symbol
 _atom_site_label
 _atom_site_symmetry_multiplicity
 _atom_site_fract_x
 _atom_site_fract_y
 _atom_site_fract_z
 _atom_site_occupancy
  Cs  Cs0  1  0.00163397  0.00086423  0.00213140  1
  Cs  Cs1  1  -0.01240987  -0.00038276  0.33235557  1
  Cs  Cs2  1  0.00186648  -0.00191189  0.66698057  1
  Cs  Cs3  1  -0.00157016  0.33180404  -0.00235487  1
  Cs  Cs4  1  0.00142613  0.33480869  0.34185474  1
  Cs  Cs5  1  0.00225329  0.33605483  0.66720064  1
  Cs  Cs6  1  0.00266550  0.66650782  0.00009173  1
  Cs  Cs7  1  0.00175394  0.66657936  0.33583834  1
  Cs  Cs8  1  -0.00177501  0.66488638  0.66534709  1
  Cs  Cs9  1  0.33231265  -0.00267362  -0.00045788  1
  Cs  Cs10  1  0.33339999  0.00251296  0.33874756  1
  Cs  Cs11  1  0.33413417  -0.00275534  0.66463268  1
  Cs  Cs12  1  0.33342095  0.33299062  0.00093397  1
  Cs  Cs13  1  0.33038110  0.33392906  0.33299532  1
  Cs  Cs14  1  0.33428371  0.33168248  0.66584968  1
  Cs  Cs15  1  0.33302493  0.67286818  0.00831768  1
  Cs  Cs16  1  0.33254435  0.66560429  0.32605068  1
  Cs  Cs17  1  0.33563887  0.67174226  0.66713884  1
  Cs  Cs18  1  0.66630370  0.00021844  0.00189498  1
  Cs  Cs19  1  0.67793778  0.00168915  0.33343261  1
  Cs  Cs20  1  0.66405935  -0.00058330  0.66585206  1
  Cs  Cs21  1  0.66720601  0.33383106  -0.00190651  1
  Cs  Cs22  1  0.66737173  0.32951859  0.33319217  1
  Cs  Cs23  1  0.66417364  0.33556486  0.66888087  1
  Cs  Cs24  1  0.66351503  0.66400345  0.00090754  1
  Cs  Cs25  1  0.66628412  0.66983511  0.33264411  1
  Cs  Cs26  1  0.66599131  0.66576055  0.66637578  1
  Sn  Sn27  1  0.16715030  0.83333421  0.49977705  1
  Sn  Sn28  1  0.16766506  0.49991307  0.83348426  1
  Sn  Sn29  1  0.49899694  0.49981578  0.83309505  1
  Sn  Sn30  1  0.49926469  0.83230905  0.49977107  1
  Sn  Sn31  1  0.16715567  0.16729898  0.83393885  1
  Sn  Sn32  1  0.83332541  0.50017148  0.83425162  1
  Sn  Sn33  1  0.83328012  0.16644488  0.83337549  1
  Sn  Sn34  1  0.83347563  0.49971258  0.16603970  1
  Sn  Sn35  1  0.16717848  0.16673888  0.16612156  1
  Sn  Sn36  1  0.49980005  0.50090407  0.50039351  1
  Sn  Sn37  1  0.49958743  0.16719613  0.83426894  1
  Sn  Sn38  1  0.83313924  0.83313874  0.83363998  1
  Sn  Sn39  1  0.49908595  0.16662072  0.16568243  1
  Pb  Pb40  1  0.50146164  0.49788640  0.16635133  1
  Pb  Pb41  1  0.16484563  0.83338743  0.83223035  1
  Pb  Pb42  1  0.83081054  0.50001262  0.50041073  1
  Pb  Pb43  1  0.16441385  0.49757847  0.16430243  1
  Pb  Pb44  1  0.16958099  0.50203203  0.50254701  1
  Pb  Pb45  1  0.16656490  0.83649210  0.16960218  1
  Pb  Pb46  1  0.83298684  0.83302817  0.50225261  1
  Pb  Pb47  1  0.50008232  0.83675575  0.16994033  1
  Pb  Pb48  1  0.83373349  0.16890415  0.16437476  1
  Pb  Pb49  1  0.16660358  0.16471392  0.50025248  1
  Pb  Pb50  1  0.50000422  0.16693856  0.50004489  1
  Pb  Pb51  1  0.50174125  0.83335233  0.83233712  1
  Pb  Pb52  1  0.83335079  0.83026282  0.16349049  1
  Pb  Pb53  1  0.83340617  0.16714725  0.50356513  1
  I  I54  1  0.16993820  0.00436617  0.15718787  1
  I  I55  1  0.17497968  -0.00283264  0.50409322  1
  I  I56  1  0.16604090  0.00334369  0.83499122  1
  I  I57  1  0.17130982  0.32977666  0.16467109  1
  I  I58  1  0.16713028  0.33344613  0.49872590  1
  I  I59  1  0.16214811  0.33284917  0.83564772  1
  I  I60  1  0.16531117  0.66649594  0.16560277  1
  I  I61  1  0.16743799  0.66959725  0.50371255  1
  I  I62  1  0.16500821  0.66373486  0.82965426  1
  I  I63  1  0.49724986  0.00466580  0.15898893  1
  I  I64  1  0.49569953  -0.00235446  0.50169218  1
  I  I65  1  0.50064721  0.00325371  0.83467753  1
  I  I66  1  0.49733779  0.33013335  0.16641387  1
  I  I67  1  0.50227873  0.33597812  0.50350962  1
  I  I68  1  0.50440031  0.33345768  0.83069884  1
  I  I69  1  0.50180692  0.66656646  0.16432298  1
  I  I70  1  0.49780574  0.66596809  0.50850785  1
  I  I71  1  0.50175433  0.66357725  0.82964708  1
  I  I72  1  0.83305042  0.00037309  0.16674793  1
  I  I73  1  0.83055678  -0.00015067  0.50090484  1
  I  I74  1  0.83332917  0.00104121  0.83077050  1
  I  I75  1  0.83175826  0.33614146  0.15836291  1
  I  I76  1  0.83166153  0.33373574  0.50103895  1
  I  I77  1  0.83272065  0.33365227  0.83710669  1
  I  I78  1  0.83167825  0.66264574  0.15959464  1
  I  I79  1  0.83492330  0.66652337  0.50370631  1
  I  I80  1  0.83328903  0.66522366  0.83569930  1
  I  I81  1  0.16690628  0.17002447  -0.00211201  1
  I  I82  1  0.17356764  0.16551444  0.33036121  1
  I  I83  1  0.16657507  0.16953499  0.67055943  1
  I  I84  1  0.17102479  0.49936770  -0.00440480  1
  I  I85  1  0.16496471  0.49866650  0.33336876  1
  I  I86  1  0.15983927  0.49256649  0.67094832  1
  I  I87  1  0.16480870  0.83165714  -0.00002188  1
  I  I88  1  0.17190530  0.83318257  0.33743085  1
  I  I89  1  0.17037798  0.83591668  0.66453711  1
  I  I90  1  0.50052816  0.17287650  -0.00219231  1
  I  I91  1  0.49429219  0.16738411  0.33050490  1
  I  I92  1  0.50050079  0.16771068  0.67018054  1
  I  I93  1  0.50048781  0.49661286  -0.00364958  1
  I  I94  1  0.50329952  0.50245305  0.33581289  1
  I  I95  1  0.50296278  0.49750865  0.66882833  1
  I  I96  1  0.50171658  0.83089494  0.00013693  1
  I  I97  1  0.49580842  0.82600598  0.33787285  1
  I  I98  1  0.49764668  0.83452427  0.66438136  1
  I  I99  1  0.83292221  0.16565709  -0.00419552  1
  I  I100  1  0.83265142  0.16756375  0.33276752  1
  I  I101  1  0.83241823  0.17017180  0.67254462  1
  I  I102  1  0.83039492  0.49928012  -0.00320944  1
  I  I103  1  0.83117787  0.49879194  0.33068300  1
  I  I104  1  0.83503015  0.49935123  0.67083172  1
  I  I105  1  0.83370224  0.83683785  -0.00450089  1
  I  I106  1  0.83321762  0.83298616  0.33330326  1
  I  I107  1  0.83323274  0.83126041  0.67022652  1
  I  I108  1  0.00249955  0.16686566  0.16128165  1
  I  I109  1  0.00016437  0.16344272  0.49871481  1
  I  I110  1  0.00024191  0.16923043  0.83627718  1
  I  I111  1  -0.00321831  0.49810999  0.15896813  1
  I  I112  1  0.00018757  0.50149245  0.50076561  1
  I  I113  1  -0.00041056  0.49693232  0.83761944  1
  I  I114  1  -0.00011577  0.83649248  0.16981327  1
  I  I115  1  0.00227607  0.83575238  0.50270141  1
  I  I116  1  -0.00303668  0.83322400  0.82959697  1
  I  I117  1  0.33357116  0.16737761  0.15745620  1
  I  I118  1  0.33346159  0.16723913  0.50476467  1
  I  I119  1  0.33355142  0.17404009  0.83650420  1
  I  I120  1  0.33328059  0.50039505  0.16653635  1
  I  I121  1  0.33720338  0.50023221  0.50610481  1
  I  I122  1  0.33390745  0.49109468  0.82684001  1
  I  I123  1  0.33340176  0.82988442  0.16283058  1
  I  I124  1  0.33424243  0.83089541  0.50407255  1
  I  I125  1  0.33338277  0.83365835  0.83214628  1
  I  I126  1  0.66438433  0.16817268  0.16324266  1
  I  I127  1  0.66635547  0.16318554  0.49826381  1
  I  I128  1  0.66621365  0.16964871  0.83609308  1
  I  I129  1  0.66902266  0.49713162  0.15929288  1
  I  I130  1  0.66308459  0.50588693  0.50763391  1
  I  I131  1  0.66654272  0.49701046  0.83245390  1
  I  I132  1  0.66671702  0.83684875  0.16973229  1
  I  I133  1  0.66374040  0.82967562  0.50228598  1
  I  I134  1  0.66961738  0.83352882  0.82986742  1
