# generated using pymatgen
data_Cs27Sn14Pb13I81
_symmetry_space_group_name_H-M   'P 1'
_cell_length_a   18.98190856
_cell_length_b   18.97743487
_cell_length_c   18.96964900
_cell_angle_alpha   90.00072971
_cell_angle_beta   89.99974982
_cell_angle_gamma   89.99875480
_symmetry_Int_Tables_number   1
_chemical_formula_structural   Cs27Sn14Pb13I81
_chemical_formula_sum   'Cs27 Sn14 Pb13 I81'
_cell_volume   6833.39745445
_cell_formula_units_Z   1
loop_
 _symmetry_equiv_pos_site_id
 _symmetry_equiv_pos_as_xyz
  1  'x, y, z'
loop_
 _atom_site_type_symbol
 _atom_site_label
 _atom_site_symmetry_multiplicity
 _atom_site_fract_x
 _atom_site_fract_y
 _atom_site_fract_z
 _atom_site_occupancy
  Cs  Cs0  1  0.00283696  0.00122290  0.00282918  1
  Cs  Cs1  1  0.00099846  -0.00027618  0.33349945  1
  Cs  Cs2  1  0.00082076  0.00146071  0.66535729  1
  Cs  Cs3  1  -0.00077930  0.33356354  -0.00223656  1
  Cs  Cs4  1  0.00029215  0.33255945  0.33454920  1
  Cs  Cs5  1  0.00162750  0.33362237  0.66765659  1
  Cs  Cs6  1  -0.00901901  0.66391183  0.00168249  1
  Cs  Cs7  1  0.00080765  0.66802485  0.33476715  1
  Cs  Cs8  1  0.00279941  0.66364350  0.66638104  1
  Cs  Cs9  1  0.33134718  -0.00240043  0.00466972  1
  Cs  Cs10  1  0.33225858  0.00273324  0.32761880  1
  Cs  Cs11  1  0.33267685  -0.00019317  0.66692201  1
  Cs  Cs12  1  0.33327151  0.33318387  0.00107639  1
  Cs  Cs13  1  0.33619787  0.33253270  0.32874218  1
  Cs  Cs14  1  0.33353536  0.33500641  0.66764189  1
  Cs  Cs15  1  0.33714345  0.66996604  0.00398534  1
  Cs  Cs16  1  0.33268187  0.66553967  0.33289205  1
  Cs  Cs17  1  0.33225948  0.66544347  0.66584376  1
  Cs  Cs18  1  0.66689124  -0.00977972  -0.00430211  1
  Cs  Cs19  1  0.66610344  0.00374034  0.33751992  1
  Cs  Cs20  1  0.66597105  0.00008952  0.66582043  1
  Cs  Cs21  1  0.66721264  0.33676722  0.00130845  1
  Cs  Cs22  1  0.66407975  0.33373906  0.33256433  1
  Cs  Cs23  1  0.66488633  0.33147935  0.66580574  1
  Cs  Cs24  1  0.67177022  0.67177365  0.00656407  1
  Cs  Cs25  1  0.66706553  0.66336805  0.33136889  1
  Cs  Cs26  1  0.66502138  0.66883986  0.66666313  1
  Sn  Sn27  1  0.50021483  0.49997193  0.83296528  1
  Sn  Sn28  1  0.16639421  0.16618217  0.50060342  1
  Sn  Sn29  1  0.49952032  0.83264222  0.50033665  1
  Sn  Sn30  1  0.49984257  0.16722919  0.83316701  1
  Sn  Sn31  1  0.50068438  0.50058288  0.50101805  1
  Sn  Sn32  1  0.16705151  0.16593776  0.83240764  1
  Sn  Sn33  1  0.83324478  0.16667659  0.83335368  1
  Sn  Sn34  1  0.16641375  0.83362944  0.83259943  1
  Sn  Sn35  1  0.83350372  0.83329009  0.50048879  1
  Sn  Sn36  1  0.83292424  0.16650072  0.16657655  1
  Sn  Sn37  1  0.83416000  0.16698276  0.50022704  1
  Sn  Sn38  1  0.16707105  0.83441089  0.50089012  1
  Sn  Sn39  1  0.83257605  0.49964206  0.50059241  1
  Sn  Sn40  1  0.16632547  0.49993271  0.16647506  1
  Pb  Pb41  1  0.49944588  0.16677826  0.50137719  1
  Pb  Pb42  1  0.83078967  0.49813774  0.83107789  1
  Pb  Pb43  1  0.50324980  0.16657803  0.16260446  1
  Pb  Pb44  1  0.16874064  0.50027576  0.83546909  1
  Pb  Pb45  1  0.16713840  0.49959680  0.49895072  1
  Pb  Pb46  1  0.49795936  0.83321105  0.83142144  1
  Pb  Pb47  1  0.50015667  0.83353162  0.17024547  1
  Pb  Pb48  1  0.83517039  0.49787881  0.16933366  1
  Pb  Pb49  1  0.16502518  0.16819499  0.16651426  1
  Pb  Pb50  1  0.49858086  0.49995504  0.16655733  1
  Pb  Pb51  1  0.16636121  0.83105427  0.16670231  1
  Pb  Pb52  1  0.83601734  0.83551474  0.83088379  1
  Pb  Pb53  1  0.83350517  0.83609474  0.16963073  1
  I  I54  1  0.16563883  0.00006436  0.16720963  1
  I  I55  1  0.16341978  0.00041686  0.50316534  1
  I  I56  1  0.16818435  0.00159405  0.82878390  1
  I  I57  1  0.16606214  0.33552930  0.16866509  1
  I  I58  1  0.16251049  0.33037777  0.50324179  1
  I  I59  1  0.16451971  0.32995085  0.82948989  1
  I  I60  1  0.16779799  0.66370202  0.16895447  1
  I  I61  1  0.16403008  0.66933697  0.50248972  1
  I  I62  1  0.16954611  0.66938277  0.82759760  1
  I  I63  1  0.49808446  0.00032266  0.16758763  1
  I  I64  1  0.50280815  -0.00219491  0.50207625  1
  I  I65  1  0.50264196  0.00285888  0.83111653  1
  I  I66  1  0.49900990  0.33317625  0.17276261  1
  I  I67  1  0.50301935  0.33569589  0.50200211  1
  I  I68  1  0.49823304  0.33262335  0.82599436  1
  I  I69  1  0.49913618  0.66654452  0.16183217  1
  I  I70  1  0.50237692  0.66625347  0.50579910  1
  I  I71  1  0.49570685  0.66424834  0.82910399  1
  I  I72  1  0.83597098  0.00407497  0.16831950  1
  I  I73  1  0.83359457  0.00090536  0.49991204  1
  I  I74  1  0.82748152  0.00425762  0.83062403  1
  I  I75  1  0.83489668  0.33002425  0.16907419  1
  I  I76  1  0.83379289  0.33197322  0.50018342  1
  I  I77  1  0.83920897  0.32935151  0.82996628  1
  I  I78  1  0.83422452  0.66660562  0.16773983  1
  I  I79  1  0.83372126  0.66684932  0.49973722  1
  I  I80  1  0.83411092  0.66680818  0.83197137  1
  I  I81  1  0.16585038  0.16395849  -0.00341867  1
  I  I82  1  0.16191868  0.16365986  0.33649711  1
  I  I83  1  0.16162999  0.16396695  0.66645952  1
  I  I84  1  0.16871694  0.49779125  0.00263922  1
  I  I85  1  0.16740425  0.49902185  0.33165675  1
  I  I86  1  0.16535277  0.49958866  0.66665839  1
  I  I87  1  0.16874353  0.83882406  -0.00313485  1
  I  I88  1  0.16627012  0.83699282  0.33728281  1
  I  I89  1  0.16651954  0.83752668  0.66500749  1
  I  I90  1  0.49697179  0.17388860  -0.00554623  1
  I  I91  1  0.49950083  0.16682102  0.33344122  1
  I  I92  1  0.50378258  0.16774390  0.66937729  1
  I  I93  1  0.49593027  0.49291518  -0.00309060  1
  I  I94  1  0.50288968  0.50423305  0.33680505  1
  I  I95  1  0.50225475  0.49904620  0.66551551  1
  I  I96  1  0.49753712  0.83322436  -0.00051099  1
  I  I97  1  0.49726947  0.82736733  0.33909018  1
  I  I98  1  0.50233453  0.83234818  0.66303588  1
  I  I99  1  0.83461473  0.16850957  -0.00113399  1
  I  I100  1  0.83906105  0.16618983  0.33562974  1
  I  I101  1  0.83437637  0.16654352  0.66569540  1
  I  I102  1  0.83325400  0.49777417  -0.00009759  1
  I  I103  1  0.82752090  0.49759137  0.33781381  1
  I  I104  1  0.83416912  0.49750616  0.66255973  1
  I  I105  1  0.83468634  0.83440030  -0.00031812  1
  I  I106  1  0.83668700  0.83539947  0.33842588  1
  I  I107  1  0.83083794  0.83608781  0.66238371  1
  I  I108  1  -0.00277071  0.16822208  0.16469493  1
  I  I109  1  -0.00071831  0.16474127  0.50360798  1
  I  I110  1  0.00018796  0.16227488  0.83189457  1
  I  I111  1  0.00256840  0.49948299  0.16802771  1
  I  I112  1  -0.00226621  0.50092863  0.49712088  1
  I  I113  1  0.00000743  0.49908885  0.83301039  1
  I  I114  1  -0.00000276  0.83232297  0.16932665  1
  I  I115  1  0.00028152  0.83450989  0.50295350  1
  I  I116  1  0.00393335  0.83806052  0.82718844  1
  I  I117  1  0.33332151  0.16817750  0.16828809  1
  I  I118  1  0.33045894  0.16433381  0.50481747  1
  I  I119  1  0.33241064  0.16748298  0.82646643  1
  I  I120  1  0.33094009  0.49799423  0.17035126  1
  I  I121  1  0.33596830  0.50291280  0.50207651  1
  I  I122  1  0.33633405  0.49322829  0.82526832  1
  I  I123  1  0.33300866  0.83363121  0.16882036  1
  I  I124  1  0.33263585  0.83235572  0.50469981  1
  I  I125  1  0.33018191  0.83909516  0.82618049  1
  I  I126  1  0.67098813  0.16879773  0.17310320  1
  I  I127  1  0.66946392  0.16432366  0.50077577  1
  I  I128  1  0.66709024  0.17234532  0.83154335  1
  I  I129  1  0.66694355  0.49849114  0.16608222  1
  I  I130  1  0.66673699  0.50184829  0.50304402  1
  I  I131  1  0.66288066  0.49351487  0.83066869  1
  I  I132  1  0.66697782  0.83276486  0.16554911  1
  I  I133  1  0.66706616  0.83415928  0.49909471  1
  I  I134  1  0.66673286  0.83528157  0.83156117  1
