# generated using pymatgen
data_Cs27Sn14Pb13I81
_symmetry_space_group_name_H-M   'P 1'
_cell_length_a   18.97005226
_cell_length_b   18.97333240
_cell_length_c   18.98341828
_cell_angle_alpha   89.99998493
_cell_angle_beta   89.99742993
_cell_angle_gamma   90.00188656
_symmetry_Int_Tables_number   1
_chemical_formula_structural   Cs27Sn14Pb13I81
_chemical_formula_sum   'Cs27 Sn14 Pb13 I81'
_cell_volume   6832.60884950
_cell_formula_units_Z   1
loop_
 _symmetry_equiv_pos_site_id
 _symmetry_equiv_pos_as_xyz
  1  'x, y, z'
loop_
 _atom_site_type_symbol
 _atom_site_label
 _atom_site_symmetry_multiplicity
 _atom_site_fract_x
 _atom_site_fract_y
 _atom_site_fract_z
 _atom_site_occupancy
  Cs  Cs0  1  -0.00046489  0.00177309  0.00518845  1
  Cs  Cs1  1  -0.00134074  0.00505972  0.33425794  1
  Cs  Cs2  1  -0.00099234  0.00331187  0.66277703  1
  Cs  Cs3  1  0.00249779  0.33169234  0.00459060  1
  Cs  Cs4  1  0.00118299  0.33063619  0.33218549  1
  Cs  Cs5  1  0.00202179  0.33320351  0.66505189  1
  Cs  Cs6  1  0.00042104  0.66653526  -0.00208768  1
  Cs  Cs7  1  -0.00219307  0.66554926  0.33341886  1
  Cs  Cs8  1  -0.00002041  0.66628633  0.66878377  1
  Cs  Cs9  1  0.33351359  -0.00984664  -0.00196482  1
  Cs  Cs10  1  0.33337826  -0.00042508  0.33168946  1
  Cs  Cs11  1  0.33380116  0.00208073  0.66883406  1
  Cs  Cs12  1  0.33326162  0.33454821  0.00179455  1
  Cs  Cs13  1  0.33546402  0.33325061  0.33559024  1
  Cs  Cs14  1  0.33265426  0.33239268  0.66454850  1
  Cs  Cs15  1  0.32473576  0.67468965  -0.00091357  1
  Cs  Cs16  1  0.33562382  0.66868214  0.33264308  1
  Cs  Cs17  1  0.33112411  0.66812344  0.66755394  1
  Cs  Cs18  1  0.66562816  0.00140200  -0.00545935  1
  Cs  Cs19  1  0.66824262  -0.00390619  0.33592237  1
  Cs  Cs20  1  0.66770486  -0.00093714  0.66929004  1
  Cs  Cs21  1  0.66583301  0.33348010  -0.00075140  1
  Cs  Cs22  1  0.66285093  0.33619286  0.33205471  1
  Cs  Cs23  1  0.66522896  0.33405359  0.66915915  1
  Cs  Cs24  1  0.67000252  0.66420468  0.00178185  1
  Cs  Cs25  1  0.66697796  0.66628582  0.33202437  1
  Cs  Cs26  1  0.66856231  0.66546561  0.66601244  1
  Sn  Sn27  1  0.50024551  0.49974869  0.16615284  1
  Sn  Sn28  1  0.49999658  0.16703321  0.16729150  1
  Sn  Sn29  1  0.83315235  0.49971401  0.49995417  1
  Sn  Sn30  1  0.83344339  0.83281867  0.83395448  1
  Sn  Sn31  1  0.83297575  0.50023046  0.83356237  1
  Sn  Sn32  1  0.16669555  0.83344930  0.49982462  1
  Sn  Sn33  1  0.49987742  0.49957949  0.50024157  1
  Sn  Sn34  1  0.49990532  0.50029113  0.83366148  1
  Sn  Sn35  1  0.16780924  0.16662153  0.50076923  1
  Sn  Sn36  1  0.49961055  0.16722301  0.49931751  1
  Sn  Sn37  1  0.83307719  0.83261836  0.16586236  1
  Sn  Sn38  1  0.16696912  0.50026382  0.49980542  1
  Sn  Sn39  1  0.83285008  0.50039589  0.16648823  1
  Sn  Sn40  1  0.16674684  0.16700479  0.83319251  1
  Pb  Pb41  1  0.50251346  0.82998241  0.83321277  1
  Pb  Pb42  1  0.50241653  0.83288539  0.16665718  1
  Pb  Pb43  1  0.49798588  0.83332103  0.50016307  1
  Pb  Pb44  1  0.16344001  0.83326890  0.16924058  1
  Pb  Pb45  1  0.83238381  0.16948200  0.49996885  1
  Pb  Pb46  1  0.83025278  0.16711109  0.16675744  1
  Pb  Pb47  1  0.16988837  0.16667290  0.16704879  1
  Pb  Pb48  1  0.16647365  0.49857465  0.83141067  1
  Pb  Pb49  1  0.83515872  0.83099668  0.50009467  1
  Pb  Pb50  1  0.16702558  0.50008833  0.16920673  1
  Pb  Pb51  1  0.83560720  0.16742245  0.83339863  1
  Pb  Pb52  1  0.49803714  0.16876623  0.83332511  1
  Pb  Pb53  1  0.16367634  0.83587210  0.83111515  1
  I  I54  1  0.16596673  0.00008981  0.16923421  1
  I  I55  1  0.17037501  0.00129914  0.50403091  1
  I  I56  1  0.16677762  0.00344598  0.82627404  1
  I  I57  1  0.16008344  0.33338691  0.16793819  1
  I  I58  1  0.16718529  0.33350029  0.50402665  1
  I  I59  1  0.16492411  0.33092020  0.82568800  1
  I  I60  1  0.17202564  0.66655496  0.16898808  1
  I  I61  1  0.16584637  0.66526253  0.49896764  1
  I  I62  1  0.16874236  0.66668520  0.83105101  1
  I  I63  1  0.50011405  0.00286670  0.17346618  1
  I  I64  1  0.49506901  0.00347993  0.49481533  1
  I  I65  1  0.50080681  0.00013223  0.83282291  1
  I  I66  1  0.50552719  0.33514501  0.16850327  1
  I  I67  1  0.49586006  0.33487503  0.49915518  1
  I  I68  1  0.50704156  0.33702992  0.83235909  1
  I  I69  1  0.50283039  0.66284515  0.16956561  1
  I  I70  1  0.49979294  0.66267093  0.49867403  1
  I  I71  1  0.50019380  0.66149302  0.83179034  1
  I  I72  1  0.83354841  -0.00276457  0.16189393  1
  I  I73  1  0.83437182  -0.00008197  0.49988889  1
  I  I74  1  0.83591984  -0.00270622  0.83815492  1
  I  I75  1  0.83209017  0.33711157  0.16645864  1
  I  I76  1  0.83792935  0.33809753  0.50021648  1
  I  I77  1  0.82986253  0.33730903  0.83299840  1
  I  I78  1  0.82773451  0.66457340  0.16738957  1
  I  I79  1  0.83250197  0.66241199  0.49986694  1
  I  I80  1  0.83013095  0.66473917  0.83327900  1
  I  I81  1  0.16557392  0.16839318  -0.00235241  1
  I  I82  1  0.16765515  0.16756987  0.33705766  1
  I  I83  1  0.17169785  0.16748992  0.66426978  1
  I  I84  1  0.16673472  0.49742457  -0.00009819  1
  I  I85  1  0.16550736  0.49647976  0.33801554  1
  I  I86  1  0.16622008  0.50105422  0.66274753  1
  I  I87  1  0.16818874  0.83538982  -0.00020069  1
  I  I88  1  0.16523160  0.83493308  0.33732110  1
  I  I89  1  0.16406365  0.82977192  0.66329980  1
  I  I90  1  0.50033989  0.17245755  0.00244533  1
  I  I91  1  0.49422949  0.17618324  0.33459570  1
  I  I92  1  0.49701428  0.17196954  0.66363860  1
  I  I93  1  0.50957025  0.49417116  0.00058229  1
  I  I94  1  0.50260640  0.49594856  0.33385443  1
  I  I95  1  0.50313630  0.49636845  0.66568297  1
  I  I96  1  0.49652251  0.83590599  -0.00003480  1
  I  I97  1  0.50244054  0.82940189  0.33346108  1
  I  I98  1  0.50305947  0.83360105  0.66663595  1
  I  I99  1  0.83471737  0.17061792  0.00007562  1
  I  I100  1  0.83926445  0.16508698  0.33343075  1
  I  I101  1  0.82980913  0.16575737  0.66660054  1
  I  I102  1  0.82539305  0.50418834  0.00007378  1
  I  I103  1  0.83121572  0.50384936  0.33330305  1
  I  I104  1  0.83096799  0.50345420  0.66661274  1
  I  I105  1  0.83342617  0.82386587  -0.00000253  1
  I  I106  1  0.83428014  0.82842571  0.33099988  1
  I  I107  1  0.83491078  0.82821065  0.66907280  1
  I  I108  1  -0.00002846  0.16662551  0.16719067  1
  I  I109  1  0.00295883  0.16758735  0.50414642  1
  I  I110  1  0.00332793  0.16862008  0.82466873  1
  I  I111  1  -0.00336047  0.50436056  0.16645952  1
  I  I112  1  -0.00004147  0.50050439  0.50064261  1
  I  I113  1  -0.00320334  0.50279572  0.83258864  1
  I  I114  1  -0.00438906  0.82559002  0.16264549  1
  I  I115  1  0.00313592  0.83381455  0.49993816  1
  I  I116  1  -0.00383124  0.82406673  0.83651378  1
  I  I117  1  0.33750800  0.17558778  0.16940970  1
  I  I118  1  0.33319131  0.17248001  0.49999899  1
  I  I119  1  0.33040712  0.16977590  0.82929679  1
  I  I120  1  0.33696711  0.49430313  0.16740370  1
  I  I121  1  0.33393433  0.49865896  0.50011302  1
  I  I122  1  0.33605766  0.49588496  0.83241121  1
  I  I123  1  0.33335331  0.83285373  0.16752359  1
  I  I124  1  0.32989271  0.82803244  0.50039036  1
  I  I125  1  0.33295475  0.83252372  0.83274301  1
  I  I126  1  0.66257712  0.16975915  0.17336364  1
  I  I127  1  0.66296493  0.17180054  0.49584600  1
  I  I128  1  0.66645806  0.16447695  0.83233372  1
  I  I129  1  0.66681208  0.50008786  0.17135395  1
  I  I130  1  0.66620222  0.49592415  0.49997905  1
  I  I131  1  0.66713525  0.50242965  0.82845446  1
  I  I132  1  0.67036862  0.83035003  0.16515963  1
  I  I133  1  0.66702123  0.83407758  0.49982703  1
  I  I134  1  0.67068220  0.83346428  0.83535851  1
