# generated using pymatgen
data_Cs27Sn13Pb14I81
_symmetry_space_group_name_H-M   'P 1'
_cell_length_a   18.98071673
_cell_length_b   18.97542211
_cell_length_c   18.97467063
_cell_angle_alpha   90.00137840
_cell_angle_beta   89.99985230
_cell_angle_gamma   89.99886810
_symmetry_Int_Tables_number   1
_chemical_formula_structural   Cs27Sn13Pb14I81
_chemical_formula_sum   'Cs27 Sn13 Pb14 I81'
_cell_volume   6834.05231495
_cell_formula_units_Z   1
loop_
 _symmetry_equiv_pos_site_id
 _symmetry_equiv_pos_as_xyz
  1  'x, y, z'
loop_
 _atom_site_type_symbol
 _atom_site_label
 _atom_site_symmetry_multiplicity
 _atom_site_fract_x
 _atom_site_fract_y
 _atom_site_fract_z
 _atom_site_occupancy
  Cs  Cs0  1  0.00142786  -0.00043249  0.00360684  1
  Cs  Cs1  1  -0.00690441  0.00033297  0.33366616  1
  Cs  Cs2  1  -0.00155106  -0.00286116  0.66311642  1
  Cs  Cs3  1  0.00633088  0.33395398  0.00306042  1
  Cs  Cs4  1  0.00001453  0.33096221  0.33327707  1
  Cs  Cs5  1  -0.00018613  0.33557408  0.66552915  1
  Cs  Cs6  1  0.00084902  0.66562846  -0.00154992  1
  Cs  Cs7  1  -0.00029535  0.66864375  0.33606081  1
  Cs  Cs8  1  0.00077811  0.66575182  0.66784591  1
  Cs  Cs9  1  0.33226980  0.00286054  -0.00120171  1
  Cs  Cs10  1  0.33433140  -0.00107646  0.33554692  1
  Cs  Cs11  1  0.33303195  0.00192634  0.66635610  1
  Cs  Cs12  1  0.32474413  0.33026195  0.00227660  1
  Cs  Cs13  1  0.33453231  0.33405271  0.33275685  1
  Cs  Cs14  1  0.33263364  0.32987619  0.66606055  1
  Cs  Cs15  1  0.33119427  0.66606204  0.00241379  1
  Cs  Cs16  1  0.34231531  0.66747357  0.33357100  1
  Cs  Cs17  1  0.33364120  0.66801106  0.66452507  1
  Cs  Cs18  1  0.66572580  -0.00103765  -0.00045954  1
  Cs  Cs19  1  0.67237127  -0.00257378  0.32965912  1
  Cs  Cs20  1  0.66823076  0.00240431  0.66882794  1
  Cs  Cs21  1  0.66718113  0.33391502  -0.00275621  1
  Cs  Cs22  1  0.66537087  0.33301765  0.33415358  1
  Cs  Cs23  1  0.66719739  0.33401143  0.66672824  1
  Cs  Cs24  1  0.66726165  0.66732239  -0.00102097  1
  Cs  Cs25  1  0.65775236  0.67002956  0.32964494  1
  Cs  Cs26  1  0.66595255  0.66422690  0.66889129  1
  Sn  Sn27  1  0.16638770  0.49953620  0.49994788  1
  Sn  Sn28  1  0.83314083  0.50007511  0.16678689  1
  Sn  Sn29  1  0.83359285  0.50030188  0.49947315  1
  Sn  Sn30  1  0.16698857  0.16727331  0.49999048  1
  Sn  Sn31  1  0.49975252  0.50015147  0.83356361  1
  Sn  Sn32  1  0.49972356  0.83244282  0.83323513  1
  Sn  Sn33  1  0.83348185  0.83342115  0.83333041  1
  Sn  Sn34  1  0.83401920  0.16713639  0.83364266  1
  Sn  Sn35  1  0.16666882  0.83315939  0.16658226  1
  Sn  Sn36  1  0.49994451  0.16667424  0.49891112  1
  Sn  Sn37  1  0.83304011  0.49961824  0.83356602  1
  Sn  Sn38  1  0.16672117  0.83325366  0.83402018  1
  Sn  Sn39  1  0.50019667  0.16682286  0.16733341  1
  Pb  Pb40  1  0.50011413  0.49825198  0.50202613  1
  Pb  Pb41  1  0.16830798  0.16459512  0.16952048  1
  Pb  Pb42  1  0.16375479  0.16412089  0.83122734  1
  Pb  Pb43  1  0.50036787  0.83629687  0.50246294  1
  Pb  Pb44  1  0.50119269  0.16703455  0.83326081  1
  Pb  Pb45  1  0.83285391  0.83006422  0.50200702  1
  Pb  Pb46  1  0.83153818  0.16881636  0.16419546  1
  Pb  Pb47  1  0.16474245  0.50207433  0.16982943  1
  Pb  Pb48  1  0.16675230  0.50172103  0.83169703  1
  Pb  Pb49  1  0.49812485  0.83541319  0.16398857  1
  Pb  Pb50  1  0.16668453  0.83319782  0.49978809  1
  Pb  Pb51  1  0.83321146  0.16858922  0.50157222  1
  Pb  Pb52  1  0.83497272  0.83100666  0.16437640  1
  Pb  Pb53  1  0.50177426  0.49800727  0.16367261  1
  I  I54  1  0.16674672  -0.00306401  0.16171915  1
  I  I55  1  0.17184948  0.00257181  0.50214330  1
  I  I56  1  0.16805173  -0.00391732  0.83442889  1
  I  I57  1  0.16673683  0.33335000  0.16553641  1
  I  I58  1  0.16605430  0.33353741  0.50144441  1
  I  I59  1  0.16705765  0.33323856  0.83341040  1
  I  I60  1  0.16581166  0.66966354  0.16199424  1
  I  I61  1  0.16039019  0.66397226  0.50216678  1
  I  I62  1  0.16238927  0.66981668  0.83359901  1
  I  I63  1  0.50024790  0.00313359  0.16848805  1
  I  I64  1  0.49253697  0.00431157  0.49984232  1
  I  I65  1  0.50167742  -0.00248967  0.83289345  1
  I  I66  1  0.50046018  0.33035324  0.16796432  1
  I  I67  1  0.49900454  0.33043664  0.50073156  1
  I  I68  1  0.50752311  0.33568153  0.83193075  1
  I  I69  1  0.49994870  0.66665078  0.16745256  1
  I  I70  1  0.49904170  0.66642647  0.50004147  1
  I  I71  1  0.50579971  0.66676774  0.83270171  1
  I  I72  1  0.83351896  -0.00005991  0.16488853  1
  I  I73  1  0.83468685  0.00013158  0.50310105  1
  I  I74  1  0.83203225  -0.00074308  0.83219236  1
  I  I75  1  0.83339496  0.33679739  0.16321959  1
  I  I76  1  0.83448733  0.33669640  0.50487431  1
  I  I77  1  0.82634687  0.33497846  0.83185716  1
  I  I78  1  0.83357452  0.66305877  0.16439793  1
  I  I79  1  0.84088265  0.66178396  0.50352828  1
  I  I80  1  0.83263806  0.66605831  0.83267257  1
  I  I81  1  0.16803461  0.16738982  -0.00004005  1
  I  I82  1  0.16714896  0.16873750  0.33731429  1
  I  I83  1  0.17326397  0.16862896  0.66358069  1
  I  I84  1  0.16596592  0.49951927  0.00001476  1
  I  I85  1  0.16091504  0.49785692  0.33761059  1
  I  I86  1  0.16093672  0.49881252  0.66392395  1
  I  I87  1  0.16586741  0.83279613  -0.00174797  1
  I  I88  1  0.16639102  0.83332004  0.33087933  1
  I  I89  1  0.16568807  0.83316258  0.66968707  1
  I  I90  1  0.50361012  0.16574634  0.00151115  1
  I  I91  1  0.49569722  0.16876017  0.33417466  1
  I  I92  1  0.49740761  0.16651767  0.66468520  1
  I  I93  1  0.50674084  0.50204809  -0.00433618  1
  I  I94  1  0.50145604  0.50037084  0.33332900  1
  I  I95  1  0.50631696  0.50155622  0.67000827  1
  I  I96  1  0.50352173  0.83234636  -0.00425211  1
  I  I97  1  0.49696015  0.83184011  0.33301576  1
  I  I98  1  0.49779187  0.83136869  0.67111316  1
  I  I99  1  0.82996728  0.16786549  -0.00398984  1
  I  I100  1  0.83453724  0.16852254  0.33333236  1
  I  I101  1  0.83062256  0.16804061  0.66979228  1
  I  I102  1  0.82785003  0.50099273  -0.00181250  1
  I  I103  1  0.83985192  0.49752346  0.33401171  1
  I  I104  1  0.83351792  0.50024255  0.66794906  1
  I  I105  1  0.83101703  0.83104817  -0.00434133  1
  I  I106  1  0.83665825  0.83301893  0.33299078  1
  I  I107  1  0.83666515  0.83198674  0.67114802  1
  I  I108  1  -0.00002005  0.16611947  0.16675120  1
  I  I109  1  0.00224079  0.16856312  0.50351978  1
  I  I110  1  -0.00410783  0.16936086  0.83154193  1
  I  I111  1  -0.00330216  0.49971640  0.15940391  1
  I  I112  1  -0.00058239  0.49482459  0.50340903  1
  I  I113  1  -0.00324226  0.50115040  0.83359659  1
  I  I114  1  0.00275712  0.83374958  0.16061496  1
  I  I115  1  -0.00002950  0.83740541  0.50282542  1
  I  I116  1  -0.00055836  0.83258143  0.83617757  1
  I  I117  1  0.33620589  0.16715363  0.16519617  1
  I  I118  1  0.33311205  0.17244517  0.49856323  1
  I  I119  1  0.33309226  0.16629739  0.83401001  1
  I  I120  1  0.33333393  0.50019918  0.16618452  1
  I  I121  1  0.33101319  0.49815968  0.50324242  1
  I  I122  1  0.33578578  0.50449751  0.83043197  1
  I  I123  1  0.33039222  0.83281833  0.16041687  1
  I  I124  1  0.33330410  0.82917797  0.50346019  1
  I  I125  1  0.33347585  0.82892277  0.83635599  1
  I  I126  1  0.66378565  0.16620036  0.17277353  1
  I  I127  1  0.66431511  0.16831264  0.49969419  1
  I  I128  1  0.66922521  0.16371901  0.83089457  1
  I  I129  1  0.66997720  0.50010194  0.17004673  1
  I  I130  1  0.66943884  0.49799943  0.50170857  1
  I  I131  1  0.66841179  0.50410179  0.83098944  1
  I  I132  1  0.66659999  0.83359650  0.16576988  1
  I  I133  1  0.66662818  0.83398611  0.50164022  1
  I  I134  1  0.66720354  0.83230358  0.83141432  1
