# generated using pymatgen
data_Cs27Sn14Pb13I81
_symmetry_space_group_name_H-M   'P 1'
_cell_length_a   18.97090367
_cell_length_b   18.97272888
_cell_length_c   18.98107073
_cell_angle_alpha   90.00127526
_cell_angle_beta   89.99995083
_cell_angle_gamma   89.99968907
_symmetry_Int_Tables_number   1
_chemical_formula_structural   Cs27Sn14Pb13I81
_chemical_formula_sum   'Cs27 Sn14 Pb13 I81'
_cell_volume   6831.85321712
_cell_formula_units_Z   1
loop_
 _symmetry_equiv_pos_site_id
 _symmetry_equiv_pos_as_xyz
  1  'x, y, z'
loop_
 _atom_site_type_symbol
 _atom_site_label
 _atom_site_symmetry_multiplicity
 _atom_site_fract_x
 _atom_site_fract_y
 _atom_site_fract_z
 _atom_site_occupancy
  Cs  Cs0  1  0.00010322  0.00104557  -0.00085879  1
  Cs  Cs1  1  0.00276255  -0.00095852  0.33235722  1
  Cs  Cs2  1  -0.00078943  0.00107705  0.67057723  1
  Cs  Cs3  1  0.00120507  0.33266683  0.00088315  1
  Cs  Cs4  1  -0.00077057  0.33286468  0.32939509  1
  Cs  Cs5  1  0.00183902  0.33148025  0.67257369  1
  Cs  Cs6  1  -0.00274707  0.66632706  0.00026892  1
  Cs  Cs7  1  -0.00018088  0.66756980  0.33457316  1
  Cs  Cs8  1  0.00028002  0.66727796  0.66571070  1
  Cs  Cs9  1  0.33645155  -0.00111432  0.00064075  1
  Cs  Cs10  1  0.32805675  -0.00071143  0.33228731  1
  Cs  Cs11  1  0.33431338  -0.00016573  0.66711717  1
  Cs  Cs12  1  0.33114410  0.33273476  -0.00191899  1
  Cs  Cs13  1  0.33504639  0.33241219  0.33505199  1
  Cs  Cs14  1  0.33137240  0.34225301  0.66600145  1
  Cs  Cs15  1  0.34630975  0.66916792  -0.00118780  1
  Cs  Cs16  1  0.33107408  0.66759235  0.33437954  1
  Cs  Cs17  1  0.33197377  0.65776256  0.66701628  1
  Cs  Cs18  1  0.66475402  -0.00055743  -0.00080835  1
  Cs  Cs19  1  0.66772864  0.00206728  0.33739061  1
  Cs  Cs20  1  0.66690258  0.00097441  0.66352107  1
  Cs  Cs21  1  0.66727160  0.33337799  0.00255573  1
  Cs  Cs22  1  0.66431932  0.33241791  0.33472714  1
  Cs  Cs23  1  0.66641358  0.32849754  0.65935172  1
  Cs  Cs24  1  0.66469637  0.66758089  -0.00129685  1
  Cs  Cs25  1  0.66900825  0.66549051  0.33280911  1
  Cs  Cs26  1  0.66771736  0.66992832  0.66874243  1
  Sn  Sn27  1  0.49990333  0.16654533  0.16602162  1
  Sn  Sn28  1  0.16626831  0.50004051  0.16623294  1
  Sn  Sn29  1  0.16676681  0.16739285  0.16726920  1
  Sn  Sn30  1  0.49997042  0.83300162  0.49988879  1
  Sn  Sn31  1  0.83402766  0.50011110  0.16662383  1
  Sn  Sn32  1  0.83282521  0.83275094  0.49998426  1
  Sn  Sn33  1  0.83418738  0.83281966  0.83342369  1
  Sn  Sn34  1  0.83321375  0.16652627  0.16662854  1
  Sn  Sn35  1  0.50003334  0.16708439  0.83340879  1
  Sn  Sn36  1  0.16634484  0.16679239  0.49995401  1
  Sn  Sn37  1  0.16653658  0.83294474  0.83370465  1
  Sn  Sn38  1  0.83367814  0.50039622  0.50006305  1
  Sn  Sn39  1  0.83318406  0.50029063  0.83329412  1
  Sn  Sn40  1  0.83342812  0.83334761  0.16663702  1
  Pb  Pb41  1  0.16377452  0.49779749  0.49768665  1
  Pb  Pb42  1  0.83543713  0.16648181  0.49776477  1
  Pb  Pb43  1  0.50060984  0.83476073  0.83122424  1
  Pb  Pb44  1  0.83163264  0.16654256  0.83562396  1
  Pb  Pb45  1  0.50006886  0.49777685  0.16674376  1
  Pb  Pb46  1  0.16881780  0.16519782  0.83403468  1
  Pb  Pb47  1  0.50333557  0.49713974  0.83328264  1
  Pb  Pb48  1  0.16598668  0.83462367  0.50208994  1
  Pb  Pb49  1  0.16492088  0.83289588  0.16452907  1
  Pb  Pb50  1  0.50276644  0.83566927  0.16908993  1
  Pb  Pb51  1  0.49745874  0.16509517  0.49968150  1
  Pb  Pb52  1  0.50253438  0.50287766  0.49978497  1
  Pb  Pb53  1  0.16455493  0.50267436  0.83647862  1
  I  I54  1  0.16517124  0.00289825  0.16910641  1
  I  I55  1  0.16477646  0.00251626  0.49239146  1
  I  I56  1  0.15872132  -0.00252322  0.83462861  1
  I  I57  1  0.16059200  0.33211668  0.16956416  1
  I  I58  1  0.16642491  0.32989413  0.49860819  1
  I  I59  1  0.16621881  0.33359221  0.83144990  1
  I  I60  1  0.15887029  0.66404351  0.16582485  1
  I  I61  1  0.16897695  0.66649726  0.49909003  1
  I  I62  1  0.16400714  0.67029241  0.83235100  1
  I  I63  1  0.49939530  0.00381930  0.16313032  1
  I  I64  1  0.50897212  -0.00248902  0.50031221  1
  I  I65  1  0.50228353  0.00249046  0.83794944  1
  I  I66  1  0.50560414  0.32936166  0.16446117  1
  I  I67  1  0.50132937  0.33321789  0.50007127  1
  I  I68  1  0.49994050  0.32935847  0.83827921  1
  I  I69  1  0.49935123  0.66691885  0.16730810  1
  I  I70  1  0.50136726  0.67082157  0.50125961  1
  I  I71  1  0.49801088  0.66671258  0.83208555  1
  I  I72  1  0.83328896  0.00004787  0.16665572  1
  I  I73  1  0.83067118  -0.00297606  0.50010981  1
  I  I74  1  0.83528774  -0.00299883  0.83324088  1
  I  I75  1  0.83382327  0.33345037  0.16640678  1
  I  I76  1  0.83543676  0.33586098  0.49992119  1
  I  I77  1  0.83129560  0.33595851  0.83372211  1
  I  I78  1  0.83852825  0.66635203  0.16722970  1
  I  I79  1  0.82995296  0.66749256  0.49538123  1
  I  I80  1  0.83645256  0.66757494  0.83749060  1
  I  I81  1  0.16399477  0.16924413  0.00349713  1
  I  I82  1  0.16786959  0.16798794  0.33120591  1
  I  I83  1  0.16739509  0.16279055  0.66483668  1
  I  I84  1  0.15822301  0.49095453  0.00398726  1
  I  I85  1  0.15972262  0.49908985  0.32973293  1
  I  I86  1  0.16553013  0.49809163  0.66690736  1
  I  I87  1  0.15964281  0.83636142  -0.00295878  1
  I  I88  1  0.16608680  0.83329269  0.33306384  1
  I  I89  1  0.16002575  0.83747916  0.66964086  1
  I  I90  1  0.49927571  0.16490441  0.00153427  1
  I  I91  1  0.50260387  0.16557192  0.33030724  1
  I  I92  1  0.50042757  0.16344952  0.66858465  1
  I  I93  1  0.50287202  0.50307154  0.00006730  1
  I  I94  1  0.50331456  0.49720253  0.33322652  1
  I  I95  1  0.50033266  0.49585147  0.66659745  1
  I  I96  1  0.50051890  0.83358091  0.00011047  1
  I  I97  1  0.50584317  0.83604319  0.33659084  1
  I  I98  1  0.50738384  0.83844187  0.66389260  1
  I  I99  1  0.83812375  0.16651345  0.00402996  1
  I  I100  1  0.82897805  0.16657541  0.32934571  1
  I  I101  1  0.83281698  0.16692237  0.66663461  1
  I  I102  1  0.83677054  0.50204795  0.00093114  1
  I  I103  1  0.83657121  0.50296477  0.33242904  1
  I  I104  1  0.83182701  0.50818296  0.66666431  1
  I  I105  1  0.83827970  0.83188312  0.00011259  1
  I  I106  1  0.82871294  0.83155214  0.33313658  1
  I  I107  1  0.83321555  0.82706169  0.66668373  1
  I  I108  1  -0.00036170  0.16717040  0.17128941  1
  I  I109  1  0.00283773  0.16421315  0.49394611  1
  I  I110  1  -0.00016439  0.16729520  0.83361326  1
  I  I111  1  -0.00213502  0.49433779  0.16672980  1
  I  I112  1  -0.00428267  0.50791933  0.50070617  1
  I  I113  1  -0.00391296  0.50011993  0.83194601  1
  I  I114  1  -0.00394234  0.83765751  0.17123865  1
  I  I115  1  -0.00370735  0.83055782  0.49773864  1
  I  I116  1  -0.00251413  0.83218010  0.83134807  1
  I  I117  1  0.33254219  0.17102431  0.16692352  1
  I  I118  1  0.33008304  0.16273157  0.49349076  1
  I  I119  1  0.33626873  0.16179268  0.83941482  1
  I  I120  1  0.33025017  0.49450978  0.16671678  1
  I  I121  1  0.33290376  0.50073609  0.49849933  1
  I  I122  1  0.33319677  0.50171434  0.83493938  1
  I  I123  1  0.33341772  0.83368200  0.16617359  1
  I  I124  1  0.33521086  0.83898598  0.50165438  1
  I  I125  1  0.33139781  0.83781311  0.83272055  1
  I  I126  1  0.66759971  0.16607058  0.16187062  1
  I  I127  1  0.66694629  0.16805686  0.49893910  1
  I  I128  1  0.66409051  0.16476155  0.83908737  1
  I  I129  1  0.67073087  0.49955739  0.16666130  1
  I  I130  1  0.67126099  0.49889826  0.49631641  1
  I  I131  1  0.67161584  0.50789194  0.83771702  1
  I  I132  1  0.67148340  0.83191534  0.16120876  1
  I  I133  1  0.66921427  0.83189646  0.50173891  1
  I  I134  1  0.67033839  0.83045916  0.83553963  1
