# generated using pymatgen
data_Cs27Sn14Pb13I81
_symmetry_space_group_name_H-M   'P 1'
_cell_length_a   18.97385073
_cell_length_b   18.97848566
_cell_length_c   18.97437854
_cell_angle_alpha   90.00006091
_cell_angle_beta   90.00219897
_cell_angle_gamma   89.99902190
_symmetry_Int_Tables_number   1
_chemical_formula_structural   Cs27Sn14Pb13I81
_chemical_formula_sum   'Cs27 Sn14 Pb13 I81'
_cell_volume   6832.57796246
_cell_formula_units_Z   1
loop_
 _symmetry_equiv_pos_site_id
 _symmetry_equiv_pos_as_xyz
  1  'x, y, z'
loop_
 _atom_site_type_symbol
 _atom_site_label
 _atom_site_symmetry_multiplicity
 _atom_site_fract_x
 _atom_site_fract_y
 _atom_site_fract_z
 _atom_site_occupancy
  Cs  Cs0  1  -0.00039559  -0.00508338  -0.00128859  1
  Cs  Cs1  1  0.00029380  -0.00311868  0.33759406  1
  Cs  Cs2  1  -0.00060778  0.00261240  0.66586653  1
  Cs  Cs3  1  -0.00465982  0.33489500  -0.00376933  1
  Cs  Cs4  1  0.00768039  0.33457861  0.33779846  1
  Cs  Cs5  1  -0.00012243  0.33256387  0.66673446  1
  Cs  Cs6  1  0.00007308  0.66953093  0.00137291  1
  Cs  Cs7  1  0.00314582  0.66688786  0.32908061  1
  Cs  Cs8  1  0.00165922  0.66448493  0.66806579  1
  Cs  Cs9  1  0.32961726  0.00084598  0.00274396  1
  Cs  Cs10  1  0.33431036  0.00504212  0.32998327  1
  Cs  Cs11  1  0.33475726  -0.00637563  0.66768451  1
  Cs  Cs12  1  0.33494260  0.33028911  0.00156266  1
  Cs  Cs13  1  0.32885592  0.33211746  0.33254931  1
  Cs  Cs14  1  0.33343896  0.33437129  0.66652127  1
  Cs  Cs15  1  0.33283717  0.67087035  -0.00227658  1
  Cs  Cs16  1  0.33233621  0.66420734  0.33454773  1
  Cs  Cs17  1  0.33654330  0.67268293  0.66782522  1
  Cs  Cs18  1  0.66940145  0.00526612  0.00238859  1
  Cs  Cs19  1  0.66734502  -0.00460478  0.33592959  1
  Cs  Cs20  1  0.66639740  -0.00059933  0.66217187  1
  Cs  Cs21  1  0.66690374  0.33422968  -0.00015884  1
  Cs  Cs22  1  0.66530201  0.33472272  0.33170495  1
  Cs  Cs23  1  0.66703037  0.33416590  0.66752515  1
  Cs  Cs24  1  0.66647420  0.66391505  0.00121639  1
  Cs  Cs25  1  0.66675121  0.66791571  0.33328745  1
  Cs  Cs26  1  0.66223845  0.66572370  0.66516457  1
  Sn  Sn27  1  0.83288646  0.49981913  0.49979583  1
  Sn  Sn28  1  0.50066753  0.49895271  0.49920230  1
  Sn  Sn29  1  0.16638147  0.49942546  0.83353211  1
  Sn  Sn30  1  0.50045520  0.50083713  0.16737744  1
  Sn  Sn31  1  0.83357552  0.16758243  0.16682120  1
  Sn  Sn32  1  0.83386409  0.50032793  0.83322172  1
  Sn  Sn33  1  0.83324839  0.16652363  0.83376092  1
  Sn  Sn34  1  0.50014491  0.16675059  0.83239622  1
  Sn  Sn35  1  0.83246192  0.83311750  0.83286609  1
  Sn  Sn36  1  0.83279328  0.49884455  0.16703224  1
  Sn  Sn37  1  0.16645763  0.83325572  0.49992012  1
  Sn  Sn38  1  0.16651209  0.16752790  0.83327561  1
  Sn  Sn39  1  0.50027077  0.83230146  0.16639464  1
  Sn  Sn40  1  0.50036365  0.16770178  0.50078609  1
  Pb  Pb41  1  0.16459114  0.83343740  0.83210260  1
  Pb  Pb42  1  0.16729135  0.50125011  0.50248107  1
  Pb  Pb43  1  0.16665895  0.49976714  0.16373447  1
  Pb  Pb44  1  0.16943754  0.16485071  0.50262213  1
  Pb  Pb45  1  0.49859708  0.83300873  0.49797138  1
  Pb  Pb46  1  0.50259859  0.83650990  0.83569159  1
  Pb  Pb47  1  0.50183477  0.16747995  0.16686548  1
  Pb  Pb48  1  0.83188472  0.83301585  0.16495705  1
  Pb  Pb49  1  0.50002080  0.49851276  0.83358864  1
  Pb  Pb50  1  0.83506983  0.83020762  0.50223528  1
  Pb  Pb51  1  0.16920786  0.83330730  0.16916739  1
  Pb  Pb52  1  0.83165568  0.16883352  0.49984824  1
  Pb  Pb53  1  0.16261796  0.16694830  0.16405376  1
  I  I54  1  0.16850062  0.00019952  0.16404892  1
  I  I55  1  0.16767505  -0.00260558  0.50278030  1
  I  I56  1  0.16565247  0.00296561  0.83179506  1
  I  I57  1  0.17295270  0.33337865  0.17023316  1
  I  I58  1  0.16559889  0.33333179  0.49994452  1
  I  I59  1  0.16094494  0.33302208  0.83223206  1
  I  I60  1  0.16223994  0.66642339  0.16323520  1
  I  I61  1  0.16828788  0.66862718  0.50415062  1
  I  I62  1  0.16142912  0.66408838  0.83207521  1
  I  I63  1  0.50160139  -0.00123514  0.16590117  1
  I  I64  1  0.49834264  0.00243381  0.50319180  1
  I  I65  1  0.49959060  0.00461173  0.82871216  1
  I  I66  1  0.50345337  0.33621927  0.16699193  1
  I  I67  1  0.50380041  0.33433837  0.49887321  1
  I  I68  1  0.50438374  0.33042586  0.83436059  1
  I  I69  1  0.50633477  0.66461082  0.17187277  1
  I  I70  1  0.50280350  0.66347189  0.49836257  1
  I  I71  1  0.49949887  0.66667535  0.83083941  1
  I  I72  1  0.83065622  0.00257476  0.15945538  1
  I  I73  1  0.83233844  0.00003955  0.50035693  1
  I  I74  1  0.83349922  0.00167651  0.83904441  1
  I  I75  1  0.82599654  0.33467127  0.15942847  1
  I  I76  1  0.83216064  0.33702741  0.50522026  1
  I  I77  1  0.83391756  0.33347657  0.83431793  1
  I  I78  1  0.83111776  0.66314348  0.16511343  1
  I  I79  1  0.82649596  0.66200315  0.50023883  1
  I  I80  1  0.83904255  0.66485528  0.83384387  1
  I  I81  1  0.17351932  0.16946430  -0.00445649  1
  I  I82  1  0.16746488  0.16454069  0.33356994  1
  I  I83  1  0.15997253  0.17053770  0.67072612  1
  I  I84  1  0.16215084  0.49677404  -0.00430120  1
  I  I85  1  0.16377591  0.50265433  0.33348390  1
  I  I86  1  0.16119410  0.49623345  0.67023865  1
  I  I87  1  0.16681733  0.83356506  -0.00020017  1
  I  I88  1  0.16525604  0.83163693  0.33673702  1
  I  I89  1  0.16836264  0.83241996  0.66467671  1
  I  I90  1  0.49932408  0.16691196  -0.00265259  1
  I  I91  1  0.50234128  0.16679301  0.33559828  1
  I  I92  1  0.50259331  0.17239230  0.66733556  1
  I  I93  1  0.50364200  0.50164732  0.00245959  1
  I  I94  1  0.50820748  0.49885939  0.33358904  1
  I  I95  1  0.50325663  0.49727051  0.66442205  1
  I  I96  1  0.50045330  0.82619409  0.00306696  1
  I  I97  1  0.50103646  0.83434135  0.33037635  1
  I  I98  1  0.49935579  0.83150742  0.66674197  1
  I  I99  1  0.83023688  0.17135655  -0.00190018  1
  I  I100  1  0.82886343  0.17064276  0.33071356  1
  I  I101  1  0.83487452  0.16777507  0.67009718  1
  I  I102  1  0.83272540  0.49879496  -0.00052556  1
  I  I103  1  0.82736291  0.49567545  0.33273863  1
  I  I104  1  0.83322441  0.49969156  0.66765510  1
  I  I105  1  0.83387815  0.83019489  -0.00315792  1
  I  I106  1  0.83370294  0.83478014  0.33337205  1
  I  I107  1  0.83337284  0.83547437  0.67033248  1
  I  I108  1  -0.00538799  0.17299579  0.16125263  1
  I  I109  1  -0.00005444  0.16685416  0.50018514  1
  I  I110  1  -0.00129731  0.16765638  0.83820105  1
  I  I111  1  -0.00372177  0.49589877  0.16883724  1
  I  I112  1  -0.00276750  0.50180662  0.49859924  1
  I  I113  1  -0.00218565  0.49550998  0.83253376  1
  I  I114  1  -0.00027731  0.83342039  0.16614295  1
  I  I115  1  0.00247985  0.83275738  0.50144440  1
  I  I116  1  -0.00331919  0.83660714  0.83377980  1
  I  I117  1  0.33345519  0.16576149  0.16529200  1
  I  I118  1  0.33748751  0.17299083  0.50359726  1
  I  I119  1  0.33351554  0.17224956  0.82846800  1
  I  I120  1  0.33664659  0.50377062  0.17048046  1
  I  I121  1  0.33660970  0.49747019  0.49656461  1
  I  I122  1  0.33125786  0.49496007  0.83270462  1
  I  I123  1  0.33733069  0.82760855  0.16520563  1
  I  I124  1  0.33117332  0.83105423  0.50245515  1
  I  I125  1  0.33352353  0.83291120  0.83317338  1
  I  I126  1  0.66956504  0.16875887  0.15890430  1
  I  I127  1  0.66369344  0.16738472  0.50648711  1
  I  I128  1  0.66778734  0.16757214  0.83413965  1
  I  I129  1  0.66751668  0.49997853  0.16435639  1
  I  I130  1  0.66663780  0.49715080  0.50250053  1
  I  I131  1  0.66979910  0.49873583  0.83359493  1
  I  I132  1  0.66407933  0.83188161  0.16726324  1
  I  I133  1  0.66665025  0.83496311  0.50023949  1
  I  I134  1  0.67042251  0.83047607  0.83271226  1
