# generated using pymatgen
data_Cs27Sn13Pb14I81
_symmetry_space_group_name_H-M   'P 1'
_cell_length_a   18.99316946
_cell_length_b   18.99905174
_cell_length_c   18.98321604
_cell_angle_alpha   90.00157516
_cell_angle_beta   90.00195111
_cell_angle_gamma   89.99933779
_symmetry_Int_Tables_number   1
_chemical_formula_structural   Cs27Sn13Pb14I81
_chemical_formula_sum   'Cs27 Sn13 Pb14 I81'
_cell_volume   6850.13544420
_cell_formula_units_Z   1
loop_
 _symmetry_equiv_pos_site_id
 _symmetry_equiv_pos_as_xyz
  1  'x, y, z'
loop_
 _atom_site_type_symbol
 _atom_site_label
 _atom_site_symmetry_multiplicity
 _atom_site_fract_x
 _atom_site_fract_y
 _atom_site_fract_z
 _atom_site_occupancy
  Cs  Cs0  1  -0.00232237  0.00259663  0.00639815  1
  Cs  Cs1  1  0.00127159  0.00383782  0.32717466  1
  Cs  Cs2  1  0.00314203  -0.00488601  0.66789148  1
  Cs  Cs3  1  0.00815150  0.33231020  0.00530976  1
  Cs  Cs4  1  -0.01025963  0.33469948  0.32687450  1
  Cs  Cs5  1  -0.00066828  0.33313383  0.66739056  1
  Cs  Cs6  1  -0.00420536  0.66611962  0.00985548  1
  Cs  Cs7  1  0.00001908  0.66116307  0.33146541  1
  Cs  Cs8  1  -0.00068946  0.67129332  0.66459745  1
  Cs  Cs9  1  0.33361081  0.00154568  0.00286295  1
  Cs  Cs10  1  0.33480624  -0.00311486  0.33557478  1
  Cs  Cs11  1  0.33249420  -0.00037904  0.66463524  1
  Cs  Cs12  1  0.32936640  0.33478851  -0.00301263  1
  Cs  Cs13  1  0.33654682  0.33395411  0.33516859  1
  Cs  Cs14  1  0.33262214  0.33465605  0.66885382  1
  Cs  Cs15  1  0.33358709  0.66220159  0.00259250  1
  Cs  Cs16  1  0.33429794  0.66873656  0.33504611  1
  Cs  Cs17  1  0.33364615  0.66644424  0.66528499  1
  Cs  Cs18  1  0.66726141  -0.00240207  -0.00209080  1
  Cs  Cs19  1  0.66495486  0.00580435  0.33131067  1
  Cs  Cs20  1  0.66667250  0.00129801  0.66800651  1
  Cs  Cs21  1  0.66386329  0.33274977  -0.00362162  1
  Cs  Cs22  1  0.67149696  0.33144808  0.33421089  1
  Cs  Cs23  1  0.66767784  0.33210849  0.66732113  1
  Cs  Cs24  1  0.66747171  0.67089974  -0.00189372  1
  Cs  Cs25  1  0.66517731  0.66427274  0.33133742  1
  Cs  Cs26  1  0.66733459  0.66677603  0.66855291  1
  Sn  Sn27  1  0.49848879  0.83409038  0.83235423  1
  Sn  Sn28  1  0.83299745  0.83364539  0.49972142  1
  Sn  Sn29  1  0.50015563  0.16585369  0.83387474  1
  Sn  Sn30  1  0.50007442  0.49888755  0.16743977  1
  Sn  Sn31  1  0.16760200  0.83300505  0.83343588  1
  Sn  Sn32  1  0.83383955  0.49908826  0.83313498  1
  Sn  Sn33  1  0.50068111  0.83262195  0.50103890  1
  Sn  Sn34  1  0.16699608  0.49962907  0.50038113  1
  Sn  Sn35  1  0.16640089  0.83326276  0.50053434  1
  Sn  Sn36  1  0.16641090  0.16713223  0.49999444  1
  Sn  Sn37  1  0.49970064  0.50048597  0.49957769  1
  Sn  Sn38  1  0.83347291  0.16769791  0.83287535  1
  Sn  Sn39  1  0.49965119  0.16779487  0.16555783  1
  Pb  Pb40  1  0.50085010  0.50028226  0.83279607  1
  Pb  Pb41  1  0.16693148  0.83328204  0.16682825  1
  Pb  Pb42  1  0.49992758  0.83329513  0.16656661  1
  Pb  Pb43  1  0.83006773  0.49984180  0.16355601  1
  Pb  Pb44  1  0.16395438  0.50306445  0.83118206  1
  Pb  Pb45  1  0.83294505  0.50164908  0.50157197  1
  Pb  Pb46  1  0.83050512  0.16674788  0.16347092  1
  Pb  Pb47  1  0.49879633  0.16688517  0.50068781  1
  Pb  Pb48  1  0.83363454  0.83374568  0.83224378  1
  Pb  Pb49  1  0.16942818  0.49993725  0.16972431  1
  Pb  Pb50  1  0.16981419  0.16680080  0.16977443  1
  Pb  Pb51  1  0.16689472  0.16462382  0.83177259  1
  Pb  Pb52  1  0.83611355  0.16421461  0.50241073  1
  Pb  Pb53  1  0.83299116  0.83337506  0.17054004  1
  I  I54  1  0.16902778  0.00012514  0.16994534  1
  I  I55  1  0.16803083  -0.00156408  0.50456019  1
  I  I56  1  0.16683327  -0.00321492  0.82450674  1
  I  I57  1  0.16640916  0.33336124  0.16722574  1
  I  I58  1  0.17503141  0.33401237  0.50100498  1
  I  I59  1  0.16867164  0.33344408  0.83005654  1
  I  I60  1  0.16916529  0.66653967  0.16755088  1
  I  I61  1  0.16839981  0.66756852  0.50427781  1
  I  I62  1  0.17310653  0.67078579  0.82524537  1
  I  I63  1  0.50028570  0.00254689  0.16613427  1
  I  I64  1  0.49848378  -0.00286294  0.50077130  1
  I  I65  1  0.50298974  -0.00031387  0.83261238  1
  I  I66  1  0.49975004  0.33336257  0.16749501  1
  I  I67  1  0.49446747  0.33590171  0.49979432  1
  I  I68  1  0.50334281  0.33102669  0.83340051  1
  I  I69  1  0.49981172  0.66411241  0.16866366  1
  I  I70  1  0.49549254  0.66745244  0.50003467  1
  I  I71  1  0.49896274  0.66944850  0.83170422  1
  I  I72  1  0.83089166  0.00023392  0.16427460  1
  I  I73  1  0.83067056  -0.00362779  0.50421472  1
  I  I74  1  0.83048667  0.00217195  0.83071221  1
  I  I75  1  0.83375067  0.33328655  0.17153268  1
  I  I76  1  0.83371285  0.33317856  0.49999701  1
  I  I77  1  0.82460518  0.33251906  0.83057208  1
  I  I78  1  0.83066240  0.66642923  0.16204587  1
  I  I79  1  0.83669233  0.66951173  0.50503712  1
  I  I80  1  0.83161126  0.66529711  0.83039632  1
  I  I81  1  0.16424633  0.16413076  -0.00004539  1
  I  I82  1  0.16901011  0.16123695  0.33793471  1
  I  I83  1  0.17040818  0.16666240  0.66367802  1
  I  I84  1  0.16683021  0.50167431  -0.00010893  1
  I  I85  1  0.16735541  0.50532896  0.33825820  1
  I  I86  1  0.17519582  0.49922628  0.66293111  1
  I  I87  1  0.17262842  0.83443384  -0.00340891  1
  I  I88  1  0.16877760  0.83331367  0.33784348  1
  I  I89  1  0.16794097  0.83382555  0.66499070  1
  I  I90  1  0.50434432  0.16598305  -0.00123613  1
  I  I91  1  0.49637250  0.16649225  0.33182726  1
  I  I92  1  0.50264765  0.16503801  0.66946937  1
  I  I93  1  0.50383480  0.49980750  0.00179226  1
  I  I94  1  0.49565246  0.50110245  0.33489081  1
  I  I95  1  0.49733037  0.50180456  0.66372366  1
  I  I96  1  0.49650274  0.83386199  -0.00348140  1
  I  I97  1  0.49828498  0.83283821  0.33687713  1
  I  I98  1  0.49906024  0.83334255  0.66583041  1
  I  I99  1  0.83270670  0.16785997  -0.00457035  1
  I  I100  1  0.83321310  0.16449695  0.33338669  1
  I  I101  1  0.82399833  0.16991451  0.66989493  1
  I  I102  1  0.83120223  0.49874099  -0.00423182  1
  I  I103  1  0.83564137  0.50256774  0.33335201  1
  I  I104  1  0.82916225  0.49698647  0.66916386  1
  I  I105  1  0.83280167  0.83276977  -0.00024259  1
  I  I106  1  0.83340191  0.83193269  0.33883926  1
  I  I107  1  0.83345592  0.83284620  0.66414859  1
  I  I108  1  0.00001906  0.16563234  0.16637686  1
  I  I109  1  0.00400681  0.16616214  0.50351905  1
  I  I110  1  -0.00226859  0.16830811  0.82813116  1
  I  I111  1  -0.00016479  0.50091599  0.16755397  1
  I  I112  1  0.00265176  0.50281367  0.50422270  1
  I  I113  1  -0.00351562  0.49498645  0.82907118  1
  I  I114  1  0.00001510  0.83377558  0.16414289  1
  I  I115  1  0.00142383  0.83328183  0.50658190  1
  I  I116  1  0.00242953  0.83305769  0.82535366  1
  I  I117  1  0.33752185  0.17011357  0.15846409  1
  I  I118  1  0.33102590  0.16159739  0.50163330  1
  I  I119  1  0.33650032  0.16408689  0.83579559  1
  I  I120  1  0.33736938  0.49698652  0.16608304  1
  I  I121  1  0.33403821  0.50554690  0.49695664  1
  I  I122  1  0.33323114  0.49783923  0.83513814  1
  I  I123  1  0.33369279  0.83384483  0.17118151  1
  I  I124  1  0.33358934  0.83263004  0.50378227  1
  I  I125  1  0.33466696  0.83893142  0.82374262  1
  I  I126  1  0.66258342  0.16980988  0.16872881  1
  I  I127  1  0.66665730  0.16580005  0.49793747  1
  I  I128  1  0.66524744  0.16385303  0.83607646  1
  I  I129  1  0.66241676  0.49647391  0.17609112  1
  I  I130  1  0.66340080  0.50544543  0.49752994  1
  I  I131  1  0.66845389  0.50148037  0.83087924  1
  I  I132  1  0.66614149  0.83279440  0.16545236  1
  I  I133  1  0.66499175  0.82787125  0.50533055  1
  I  I134  1  0.66386869  0.83401399  0.82882652  1
