# generated using pymatgen
data_Cs27Sn13Pb14I81
_symmetry_space_group_name_H-M   'P 1'
_cell_length_a   18.96550097
_cell_length_b   18.98531774
_cell_length_c   18.98127402
_cell_angle_alpha   89.99935422
_cell_angle_beta   90.00022987
_cell_angle_gamma   89.99930982
_symmetry_Int_Tables_number   1
_chemical_formula_structural   Cs27Sn13Pb14I81
_chemical_formula_sum   'Cs27 Sn13 Pb14 I81'
_cell_volume   6834.51258683
_cell_formula_units_Z   1
loop_
 _symmetry_equiv_pos_site_id
 _symmetry_equiv_pos_as_xyz
  1  'x, y, z'
loop_
 _atom_site_type_symbol
 _atom_site_label
 _atom_site_symmetry_multiplicity
 _atom_site_fract_x
 _atom_site_fract_y
 _atom_site_fract_z
 _atom_site_occupancy
  Cs  Cs0  1  0.00179735  0.00020759  -0.00127306  1
  Cs  Cs1  1  0.00238085  0.00448849  0.33325993  1
  Cs  Cs2  1  0.00236550  0.00201974  0.66783356  1
  Cs  Cs3  1  -0.00170505  0.33690480  0.00063450  1
  Cs  Cs4  1  0.00119072  0.33321641  0.33578985  1
  Cs  Cs5  1  0.00011140  0.33399662  0.66428719  1
  Cs  Cs6  1  -0.00176040  0.66458465  -0.00138274  1
  Cs  Cs7  1  0.00077070  0.66404534  0.33393207  1
  Cs  Cs8  1  0.00066003  0.66577798  0.66855760  1
  Cs  Cs9  1  0.32596316  0.00736859  0.00758631  1
  Cs  Cs10  1  0.32888063  -0.00067470  0.32272492  1
  Cs  Cs11  1  0.32909723  -0.00061659  0.67029335  1
  Cs  Cs12  1  0.34009355  0.32746139  -0.00084679  1
  Cs  Cs13  1  0.32940939  0.33042639  0.33370047  1
  Cs  Cs14  1  0.33482439  0.33297285  0.66914811  1
  Cs  Cs15  1  0.33422140  0.66713272  0.00323602  1
  Cs  Cs16  1  0.33129843  0.66990824  0.33473363  1
  Cs  Cs17  1  0.33343647  0.66596096  0.66410382  1
  Cs  Cs18  1  0.66784916  -0.00058518  -0.00019664  1
  Cs  Cs19  1  0.66699078  -0.00131122  0.33629328  1
  Cs  Cs20  1  0.66858608  -0.00301006  0.66414193  1
  Cs  Cs21  1  0.66247901  0.33528930  0.00060458  1
  Cs  Cs22  1  0.66739173  0.33459639  0.33424256  1
  Cs  Cs23  1  0.66549232  0.33253911  0.66623013  1
  Cs  Cs24  1  0.66729456  0.66536247  0.00071926  1
  Cs  Cs25  1  0.66691525  0.66736310  0.33306210  1
  Cs  Cs26  1  0.66684726  0.66840116  0.66655311  1
  Sn  Sn27  1  0.49996435  0.16573608  0.50006612  1
  Sn  Sn28  1  0.83284110  0.16611446  0.16584736  1
  Sn  Sn29  1  0.50053737  0.83382360  0.50094003  1
  Sn  Sn30  1  0.50093633  0.50010854  0.50004733  1
  Sn  Sn31  1  0.83355588  0.49980713  0.83242189  1
  Sn  Sn32  1  0.50035618  0.83368381  0.83315377  1
  Sn  Sn33  1  0.83322417  0.83414548  0.16681240  1
  Sn  Sn34  1  0.83288322  0.16680410  0.83409924  1
  Sn  Sn35  1  0.16655498  0.50021907  0.83458719  1
  Sn  Sn36  1  0.83270787  0.83347007  0.83319069  1
  Sn  Sn37  1  0.83349111  0.83252881  0.49998558  1
  Sn  Sn38  1  0.83237868  0.50087159  0.50098751  1
  Sn  Sn39  1  0.16680580  0.50018300  0.16522245  1
  Pb  Pb40  1  0.16658959  0.83346480  0.50014238  1
  Pb  Pb41  1  0.16360651  0.16943126  0.16637311  1
  Pb  Pb42  1  0.16410651  0.16965747  0.83327111  1
  Pb  Pb43  1  0.17039940  0.16646119  0.50020699  1
  Pb  Pb44  1  0.50289672  0.16661952  0.16897400  1
  Pb  Pb45  1  0.50245747  0.16343109  0.83153702  1
  Pb  Pb46  1  0.50036494  0.50202523  0.83164802  1
  Pb  Pb47  1  0.16685190  0.83122987  0.83343878  1
  Pb  Pb48  1  0.83408674  0.50002163  0.16690485  1
  Pb  Pb49  1  0.83227478  0.16653665  0.50027001  1
  Pb  Pb50  1  0.16331223  0.83105379  0.16639908  1
  Pb  Pb51  1  0.16656823  0.50010537  0.50059479  1
  Pb  Pb52  1  0.50208185  0.83331006  0.16642918  1
  Pb  Pb53  1  0.49707572  0.50007786  0.16969417  1
  I  I54  1  0.16812298  0.00018486  0.16802353  1
  I  I55  1  0.16336475  -0.00009121  0.49992716  1
  I  I56  1  0.16594683  0.00007832  0.83219043  1
  I  I57  1  0.16310085  0.33696273  0.16428400  1
  I  I58  1  0.16464151  0.33374080  0.49901652  1
  I  I59  1  0.16126164  0.33780988  0.83556289  1
  I  I60  1  0.16378535  0.66340867  0.16384046  1
  I  I61  1  0.16998280  0.66648600  0.49910659  1
  I  I62  1  0.15881418  0.66326519  0.83557767  1
  I  I63  1  0.49845005  -0.00015608  0.16964565  1
  I  I64  1  0.50762347  -0.00150573  0.50415576  1
  I  I65  1  0.50752498  -0.00438076  0.82607347  1
  I  I66  1  0.50305150  0.33339523  0.16845863  1
  I  I67  1  0.50525871  0.33418776  0.49904174  1
  I  I68  1  0.50056662  0.33330520  0.83064414  1
  I  I69  1  0.50259036  0.66672673  0.16895802  1
  I  I70  1  0.50439591  0.66709658  0.50360633  1
  I  I71  1  0.50643936  0.66978209  0.82708212  1
  I  I72  1  0.83202038  -0.00081089  0.16454883  1
  I  I73  1  0.82867740  -0.00296304  0.50179830  1
  I  I74  1  0.82814654  -0.00102718  0.83324067  1
  I  I75  1  0.83563966  0.33123840  0.16454752  1
  I  I76  1  0.82985412  0.33601483  0.50221924  1
  I  I77  1  0.83856268  0.33417287  0.83281642  1
  I  I78  1  0.83484093  0.66922391  0.16527608  1
  I  I79  1  0.82702903  0.66673495  0.50179343  1
  I  I80  1  0.83404890  0.66684320  0.83274992  1
  I  I81  1  0.16920445  0.16546629  -0.00014727  1
  I  I82  1  0.16329056  0.17041489  0.33311320  1
  I  I83  1  0.16247545  0.16954379  0.66689333  1
  I  I84  1  0.15694737  0.50165661  -0.00117936  1
  I  I85  1  0.16553862  0.49991980  0.33148188  1
  I  I86  1  0.16354370  0.50054139  0.66945810  1
  I  I87  1  0.16695893  0.83262303  -0.00010727  1
  I  I88  1  0.16702190  0.82951713  0.33322794  1
  I  I89  1  0.16240784  0.83001273  0.66681959  1
  I  I90  1  0.49917806  0.16602546  -0.00026238  1
  I  I91  1  0.50346675  0.16511267  0.33725225  1
  I  I92  1  0.50429599  0.16990004  0.66355709  1
  I  I93  1  0.50264976  0.50185086  -0.00026784  1
  I  I94  1  0.50652806  0.50323402  0.33826859  1
  I  I95  1  0.50001035  0.49876000  0.66327468  1
  I  I96  1  0.50655269  0.83061368  -0.00317198  1
  I  I97  1  0.50493963  0.83211564  0.33698203  1
  I  I98  1  0.50924809  0.83228954  0.66562400  1
  I  I99  1  0.83401780  0.16357484  -0.00075460  1
  I  I100  1  0.83156592  0.16409710  0.33142713  1
  I  I101  1  0.83161492  0.16552077  0.66931138  1
  I  I102  1  0.83633667  0.50252339  -0.00279192  1
  I  I103  1  0.83171898  0.50257752  0.33625253  1
  I  I104  1  0.83568450  0.50230508  0.66698413  1
  I  I105  1  0.82992591  0.83274945  -0.00115498  1
  I  I106  1  0.82918918  0.83237744  0.33437118  1
  I  I107  1  0.82911551  0.83203114  0.66677025  1
  I  I108  1  -0.00436901  0.16178232  0.16482516  1
  I  I109  1  -0.00040802  0.16782043  0.49908392  1
  I  I110  1  -0.00478981  0.16072469  0.83513155  1
  I  I111  1  0.00178910  0.50055404  0.16736869  1
  I  I112  1  -0.00343005  0.50452603  0.50081582  1
  I  I113  1  -0.00245947  0.50211786  0.83124062  1
  I  I114  1  -0.00520534  0.83678818  0.16655719  1
  I  I115  1  -0.00443822  0.82730096  0.50111106  1
  I  I116  1  -0.00406285  0.83449261  0.83235791  1
  I  I117  1  0.33320032  0.16742407  0.16896575  1
  I  I118  1  0.33864924  0.16903568  0.50108708  1
  I  I119  1  0.33371744  0.16710556  0.83082935  1
  I  I120  1  0.32927705  0.50045842  0.16096987  1
  I  I121  1  0.33649035  0.50117786  0.49965255  1
  I  I122  1  0.33112421  0.50295392  0.83448287  1
  I  I123  1  0.33323241  0.83194157  0.16795660  1
  I  I124  1  0.33739926  0.83065012  0.50562821  1
  I  I125  1  0.33660626  0.82964497  0.82496598  1
  I  I126  1  0.67094136  0.16464852  0.16253165  1
  I  I127  1  0.66447989  0.16714452  0.49993527  1
  I  I128  1  0.67091125  0.17252597  0.83692927  1
  I  I129  1  0.66683303  0.49983385  0.16544165  1
  I  I130  1  0.66789278  0.50108592  0.50485255  1
  I  I131  1  0.67024417  0.49890888  0.83093879  1
  I  I132  1  0.67085004  0.83459318  0.16722963  1
  I  I133  1  0.66768410  0.83198278  0.50080580  1
  I  I134  1  0.66887994  0.83095138  0.83167393  1
