# generated using pymatgen
data_Cs27Sn13Pb14I81
_symmetry_space_group_name_H-M   'P 1'
_cell_length_a   18.98214223
_cell_length_b   18.97657613
_cell_length_c   18.97235442
_cell_angle_alpha   90.00181032
_cell_angle_beta   90.00141827
_cell_angle_gamma   89.99910255
_symmetry_Int_Tables_number   1
_chemical_formula_structural   Cs27Sn13Pb14I81
_chemical_formula_sum   'Cs27 Sn13 Pb14 I81'
_cell_volume   6834.14688535
_cell_formula_units_Z   1
loop_
 _symmetry_equiv_pos_site_id
 _symmetry_equiv_pos_as_xyz
  1  'x, y, z'
loop_
 _atom_site_type_symbol
 _atom_site_label
 _atom_site_symmetry_multiplicity
 _atom_site_fract_x
 _atom_site_fract_y
 _atom_site_fract_z
 _atom_site_occupancy
  Cs  Cs0  1  -0.00070753  0.00133858  0.00063109  1
  Cs  Cs1  1  -0.00301116  -0.00050016  0.33625186  1
  Cs  Cs2  1  0.00796964  0.00186012  0.66093063  1
  Cs  Cs3  1  -0.00277982  0.33096933  -0.00287330  1
  Cs  Cs4  1  0.00031645  0.33768627  0.33071178  1
  Cs  Cs5  1  0.00064811  0.32940253  0.67803557  1
  Cs  Cs6  1  0.00002234  0.66796018  0.00068733  1
  Cs  Cs7  1  -0.00078246  0.66527691  0.33398281  1
  Cs  Cs8  1  0.00205625  0.66933155  0.66616841  1
  Cs  Cs9  1  0.33468273  -0.00109878  0.00101468  1
  Cs  Cs10  1  0.33406919  0.00271997  0.33254428  1
  Cs  Cs11  1  0.33018229  0.00135931  0.66620923  1
  Cs  Cs12  1  0.33468131  0.33437321  -0.00014424  1
  Cs  Cs13  1  0.33258612  0.33373863  0.33376151  1
  Cs  Cs14  1  0.33263802  0.33083009  0.66632336  1
  Cs  Cs15  1  0.33576222  0.66596731  0.00064053  1
  Cs  Cs16  1  0.33436763  0.66484848  0.33091254  1
  Cs  Cs17  1  0.33243581  0.66709411  0.66861188  1
  Cs  Cs18  1  0.66564423  -0.00163969  0.00001867  1
  Cs  Cs19  1  0.66851070  0.00204236  0.33632021  1
  Cs  Cs20  1  0.66506979  -0.00154689  0.66453723  1
  Cs  Cs21  1  0.66792463  0.33286979  -0.00421683  1
  Cs  Cs22  1  0.66850744  0.33234417  0.33494769  1
  Cs  Cs23  1  0.66708173  0.33238880  0.66835752  1
  Cs  Cs24  1  0.66410737  0.66830091  -0.00054197  1
  Cs  Cs25  1  0.66687024  0.66657777  0.33306256  1
  Cs  Cs26  1  0.66673891  0.66727692  0.66660547  1
  Sn  Sn27  1  0.83399555  0.83247743  0.16604305  1
  Sn  Sn28  1  0.16599138  0.50007273  0.16691330  1
  Sn  Sn29  1  0.83315876  0.83350940  0.83351564  1
  Sn  Sn30  1  0.50065069  0.83403730  0.83242468  1
  Sn  Sn31  1  0.83375293  0.50097357  0.16702726  1
  Sn  Sn32  1  0.49975707  0.16678966  0.16598534  1
  Sn  Sn33  1  0.50006867  0.16565715  0.83431569  1
  Sn  Sn34  1  0.49976036  0.83255405  0.50062331  1
  Sn  Sn35  1  0.83375347  0.49995079  0.49976240  1
  Sn  Sn36  1  0.16732315  0.16688362  0.16682234  1
  Sn  Sn37  1  0.16584195  0.83317612  0.16679018  1
  Sn  Sn38  1  0.16631899  0.49990938  0.49967426  1
  Sn  Sn39  1  0.49999206  0.50088913  0.49995557  1
  Pb  Pb40  1  0.50049247  0.83494113  0.16689230  1
  Pb  Pb41  1  0.16643108  0.16959076  0.49734381  1
  Pb  Pb42  1  0.49999800  0.50024724  0.83049735  1
  Pb  Pb43  1  0.83333676  0.50259319  0.83370817  1
  Pb  Pb44  1  0.49998612  0.16664478  0.50014404  1
  Pb  Pb45  1  0.16657472  0.50012271  0.83400262  1
  Pb  Pb46  1  0.16921170  0.16644627  0.83612268  1
  Pb  Pb47  1  0.16686244  0.83336829  0.83563118  1
  Pb  Pb48  1  0.83176140  0.83163375  0.49984338  1
  Pb  Pb49  1  0.83370359  0.16999225  0.50013892  1
  Pb  Pb50  1  0.83105514  0.16297984  0.83325100  1
  Pb  Pb51  1  0.16926376  0.83120840  0.49717599  1
  Pb  Pb52  1  0.50059443  0.49761029  0.16847217  1
  Pb  Pb53  1  0.83347054  0.16672390  0.16671497  1
  I  I54  1  0.16787407  -0.00024391  0.16402202  1
  I  I55  1  0.16935806  -0.00019078  0.49869812  1
  I  I56  1  0.16496031  -0.00017460  0.83515462  1
  I  I57  1  0.16766115  0.33421467  0.17158871  1
  I  I58  1  0.17085975  0.33803151  0.49345434  1
  I  I59  1  0.16898353  0.33323267  0.83440124  1
  I  I60  1  0.16236745  0.66615197  0.17039787  1
  I  I61  1  0.16513907  0.66303147  0.49340947  1
  I  I62  1  0.17011759  0.66692552  0.83623632  1
  I  I63  1  0.49580681  0.00270070  0.16741921  1
  I  I64  1  0.50115530  -0.00277953  0.50038097  1
  I  I65  1  0.50437836  -0.00101378  0.83241993  1
  I  I66  1  0.49598086  0.32984862  0.16291451  1
  I  I67  1  0.49984438  0.33644492  0.49849685  1
  I  I68  1  0.49848023  0.33057822  0.83680602  1
  I  I69  1  0.49740107  0.66663739  0.16480861  1
  I  I70  1  0.50021670  0.66639126  0.50426595  1
  I  I71  1  0.50358907  0.67001143  0.83170202  1
  I  I72  1  0.83561694  -0.00316057  0.16214387  1
  I  I73  1  0.82923149  -0.00054283  0.49839973  1
  I  I74  1  0.83032208  -0.00485848  0.84222615  1
  I  I75  1  0.83580484  0.33659246  0.17218801  1
  I  I76  1  0.82884699  0.33890560  0.49131304  1
  I  I77  1  0.83187025  0.33331225  0.83328301  1
  I  I78  1  0.84018380  0.66661305  0.16704105  1
  I  I79  1  0.83425275  0.66330364  0.49753424  1
  I  I80  1  0.82537349  0.67025798  0.83595900  1
  I  I81  1  0.16824373  0.16986006  0.00453561  1
  I  I82  1  0.17487328  0.16465273  0.32887026  1
  I  I83  1  0.16799270  0.16859272  0.66668151  1
  I  I84  1  0.16228912  0.49980339  0.00451305  1
  I  I85  1  0.16648712  0.49992995  0.33222176  1
  I  I86  1  0.16711023  0.50100230  0.66327214  1
  I  I87  1  0.16837639  0.83007442  0.00427222  1
  I  I88  1  0.16241445  0.83503317  0.32894841  1
  I  I89  1  0.16482394  0.83110384  0.66633758  1
  I  I90  1  0.49597452  0.16100077  0.00023434  1
  I  I91  1  0.49581999  0.16658990  0.33066574  1
  I  I92  1  0.50207501  0.16580979  0.66942685  1
  I  I93  1  0.49944772  0.50177538  0.00014250  1
  I  I94  1  0.49974381  0.50490028  0.33652261  1
  I  I95  1  0.50034189  0.49940267  0.66217669  1
  I  I96  1  0.50085351  0.83638089  -0.00209161  1
  I  I97  1  0.49954097  0.83016817  0.33546575  1
  I  I98  1  0.50626409  0.83445089  0.66735000  1
  I  I99  1  0.83444851  0.17207669  0.00020819  1
  I  I100  1  0.82887275  0.16125703  0.33285483  1
  I  I101  1  0.82972539  0.16810428  0.66689099  1
  I  I102  1  0.83867466  0.50119190  0.00355140  1
  I  I103  1  0.83386492  0.50577364  0.33236913  1
  I  I104  1  0.83230888  0.50093531  0.66354981  1
  I  I105  1  0.83052605  0.82749208  0.00131616  1
  I  I106  1  0.83546218  0.83118496  0.33026236  1
  I  I107  1  0.82781879  0.83113193  0.66901053  1
  I  I108  1  0.00305150  0.16736139  0.16837994  1
  I  I109  1  0.00024540  0.16451506  0.49783631  1
  I  I110  1  0.00008446  0.16740593  0.83411183  1
  I  I111  1  0.00032128  0.49954933  0.17465183  1
  I  I112  1  0.00000651  0.49995820  0.49243365  1
  I  I113  1  -0.00015489  0.50158061  0.82886633  1
  I  I114  1  -0.00039422  0.83372509  0.16127128  1
  I  I115  1  0.00011393  0.83233484  0.50283899  1
  I  I116  1  -0.00287734  0.82989259  0.83691114  1
  I  I117  1  0.33298057  0.16642299  0.16334695  1
  I  I118  1  0.33344347  0.16954548  0.50071536  1
  I  I119  1  0.33726779  0.16000542  0.83452696  1
  I  I120  1  0.33064023  0.50222350  0.17073757  1
  I  I121  1  0.33321068  0.50352596  0.49513213  1
  I  I122  1  0.33355208  0.50256375  0.83428600  1
  I  I123  1  0.33112071  0.83074214  0.16729999  1
  I  I124  1  0.33717979  0.82788219  0.50437949  1
  I  I125  1  0.33678004  0.83691565  0.83069117  1
  I  I126  1  0.66394967  0.16629363  0.16343166  1
  I  I127  1  0.66624401  0.16952982  0.49618966  1
  I  I128  1  0.66281607  0.16641063  0.84091690  1
  I  I129  1  0.66956514  0.50391120  0.17099901  1
  I  I130  1  0.66674428  0.50397318  0.49551047  1
  I  I131  1  0.66655252  0.49792635  0.83417175  1
  I  I132  1  0.66923964  0.82951837  0.16577355  1
  I  I133  1  0.66368232  0.82758994  0.49859261  1
  I  I134  1  0.66588408  0.83604187  0.83649168  1
