# generated using pymatgen
data_Cs27Sn14Pb13I81
_symmetry_space_group_name_H-M   'P 1'
_cell_length_a   18.97364900
_cell_length_b   18.96782542
_cell_length_c   18.98345803
_cell_angle_alpha   90.00004448
_cell_angle_beta   89.99967733
_cell_angle_gamma   90.00018349
_symmetry_Int_Tables_number   1
_chemical_formula_structural   Cs27Sn14Pb13I81
_chemical_formula_sum   'Cs27 Sn14 Pb13 I81'
_cell_volume   6831.93510212
_cell_formula_units_Z   1
loop_
 _symmetry_equiv_pos_site_id
 _symmetry_equiv_pos_as_xyz
  1  'x, y, z'
loop_
 _atom_site_type_symbol
 _atom_site_label
 _atom_site_symmetry_multiplicity
 _atom_site_fract_x
 _atom_site_fract_y
 _atom_site_fract_z
 _atom_site_occupancy
  Cs  Cs0  1  0.00040458  -0.00084199  -0.00041248  1
  Cs  Cs1  1  0.00025400  -0.00204060  0.33580718  1
  Cs  Cs2  1  -0.00050052  0.00076475  0.66549327  1
  Cs  Cs3  1  0.00038986  0.33647691  0.00294355  1
  Cs  Cs4  1  0.00248001  0.33811940  0.32480703  1
  Cs  Cs5  1  0.00032726  0.33195512  0.66909304  1
  Cs  Cs6  1  -0.00200547  0.66550393  -0.00061456  1
  Cs  Cs7  1  -0.00312410  0.66783424  0.33139757  1
  Cs  Cs8  1  -0.00022214  0.66656872  0.66802974  1
  Cs  Cs9  1  0.33478917  0.00000604  0.00028108  1
  Cs  Cs10  1  0.33104467  -0.00044629  0.33139376  1
  Cs  Cs11  1  0.33054139  -0.00229738  0.66911638  1
  Cs  Cs12  1  0.33039726  0.33109801  0.00457748  1
  Cs  Cs13  1  0.33511249  0.33027472  0.33587594  1
  Cs  Cs14  1  0.33124825  0.33894181  0.65939462  1
  Cs  Cs15  1  0.33712459  0.66921292  -0.00304464  1
  Cs  Cs16  1  0.33632753  0.66844714  0.33705877  1
  Cs  Cs17  1  0.33356189  0.66516087  0.66598602  1
  Cs  Cs18  1  0.66518501  0.00165910  -0.00275606  1
  Cs  Cs19  1  0.66926210  0.00043886  0.33545261  1
  Cs  Cs20  1  0.66923792  0.00947566  0.66856911  1
  Cs  Cs21  1  0.66863425  0.33352130  -0.00105127  1
  Cs  Cs22  1  0.66198197  0.33372539  0.33610427  1
  Cs  Cs23  1  0.66668057  0.32780434  0.66489627  1
  Cs  Cs24  1  0.66631812  0.66654086  0.00005168  1
  Cs  Cs25  1  0.66722926  0.66690940  0.33154280  1
  Cs  Cs26  1  0.66742481  0.66667767  0.66837460  1
  Sn  Sn27  1  0.83356739  0.50021772  0.50106059  1
  Sn  Sn28  1  0.49978664  0.50067128  0.16576359  1
  Sn  Sn29  1  0.83376432  0.83296857  0.83380988  1
  Sn  Sn30  1  0.16575733  0.83389527  0.83334582  1
  Sn  Sn31  1  0.83305678  0.83443058  0.16565033  1
  Sn  Sn32  1  0.16621997  0.16596424  0.50058435  1
  Sn  Sn33  1  0.83308946  0.16547403  0.16662301  1
  Sn  Sn34  1  0.50071356  0.49981992  0.83400760  1
  Sn  Sn35  1  0.83230658  0.50071719  0.83219081  1
  Sn  Sn36  1  0.50002689  0.83360338  0.49988445  1
  Sn  Sn37  1  0.16676059  0.16597213  0.83269756  1
  Sn  Sn38  1  0.16668499  0.83307885  0.16643422  1
  Sn  Sn39  1  0.16735158  0.83372618  0.50020218  1
  Sn  Sn40  1  0.50025114  0.83287058  0.16747185  1
  Pb  Pb41  1  0.83539797  0.16674916  0.83498059  1
  Pb  Pb42  1  0.49733301  0.16326996  0.50006652  1
  Pb  Pb43  1  0.16425180  0.50057913  0.49987215  1
  Pb  Pb44  1  0.17023913  0.50328983  0.16670375  1
  Pb  Pb45  1  0.50205025  0.50206622  0.50016776  1
  Pb  Pb46  1  0.83329931  0.83245945  0.50048289  1
  Pb  Pb47  1  0.16663635  0.50023312  0.83351277  1
  Pb  Pb48  1  0.49659694  0.17038957  0.83325828  1
  Pb  Pb49  1  0.50232265  0.16591435  0.16659452  1
  Pb  Pb50  1  0.83138165  0.50057139  0.16609082  1
  Pb  Pb51  1  0.83624182  0.16956389  0.49740387  1
  Pb  Pb52  1  0.50033616  0.83246421  0.83305049  1
  Pb  Pb53  1  0.16490230  0.16431781  0.16672068  1
  I  I54  1  0.17120825  -0.00421958  0.16643527  1
  I  I55  1  0.16988296  -0.00194779  0.50044293  1
  I  I56  1  0.16105732  -0.00227257  0.83256108  1
  I  I57  1  0.16499884  0.33316148  0.16643802  1
  I  I58  1  0.16411310  0.33063867  0.50611929  1
  I  I59  1  0.16698684  0.33067819  0.82781966  1
  I  I60  1  0.15926197  0.67182120  0.16631764  1
  I  I61  1  0.16994611  0.67055788  0.50076667  1
  I  I62  1  0.16544423  0.67020749  0.83315448  1
  I  I63  1  0.49738710  -0.00407080  0.17056105  1
  I  I64  1  0.50027036  -0.00488035  0.49282454  1
  I  I65  1  0.50262459  0.00000084  0.83362737  1
  I  I66  1  0.50322573  0.33614492  0.16211543  1
  I  I67  1  0.49896443  0.33349234  0.49886422  1
  I  I68  1  0.50669600  0.33838927  0.83985767  1
  I  I69  1  0.50191075  0.66836901  0.16658342  1
  I  I70  1  0.49258201  0.66995120  0.49778057  1
  I  I71  1  0.49949773  0.66445456  0.83503705  1
  I  I72  1  0.83206648  -0.00286607  0.16172037  1
  I  I73  1  0.83110688  0.00002558  0.50161358  1
  I  I74  1  0.83559362  -0.00306646  0.83589279  1
  I  I75  1  0.83318461  0.33181094  0.16705779  1
  I  I76  1  0.83334778  0.33712626  0.50520297  1
  I  I77  1  0.83116584  0.33619302  0.83186884  1
  I  I78  1  0.83550296  0.66993910  0.16601837  1
  I  I79  1  0.83523598  0.66463547  0.49921636  1
  I  I80  1  0.83626933  0.66753918  0.83589812  1
  I  I81  1  0.16527632  0.16304033  -0.00242552  1
  I  I82  1  0.16492964  0.16208279  0.33574527  1
  I  I83  1  0.16574464  0.15752179  0.66678829  1
  I  I84  1  0.16159695  0.49808409  0.00002989  1
  I  I85  1  0.16396107  0.49866851  0.33326064  1
  I  I86  1  0.17111816  0.50445423  0.66679186  1
  I  I87  1  0.16607720  0.83652966  -0.00025996  1
  I  I88  1  0.16716616  0.83670643  0.33331084  1
  I  I89  1  0.16678959  0.83684252  0.66689322  1
  I  I90  1  0.49691077  0.16222958  -0.00003203  1
  I  I91  1  0.49814853  0.17276137  0.33325714  1
  I  I92  1  0.50416672  0.16619858  0.66667783  1
  I  I93  1  0.50577275  0.50770052  0.00014336  1
  I  I94  1  0.50231839  0.50344118  0.33094024  1
  I  I95  1  0.50145969  0.50246215  0.66919464  1
  I  I96  1  0.49776603  0.83048724  0.00266548  1
  I  I97  1  0.49685757  0.82729740  0.33196614  1
  I  I98  1  0.49531799  0.83007705  0.66446716  1
  I  I99  1  0.83631622  0.16649971  0.00271197  1
  I  I100  1  0.83537177  0.16020907  0.32993709  1
  I  I101  1  0.83289474  0.16483369  0.66666994  1
  I  I102  1  0.83173837  0.50167379  -0.00265055  1
  I  I103  1  0.83321964  0.50080479  0.33463806  1
  I  I104  1  0.82879043  0.50682260  0.66847252  1
  I  I105  1  0.83686943  0.83068742  0.00013876  1
  I  I106  1  0.83568061  0.83407011  0.33066968  1
  I  I107  1  0.83675537  0.82931119  0.66953172  1
  I  I108  1  -0.00289963  0.16232208  0.16650715  1
  I  I109  1  0.00370396  0.15732650  0.50416130  1
  I  I110  1  0.00320901  0.16596528  0.83017129  1
  I  I111  1  -0.00019535  0.49987412  0.16650062  1
  I  I112  1  -0.00345639  0.50306576  0.50613068  1
  I  I113  1  -0.00293271  0.50196004  0.82967832  1
  I  I114  1  -0.00023254  0.83812427  0.16669047  1
  I  I115  1  0.00287079  0.83539834  0.49770292  1
  I  I116  1  0.00006995  0.83073141  0.83633744  1
  I  I117  1  0.33308621  0.16743376  0.16676802  1
  I  I118  1  0.32915954  0.16718047  0.50238557  1
  I  I119  1  0.32869780  0.15871184  0.83190393  1
  I  I120  1  0.33813489  0.50457698  0.16040906  1
  I  I121  1  0.33343909  0.49853756  0.50014470  1
  I  I122  1  0.33596641  0.50128819  0.83789947  1
  I  I123  1  0.33319350  0.82826564  0.16714681  1
  I  I124  1  0.33229314  0.83543791  0.49646309  1
  I  I125  1  0.33063301  0.83513406  0.83556821  1
  I  I126  1  0.67020414  0.16074763  0.16558928  1
  I  I127  1  0.66701251  0.16628103  0.49876733  1
  I  I128  1  0.66689636  0.16384171  0.83480752  1
  I  I129  1  0.66386206  0.50704185  0.16575777  1
  I  I130  1  0.66968905  0.50339048  0.50047303  1
  I  I131  1  0.66777308  0.50778596  0.83426896  1
  I  I132  1  0.66681552  0.83202467  0.16718424  1
  I  I133  1  0.66453861  0.82813936  0.49526932  1
  I  I134  1  0.66949017  0.82933345  0.83698516  1
