# generated using pymatgen
data_Cs27Sn14Pb13I81
_symmetry_space_group_name_H-M   'P 1'
_cell_length_a   18.98042765
_cell_length_b   18.97707623
_cell_length_c   18.97083793
_cell_angle_alpha   90.00088732
_cell_angle_beta   90.00107983
_cell_angle_gamma   89.99922143
_symmetry_Int_Tables_number   1
_chemical_formula_structural   Cs27Sn14Pb13I81
_chemical_formula_sum   'Cs27 Sn14 Pb13 I81'
_cell_volume   6833.16345162
_cell_formula_units_Z   1
loop_
 _symmetry_equiv_pos_site_id
 _symmetry_equiv_pos_as_xyz
  1  'x, y, z'
loop_
 _atom_site_type_symbol
 _atom_site_label
 _atom_site_symmetry_multiplicity
 _atom_site_fract_x
 _atom_site_fract_y
 _atom_site_fract_z
 _atom_site_occupancy
  Cs  Cs0  1  -0.00059548  -0.00126279  0.00072058  1
  Cs  Cs1  1  -0.00318889  0.00141375  0.33236278  1
  Cs  Cs2  1  -0.00015007  -0.00063288  0.66728359  1
  Cs  Cs3  1  -0.00239634  0.33479963  0.00374531  1
  Cs  Cs4  1  0.00053187  0.33403433  0.33181620  1
  Cs  Cs5  1  0.00149963  0.33545131  0.66814607  1
  Cs  Cs6  1  0.00273996  0.66677713  -0.00297977  1
  Cs  Cs7  1  0.00005213  0.66412549  0.33606499  1
  Cs  Cs8  1  -0.00051085  0.66500662  0.66500652  1
  Cs  Cs9  1  0.32963836  -0.00514121  0.00037751  1
  Cs  Cs10  1  0.33317058  0.00112826  0.33233995  1
  Cs  Cs11  1  0.33413579  0.00858551  0.66779406  1
  Cs  Cs12  1  0.33734741  0.33414636  -0.00548868  1
  Cs  Cs13  1  0.33086957  0.33317523  0.33506764  1
  Cs  Cs14  1  0.33416333  0.32215562  0.67096122  1
  Cs  Cs15  1  0.33417597  0.67026421  0.00174169  1
  Cs  Cs16  1  0.33371383  0.66625257  0.33147442  1
  Cs  Cs17  1  0.33198904  0.66697742  0.66424052  1
  Cs  Cs18  1  0.66996906  0.00042065  0.00005311  1
  Cs  Cs19  1  0.66997556  0.00103584  0.33253916  1
  Cs  Cs20  1  0.66662022  -0.00301838  0.66699395  1
  Cs  Cs21  1  0.66558095  0.33495228  -0.00134184  1
  Cs  Cs22  1  0.66822793  0.33312059  0.33215777  1
  Cs  Cs23  1  0.66484497  0.33299365  0.66965072  1
  Cs  Cs24  1  0.66319013  0.66529724  -0.00079768  1
  Cs  Cs25  1  0.66482386  0.66674866  0.33563378  1
  Cs  Cs26  1  0.66815410  0.66981596  0.66507964  1
  Sn  Sn27  1  0.49964567  0.50009898  0.50010218  1
  Sn  Sn28  1  0.16628724  0.49928826  0.16712496  1
  Sn  Sn29  1  0.49852652  0.83299688  0.50066904  1
  Sn  Sn30  1  0.16722413  0.50044261  0.49962335  1
  Sn  Sn31  1  0.16799019  0.83313658  0.49987238  1
  Sn  Sn32  1  0.49864700  0.16670638  0.16682980  1
  Sn  Sn33  1  0.83324512  0.83148336  0.16569854  1
  Sn  Sn34  1  0.16816193  0.16765490  0.16670779  1
  Sn  Sn35  1  0.50052026  0.83324048  0.83250528  1
  Sn  Sn36  1  0.83375791  0.50149149  0.16740293  1
  Sn  Sn37  1  0.83347683  0.16615743  0.83210929  1
  Sn  Sn38  1  0.83310911  0.49873342  0.49935138  1
  Sn  Sn39  1  0.83331218  0.16809061  0.50132267  1
  Sn  Sn40  1  0.83270060  0.83373189  0.83440843  1
  Pb  Pb41  1  0.50229474  0.16645442  0.49859331  1
  Pb  Pb42  1  0.49985551  0.50274067  0.83003916  1
  Pb  Pb43  1  0.83323916  0.83286996  0.50016011  1
  Pb  Pb44  1  0.83333835  0.50053401  0.83339994  1
  Pb  Pb45  1  0.16426309  0.16704047  0.49842324  1
  Pb  Pb46  1  0.83363499  0.16737089  0.16640641  1
  Pb  Pb47  1  0.49976501  0.49830310  0.16867791  1
  Pb  Pb48  1  0.50228883  0.16395715  0.83602514  1
  Pb  Pb49  1  0.16429951  0.83262404  0.16903663  1
  Pb  Pb50  1  0.16694286  0.49999115  0.83330161  1
  Pb  Pb51  1  0.16657213  0.83328963  0.83024587  1
  Pb  Pb52  1  0.50222373  0.83495964  0.16723904  1
  Pb  Pb53  1  0.16375597  0.16670667  0.83675926  1
  I  I54  1  0.16752306  0.00191437  0.16846140  1
  I  I55  1  0.16880878  -0.00225509  0.49851768  1
  I  I56  1  0.16709519  -0.00007013  0.83320039  1
  I  I57  1  0.16219950  0.33452641  0.17392220  1
  I  I58  1  0.16762759  0.33657449  0.49680696  1
  I  I59  1  0.16499775  0.33313638  0.82796488  1
  I  I60  1  0.16317240  0.66358891  0.16975299  1
  I  I61  1  0.16432326  0.66547644  0.49477450  1
  I  I62  1  0.16351438  0.66695785  0.83783402  1
  I  I63  1  0.49731437  0.00276529  0.16924393  1
  I  I64  1  0.49779132  -0.00303414  0.50248752  1
  I  I65  1  0.50328339  -0.00365294  0.82525151  1
  I  I66  1  0.50316979  0.33053231  0.16953753  1
  I  I67  1  0.49881166  0.33604373  0.49587323  1
  I  I68  1  0.50143560  0.33298386  0.83308943  1
  I  I69  1  0.49891604  0.66672144  0.16467399  1
  I  I70  1  0.50278868  0.66674350  0.50239825  1
  I  I71  1  0.50860370  0.67074122  0.83373249  1
  I  I72  1  0.83285647  -0.00157860  0.16717398  1
  I  I73  1  0.83321952  0.00154983  0.49886491  1
  I  I74  1  0.82944013  -0.00084907  0.83377992  1
  I  I75  1  0.83448495  0.33593993  0.16853613  1
  I  I76  1  0.83334913  0.33473161  0.49796764  1
  I  I77  1  0.83422281  0.33099212  0.83287144  1
  I  I78  1  0.83796812  0.66570850  0.16838933  1
  I  I79  1  0.83368619  0.66398443  0.49866928  1
  I  I80  1  0.82947861  0.66980650  0.83395387  1
  I  I81  1  0.16784428  0.17213066  0.00483402  1
  I  I82  1  0.16598721  0.16782065  0.33050992  1
  I  I83  1  0.16680258  0.16686660  0.66657940  1
  I  I84  1  0.15925251  0.49561763  0.00388906  1
  I  I85  1  0.16425677  0.50009482  0.33405122  1
  I  I86  1  0.16337541  0.50592081  0.66244499  1
  I  I87  1  0.16826696  0.83336537  0.00022324  1
  I  I88  1  0.17061137  0.83153950  0.33685795  1
  I  I89  1  0.16366635  0.82612871  0.66221233  1
  I  I90  1  0.49945853  0.16641559  0.00363353  1
  I  I91  1  0.50076392  0.16413091  0.33089254  1
  I  I92  1  0.50016772  0.16866420  0.66672558  1
  I  I93  1  0.50094646  0.49962542  0.00018022  1
  I  I94  1  0.50154148  0.50712963  0.33690771  1
  I  I95  1  0.50222635  0.50066196  0.66146879  1
  I  I96  1  0.50413715  0.83677044  -0.00214836  1
  I  I97  1  0.49860307  0.83014850  0.33649246  1
  I  I98  1  0.50449548  0.82898942  0.66565702  1
  I  I99  1  0.83324065  0.16424794  -0.00192025  1
  I  I100  1  0.83316314  0.16646613  0.33514150  1
  I  I101  1  0.83254222  0.16546778  0.66611088  1
  I  I102  1  0.83865924  0.49966103  0.00326659  1
  I  I103  1  0.83429244  0.49984494  0.33399006  1
  I  I104  1  0.83430777  0.49969298  0.66317505  1
  I  I105  1  0.82838548  0.83572788  -0.00037026  1
  I  I106  1  0.83348245  0.83405236  0.33154452  1
  I  I107  1  0.83219102  0.83491797  0.66865537  1
  I  I108  1  0.00180660  0.16787591  0.16736902  1
  I  I109  1  -0.00376798  0.16857316  0.49991976  1
  I  I110  1  -0.00424498  0.15919598  0.83062933  1
  I  I111  1  -0.00053099  0.49718377  0.17507999  1
  I  I112  1  -0.00021057  0.50094241  0.49572093  1
  I  I113  1  -0.00027393  0.50236713  0.82870570  1
  I  I114  1  -0.00375681  0.83581161  0.16320365  1
  I  I115  1  0.00162553  0.83050388  0.49864695  1
  I  I116  1  -0.00330118  0.83745051  0.83638607  1
  I  I117  1  0.33257978  0.17101782  0.16971570  1
  I  I118  1  0.33328443  0.16831074  0.49961307  1
  I  I119  1  0.33349781  0.16559361  0.83226790  1
  I  I120  1  0.33037973  0.49742700  0.17200902  1
  I  I121  1  0.33270579  0.50735815  0.49458579  1
  I  I122  1  0.33353296  0.50234311  0.83543421  1
  I  I123  1  0.33327617  0.83237064  0.16391198  1
  I  I124  1  0.33412754  0.82498891  0.50372781  1
  I  I125  1  0.33631075  0.83205031  0.83168675  1
  I  I126  1  0.66553831  0.16541593  0.16751569  1
  I  I127  1  0.67030982  0.16934086  0.49909398  1
  I  I128  1  0.67016893  0.16486161  0.83238086  1
  I  I129  1  0.66958249  0.50126017  0.17120918  1
  I  I130  1  0.66741979  0.50115683  0.49573343  1
  I  I131  1  0.66683056  0.49740571  0.83461358  1
  I  I132  1  0.67034108  0.83084173  0.16852195  1
  I  I133  1  0.66471527  0.83048920  0.50062830  1
  I  I134  1  0.66765155  0.83706620  0.83027607  1
