# generated using pymatgen
data_Cs27Sn14Pb13I81
_symmetry_space_group_name_H-M   'P 1'
_cell_length_a   18.97134066
_cell_length_b   18.98428152
_cell_length_c   18.97427489
_cell_angle_alpha   90.00051355
_cell_angle_beta   89.99652739
_cell_angle_gamma   90.00066054
_symmetry_Int_Tables_number   1
_chemical_formula_structural   Cs27Sn14Pb13I81
_chemical_formula_sum   'Cs27 Sn14 Pb13 I81'
_cell_volume   6833.72306782
_cell_formula_units_Z   1
loop_
 _symmetry_equiv_pos_site_id
 _symmetry_equiv_pos_as_xyz
  1  'x, y, z'
loop_
 _atom_site_type_symbol
 _atom_site_label
 _atom_site_symmetry_multiplicity
 _atom_site_fract_x
 _atom_site_fract_y
 _atom_site_fract_z
 _atom_site_occupancy
  Cs  Cs0  1  0.00048691  0.00001587  0.00016944  1
  Cs  Cs1  1  0.00095559  -0.00109539  0.33307763  1
  Cs  Cs2  1  0.00062283  -0.00226728  0.66658133  1
  Cs  Cs3  1  -0.00076521  0.33243151  0.00048208  1
  Cs  Cs4  1  -0.00575201  0.33352354  0.33284091  1
  Cs  Cs5  1  0.00367732  0.33756993  0.66714012  1
  Cs  Cs6  1  -0.00107364  0.66762621  0.00075824  1
  Cs  Cs7  1  -0.00022131  0.66866403  0.33286317  1
  Cs  Cs8  1  0.00188473  0.66703831  0.66544624  1
  Cs  Cs9  1  0.33393665  0.00131654  0.00019040  1
  Cs  Cs10  1  0.33100829  0.00120934  0.33178916  1
  Cs  Cs11  1  0.33280861  -0.00151905  0.66732030  1
  Cs  Cs12  1  0.33589960  0.33253281  0.00210941  1
  Cs  Cs13  1  0.33318554  0.33218016  0.33126789  1
  Cs  Cs14  1  0.33207959  0.33719214  0.66557736  1
  Cs  Cs15  1  0.33599542  0.66654399  0.00083599  1
  Cs  Cs16  1  0.33385056  0.66619176  0.33221110  1
  Cs  Cs17  1  0.33304604  0.66424318  0.66663477  1
  Cs  Cs18  1  0.66596531  0.00085194  -0.00097135  1
  Cs  Cs19  1  0.66531456  0.00131096  0.33797316  1
  Cs  Cs20  1  0.66593498  0.00176241  0.66580349  1
  Cs  Cs21  1  0.66552611  0.33417937  -0.00068585  1
  Cs  Cs22  1  0.67342889  0.33183189  0.33994138  1
  Cs  Cs23  1  0.66553740  0.33145961  0.66555680  1
  Cs  Cs24  1  0.66562607  0.66497364  -0.00102540  1
  Cs  Cs25  1  0.66545995  0.66705804  0.33566623  1
  Cs  Cs26  1  0.66508282  0.66637108  0.66833175  1
  Sn  Sn27  1  0.83384610  0.83345381  0.49998442  1
  Sn  Sn28  1  0.83350221  0.83359966  0.16673418  1
  Sn  Sn29  1  0.16694057  0.49981105  0.16640967  1
  Sn  Sn30  1  0.83337561  0.83337206  0.83340072  1
  Sn  Sn31  1  0.49981948  0.49866625  0.16641891  1
  Sn  Sn32  1  0.16598623  0.83337318  0.16701856  1
  Sn  Sn33  1  0.49993563  0.16771450  0.16631988  1
  Sn  Sn34  1  0.16613556  0.83420323  0.49904386  1
  Sn  Sn35  1  0.83292637  0.16677987  0.83359946  1
  Sn  Sn36  1  0.83280633  0.49986106  0.83365067  1
  Sn  Sn37  1  0.16696004  0.16684543  0.16734330  1
  Sn  Sn38  1  0.50080074  0.49892780  0.83425985  1
  Sn  Sn39  1  0.16655614  0.16611068  0.49920770  1
  Sn  Sn40  1  0.50058689  0.16745983  0.83412811  1
  Pb  Pb41  1  0.49999368  0.49971163  0.49961390  1
  Pb  Pb42  1  0.16732636  0.49997516  0.83608242  1
  Pb  Pb43  1  0.83265537  0.50205005  0.16504279  1
  Pb  Pb44  1  0.49973161  0.83361767  0.16676133  1
  Pb  Pb45  1  0.49739043  0.16672071  0.50000969  1
  Pb  Pb46  1  0.83298083  0.16458358  0.16509468  1
  Pb  Pb47  1  0.16733703  0.16673316  0.83345554  1
  Pb  Pb48  1  0.50231123  0.83344175  0.83335463  1
  Pb  Pb49  1  0.49905734  0.83340885  0.49991373  1
  Pb  Pb50  1  0.16470571  0.83323463  0.83348960  1
  Pb  Pb51  1  0.16668664  0.50026839  0.49678006  1
  Pb  Pb52  1  0.83339381  0.50264041  0.50312605  1
  Pb  Pb53  1  0.83609275  0.16465714  0.50297240  1
  I  I54  1  0.16670916  0.00005753  0.17032810  1
  I  I55  1  0.16289080  -0.00077009  0.49164840  1
  I  I56  1  0.16684468  0.00009152  0.83771304  1
  I  I57  1  0.17193891  0.33264719  0.16909323  1
  I  I58  1  0.16871153  0.33050324  0.49767377  1
  I  I59  1  0.15929554  0.33325246  0.83138936  1
  I  I60  1  0.16637729  0.66731765  0.16925020  1
  I  I61  1  0.16171935  0.67007555  0.49685096  1
  I  I62  1  0.16664108  0.66659466  0.83317761  1
  I  I63  1  0.49674804  0.00318329  0.16176925  1
  I  I64  1  0.50258390  0.00023545  0.50071311  1
  I  I65  1  0.50324340  0.00333952  0.83778891  1
  I  I66  1  0.48948880  0.33300961  0.16048120  1
  I  I67  1  0.49758949  0.33306117  0.50075612  1
  I  I68  1  0.50915805  0.33315612  0.83833398  1
  I  I69  1  0.49699604  0.66379891  0.16141689  1
  I  I70  1  0.49832993  0.66657721  0.50070755  1
  I  I71  1  0.50372696  0.66340779  0.83823699  1
  I  I72  1  0.83765215  -0.00351509  0.16347264  1
  I  I73  1  0.83512903  -0.00353401  0.50178786  1
  I  I74  1  0.83009267  -0.00025171  0.83368508  1
  I  I75  1  0.83731014  0.33326286  0.16389197  1
  I  I76  1  0.83450591  0.33309626  0.50097064  1
  I  I77  1  0.82934871  0.33323667  0.83521185  1
  I  I78  1  0.83778569  0.67021191  0.16416887  1
  I  I79  1  0.84097801  0.67107427  0.50095803  1
  I  I80  1  0.82997168  0.66691738  0.83371308  1
  I  I81  1  0.16724770  0.16521712  0.00336204  1
  I  I82  1  0.17270459  0.16495216  0.33148214  1
  I  I83  1  0.16521495  0.15955401  0.66412020  1
  I  I84  1  0.16720063  0.50026700  0.00423264  1
  I  I85  1  0.17323060  0.50118066  0.32862270  1
  I  I86  1  0.16684517  0.50069764  0.66665671  1
  I  I87  1  0.16247925  0.83459447  0.00362025  1
  I  I88  1  0.15808098  0.83393531  0.33214526  1
  I  I89  1  0.16257091  0.83916414  0.66347309  1
  I  I90  1  0.49756778  0.16976369  0.00027552  1
  I  I91  1  0.49719761  0.16989803  0.32985619  1
  I  I92  1  0.50375005  0.17006145  0.67006670  1
  I  I93  1  0.49978027  0.49637060  0.00006380  1
  I  I94  1  0.49414937  0.49744932  0.32932094  1
  I  I95  1  0.50501942  0.49662558  0.67040172  1
  I  I96  1  0.49950742  0.83358568  0.00012377  1
  I  I97  1  0.50682258  0.83245108  0.33300179  1
  I  I98  1  0.49927419  0.83306082  0.66688385  1
  I  I99  1  0.83494913  0.16326721  -0.00308921  1
  I  I100  1  0.83014886  0.16492162  0.33341292  1
  I  I101  1  0.82795142  0.16421889  0.67104527  1
  I  I102  1  0.83278394  0.50342017  -0.00315807  1
  I  I103  1  0.83298953  0.50185796  0.33316937  1
  I  I104  1  0.82729763  0.50148751  0.67160424  1
  I  I105  1  0.83771459  0.83316114  -0.00016543  1
  I  I106  1  0.83857225  0.83315441  0.33300082  1
  I  I107  1  0.83752137  0.83333413  0.66693704  1
  I  I108  1  0.00292094  0.16819934  0.16845663  1
  I  I109  1  0.00378372  0.16442815  0.49369250  1
  I  I110  1  -0.00269479  0.16560372  0.83367007  1
  I  I111  1  0.00255246  0.49845789  0.16540429  1
  I  I112  1  0.00011189  0.49753462  0.50138045  1
  I  I113  1  -0.00295490  0.50042179  0.83402693  1
  I  I114  1  0.00077802  0.83319155  0.16627147  1
  I  I115  1  0.00018276  0.83745575  0.49982500  1
  I  I116  1  -0.00407189  0.83380566  0.83387200  1
  I  I117  1  0.33279352  0.16453840  0.16412378  1
  I  I118  1  0.32952521  0.15846395  0.50045499  1
  I  I119  1  0.33657945  0.17244935  0.83450602  1
  I  I120  1  0.33333290  0.50217945  0.16071338  1
  I  I121  1  0.33306585  0.50393990  0.50688834  1
  I  I122  1  0.33686941  0.49406307  0.83470718  1
  I  I123  1  0.32994085  0.83313401  0.17237718  1
  I  I124  1  0.32914718  0.83708408  0.49362028  1
  I  I125  1  0.33341543  0.83324130  0.83265500  1
  I  I126  1  0.66381474  0.16965308  0.16261727  1
  I  I127  1  0.66688540  0.16479494  0.49771370  1
  I  I128  1  0.66648363  0.16590274  0.83934369  1
  I  I129  1  0.66362971  0.49735605  0.16308895  1
  I  I130  1  0.66687630  0.50291434  0.49421876  1
  I  I131  1  0.66651482  0.50101756  0.84001834  1
  I  I132  1  0.66966495  0.83288359  0.16565808  1
  I  I133  1  0.67015513  0.83201860  0.49972841  1
  I  I134  1  0.67101587  0.83315994  0.83421051  1
