# generated using pymatgen
data_Cs27Sn14Pb13I81
_symmetry_space_group_name_H-M   'P 1'
_cell_length_a   18.97341077
_cell_length_b   18.97396664
_cell_length_c   18.97782761
_cell_angle_alpha   89.99974007
_cell_angle_beta   89.99990515
_cell_angle_gamma   89.99981075
_symmetry_Int_Tables_number   1
_chemical_formula_structural   Cs27Sn14Pb13I81
_chemical_formula_sum   'Cs27 Sn14 Pb13 I81'
_cell_volume   6832.03431469
_cell_formula_units_Z   1
loop_
 _symmetry_equiv_pos_site_id
 _symmetry_equiv_pos_as_xyz
  1  'x, y, z'
loop_
 _atom_site_type_symbol
 _atom_site_label
 _atom_site_symmetry_multiplicity
 _atom_site_fract_x
 _atom_site_fract_y
 _atom_site_fract_z
 _atom_site_occupancy
  Cs  Cs0  1  0.00156567  -0.00244624  -0.00097889  1
  Cs  Cs1  1  0.00137683  -0.00138021  0.33275899  1
  Cs  Cs2  1  0.00090379  0.00025675  0.66745687  1
  Cs  Cs3  1  0.00035737  0.33677360  -0.00056365  1
  Cs  Cs4  1  -0.00802344  0.33588301  0.33349653  1
  Cs  Cs5  1  -0.00187643  0.33272856  0.66627149  1
  Cs  Cs6  1  0.00109251  0.66791861  0.00133218  1
  Cs  Cs7  1  -0.00013326  0.66767914  0.33311890  1
  Cs  Cs8  1  -0.00054378  0.66838922  0.66625659  1
  Cs  Cs9  1  0.32986076  0.00206489  0.00293107  1
  Cs  Cs10  1  0.33224012  -0.00088814  0.33429975  1
  Cs  Cs11  1  0.33092894  0.00316572  0.66481473  1
  Cs  Cs12  1  0.33478577  0.33980707  -0.00038541  1
  Cs  Cs13  1  0.33295391  0.33271872  0.33674787  1
  Cs  Cs14  1  0.33302803  0.33218519  0.66635326  1
  Cs  Cs15  1  0.33909840  0.65447389  -0.00032824  1
  Cs  Cs16  1  0.33456000  0.66814532  0.33586027  1
  Cs  Cs17  1  0.33608944  0.66306507  0.66429048  1
  Cs  Cs18  1  0.66467984  -0.00070877  0.00013392  1
  Cs  Cs19  1  0.66508513  0.00044683  0.32830424  1
  Cs  Cs20  1  0.66594149  -0.00119981  0.66929773  1
  Cs  Cs21  1  0.66632540  0.33298845  0.00692492  1
  Cs  Cs22  1  0.67619991  0.33345671  0.32808703  1
  Cs  Cs23  1  0.66875507  0.33261154  0.66484304  1
  Cs  Cs24  1  0.65710088  0.66751340  -0.00464115  1
  Cs  Cs25  1  0.66621511  0.66732420  0.33213132  1
  Cs  Cs26  1  0.66498233  0.67020158  0.67014661  1
  Sn  Sn27  1  0.16699137  0.83323660  0.83348054  1
  Sn  Sn28  1  0.16653123  0.83368583  0.16637564  1
  Sn  Sn29  1  0.83363750  0.49939911  0.83325940  1
  Sn  Sn30  1  0.16676171  0.16625512  0.83371551  1
  Sn  Sn31  1  0.83385644  0.83387306  0.49925574  1
  Sn  Sn32  1  0.16643233  0.16668018  0.16686041  1
  Sn  Sn33  1  0.16669371  0.16710723  0.49957841  1
  Sn  Sn34  1  0.83353145  0.16751907  0.83338684  1
  Sn  Sn35  1  0.16678137  0.49968672  0.50008184  1
  Sn  Sn36  1  0.49998999  0.49843470  0.50001674  1
  Sn  Sn37  1  0.49957358  0.16655056  0.83270646  1
  Sn  Sn38  1  0.49982301  0.16774954  0.50048313  1
  Sn  Sn39  1  0.83404119  0.83335259  0.16718619  1
  Sn  Sn40  1  0.16586788  0.83326481  0.50025469  1
  Pb  Pb41  1  0.83351470  0.50348941  0.16355864  1
  Pb  Pb42  1  0.49973395  0.83413509  0.50004850  1
  Pb  Pb43  1  0.83317411  0.16430933  0.50148096  1
  Pb  Pb44  1  0.49999935  0.49959251  0.17035392  1
  Pb  Pb45  1  0.16539537  0.49965146  0.83099161  1
  Pb  Pb46  1  0.50256306  0.49684949  0.83086219  1
  Pb  Pb47  1  0.83615307  0.16439342  0.16366003  1
  Pb  Pb48  1  0.49885846  0.83338967  0.16654324  1
  Pb  Pb49  1  0.16657458  0.50012455  0.16978182  1
  Pb  Pb50  1  0.49578800  0.83613355  0.83322219  1
  Pb  Pb51  1  0.83505744  0.83366420  0.83365677  1
  Pb  Pb52  1  0.49730577  0.16674520  0.16723723  1
  Pb  Pb53  1  0.83299639  0.50247709  0.50149816  1
  I  I54  1  0.16359461  -0.00025525  0.16986891  1
  I  I55  1  0.16692140  0.00033771  0.50062494  1
  I  I56  1  0.16422335  0.00113859  0.82911059  1
  I  I57  1  0.16861955  0.33012398  0.16475081  1
  I  I58  1  0.17201080  0.33215977  0.50149093  1
  I  I59  1  0.16814084  0.32962045  0.83320062  1
  I  I60  1  0.16197986  0.67022798  0.16660501  1
  I  I61  1  0.16664497  0.66762244  0.50041972  1
  I  I62  1  0.16165511  0.66927261  0.83266970  1
  I  I63  1  0.50225910  0.00019097  0.16909006  1
  I  I64  1  0.49570711  0.00348309  0.50408702  1
  I  I65  1  0.50587162  0.00421196  0.82578383  1
  I  I66  1  0.49776980  0.33289985  0.16350947  1
  I  I67  1  0.48940523  0.33217588  0.50530536  1
  I  I68  1  0.49256146  0.32902516  0.83104365  1
  I  I69  1  0.49810061  0.66662569  0.16737511  1
  I  I70  1  0.49590926  0.66446330  0.49925222  1
  I  I71  1  0.50172656  0.66636290  0.83254538  1
  I  I72  1  0.83618238  -0.00338072  0.16938689  1
  I  I73  1  0.83895454  -0.00347097  0.49992309  1
  I  I74  1  0.83268123  0.00269359  0.83245208  1
  I  I75  1  0.83415343  0.33320650  0.16767091  1
  I  I76  1  0.83614065  0.33314323  0.50058679  1
  I  I77  1  0.83688383  0.33174489  0.83046809  1
  I  I78  1  0.84273015  0.67118623  0.17017133  1
  I  I79  1  0.83873787  0.67024662  0.49973103  1
  I  I80  1  0.83676072  0.66515552  0.83180342  1
  I  I81  1  0.16558914  0.15808612  -0.00103291  1
  I  I82  1  0.17249774  0.16281883  0.33462287  1
  I  I83  1  0.16718968  0.16368081  0.66659392  1
  I  I84  1  0.16494660  0.50068425  -0.00015760  1
  I  I85  1  0.16987715  0.50031423  0.33805601  1
  I  I86  1  0.16926770  0.50074349  0.66290908  1
  I  I87  1  0.16066128  0.84345958  0.00007442  1
  I  I88  1  0.16296515  0.83634687  0.33411722  1
  I  I89  1  0.16206197  0.83686499  0.66589606  1
  I  I90  1  0.49965707  0.16426127  -0.00308522  1
  I  I91  1  0.49424002  0.16897362  0.33701992  1
  I  I92  1  0.49420693  0.16935058  0.66618297  1
  I  I93  1  0.50110879  0.50032985  -0.00039165  1
  I  I94  1  0.49515127  0.49445546  0.33847817  1
  I  I95  1  0.49471455  0.49904399  0.66322333  1
  I  I96  1  0.50275820  0.83507964  -0.00029033  1
  I  I97  1  0.49675827  0.83497373  0.33361517  1
  I  I98  1  0.50271355  0.83093707  0.66654963  1
  I  I99  1  0.83274788  0.16792851  -0.00441266  1
  I  I100  1  0.83269669  0.16734068  0.33315895  1
  I  I101  1  0.83862154  0.16670507  0.66956827  1
  I  I102  1  0.83569301  0.49570240  -0.00408011  1
  I  I103  1  0.83284511  0.49941213  0.33344153  1
  I  I104  1  0.83471943  0.49809134  0.66909421  1
  I  I105  1  0.83982320  0.83414434  0.00222833  1
  I  I106  1  0.84211622  0.83325434  0.33398900  1
  I  I107  1  0.83833067  0.83317347  0.66465089  1
  I  I108  1  0.00430674  0.16397550  0.16883133  1
  I  I109  1  0.00348926  0.16820652  0.50145730  1
  I  I110  1  0.00151920  0.16587820  0.83223921  1
  I  I111  1  0.00008454  0.49744564  0.16944830  1
  I  I112  1  0.00274754  0.49773238  0.50160913  1
  I  I113  1  -0.00218061  0.49419935  0.82959552  1
  I  I114  1  0.00177097  0.83764517  0.16808473  1
  I  I115  1  0.00228696  0.83338746  0.49991755  1
  I  I116  1  0.00325183  0.83939897  0.83190935  1
  I  I117  1  0.32896140  0.15858557  0.16351030  1
  I  I118  1  0.33143374  0.16513021  0.50424758  1
  I  I119  1  0.33195389  0.16037847  0.83156942  1
  I  I120  1  0.33296027  0.50280215  0.16204401  1
  I  I121  1  0.33206938  0.50200992  0.50131378  1
  I  I122  1  0.33353489  0.50144357  0.83437969  1
  I  I123  1  0.32873383  0.83896896  0.16928943  1
  I  I124  1  0.32952347  0.83360211  0.49934649  1
  I  I125  1  0.32771465  0.83831132  0.83110614  1
  I  I126  1  0.66698264  0.16499957  0.16656010  1
  I  I127  1  0.66397144  0.16941071  0.50612826  1
  I  I128  1  0.66657164  0.17066224  0.82673837  1
  I  I129  1  0.66698431  0.50125186  0.16889230  1
  I  I130  1  0.66407732  0.49626997  0.50246733  1
  I  I131  1  0.67011462  0.49776604  0.83033253  1
  I  I132  1  0.66960427  0.83271248  0.17242122  1
  I  I133  1  0.66946874  0.83283400  0.49603775  1
  I  I134  1  0.66660147  0.83369861  0.83307923  1
