# generated using pymatgen
data_Cs27Sn14Pb13I81
_symmetry_space_group_name_H-M   'P 1'
_cell_length_a   18.95838880
_cell_length_b   18.96185065
_cell_length_c   18.96227710
_cell_angle_alpha   89.99895539
_cell_angle_beta   89.99801493
_cell_angle_gamma   90.00057948
_symmetry_Int_Tables_number   1
_chemical_formula_structural   Cs27Sn14Pb13I81
_chemical_formula_sum   'Cs27 Sn14 Pb13 I81'
_cell_volume   6816.67573790
_cell_formula_units_Z   1
loop_
 _symmetry_equiv_pos_site_id
 _symmetry_equiv_pos_as_xyz
  1  'x, y, z'
loop_
 _atom_site_type_symbol
 _atom_site_label
 _atom_site_symmetry_multiplicity
 _atom_site_fract_x
 _atom_site_fract_y
 _atom_site_fract_z
 _atom_site_occupancy
  Cs  Cs0  1  0.00048170  -0.00226285  -0.00175982  1
  Cs  Cs1  1  0.00293244  0.00472522  0.34102905  1
  Cs  Cs2  1  -0.00086156  -0.00417601  0.66317280  1
  Cs  Cs3  1  0.00006322  0.33346979  -0.00001169  1
  Cs  Cs4  1  -0.00591512  0.33244689  0.33492264  1
  Cs  Cs5  1  0.00213554  0.33301058  0.66686670  1
  Cs  Cs6  1  0.00174727  0.66895091  -0.00221670  1
  Cs  Cs7  1  -0.00093109  0.66334897  0.33306819  1
  Cs  Cs8  1  -0.00482738  0.67083637  0.67069834  1
  Cs  Cs9  1  0.33335467  0.00116906  0.00178386  1
  Cs  Cs10  1  0.33358172  -0.00045115  0.33394973  1
  Cs  Cs11  1  0.33259620  0.00010293  0.65990624  1
  Cs  Cs12  1  0.33409892  0.33360159  -0.00118476  1
  Cs  Cs13  1  0.33303128  0.33393666  0.33306073  1
  Cs  Cs14  1  0.33313485  0.33406511  0.66818808  1
  Cs  Cs15  1  0.33245129  0.66570364  0.00200125  1
  Cs  Cs16  1  0.33423054  0.66631796  0.33149304  1
  Cs  Cs17  1  0.33405644  0.66397502  0.66351298  1
  Cs  Cs18  1  0.66592492  -0.00028333  0.00070927  1
  Cs  Cs19  1  0.66566418  0.00131119  0.33233382  1
  Cs  Cs20  1  0.66684157  -0.00607752  0.66652667  1
  Cs  Cs21  1  0.66663629  0.33182098  -0.00129710  1
  Cs  Cs22  1  0.67157664  0.33350363  0.33174754  1
  Cs  Cs23  1  0.66441086  0.33381118  0.67078107  1
  Cs  Cs24  1  0.66546057  0.66838418  0.00076774  1
  Cs  Cs25  1  0.66632021  0.66541794  0.33403178  1
  Cs  Cs26  1  0.66886803  0.67039439  0.66478958  1
  Sn  Sn27  1  0.50092550  0.83330031  0.16560305  1
  Sn  Sn28  1  0.49948741  0.16716060  0.16734058  1
  Sn  Sn29  1  0.49968773  0.49958325  0.16726207  1
  Sn  Sn30  1  0.83427042  0.16713062  0.83350215  1
  Sn  Sn31  1  0.49947770  0.49870287  0.49892580  1
  Sn  Sn32  1  0.16724863  0.16771237  0.16592490  1
  Sn  Sn33  1  0.16723637  0.49876594  0.16685867  1
  Sn  Sn34  1  0.16714219  0.49971615  0.49981599  1
  Sn  Sn35  1  0.50018607  0.16801570  0.49900062  1
  Sn  Sn36  1  0.83395142  0.49920253  0.83382019  1
  Sn  Sn37  1  0.49900883  0.83328534  0.83400155  1
  Sn  Sn38  1  0.16578575  0.49929883  0.83337438  1
  Sn  Sn39  1  0.83319114  0.83361024  0.16692576  1
  Sn  Sn40  1  0.16583029  0.16711621  0.83398113  1
  Pb  Pb41  1  0.83387686  0.16473885  0.16491516  1
  Pb  Pb42  1  0.16933392  0.83365568  0.83329283  1
  Pb  Pb43  1  0.16844674  0.16882596  0.49994901  1
  Pb  Pb44  1  0.16665438  0.82975965  0.49988581  1
  Pb  Pb45  1  0.49936679  0.16467474  0.83330364  1
  Pb  Pb46  1  0.49965543  0.50175241  0.83336850  1
  Pb  Pb47  1  0.49992184  0.83288570  0.49890617  1
  Pb  Pb48  1  0.83146489  0.83356418  0.83495001  1
  Pb  Pb49  1  0.83332188  0.83332647  0.49622195  1
  Pb  Pb50  1  0.83014395  0.16691559  0.50331196  1
  Pb  Pb51  1  0.83354392  0.50148279  0.16450741  1
  Pb  Pb52  1  0.16684926  0.83367244  0.16683949  1
  Pb  Pb53  1  0.83302413  0.49979881  0.50283523  1
  I  I54  1  0.17048228  0.00351826  0.16047065  1
  I  I55  1  0.16846301  0.00058100  0.50008221  1
  I  I56  1  0.16425488  0.00358683  0.83951722  1
  I  I57  1  0.17472429  0.33395207  0.16453846  1
  I  I58  1  0.17024850  0.33699605  0.50094989  1
  I  I59  1  0.16388188  0.33404760  0.83454991  1
  I  I60  1  0.17001122  0.66315450  0.16600006  1
  I  I61  1  0.17481772  0.66106675  0.49905591  1
  I  I62  1  0.16384544  0.66304240  0.83447232  1
  I  I63  1  0.49990267  0.00067280  0.16593907  1
  I  I64  1  0.50008049  0.00265317  0.49803241  1
  I  I65  1  0.50123214  -0.00272778  0.83804466  1
  I  I66  1  0.49526328  0.33349809  0.17044814  1
  I  I67  1  0.49635200  0.33422150  0.49407474  1
  I  I68  1  0.50127919  0.33332862  0.83473177  1
  I  I69  1  0.49950287  0.66578180  0.16615523  1
  I  I70  1  0.49565054  0.66326319  0.49768397  1
  I  I71  1  0.50051792  0.66923248  0.83797886  1
  I  I72  1  0.82716113  -0.00285077  0.16240851  1
  I  I73  1  0.83152218  0.00025362  0.50342974  1
  I  I74  1  0.83585542  0.00261802  0.83534395  1
  I  I75  1  0.83036316  0.33325266  0.16623100  1
  I  I76  1  0.83333974  0.33343671  0.49624982  1
  I  I77  1  0.83551131  0.33349667  0.83486374  1
  I  I78  1  0.82828045  0.66923223  0.16339134  1
  I  I79  1  0.83141571  0.66628824  0.50369868  1
  I  I80  1  0.83693217  0.66420913  0.83429793  1
  I  I81  1  0.16953448  0.17394681  0.00040687  1
  I  I82  1  0.16954073  0.16876765  0.33023069  1
  I  I83  1  0.16577895  0.17087577  0.66941394  1
  I  I84  1  0.16783586  0.49693193  0.00035463  1
  I  I85  1  0.17265190  0.49806010  0.33222641  1
  I  I86  1  0.16859638  0.49622230  0.66735929  1
  I  I87  1  0.16648595  0.82852948  0.00014266  1
  I  I88  1  0.16835576  0.83465570  0.33292366  1
  I  I89  1  0.16959759  0.83422554  0.66693247  1
  I  I90  1  0.49917169  0.16874216  0.00296590  1
  I  I91  1  0.49455716  0.16430310  0.33146127  1
  I  I92  1  0.49997571  0.16983812  0.66455471  1
  I  I93  1  0.49733959  0.49835809  0.00298937  1
  I  I94  1  0.49293833  0.50218510  0.33213099  1
  I  I95  1  0.49697298  0.49741977  0.66432477  1
  I  I96  1  0.50340551  0.83295534  0.00209441  1
  I  I97  1  0.50323900  0.83302717  0.32956572  1
  I  I98  1  0.50004971  0.83339726  0.66868761  1
  I  I99  1  0.83164914  0.17008933  -0.00304505  1
  I  I100  1  0.83528683  0.16400991  0.33318199  1
  I  I101  1  0.83813390  0.17043745  0.67137040  1
  I  I102  1  0.83612752  0.49732050  -0.00342846  1
  I  I103  1  0.83539648  0.50299849  0.33304541  1
  I  I104  1  0.83584270  0.49740254  0.67095519  1
  I  I105  1  0.82907554  0.83270793  0.00258983  1
  I  I106  1  0.82488564  0.83203194  0.32844313  1
  I  I107  1  0.83060307  0.83271351  0.66697576  1
  I  I108  1  0.00327833  0.17011246  0.16389251  1
  I  I109  1  0.00023133  0.16767946  0.49697350  1
  I  I110  1  0.00118267  0.17085519  0.83971571  1
  I  I111  1  0.00340021  0.49759422  0.16889590  1
  I  I112  1  0.00330064  0.50021420  0.49631160  1
  I  I113  1  0.00138043  0.49723824  0.83393444  1
  I  I114  1  -0.00224980  0.83166621  0.16463100  1
  I  I115  1  -0.00002412  0.83287034  0.49992554  1
  I  I116  1  0.00000934  0.83243036  0.83532996  1
  I  I117  1  0.33396106  0.16552659  0.16396781  1
  I  I118  1  0.33661964  0.16813850  0.50110472  1
  I  I119  1  0.33051593  0.17112682  0.83500962  1
  I  I120  1  0.33365787  0.50185393  0.16493096  1
  I  I121  1  0.33388862  0.49691160  0.50182467  1
  I  I122  1  0.33036976  0.49674827  0.83361283  1
  I  I123  1  0.33674100  0.83268538  0.16339438  1
  I  I124  1  0.33376868  0.83552708  0.49949443  1
  I  I125  1  0.33713692  0.83270611  0.84103552  1
  I  I126  1  0.66354042  0.16836812  0.16808376  1
  I  I127  1  0.66195079  0.17228824  0.49446159  1
  I  I128  1  0.66842340  0.16975187  0.83342262  1
  I  I129  1  0.66345278  0.49865872  0.16916536  1
  I  I130  1  0.66308988  0.49794379  0.49627519  1
  I  I131  1  0.66856118  0.49749825  0.83393707  1
  I  I132  1  0.66414347  0.83300043  0.16203216  1
  I  I133  1  0.66611953  0.83082308  0.50385691  1
  I  I134  1  0.66353274  0.83311615  0.83579146  1
