# generated using pymatgen
data_Cs27Sn14Pb13I81
_symmetry_space_group_name_H-M   'P 1'
_cell_length_a   18.96993941
_cell_length_b   18.97497771
_cell_length_c   18.98074182
_cell_angle_alpha   90.00144575
_cell_angle_beta   89.99969766
_cell_angle_gamma   90.00173196
_symmetry_Int_Tables_number   1
_chemical_formula_structural   Cs27Sn14Pb13I81
_chemical_formula_sum   'Cs27 Sn14 Pb13 I81'
_cell_volume   6832.19730389
_cell_formula_units_Z   1
loop_
 _symmetry_equiv_pos_site_id
 _symmetry_equiv_pos_as_xyz
  1  'x, y, z'
loop_
 _atom_site_type_symbol
 _atom_site_label
 _atom_site_symmetry_multiplicity
 _atom_site_fract_x
 _atom_site_fract_y
 _atom_site_fract_z
 _atom_site_occupancy
  Cs  Cs0  1  0.00064627  -0.00192036  0.00005499  1
  Cs  Cs1  1  -0.00182945  -0.00239143  0.33269642  1
  Cs  Cs2  1  0.00092949  0.00043907  0.66723113  1
  Cs  Cs3  1  -0.00182262  0.33213069  -0.00292349  1
  Cs  Cs4  1  -0.00086700  0.33395393  0.33497550  1
  Cs  Cs5  1  0.00082342  0.33226413  0.66667127  1
  Cs  Cs6  1  0.00183145  0.66880292  0.00042714  1
  Cs  Cs7  1  0.00116373  0.66888582  0.32969794  1
  Cs  Cs8  1  -0.00127545  0.66868062  0.66888990  1
  Cs  Cs9  1  0.33491367  0.00125668  -0.00016677  1
  Cs  Cs10  1  0.33718793  0.00008024  0.33149059  1
  Cs  Cs11  1  0.33142150  -0.00112066  0.66801589  1
  Cs  Cs12  1  0.33576941  0.33211614  0.00574402  1
  Cs  Cs13  1  0.33284209  0.34319222  0.33111474  1
  Cs  Cs14  1  0.32484568  0.33145118  0.66196706  1
  Cs  Cs15  1  0.33231662  0.66427733  0.00073438  1
  Cs  Cs16  1  0.33247818  0.65645824  0.33388995  1
  Cs  Cs17  1  0.34171081  0.66863125  0.66582723  1
  Cs  Cs18  1  0.66604380  0.00119687  0.00165899  1
  Cs  Cs19  1  0.66764956  0.00146249  0.33329124  1
  Cs  Cs20  1  0.66673710  -0.00055805  0.66573682  1
  Cs  Cs21  1  0.66564563  0.33405411  0.00028685  1
  Cs  Cs22  1  0.66745169  0.32960164  0.33145227  1
  Cs  Cs23  1  0.66997609  0.33331421  0.66837625  1
  Cs  Cs24  1  0.66578913  0.66497376  -0.00630506  1
  Cs  Cs25  1  0.66786306  0.66889797  0.33707522  1
  Cs  Cs26  1  0.66041200  0.66630133  0.66885758  1
  Sn  Sn27  1  0.83354314  0.50025870  0.49941041  1
  Sn  Sn28  1  0.83287555  0.16657981  0.50022770  1
  Sn  Sn29  1  0.16657735  0.50102888  0.83309037  1
  Sn  Sn30  1  0.83387905  0.83425728  0.83250556  1
  Sn  Sn31  1  0.16574330  0.16637546  0.16712471  1
  Sn  Sn32  1  0.83339028  0.49954155  0.16715355  1
  Sn  Sn33  1  0.83407781  0.83312589  0.50112430  1
  Sn  Sn34  1  0.50072280  0.16665961  0.83188338  1
  Sn  Sn35  1  0.50033389  0.16663756  0.50103734  1
  Sn  Sn36  1  0.16611201  0.83231960  0.83244972  1
  Sn  Sn37  1  0.83454903  0.16732171  0.16662256  1
  Sn  Sn38  1  0.50009345  0.83285445  0.16685379  1
  Sn  Sn39  1  0.16628169  0.83356240  0.50038979  1
  Sn  Sn40  1  0.83260950  0.16562133  0.83317705  1
  Pb  Pb41  1  0.50012798  0.83520389  0.49826197  1
  Pb  Pb42  1  0.16642114  0.16473167  0.49757993  1
  Pb  Pb43  1  0.49670130  0.49632604  0.83303722  1
  Pb  Pb44  1  0.50055837  0.16596324  0.16706340  1
  Pb  Pb45  1  0.83193463  0.83331704  0.16636200  1
  Pb  Pb46  1  0.83443639  0.50012104  0.83304611  1
  Pb  Pb47  1  0.16880856  0.83481867  0.16674684  1
  Pb  Pb48  1  0.50286121  0.49658526  0.50025408  1
  Pb  Pb49  1  0.50002404  0.83525000  0.83485087  1
  Pb  Pb50  1  0.16395388  0.49762803  0.16462822  1
  Pb  Pb51  1  0.16644369  0.16606564  0.83484642  1
  Pb  Pb52  1  0.16393480  0.50304472  0.50209931  1
  Pb  Pb53  1  0.50336650  0.50315305  0.16661536  1
  I  I54  1  0.15937866  0.00259673  0.16399949  1
  I  I55  1  0.16038903  -0.00299812  0.50675063  1
  I  I56  1  0.16498516  -0.00268997  0.83114056  1
  I  I57  1  0.16663619  0.32962290  0.16472177  1
  I  I58  1  0.16674091  0.33337474  0.50113622  1
  I  I59  1  0.16577939  0.33461105  0.83630129  1
  I  I60  1  0.16678945  0.66657972  0.16765068  1
  I  I61  1  0.16109147  0.67102203  0.49933019  1
  I  I62  1  0.15870117  0.66853305  0.83168786  1
  I  I63  1  0.50261842  -0.00140300  0.16638786  1
  I  I64  1  0.50689940  0.00305880  0.50204721  1
  I  I65  1  0.50015762  0.00321107  0.83119873  1
  I  I66  1  0.49760459  0.33338283  0.16638017  1
  I  I67  1  0.50482148  0.32839968  0.50216842  1
  I  I68  1  0.50764748  0.32835861  0.83237878  1
  I  I69  1  0.50002547  0.67051300  0.16631730  1
  I  I70  1  0.50069538  0.66669527  0.49760418  1
  I  I71  1  0.50291659  0.66674733  0.83588292  1
  I  I72  1  0.83479821  0.00287626  0.16843088  1
  I  I73  1  0.83310230  0.00042951  0.49992223  1
  I  I74  1  0.83566750  0.00046764  0.83136212  1
  I  I75  1  0.83658178  0.33153676  0.16921971  1
  I  I76  1  0.82825019  0.33203276  0.49927526  1
  I  I77  1  0.83206399  0.33032397  0.83184602  1
  I  I78  1  0.83062115  0.66452988  0.16993613  1
  I  I79  1  0.83904317  0.66763267  0.49862988  1
  I  I80  1  0.83599023  0.66957921  0.83178841  1
  I  I81  1  0.16231033  0.16460412  0.00249843  1
  I  I82  1  0.16193201  0.16338730  0.33011921  1
  I  I83  1  0.16570835  0.16841651  0.66659100  1
  I  I84  1  0.16311331  0.50666537  -0.00295381  1
  I  I85  1  0.16802269  0.50036599  0.33346348  1
  I  I86  1  0.16268741  0.49784293  0.66971766  1
  I  I87  1  0.16223536  0.83194124  -0.00300736  1
  I  I88  1  0.16134808  0.83760608  0.33596870  1
  I  I89  1  0.16182510  0.83195685  0.66733755  1
  I  I90  1  0.50276011  0.16413801  -0.00204986  1
  I  I91  1  0.50483522  0.16291623  0.33568234  1
  I  I92  1  0.50881604  0.16489677  0.66668052  1
  I  I93  1  0.50304172  0.49734655  -0.00014205  1
  I  I94  1  0.49630894  0.49775848  0.33339747  1
  I  I95  1  0.50348150  0.50429844  0.66667811  1
  I  I96  1  0.50156867  0.83849887  0.00216699  1
  I  I97  1  0.50207072  0.83922968  0.33103566  1
  I  I98  1  0.49973076  0.83347822  0.66662713  1
  I  I99  1  0.83352995  0.16654256  -0.00034098  1
  I  I100  1  0.83272896  0.16648078  0.33389926  1
  I  I101  1  0.82848917  0.16621864  0.66655839  1
  I  I102  1  0.83505507  0.49617173  0.00198253  1
  I  I103  1  0.83355959  0.49629743  0.33385842  1
  I  I104  1  0.83572614  0.49663581  0.66406429  1
  I  I105  1  0.83608093  0.83677310  -0.00286184  1
  I  I106  1  0.83552513  0.83596130  0.33616591  1
  I  I107  1  0.83709857  0.83716280  0.66652668  1
  I  I108  1  -0.00245996  0.16851816  0.16568912  1
  I  I109  1  -0.00369716  0.16815543  0.50278819  1
  I  I110  1  -0.00321730  0.16594230  0.83129009  1
  I  I111  1  -0.00385841  0.49925128  0.17067651  1
  I  I112  1  -0.00414152  0.49309373  0.49682013  1
  I  I113  1  0.00204318  0.49904002  0.83377893  1
  I  I114  1  -0.00023481  0.83264660  0.16638273  1
  I  I115  1  -0.00185060  0.83659882  0.50313648  1
  I  I116  1  -0.00095153  0.83634026  0.83060209  1
  I  I117  1  0.33169770  0.16210202  0.16431734  1
  I  I118  1  0.33558128  0.16231220  0.50383474  1
  I  I119  1  0.33550211  0.16629859  0.83168257  1
  I  I120  1  0.33312467  0.49794713  0.16532616  1
  I  I121  1  0.33303101  0.49957403  0.50060795  1
  I  I122  1  0.32903750  0.50659175  0.83408146  1
  I  I123  1  0.33600235  0.84013413  0.16573717  1
  I  I124  1  0.33079869  0.83745721  0.50369272  1
  I  I125  1  0.33043627  0.83199446  0.83062216  1
  I  I126  1  0.67010975  0.16855998  0.16671494  1
  I  I127  1  0.66907695  0.16418883  0.49803592  1
  I  I128  1  0.66894600  0.16115568  0.83525902  1
  I  I129  1  0.67116947  0.49123333  0.16874591  1
  I  I130  1  0.67140148  0.50585056  0.49762213  1
  I  I131  1  0.66685347  0.50250404  0.83406456  1
  I  I132  1  0.66479183  0.83727829  0.16696133  1
  I  I133  1  0.67034857  0.83221238  0.50257207  1
  I  I134  1  0.66985771  0.83561778  0.83058891  1
