# generated using pymatgen
data_Cs27Sn13Pb14I81
_symmetry_space_group_name_H-M   'P 1'
_cell_length_a   19.05498532
_cell_length_b   19.04184574
_cell_length_c   19.04904114
_cell_angle_alpha   90.00273676
_cell_angle_beta   90.00098654
_cell_angle_gamma   89.99990870
_symmetry_Int_Tables_number   1
_chemical_formula_structural   Cs27Sn13Pb14I81
_chemical_formula_sum   'Cs27 Sn13 Pb14 I81'
_cell_volume   6911.79390912
_cell_formula_units_Z   1
loop_
 _symmetry_equiv_pos_site_id
 _symmetry_equiv_pos_as_xyz
  1  'x, y, z'
loop_
 _atom_site_type_symbol
 _atom_site_label
 _atom_site_symmetry_multiplicity
 _atom_site_fract_x
 _atom_site_fract_y
 _atom_site_fract_z
 _atom_site_occupancy
  Cs  Cs0  1  -0.00181042  -0.00231072  0.00386135  1
  Cs  Cs1  1  0.00177098  0.00294300  0.33108399  1
  Cs  Cs2  1  0.01218505  -0.00955365  0.66638630  1
  Cs  Cs3  1  -0.00311574  0.33525846  0.00188978  1
  Cs  Cs4  1  -0.00029165  0.33101190  0.33071178  1
  Cs  Cs5  1  0.00090779  0.33213160  0.66707686  1
  Cs  Cs6  1  0.00014908  0.66523716  0.00315585  1
  Cs  Cs7  1  -0.00033806  0.66855658  0.32820290  1
  Cs  Cs8  1  -0.00204941  0.67688378  0.66498248  1
  Cs  Cs9  1  0.34847956  0.00027023  -0.00793221  1
  Cs  Cs10  1  0.33592299  -0.00356298  0.33375183  1
  Cs  Cs11  1  0.31766394  -0.00517342  0.67755787  1
  Cs  Cs12  1  0.33734968  0.33787984  -0.00383201  1
  Cs  Cs13  1  0.33010757  0.33404931  0.33455793  1
  Cs  Cs14  1  0.32949585  0.33099840  0.66800473  1
  Cs  Cs15  1  0.33485294  0.65888687  0.00068961  1
  Cs  Cs16  1  0.33745341  0.66740000  0.33569561  1
  Cs  Cs17  1  0.33422254  0.67215253  0.66123462  1
  Cs  Cs18  1  0.65767536  -0.00113947  0.00008413  1
  Cs  Cs19  1  0.66249858  0.00613512  0.32911336  1
  Cs  Cs20  1  0.66717340  -0.00860508  0.66918116  1
  Cs  Cs21  1  0.66861584  0.33372430  -0.00118848  1
  Cs  Cs22  1  0.66762954  0.33127726  0.33854146  1
  Cs  Cs23  1  0.66732966  0.33548672  0.66232016  1
  Cs  Cs24  1  0.66753976  0.66417278  -0.00144851  1
  Cs  Cs25  1  0.66296880  0.66658488  0.34500457  1
  Cs  Cs26  1  0.66684291  0.67249071  0.65329068  1
  Sn  Sn27  1  0.49999771  0.16654416  0.50101375  1
  Sn  Sn28  1  0.83314770  0.49950380  0.83327795  1
  Sn  Sn29  1  0.83383533  0.16659645  0.16590363  1
  Sn  Sn30  1  0.50222377  0.49917587  0.16652527  1
  Sn  Sn31  1  0.50133841  0.49979121  0.83292389  1
  Sn  Sn32  1  0.83167153  0.50002137  0.16653347  1
  Sn  Sn33  1  0.83326667  0.83329371  0.16661566  1
  Sn  Sn34  1  0.16561393  0.49952651  0.50104642  1
  Sn  Sn35  1  0.83305620  0.16654855  0.50119695  1
  Sn  Sn36  1  0.16555398  0.49985167  0.83170515  1
  Sn  Sn37  1  0.16664806  0.83525207  0.16568150  1
  Sn  Sn38  1  0.83358429  0.16712222  0.83301182  1
  Sn  Sn39  1  0.16698171  0.16532935  0.16568913  1
  Pb  Pb40  1  0.83333346  0.83300437  0.83605679  1
  Pb  Pb41  1  0.50025878  0.82986350  0.83334371  1
  Pb  Pb42  1  0.50304043  0.16924044  0.83029930  1
  Pb  Pb43  1  0.16656704  0.83017661  0.83738479  1
  Pb  Pb44  1  0.49975338  0.83783275  0.50003874  1
  Pb  Pb45  1  0.16638313  0.83059445  0.49664093  1
  Pb  Pb46  1  0.49782788  0.49797878  0.50065817  1
  Pb  Pb47  1  0.83338674  0.83739209  0.49647306  1
  Pb  Pb48  1  0.50006149  0.16941663  0.16788120  1
  Pb  Pb49  1  0.16625857  0.49972035  0.16628009  1
  Pb  Pb50  1  0.50044019  0.83027829  0.16658021  1
  Pb  Pb51  1  0.16380765  0.16892496  0.83688561  1
  Pb  Pb52  1  0.16632021  0.16797913  0.49792771  1
  Pb  Pb53  1  0.83566293  0.49816590  0.50025059  1
  I  I54  1  0.15238781  0.00080760  0.17013567  1
  I  I55  1  0.16737096  -0.00030677  0.50118948  1
  I  I56  1  0.16539579  -0.00018246  0.82904399  1
  I  I57  1  0.16163218  0.33132194  0.16818464  1
  I  I58  1  0.16706811  0.33560233  0.49973333  1
  I  I59  1  0.16991450  0.33675419  0.83312578  1
  I  I60  1  0.16193793  0.66835784  0.16647273  1
  I  I61  1  0.16820359  0.66283131  0.50346244  1
  I  I62  1  0.16280730  0.66202343  0.83168121  1
  I  I63  1  0.50149382  -0.00002509  0.16995064  1
  I  I64  1  0.50841180  0.00511534  0.49339823  1
  I  I65  1  0.50150208  0.00033316  0.83227518  1
  I  I66  1  0.50322088  0.33673891  0.16218405  1
  I  I67  1  0.50636165  0.33124549  0.49773429  1
  I  I68  1  0.49603492  0.33681187  0.83984340  1
  I  I69  1  0.50163022  0.66239431  0.16192033  1
  I  I70  1  0.49739609  0.66668497  0.49973690  1
  I  I71  1  0.50251570  0.66121761  0.84063974  1
  I  I72  1  0.84169251  0.00104173  0.16867479  1
  I  I73  1  0.82860517  0.00509501  0.50124299  1
  I  I74  1  0.83254965  0.00326419  0.83375835  1
  I  I75  1  0.83479855  0.33311655  0.16623721  1
  I  I76  1  0.83023261  0.33078730  0.49201187  1
  I  I77  1  0.83387367  0.33433175  0.84115685  1
  I  I78  1  0.83636981  0.66551970  0.15884103  1
  I  I79  1  0.83456029  0.66711620  0.50063395  1
  I  I80  1  0.83434208  0.66291908  0.84093193  1
  I  I81  1  0.15859538  0.16653395  0.00428588  1
  I  I82  1  0.15843927  0.16825569  0.33028709  1
  I  I83  1  0.16652574  0.16683089  0.66705555  1
  I  I84  1  0.16726350  0.50073067  -0.00231424  1
  I  I85  1  0.16747434  0.49951592  0.33465154  1
  I  I86  1  0.16776942  0.49549629  0.66769943  1
  I  I87  1  0.15807911  0.83431661  0.00435644  1
  I  I88  1  0.16019257  0.83398312  0.32930241  1
  I  I89  1  0.16849541  0.83535409  0.66688897  1
  I  I90  1  0.49823131  0.16400997  -0.00032064  1
  I  I91  1  0.50799868  0.17172978  0.33484611  1
  I  I92  1  0.50769114  0.17329443  0.66315016  1
  I  I93  1  0.49586464  0.49891822  0.00024998  1
  I  I94  1  0.50299355  0.49981296  0.33104064  1
  I  I95  1  0.50344842  0.49741106  0.66969249  1
  I  I96  1  0.49937906  0.83986506  0.00040542  1
  I  I97  1  0.49908184  0.82639706  0.33305807  1
  I  I98  1  0.50189775  0.82785766  0.66643743  1
  I  I99  1  0.84115518  0.16958039  0.00101577  1
  I  I100  1  0.83325110  0.16723256  0.33182873  1
  I  I101  1  0.82553003  0.17906205  0.66723423  1
  I  I102  1  0.83574404  0.49480538  0.00071784  1
  I  I103  1  0.83089795  0.49934676  0.33005727  1
  I  I104  1  0.83060136  0.49268198  0.66996187  1
  I  I105  1  0.83940704  0.83724669  0.00375919  1
  I  I106  1  0.83926606  0.82830580  0.32893802  1
  I  I107  1  0.83133553  0.83140848  0.66643050  1
  I  I108  1  -0.00218158  0.17041149  0.17026946  1
  I  I109  1  -0.00311633  0.17016142  0.49936402  1
  I  I110  1  -0.00377358  0.17566115  0.82828538  1
  I  I111  1  -0.00312851  0.49938634  0.16392360  1
  I  I112  1  0.00276944  0.49540389  0.50189053  1
  I  I113  1  -0.00103993  0.49418828  0.83655715  1
  I  I114  1  -0.00098876  0.82981542  0.16680111  1
  I  I115  1  -0.00011141  0.83503040  0.50398632  1
  I  I116  1  -0.00005723  0.83015728  0.82947666  1
  I  I117  1  0.33077347  0.16490105  0.17256322  1
  I  I118  1  0.33528751  0.17272555  0.49377806  1
  I  I119  1  0.33326789  0.16797265  0.83282521  1
  I  I120  1  0.33521649  0.49953531  0.16347291  1
  I  I121  1  0.33052276  0.49575488  0.50078903  1
  I  I122  1  0.33333080  0.50101822  0.83759756  1
  I  I123  1  0.33071099  0.83644036  0.16852364  1
  I  I124  1  0.33302069  0.83347013  0.49473789  1
  I  I125  1  0.33308718  0.83397946  0.83613619  1
  I  I126  1  0.67038738  0.16325648  0.16474459  1
  I  I127  1  0.66840530  0.17111345  0.49418592  1
  I  I128  1  0.67078638  0.17401440  0.84330765  1
  I  I129  1  0.66834987  0.49910257  0.15654468  1
  I  I130  1  0.66688641  0.50227032  0.50113617  1
  I  I131  1  0.66771346  0.49382412  0.84346171  1
  I  I132  1  0.66988807  0.83878655  0.16531712  1
  I  I133  1  0.66682694  0.82524768  0.49814657  1
  I  I134  1  0.66699611  0.83315880  0.83745723  1
