# generated using pymatgen
data_Cs27Sn14Pb13I81
_symmetry_space_group_name_H-M   'P 1'
_cell_length_a   18.96436144
_cell_length_b   18.98134268
_cell_length_c   18.98101703
_cell_angle_alpha   89.99950777
_cell_angle_beta   90.00080641
_cell_angle_gamma   89.99781162
_symmetry_Int_Tables_number   1
_chemical_formula_structural   Cs27Sn14Pb13I81
_chemical_formula_sum   'Cs27 Sn14 Pb13 I81'
_cell_volume   6832.57853408
_cell_formula_units_Z   1
loop_
 _symmetry_equiv_pos_site_id
 _symmetry_equiv_pos_as_xyz
  1  'x, y, z'
loop_
 _atom_site_type_symbol
 _atom_site_label
 _atom_site_symmetry_multiplicity
 _atom_site_fract_x
 _atom_site_fract_y
 _atom_site_fract_z
 _atom_site_occupancy
  Cs  Cs0  1  -0.00080358  -0.00091033  -0.00095423  1
  Cs  Cs1  1  -0.00204559  -0.00229253  0.33341373  1
  Cs  Cs2  1  0.00034109  0.00033325  0.66799673  1
  Cs  Cs3  1  0.00158334  0.33219675  -0.00130369  1
  Cs  Cs4  1  0.00106057  0.33751589  0.33469348  1
  Cs  Cs5  1  -0.00033250  0.33344468  0.66716077  1
  Cs  Cs6  1  -0.00188098  0.66987608  -0.00073460  1
  Cs  Cs7  1  0.00213672  0.66603377  0.33530320  1
  Cs  Cs8  1  0.00069443  0.66639438  0.66558174  1
  Cs  Cs9  1  0.32937851  0.00197387  0.00298315  1
  Cs  Cs10  1  0.34503476  0.00055972  0.33780627  1
  Cs  Cs11  1  0.33406075  -0.00046895  0.66163332  1
  Cs  Cs12  1  0.32966538  0.33447294  0.00832712  1
  Cs  Cs13  1  0.33495742  0.33373981  0.32396825  1
  Cs  Cs14  1  0.33625834  0.33108709  0.66838364  1
  Cs  Cs15  1  0.34182917  0.66437774  -0.00065398  1
  Cs  Cs16  1  0.32939489  0.66584140  0.33458646  1
  Cs  Cs17  1  0.33436345  0.66910283  0.66574133  1
  Cs  Cs18  1  0.66988545  -0.00261097  -0.00024455  1
  Cs  Cs19  1  0.66390375  0.00186856  0.33415934  1
  Cs  Cs20  1  0.66677509  0.00228003  0.66626566  1
  Cs  Cs21  1  0.66774224  0.33614084  -0.00264269  1
  Cs  Cs22  1  0.66626118  0.33090684  0.33707304  1
  Cs  Cs23  1  0.66656403  0.33365147  0.66579191  1
  Cs  Cs24  1  0.66331771  0.66615657  -0.00175324  1
  Cs  Cs25  1  0.66839214  0.66594953  0.33105748  1
  Cs  Cs26  1  0.66550154  0.66298870  0.67013297  1
  Sn  Sn27  1  0.83386934  0.83323959  0.16669660  1
  Sn  Sn28  1  0.83364290  0.50007894  0.16568988  1
  Sn  Sn29  1  0.16590430  0.16684774  0.49962576  1
  Sn  Sn30  1  0.83371058  0.16687752  0.16660266  1
  Sn  Sn31  1  0.83466893  0.16584989  0.50009965  1
  Sn  Sn32  1  0.83263423  0.16666722  0.83337112  1
  Sn  Sn33  1  0.49977070  0.50006801  0.49997777  1
  Sn  Sn34  1  0.50043945  0.16651968  0.83395723  1
  Sn  Sn35  1  0.16591119  0.83366466  0.16598752  1
  Sn  Sn36  1  0.16590140  0.83230315  0.83428262  1
  Sn  Sn37  1  0.83339056  0.83394448  0.50029992  1
  Sn  Sn38  1  0.83428081  0.50008397  0.83414253  1
  Sn  Sn39  1  0.16605510  0.50091981  0.83317592  1
  Sn  Sn40  1  0.83379888  0.83318958  0.83298235  1
  Pb  Pb41  1  0.16410670  0.50254262  0.16413101  1
  Pb  Pb42  1  0.83255771  0.49993622  0.50028546  1
  Pb  Pb43  1  0.50286034  0.16662186  0.16349466  1
  Pb  Pb44  1  0.16626603  0.16619789  0.83226914  1
  Pb  Pb45  1  0.50332383  0.83069452  0.50022355  1
  Pb  Pb46  1  0.49972169  0.49792267  0.83236584  1
  Pb  Pb47  1  0.49990673  0.83330508  0.16651497  1
  Pb  Pb48  1  0.16407162  0.16387159  0.16953770  1
  Pb  Pb49  1  0.50048424  0.16825590  0.50157069  1
  Pb  Pb50  1  0.49959678  0.83586694  0.83338485  1
  Pb  Pb51  1  0.50282589  0.50006936  0.16914471  1
  Pb  Pb52  1  0.16907384  0.49752240  0.50239156  1
  Pb  Pb53  1  0.16468520  0.83509624  0.50009140  1
  I  I54  1  0.15846383  -0.00367970  0.15759017  1
  I  I55  1  0.16379129  0.00287002  0.50405414  1
  I  I56  1  0.16245759  -0.00293396  0.83570064  1
  I  I57  1  0.16577104  0.33322759  0.16609966  1
  I  I58  1  0.15773724  0.32993135  0.50345046  1
  I  I59  1  0.16253691  0.33523778  0.82945722  1
  I  I60  1  0.15871187  0.67032836  0.16765773  1
  I  I61  1  0.16659012  0.66682707  0.49871201  1
  I  I62  1  0.15745727  0.66737042  0.83493385  1
  I  I63  1  0.50235603  0.00016846  0.16817592  1
  I  I64  1  0.49839136  0.00014805  0.50090060  1
  I  I65  1  0.50679532  0.00343705  0.83093624  1
  I  I66  1  0.50090843  0.33324853  0.16696208  1
  I  I67  1  0.50468529  0.33544699  0.50321617  1
  I  I68  1  0.50670016  0.33044279  0.83001086  1
  I  I69  1  0.50437084  0.66658480  0.16604808  1
  I  I70  1  0.50209815  0.66342205  0.50258070  1
  I  I71  1  0.50279098  0.66656044  0.83188275  1
  I  I72  1  0.83662955  -0.00033116  0.16412208  1
  I  I73  1  0.83639529  0.00069330  0.50095282  1
  I  I74  1  0.83306337  -0.00012083  0.83465514  1
  I  I75  1  0.83148654  0.33300806  0.16408811  1
  I  I76  1  0.83422117  0.33047525  0.50054658  1
  I  I77  1  0.83298136  0.33319358  0.83494320  1
  I  I78  1  0.83607133  0.66737761  0.16520842  1
  I  I79  1  0.83098656  0.66926227  0.49992968  1
  I  I80  1  0.83722449  0.66690127  0.83473528  1
  I  I81  1  0.16782139  0.16862883  0.00023234  1
  I  I82  1  0.16008178  0.16623314  0.33704143  1
  I  I83  1  0.16009612  0.16494036  0.66464423  1
  I  I84  1  0.16530555  0.49800371  -0.00393705  1
  I  I85  1  0.16651645  0.50066718  0.33312200  1
  I  I86  1  0.15826825  0.50607503  0.67034287  1
  I  I87  1  0.15647598  0.83143030  -0.00106070  1
  I  I88  1  0.15999869  0.83487172  0.33087178  1
  I  I89  1  0.16169691  0.83134501  0.66969709  1
  I  I90  1  0.50527688  0.16779571  -0.00425278  1
  I  I91  1  0.50042790  0.16777329  0.33325279  1
  I  I92  1  0.50735720  0.16797508  0.66917865  1
  I  I93  1  0.49914428  0.49878398  0.00001680  1
  I  I94  1  0.50281502  0.49782666  0.33659395  1
  I  I95  1  0.50469043  0.49795623  0.66490878  1
  I  I96  1  0.50569229  0.83262604  -0.00025078  1
  I  I97  1  0.50059154  0.83433191  0.33349255  1
  I  I98  1  0.49997811  0.83370491  0.66683494  1
  I  I99  1  0.82817856  0.16463905  -0.00065232  1
  I  I100  1  0.83808235  0.16403736  0.33366066  1
  I  I101  1  0.83287351  0.16444383  0.66718378  1
  I  I102  1  0.83592533  0.49911171  -0.00117378  1
  I  I103  1  0.82987239  0.50033343  0.33092536  1
  I  I104  1  0.83457790  0.49980837  0.66977394  1
  I  I105  1  0.83669128  0.83616697  -0.00049700  1
  I  I106  1  0.83642939  0.83529703  0.33271532  1
  I  I107  1  0.83676571  0.83605586  0.66773556  1
  I  I108  1  -0.00453103  0.16795596  0.15990721  1
  I  I109  1  -0.00278953  0.16375683  0.50388452  1
  I  I110  1  -0.00369836  0.16657758  0.83453722  1
  I  I111  1  -0.00432304  0.49720908  0.16713154  1
  I  I112  1  -0.00006085  0.50075920  0.49878684  1
  I  I113  1  -0.00201993  0.49805021  0.83545927  1
  I  I114  1  -0.00248172  0.83379632  0.16511812  1
  I  I115  1  -0.00392593  0.83424002  0.50048967  1
  I  I116  1  -0.00198001  0.83510994  0.83386734  1
  I  I117  1  0.33301875  0.16519567  0.16719339  1
  I  I118  1  0.33120409  0.16724452  0.50496302  1
  I  I119  1  0.33496269  0.16668609  0.82768486  1
  I  I120  1  0.33294379  0.50122203  0.16590349  1
  I  I121  1  0.33638099  0.49791140  0.50386517  1
  I  I122  1  0.33048237  0.50343156  0.82925614  1
  I  I123  1  0.32978390  0.83330748  0.16058646  1
  I  I124  1  0.33311912  0.83564990  0.50003493  1
  I  I125  1  0.32967430  0.82968648  0.83797210  1
  I  I126  1  0.67188451  0.16339888  0.17284372  1
  I  I127  1  0.67045000  0.16418845  0.49847747  1
  I  I128  1  0.67008717  0.16720437  0.83067104  1
  I  I129  1  0.67161848  0.50314398  0.15938069  1
  I  I130  1  0.66529923  0.49777338  0.50252652  1
  I  I131  1  0.67019726  0.50221800  0.83550251  1
  I  I132  1  0.67134827  0.83373617  0.16581186  1
  I  I133  1  0.67194540  0.84101817  0.49998439  1
  I  I134  1  0.67060717  0.83080070  0.83413982  1
