# generated using pymatgen
data_Cs27Sn13Pb14I81
_symmetry_space_group_name_H-M   'P 1'
_cell_length_a   18.97923876
_cell_length_b   18.97491501
_cell_length_c   18.97497216
_cell_angle_alpha   89.99780163
_cell_angle_beta   89.99872830
_cell_angle_gamma   89.99886541
_symmetry_Int_Tables_number   1
_chemical_formula_structural   Cs27Sn13Pb14I81
_chemical_formula_sum   'Cs27 Sn13 Pb14 I81'
_cell_volume   6833.44613651
_cell_formula_units_Z   1
loop_
 _symmetry_equiv_pos_site_id
 _symmetry_equiv_pos_as_xyz
  1  'x, y, z'
loop_
 _atom_site_type_symbol
 _atom_site_label
 _atom_site_symmetry_multiplicity
 _atom_site_fract_x
 _atom_site_fract_y
 _atom_site_fract_z
 _atom_site_occupancy
  Cs  Cs0  1  0.00066450  0.00370080  0.00327806  1
  Cs  Cs1  1  -0.00404832  0.00003034  0.33100228  1
  Cs  Cs2  1  0.00081244  -0.00301449  0.66610578  1
  Cs  Cs3  1  0.00670745  0.33300154  0.00196849  1
  Cs  Cs4  1  0.00071363  0.33217239  0.33354942  1
  Cs  Cs5  1  -0.00378241  0.33515329  0.66430809  1
  Cs  Cs6  1  0.00556926  0.66226874  -0.00528565  1
  Cs  Cs7  1  -0.00042441  0.66822471  0.33560026  1
  Cs  Cs8  1  0.00125728  0.66875822  0.66865221  1
  Cs  Cs9  1  0.33048391  0.00247631  -0.00341740  1
  Cs  Cs10  1  0.33833921  -0.00594193  0.33606012  1
  Cs  Cs11  1  0.33287541  0.00220137  0.66765677  1
  Cs  Cs12  1  0.32895256  0.33033826  0.00159620  1
  Cs  Cs13  1  0.33260704  0.33506793  0.33351691  1
  Cs  Cs14  1  0.33594155  0.32800214  0.66401129  1
  Cs  Cs15  1  0.33273497  0.66705056  0.00162292  1
  Cs  Cs16  1  0.33412256  0.66704875  0.33173396  1
  Cs  Cs17  1  0.33067224  0.66940132  0.66721657  1
  Cs  Cs18  1  0.66820485  -0.00163182  0.00163709  1
  Cs  Cs19  1  0.66670772  -0.00847949  0.32995452  1
  Cs  Cs20  1  0.66554371  0.00259546  0.66684268  1
  Cs  Cs21  1  0.66651638  0.33454157  0.00080402  1
  Cs  Cs22  1  0.66675048  0.33418906  0.33363668  1
  Cs  Cs23  1  0.66762479  0.33286742  0.66666746  1
  Cs  Cs24  1  0.66582095  0.66681303  -0.00142660  1
  Cs  Cs25  1  0.66599652  0.66874111  0.33168691  1
  Cs  Cs26  1  0.66857720  0.66476845  0.67023333  1
  Sn  Sn27  1  0.50074203  0.49900709  0.16651545  1
  Sn  Sn28  1  0.83325147  0.49946722  0.49904853  1
  Sn  Sn29  1  0.83270318  0.83440563  0.83331326  1
  Sn  Sn30  1  0.50018735  0.50002471  0.50012949  1
  Sn  Sn31  1  0.83325280  0.16617092  0.83307074  1
  Sn  Sn32  1  0.16638536  0.83335092  0.16681307  1
  Sn  Sn33  1  0.50039337  0.16716970  0.16684768  1
  Sn  Sn34  1  0.83302422  0.49986373  0.16715090  1
  Sn  Sn35  1  0.83381071  0.16709167  0.50041840  1
  Sn  Sn36  1  0.50062942  0.83289639  0.83318923  1
  Sn  Sn37  1  0.16591437  0.16705513  0.49971349  1
  Sn  Sn38  1  0.16657248  0.49936789  0.50006704  1
  Sn  Sn39  1  0.49987448  0.50031430  0.83340624  1
  Pb  Pb40  1  0.83314381  0.83329145  0.50210588  1
  Pb  Pb41  1  0.16666069  0.83350634  0.83528099  1
  Pb  Pb42  1  0.83543322  0.83003579  0.16372986  1
  Pb  Pb43  1  0.16686142  0.50110780  0.16888831  1
  Pb  Pb44  1  0.50088555  0.16834085  0.49790894  1
  Pb  Pb45  1  0.83175510  0.16871199  0.16715948  1
  Pb  Pb46  1  0.83199390  0.49956267  0.83339161  1
  Pb  Pb47  1  0.16915407  0.16450870  0.16981195  1
  Pb  Pb48  1  0.16650145  0.83375215  0.49815205  1
  Pb  Pb49  1  0.16354471  0.16685297  0.83061339  1
  Pb  Pb50  1  0.50196060  0.16701709  0.83527111  1
  Pb  Pb51  1  0.49873884  0.83271681  0.16424296  1
  Pb  Pb52  1  0.50021099  0.83039756  0.50298820  1
  Pb  Pb53  1  0.17021684  0.49959078  0.83014043  1
  I  I54  1  0.16832990  -0.00277772  0.16734006  1
  I  I55  1  0.16125084  0.00325772  0.49880961  1
  I  I56  1  0.17211459  0.00011027  0.83106513  1
  I  I57  1  0.16587547  0.33329905  0.16566064  1
  I  I58  1  0.16609584  0.33434955  0.49920603  1
  I  I59  1  0.16673428  0.33337064  0.83802989  1
  I  I60  1  0.16864926  0.66861441  0.16835958  1
  I  I61  1  0.16678075  0.66343576  0.49884205  1
  I  I62  1  0.16196824  0.66647007  0.83080533  1
  I  I63  1  0.49828622  0.00198827  0.16581782  1
  I  I64  1  0.49883376  0.00017529  0.49874336  1
  I  I65  1  0.50230140  -0.00226434  0.83643334  1
  I  I66  1  0.50315836  0.33566184  0.16485990  1
  I  I67  1  0.50014870  0.33709738  0.50466913  1
  I  I68  1  0.50222700  0.33642242  0.83107071  1
  I  I69  1  0.50201854  0.66316785  0.16874225  1
  I  I70  1  0.49998466  0.66155602  0.49415957  1
  I  I71  1  0.50659500  0.66575084  0.83424103  1
  I  I72  1  0.83189111  -0.00006281  0.16895565  1
  I  I73  1  0.83901815  0.00331078  0.50247391  1
  I  I74  1  0.82724405  0.00018267  0.82778231  1
  I  I75  1  0.83124047  0.33686857  0.16601636  1
  I  I76  1  0.83374641  0.33424981  0.50305068  1
  I  I77  1  0.83081272  0.33113211  0.83061029  1
  I  I78  1  0.82621604  0.66229494  0.17249093  1
  I  I79  1  0.83340353  0.66294338  0.49771227  1
  I  I80  1  0.83040641  0.66833184  0.83383959  1
  I  I81  1  0.16634805  0.16504290  0.00037188  1
  I  I82  1  0.15949252  0.17207972  0.33733235  1
  I  I83  1  0.16822640  0.17046465  0.66252943  1
  I  I84  1  0.16557601  0.50235201  0.00015539  1
  I  I85  1  0.17055831  0.49735021  0.33692745  1
  I  I86  1  0.16389380  0.49813691  0.66188573  1
  I  I87  1  0.16739569  0.83131641  0.00281373  1
  I  I88  1  0.16850839  0.83188257  0.33067973  1
  I  I89  1  0.16707208  0.83253929  0.66666163  1
  I  I90  1  0.50188273  0.17263507  0.00296013  1
  I  I91  1  0.50063548  0.17297354  0.33024358  1
  I  I92  1  0.49813916  0.16710342  0.66649837  1
  I  I93  1  0.50665403  0.50097709  0.00058564  1
  I  I94  1  0.50041015  0.49478039  0.33334003  1
  I  I95  1  0.50073263  0.50480130  0.66620428  1
  I  I96  1  0.50347522  0.82697111  -0.00331456  1
  I  I97  1  0.49818335  0.83327967  0.33302596  1
  I  I98  1  0.50290749  0.82894678  0.67096785  1
  I  I99  1  0.82918037  0.16396786  -0.00219953  1
  I  I100  1  0.83665525  0.17095160  0.33646699  1
  I  I101  1  0.83559628  0.16946083  0.66571433  1
  I  I102  1  0.82723709  0.50116862  0.00222731  1
  I  I103  1  0.82894909  0.49489904  0.33463738  1
  I  I104  1  0.83223427  0.49906885  0.66380094  1
  I  I105  1  0.82873119  0.83787353  -0.00385466  1
  I  I106  1  0.83448232  0.83532443  0.33298912  1
  I  I107  1  0.83020610  0.83134144  0.67010452  1
  I  I108  1  -0.00010747  0.16710695  0.16435145  1
  I  I109  1  -0.00094142  0.17553775  0.50358193  1
  I  I110  1  -0.00460848  0.16122876  0.83352756  1
  I  I111  1  -0.00257354  0.50211005  0.17051910  1
  I  I112  1  -0.00101037  0.49591739  0.49487976  1
  I  I113  1  -0.00007349  0.50143622  0.83414277  1
  I  I114  1  0.00261625  0.83242664  0.16630431  1
  I  I115  1  -0.00019100  0.82761611  0.50259054  1
  I  I116  1  -0.00301757  0.83636029  0.83363054  1
  I  I117  1  0.33683292  0.17406659  0.16663655  1
  I  I118  1  0.33143916  0.17140029  0.49736973  1
  I  I119  1  0.33355831  0.16568058  0.83274844  1
  I  I120  1  0.33654323  0.49864742  0.16739682  1
  I  I121  1  0.33378707  0.49650350  0.50005934  1
  I  I122  1  0.33853797  0.50694067  0.83551042  1
  I  I123  1  0.33131396  0.83093547  0.16558237  1
  I  I124  1  0.33340076  0.83361283  0.50173398  1
  I  I125  1  0.33626780  0.82737314  0.83470133  1
  I  I126  1  0.66388670  0.16922668  0.16811152  1
  I  I127  1  0.66990693  0.17216322  0.50397484  1
  I  I128  1  0.66972312  0.16622793  0.82607569  1
  I  I129  1  0.66561686  0.49723651  0.17136120  1
  I  I130  1  0.66689831  0.49610718  0.49976865  1
  I  I131  1  0.66380885  0.50119127  0.82958585  1
  I  I132  1  0.66676296  0.83436265  0.16714305  1
  I  I133  1  0.66665749  0.83420741  0.49671785  1
  I  I134  1  0.66652565  0.83182734  0.83387101  1
