# generated using pymatgen
data_Cs27Sn13Pb14I81
_symmetry_space_group_name_H-M   'P 1'
_cell_length_a   19.03412404
_cell_length_b   19.02861339
_cell_length_c   19.04667341
_cell_angle_alpha   89.99781941
_cell_angle_beta   89.99867840
_cell_angle_gamma   90.00041811
_symmetry_Int_Tables_number   1
_chemical_formula_structural   Cs27Sn13Pb14I81
_chemical_formula_sum   'Cs27 Sn13 Pb14 I81'
_cell_volume   6898.57153668
_cell_formula_units_Z   1
loop_
 _symmetry_equiv_pos_site_id
 _symmetry_equiv_pos_as_xyz
  1  'x, y, z'
loop_
 _atom_site_type_symbol
 _atom_site_label
 _atom_site_symmetry_multiplicity
 _atom_site_fract_x
 _atom_site_fract_y
 _atom_site_fract_z
 _atom_site_occupancy
  Cs  Cs0  1  -0.00355710  -0.00110104  0.00326006  1
  Cs  Cs1  1  -0.00093950  -0.00200230  0.33297619  1
  Cs  Cs2  1  -0.00113890  0.00309505  0.66622658  1
  Cs  Cs3  1  -0.00141261  0.33365455  -0.00195021  1
  Cs  Cs4  1  0.00017784  0.33182676  0.33768798  1
  Cs  Cs5  1  -0.00100920  0.33013633  0.66275733  1
  Cs  Cs6  1  0.00606604  0.66692192  0.00444908  1
  Cs  Cs7  1  0.00056797  0.67124762  0.32766314  1
  Cs  Cs8  1  -0.00015777  0.66537883  0.66784490  1
  Cs  Cs9  1  0.33881795  0.00026927  -0.00228764  1
  Cs  Cs10  1  0.33470718  0.00125703  0.33700061  1
  Cs  Cs11  1  0.33467681  -0.00523645  0.66600280  1
  Cs  Cs12  1  0.33492466  0.34204420  0.00440784  1
  Cs  Cs13  1  0.33241725  0.33171403  0.32842085  1
  Cs  Cs14  1  0.32841676  0.33096554  0.66771462  1
  Cs  Cs15  1  0.32575969  0.65445167  -0.01230853  1
  Cs  Cs16  1  0.33306123  0.66946098  0.33341333  1
  Cs  Cs17  1  0.34351814  0.67936933  0.67848797  1
  Cs  Cs18  1  0.66857866  -0.00077367  0.00388052  1
  Cs  Cs19  1  0.66712443  -0.00014879  0.32810653  1
  Cs  Cs20  1  0.66807556  0.00097786  0.66916816  1
  Cs  Cs21  1  0.66660408  0.33324253  0.00221539  1
  Cs  Cs22  1  0.66405389  0.33739365  0.33322644  1
  Cs  Cs23  1  0.66944869  0.33533311  0.66436318  1
  Cs  Cs24  1  0.66809122  0.67042746  -0.00191420  1
  Cs  Cs25  1  0.66633605  0.66374037  0.33824048  1
  Cs  Cs26  1  0.65965858  0.66407083  0.66422110  1
  Sn  Sn27  1  0.83267307  0.16577964  0.49854224  1
  Sn  Sn28  1  0.50032818  0.16693736  0.50110573  1
  Sn  Sn29  1  0.83341252  0.49885518  0.16592268  1
  Sn  Sn30  1  0.83372971  0.83199003  0.83192881  1
  Sn  Sn31  1  0.16688960  0.16731126  0.49990434  1
  Sn  Sn32  1  0.49907800  0.16712200  0.83235280  1
  Sn  Sn33  1  0.83361703  0.50118950  0.83422234  1
  Sn  Sn34  1  0.49920272  0.83264288  0.16623770  1
  Sn  Sn35  1  0.16574019  0.16617378  0.16631774  1
  Sn  Sn36  1  0.83350046  0.83425280  0.50121355  1
  Sn  Sn37  1  0.16709062  0.50032189  0.50047704  1
  Sn  Sn38  1  0.83432426  0.16808508  0.16808809  1
  Sn  Sn39  1  0.16791386  0.16647900  0.83387286  1
  Pb  Pb40  1  0.49618560  0.49738368  0.50012710  1
  Pb  Pb41  1  0.50257944  0.49687579  0.83304720  1
  Pb  Pb42  1  0.16408445  0.49730038  0.83055525  1
  Pb  Pb43  1  0.16987958  0.83587250  0.16640349  1
  Pb  Pb44  1  0.16431144  0.49758170  0.16915742  1
  Pb  Pb45  1  0.16387808  0.83622811  0.83349199  1
  Pb  Pb46  1  0.83499609  0.50005480  0.49983277  1
  Pb  Pb47  1  0.50268307  0.83596958  0.49824756  1
  Pb  Pb48  1  0.49989841  0.16607243  0.16677661  1
  Pb  Pb49  1  0.83242092  0.83317644  0.16694658  1
  Pb  Pb50  1  0.16456635  0.83335191  0.50007096  1
  Pb  Pb51  1  0.50223190  0.50318976  0.16678685  1
  Pb  Pb52  1  0.83338796  0.16683703  0.83343845  1
  Pb  Pb53  1  0.50259852  0.83596245  0.83542742  1
  I  I54  1  0.15577636  0.00475277  0.17095472  1
  I  I55  1  0.16862380  0.00417153  0.49967286  1
  I  I56  1  0.16775055  0.00472064  0.82810817  1
  I  I57  1  0.16699733  0.32908745  0.16442895  1
  I  I58  1  0.16178153  0.32958911  0.50028616  1
  I  I59  1  0.16741851  0.32922530  0.83546044  1
  I  I60  1  0.16428517  0.66639186  0.17062984  1
  I  I61  1  0.15877725  0.66381412  0.49692900  1
  I  I62  1  0.16817321  0.66641810  0.83145080  1
  I  I63  1  0.50557822  -0.00083687  0.16652594  1
  I  I64  1  0.49281807  0.00412923  0.50372003  1
  I  I65  1  0.49808547  0.00351574  0.82871683  1
  I  I66  1  0.49839355  0.33343116  0.16637511  1
  I  I67  1  0.51023909  0.32860911  0.50235025  1
  I  I68  1  0.49845819  0.32892227  0.83051095  1
  I  I69  1  0.50702327  0.67070431  0.16933136  1
  I  I70  1  0.50122977  0.66679100  0.49700589  1
  I  I71  1  0.49865780  0.66668047  0.83489663  1
  I  I72  1  0.83602908  0.00291508  0.16701934  1
  I  I73  1  0.83610200  0.00225131  0.50011406  1
  I  I74  1  0.83318919  -0.00158753  0.83254881  1
  I  I75  1  0.83676137  0.33161184  0.16599013  1
  I  I76  1  0.83181493  0.32988993  0.50008677  1
  I  I77  1  0.83352507  0.33510139  0.83451613  1
  I  I78  1  0.82945579  0.66429925  0.16665811  1
  I  I79  1  0.83658044  0.66912438  0.49952756  1
  I  I80  1  0.83283266  0.66682417  0.83352950  1
  I  I81  1  0.16416929  0.16358115  0.00008199  1
  I  I82  1  0.16549054  0.17116884  0.33399382  1
  I  I83  1  0.16470380  0.17178776  0.66578096  1
  I  I84  1  0.16806785  0.49897668  -0.00020317  1
  I  I85  1  0.16239732  0.49034643  0.33638818  1
  I  I86  1  0.16032630  0.48802194  0.66362825  1
  I  I87  1  0.16132155  0.83686401  0.00004611  1
  I  I88  1  0.16209040  0.83593632  0.33333573  1
  I  I89  1  0.16884700  0.83676942  0.66663705  1
  I  I90  1  0.49827627  0.16318643  -0.00211841  1
  I  I91  1  0.49809417  0.16399180  0.33589495  1
  I  I92  1  0.49828832  0.16577590  0.66602101  1
  I  I93  1  0.49725144  0.49518103  -0.00002495  1
  I  I94  1  0.50532404  0.49695565  0.33345894  1
  I  I95  1  0.50586958  0.50310326  0.66652974  1
  I  I96  1  0.50695867  0.84155349  0.00229006  1
  I  I97  1  0.50493767  0.83856458  0.33128829  1
  I  I98  1  0.49871974  0.83180214  0.66684313  1
  I  I99  1  0.83619680  0.16634944  0.00248152  1
  I  I100  1  0.83657357  0.16548414  0.33398423  1
  I  I101  1  0.83603242  0.16606232  0.66402365  1
  I  I102  1  0.83322999  0.49737720  0.00028118  1
  I  I103  1  0.83475031  0.49826172  0.33128710  1
  I  I104  1  0.83555881  0.49910557  0.66855417  1
  I  I105  1  0.83016207  0.83505985  -0.00193357  1
  I  I106  1  0.83206037  0.83610945  0.33557109  1
  I  I107  1  0.83387724  0.83691960  0.66616975  1
  I  I108  1  -0.00113149  0.16975427  0.16993461  1
  I  I109  1  -0.00023929  0.16689730  0.50020405  1
  I  I110  1  0.00207738  0.16689240  0.83010302  1
  I  I111  1  -0.00351718  0.50009133  0.16198766  1
  I  I112  1  0.00194580  0.48916775  0.50081994  1
  I  I113  1  -0.00343210  0.50126303  0.83804640  1
  I  I114  1  0.00001829  0.83147337  0.16678507  1
  I  I115  1  -0.00345643  0.84273730  0.50189354  1
  I  I116  1  -0.00419250  0.83273601  0.83048191  1
  I  I117  1  0.33066194  0.16233270  0.17069127  1
  I  I118  1  0.33271823  0.17338402  0.49912189  1
  I  I119  1  0.33278064  0.16550202  0.82898074  1
  I  I120  1  0.33307476  0.49880981  0.16821046  1
  I  I121  1  0.32867498  0.48880327  0.49718760  1
  I  I122  1  0.33316068  0.50181797  0.83320163  1
  I  I123  1  0.33724726  0.84054343  0.17004975  1
  I  I124  1  0.33342644  0.83380342  0.49715701  1
  I  I125  1  0.33348807  0.83215935  0.83455496  1
  I  I126  1  0.66968417  0.16822072  0.16937887  1
  I  I127  1  0.66768168  0.16002096  0.50062313  1
  I  I128  1  0.66491125  0.16610163  0.82961734  1
  I  I129  1  0.67070293  0.48881211  0.16457438  1
  I  I130  1  0.66663779  0.49971917  0.49962155  1
  I  I131  1  0.67069538  0.50088308  0.83610468  1
  I  I132  1  0.66559629  0.83987514  0.16628327  1
  I  I133  1  0.67053953  0.83948259  0.50365241  1
  I  I134  1  0.67024266  0.83315898  0.82932763  1
