# generated using pymatgen
data_Cs27Sn14Pb13I81
_symmetry_space_group_name_H-M   'P 1'
_cell_length_a   18.97518683
_cell_length_b   18.97644451
_cell_length_c   18.97506884
_cell_angle_alpha   89.99921055
_cell_angle_beta   89.99963641
_cell_angle_gamma   90.00239048
_symmetry_Int_Tables_number   1
_chemical_formula_structural   Cs27Sn14Pb13I81
_chemical_formula_sum   'Cs27 Sn14 Pb13 I81'
_cell_volume   6832.57276303
_cell_formula_units_Z   1
loop_
 _symmetry_equiv_pos_site_id
 _symmetry_equiv_pos_as_xyz
  1  'x, y, z'
loop_
 _atom_site_type_symbol
 _atom_site_label
 _atom_site_symmetry_multiplicity
 _atom_site_fract_x
 _atom_site_fract_y
 _atom_site_fract_z
 _atom_site_occupancy
  Cs  Cs0  1  -0.00072419  -0.00012118  0.00068518  1
  Cs  Cs1  1  -0.00205541  0.00175283  0.33215972  1
  Cs  Cs2  1  -0.00008062  -0.00378602  0.66823431  1
  Cs  Cs3  1  0.00429879  0.33110559  0.00097864  1
  Cs  Cs4  1  -0.00054380  0.33221978  0.33379728  1
  Cs  Cs5  1  -0.00024779  0.33516513  0.66635848  1
  Cs  Cs6  1  0.00121798  0.66955150  -0.00223142  1
  Cs  Cs7  1  -0.00318627  0.66504637  0.33259394  1
  Cs  Cs8  1  -0.00097202  0.66828460  0.67031973  1
  Cs  Cs9  1  0.33356732  -0.00095679  0.00223092  1
  Cs  Cs10  1  0.33505509  -0.00012214  0.33610276  1
  Cs  Cs11  1  0.33562311  -0.00159922  0.65568205  1
  Cs  Cs12  1  0.33169768  0.33471270  -0.00034638  1
  Cs  Cs13  1  0.33193453  0.33307378  0.33407769  1
  Cs  Cs14  1  0.33445270  0.33166206  0.66603409  1
  Cs  Cs15  1  0.33344311  0.66656285  0.00045272  1
  Cs  Cs16  1  0.33445628  0.66663764  0.33427886  1
  Cs  Cs17  1  0.33178364  0.66956688  0.66297750  1
  Cs  Cs18  1  0.66648850  0.00014560  0.00043241  1
  Cs  Cs19  1  0.66790080  -0.00110427  0.33311737  1
  Cs  Cs20  1  0.66487668  0.00369019  0.66821484  1
  Cs  Cs21  1  0.66261157  0.33857294  -0.00811243  1
  Cs  Cs22  1  0.67205158  0.33683315  0.33188740  1
  Cs  Cs23  1  0.66561511  0.33316344  0.67692469  1
  Cs  Cs24  1  0.66280183  0.66232236  -0.00134715  1
  Cs  Cs25  1  0.66896227  0.66574697  0.33347678  1
  Cs  Cs26  1  0.66981944  0.66388797  0.66692359  1
  Sn  Sn27  1  0.49973781  0.49958052  0.49960948  1
  Sn  Sn28  1  0.49965783  0.83374250  0.83371461  1
  Sn  Sn29  1  0.83306667  0.83393028  0.16714964  1
  Sn  Sn30  1  0.16702861  0.16648792  0.83354464  1
  Sn  Sn31  1  0.83330402  0.16593033  0.49959069  1
  Sn  Sn32  1  0.16673481  0.83368990  0.16698644  1
  Sn  Sn33  1  0.16698124  0.16634730  0.16631432  1
  Sn  Sn34  1  0.83336575  0.83449590  0.49931724  1
  Sn  Sn35  1  0.16667403  0.50003479  0.16686005  1
  Sn  Sn36  1  0.16739402  0.50002506  0.49990468  1
  Sn  Sn37  1  0.83271233  0.16626944  0.16695055  1
  Sn  Sn38  1  0.50030619  0.16655469  0.16685273  1
  Sn  Sn39  1  0.50016348  0.83395431  0.16601387  1
  Sn  Sn40  1  0.16704853  0.49942947  0.83330249  1
  Pb  Pb41  1  0.83346591  0.49962035  0.50001960  1
  Pb  Pb42  1  0.83627167  0.49997771  0.83371569  1
  Pb  Pb43  1  0.50297371  0.16908179  0.49728018  1
  Pb  Pb44  1  0.83573551  0.49976491  0.16611757  1
  Pb  Pb45  1  0.50249877  0.83186578  0.49917018  1
  Pb  Pb46  1  0.49698865  0.50220505  0.83086017  1
  Pb  Pb47  1  0.49782473  0.49999567  0.16806397  1
  Pb  Pb48  1  0.16481948  0.16832232  0.49976952  1
  Pb  Pb49  1  0.16874178  0.83402585  0.83522045  1
  Pb  Pb50  1  0.49684643  0.16449877  0.83576435  1
  Pb  Pb51  1  0.83569242  0.16647582  0.83424377  1
  Pb  Pb52  1  0.83077782  0.83359875  0.83424499  1
  Pb  Pb53  1  0.16415737  0.83113541  0.49718905  1
  I  I54  1  0.16577023  0.00049457  0.16105808  1
  I  I55  1  0.16765391  -0.00012275  0.50127265  1
  I  I56  1  0.16606708  0.00270109  0.84050550  1
  I  I57  1  0.16626862  0.33281188  0.16612973  1
  I  I58  1  0.16709509  0.33647393  0.49478194  1
  I  I59  1  0.16621219  0.33363779  0.83967204  1
  I  I60  1  0.16671094  0.66683255  0.16709553  1
  I  I61  1  0.16814719  0.66299956  0.50037354  1
  I  I62  1  0.16789673  0.66418621  0.83448867  1
  I  I63  1  0.49556865  -0.00056360  0.16380050  1
  I  I64  1  0.49881168  0.00010647  0.50216098  1
  I  I65  1  0.49842660  -0.00312574  0.83528308  1
  I  I66  1  0.49957275  0.33051246  0.16988763  1
  I  I67  1  0.49562496  0.33653928  0.49777069  1
  I  I68  1  0.50165793  0.33324950  0.83361581  1
  I  I69  1  0.49985004  0.66975957  0.16462255  1
  I  I70  1  0.49676845  0.66415078  0.49765992  1
  I  I71  1  0.49861929  0.66970701  0.84189480  1
  I  I72  1  0.83815214  -0.00009293  0.17082570  1
  I  I73  1  0.83372366  -0.00008627  0.49398536  1
  I  I74  1  0.83746426  -0.00003021  0.83193743  1
  I  I75  1  0.83466816  0.32970184  0.17246428  1
  I  I76  1  0.83520089  0.33050786  0.49321061  1
  I  I77  1  0.83011819  0.33302255  0.83217941  1
  I  I78  1  0.83348335  0.67011924  0.17177013  1
  I  I79  1  0.83334410  0.66921745  0.49448560  1
  I  I80  1  0.83597956  0.66706076  0.83191730  1
  I  I81  1  0.16459849  0.17175557  0.00237476  1
  I  I82  1  0.16755772  0.16746495  0.32971714  1
  I  I83  1  0.16415932  0.17268631  0.66894033  1
  I  I84  1  0.16501169  0.49895964  0.00087713  1
  I  I85  1  0.17006059  0.50023137  0.33253597  1
  I  I86  1  0.17009915  0.49455801  0.66668049  1
  I  I87  1  0.16200930  0.82918477  0.00400094  1
  I  I88  1  0.17206429  0.83471665  0.32869335  1
  I  I89  1  0.16688407  0.83250894  0.66646888  1
  I  I90  1  0.50484742  0.16616699  0.00425088  1
  I  I91  1  0.49292994  0.15964464  0.32912642  1
  I  I92  1  0.49995616  0.16567874  0.66661286  1
  I  I93  1  0.49953004  0.49885029  -0.00002380  1
  I  I94  1  0.49302929  0.50217493  0.33564357  1
  I  I95  1  0.49507055  0.50217547  0.66327568  1
  I  I96  1  0.50119450  0.83597949  0.00267618  1
  I  I97  1  0.49759219  0.83560102  0.32970928  1
  I  I98  1  0.50017529  0.82991037  0.66835876  1
  I  I99  1  0.83358307  0.16107161  0.00400997  1
  I  I100  1  0.83640732  0.16302068  0.33154880  1
  I  I101  1  0.83592155  0.16331341  0.66398966  1
  I  I102  1  0.83327525  0.50089757  0.00032114  1
  I  I103  1  0.83663337  0.50027397  0.33318002  1
  I  I104  1  0.83549849  0.50105566  0.66636137  1
  I  I105  1  0.83686854  0.83810438  0.00406030  1
  I  I106  1  0.83226770  0.83658298  0.33159730  1
  I  I107  1  0.83228019  0.83586543  0.66394567  1
  I  I108  1  0.00056440  0.16498027  0.16675341  1
  I  I109  1  -0.00289785  0.16560915  0.49322505  1
  I  I110  1  0.00367628  0.17057836  0.83986105  1
  I  I111  1  0.00456829  0.50000727  0.16988560  1
  I  I112  1  0.00304991  0.49987332  0.49930654  1
  I  I113  1  0.00496319  0.49807709  0.83085357  1
  I  I114  1  0.00016182  0.83477157  0.17119200  1
  I  I115  1  -0.00355823  0.83483420  0.49477656  1
  I  I116  1  0.00028845  0.83164864  0.83349511  1
  I  I117  1  0.33249624  0.16462786  0.16185354  1
  I  I118  1  0.33340341  0.16677263  0.49952851  1
  I  I119  1  0.32913680  0.17177433  0.83986208  1
  I  I120  1  0.32926068  0.50010302  0.16490008  1
  I  I121  1  0.33179791  0.50081037  0.49886185  1
  I  I122  1  0.32917488  0.49631853  0.83751157  1
  I  I123  1  0.33322798  0.83479773  0.16162317  1
  I  I124  1  0.33333038  0.83272241  0.49953709  1
  I  I125  1  0.33620304  0.83209292  0.84056484  1
  I  I126  1  0.66710308  0.15787387  0.17311463  1
  I  I127  1  0.67066987  0.16431225  0.49356697  1
  I  I128  1  0.66629465  0.16602339  0.83338623  1
  I  I129  1  0.66645897  0.50031137  0.17049154  1
  I  I130  1  0.66450271  0.50179847  0.49754674  1
  I  I131  1  0.66591976  0.50082901  0.83073677  1
  I  I132  1  0.66675217  0.84057049  0.16717439  1
  I  I133  1  0.67008307  0.83356747  0.49341214  1
  I  I134  1  0.66318855  0.83305402  0.83952195  1
