# generated using pymatgen
data_Cs27Sn14Pb13I81
_symmetry_space_group_name_H-M   'P 1'
_cell_length_a   18.96011638
_cell_length_b   18.98531326
_cell_length_c   18.98169902
_cell_angle_alpha   89.99945643
_cell_angle_beta   90.00028531
_cell_angle_gamma   89.99932171
_symmetry_Int_Tables_number   1
_chemical_formula_structural   Cs27Sn14Pb13I81
_chemical_formula_sum   'Cs27 Sn14 Pb13 I81'
_cell_volume   6832.72353766
_cell_formula_units_Z   1
loop_
 _symmetry_equiv_pos_site_id
 _symmetry_equiv_pos_as_xyz
  1  'x, y, z'
loop_
 _atom_site_type_symbol
 _atom_site_label
 _atom_site_symmetry_multiplicity
 _atom_site_fract_x
 _atom_site_fract_y
 _atom_site_fract_z
 _atom_site_occupancy
  Cs  Cs0  1  0.00175531  -0.00107180  -0.00341095  1
  Cs  Cs1  1  0.00004287  0.00032791  0.33432295  1
  Cs  Cs2  1  0.00010503  -0.00130004  0.66898513  1
  Cs  Cs3  1  0.00919468  0.33843643  0.00118105  1
  Cs  Cs4  1  -0.00008861  0.33609131  0.33412473  1
  Cs  Cs5  1  -0.00324997  0.33563323  0.66449531  1
  Cs  Cs6  1  -0.00900132  0.66133026  -0.00634176  1
  Cs  Cs7  1  -0.00514865  0.66554389  0.32964712  1
  Cs  Cs8  1  -0.00572575  0.66548112  0.67758095  1
  Cs  Cs9  1  0.33310081  0.00017212  0.00079419  1
  Cs  Cs10  1  0.33328512  -0.00206445  0.33374120  1
  Cs  Cs11  1  0.33294485  -0.00145296  0.66525361  1
  Cs  Cs12  1  0.33232050  0.33278698  0.00120567  1
  Cs  Cs13  1  0.33309498  0.33361083  0.33387539  1
  Cs  Cs14  1  0.33421005  0.33392348  0.66475517  1
  Cs  Cs15  1  0.33419128  0.66720451  0.00024887  1
  Cs  Cs16  1  0.33389473  0.66899971  0.33599944  1
  Cs  Cs17  1  0.33370899  0.66726538  0.66310352  1
  Cs  Cs18  1  0.66468168  0.00244823  0.00102410  1
  Cs  Cs19  1  0.66815291  0.00029652  0.33326152  1
  Cs  Cs20  1  0.66694734  0.00208982  0.66434593  1
  Cs  Cs21  1  0.66323457  0.32924783  -0.00090074  1
  Cs  Cs22  1  0.66653986  0.33121893  0.33342535  1
  Cs  Cs23  1  0.66621890  0.33115618  0.66746080  1
  Cs  Cs24  1  0.66908074  0.66709014  0.00158969  1
  Cs  Cs25  1  0.67171654  0.67035371  0.33218524  1
  Cs  Cs26  1  0.67008735  0.66855209  0.66584013  1
  Sn  Sn27  1  0.49924236  0.83342269  0.16599060  1
  Sn  Sn28  1  0.83330155  0.16672709  0.16525122  1
  Sn  Sn29  1  0.49995346  0.49942710  0.49972904  1
  Sn  Sn30  1  0.49972118  0.50010952  0.83313685  1
  Sn  Sn31  1  0.49973568  0.50009122  0.16713650  1
  Sn  Sn32  1  0.16730324  0.50053714  0.49993690  1
  Sn  Sn33  1  0.49905430  0.16725983  0.49979294  1
  Sn  Sn34  1  0.50018200  0.16656674  0.16688729  1
  Sn  Sn35  1  0.16751717  0.16670818  0.49996152  1
  Sn  Sn36  1  0.49988397  0.16654520  0.83330946  1
  Sn  Sn37  1  0.16700143  0.83289305  0.16691409  1
  Sn  Sn38  1  0.16669450  0.83269721  0.49927338  1
  Sn  Sn39  1  0.83289148  0.16693021  0.83501066  1
  Sn  Sn40  1  0.49963773  0.83351083  0.83403308  1
  Pb  Pb41  1  0.83310511  0.16660044  0.49992625  1
  Pb  Pb42  1  0.16688341  0.16502616  0.16868093  1
  Pb  Pb43  1  0.49924501  0.83323978  0.49976002  1
  Pb  Pb44  1  0.83758807  0.83338525  0.49999833  1
  Pb  Pb45  1  0.83050636  0.49672742  0.16656673  1
  Pb  Pb46  1  0.83015411  0.49666758  0.83356268  1
  Pb  Pb47  1  0.82988960  0.83620313  0.83361651  1
  Pb  Pb48  1  0.83335822  0.83582059  0.16649332  1
  Pb  Pb49  1  0.16933783  0.49997705  0.83087791  1
  Pb  Pb50  1  0.16877696  0.83318926  0.83389289  1
  Pb  Pb51  1  0.83267837  0.49994569  0.49995737  1
  Pb  Pb52  1  0.16890952  0.50299560  0.16869402  1
  Pb  Pb53  1  0.16709842  0.16681889  0.83087245  1
  I  I54  1  0.17389469  -0.00272522  0.17355962  1
  I  I55  1  0.17184249  0.00025273  0.49663923  1
  I  I56  1  0.16942286  0.00008164  0.82925547  1
  I  I57  1  0.16659720  0.33348463  0.16809373  1
  I  I58  1  0.17214214  0.33319052  0.50122528  1
  I  I59  1  0.16874111  0.33321154  0.83275488  1
  I  I60  1  0.17491407  0.67073858  0.17362021  1
  I  I61  1  0.17510672  0.66644490  0.49556960  1
  I  I62  1  0.16968051  0.66668549  0.82987897  1
  I  I63  1  0.50002394  0.00057578  0.16437132  1
  I  I64  1  0.49650704  0.00285982  0.50061600  1
  I  I65  1  0.50309092  0.00084659  0.83540564  1
  I  I66  1  0.50458685  0.33273697  0.16542070  1
  I  I67  1  0.49333532  0.33256221  0.50008640  1
  I  I68  1  0.50379981  0.33270228  0.83413900  1
  I  I69  1  0.49407790  0.66689102  0.16439877  1
  I  I70  1  0.49536234  0.66399902  0.50076870  1
  I  I71  1  0.49625724  0.66650595  0.83514153  1
  I  I72  1  0.82551953  0.00360256  0.16419684  1
  I  I73  1  0.83145982  0.00044203  0.50020540  1
  I  I74  1  0.82700837  0.00394988  0.83620950  1
  I  I75  1  0.82702337  0.32880500  0.16439890  1
  I  I76  1  0.83800872  0.33300211  0.49992273  1
  I  I77  1  0.82557630  0.32906751  0.83521231  1
  I  I78  1  0.83252048  0.66660256  0.16853114  1
  I  I79  1  0.82965486  0.66657234  0.49939946  1
  I  I80  1  0.83330825  0.66650048  0.83160291  1
  I  I81  1  0.16890867  0.16368726  0.00012492  1
  I  I82  1  0.17158558  0.16822034  0.33685769  1
  I  I83  1  0.17183889  0.16382632  0.66247479  1
  I  I84  1  0.16798978  0.50093532  0.00024462  1
  I  I85  1  0.17419207  0.49657915  0.33689676  1
  I  I86  1  0.17370240  0.50123517  0.66231527  1
  I  I87  1  0.17140739  0.83679099  0.00320027  1
  I  I88  1  0.17518250  0.83466834  0.33369584  1
  I  I89  1  0.16948511  0.83463789  0.66355981  1
  I  I90  1  0.50472154  0.16816538  0.00018368  1
  I  I91  1  0.50024781  0.16881743  0.33318930  1
  I  I92  1  0.50029629  0.16859238  0.66661850  1
  I  I93  1  0.50144529  0.49730374  0.00018623  1
  I  I94  1  0.49561589  0.49596859  0.33361054  1
  I  I95  1  0.49578981  0.49639250  0.66627522  1
  I  I96  1  0.49441927  0.83442959  0.00096962  1
  I  I97  1  0.49767487  0.83428674  0.33049303  1
  I  I98  1  0.49839661  0.83440683  0.66889420  1
  I  I99  1  0.82115967  0.16524221  0.00010472  1
  I  I100  1  0.82824487  0.16590292  0.33067873  1
  I  I101  1  0.82849393  0.16651664  0.66922045  1
  I  I102  1  0.83317239  0.50263653  0.00002559  1
  I  I103  1  0.83060671  0.49694691  0.33320537  1
  I  I104  1  0.83185423  0.49729167  0.66681365  1
  I  I105  1  0.83886120  0.83211547  0.00003229  1
  I  I106  1  0.82712165  0.83676195  0.33306242  1
  I  I107  1  0.83203833  0.83642843  0.66695587  1
  I  I108  1  -0.00234448  0.16300093  0.16412113  1
  I  I109  1  0.00314848  0.16629674  0.49970476  1
  I  I110  1  -0.00277552  0.16506608  0.83626155  1
  I  I111  1  0.00018712  0.49970721  0.16957026  1
  I  I112  1  0.00341058  0.49773013  0.49874290  1
  I  I113  1  -0.00021411  0.49915763  0.83105401  1
  I  I114  1  0.00307183  0.83698573  0.17483349  1
  I  I115  1  0.00601412  0.83627033  0.49251754  1
  I  I116  1  -0.00018071  0.83558719  0.83167998  1
  I  I117  1  0.33714024  0.16826343  0.16423832  1
  I  I118  1  0.33501233  0.16741892  0.50001222  1
  I  I119  1  0.33762720  0.16682180  0.83587390  1
  I  I120  1  0.33780100  0.49343229  0.16435176  1
  I  I121  1  0.33483513  0.49828078  0.50048047  1
  I  I122  1  0.33822668  0.49558381  0.83548158  1
  I  I123  1  0.33533087  0.83643370  0.16727697  1
  I  I124  1  0.33113625  0.83435933  0.49909131  1
  I  I125  1  0.33748261  0.83749017  0.83437882  1
  I  I126  1  0.66372123  0.16506811  0.16852439  1
  I  I127  1  0.66292494  0.17152897  0.50039502  1
  I  I128  1  0.66387049  0.16671914  0.83157845  1
  I  I129  1  0.66135423  0.50574445  0.16982141  1
  I  I130  1  0.66207798  0.49323065  0.50070568  1
  I  I131  1  0.66144617  0.50244321  0.82992517  1
  I  I132  1  0.66284722  0.83134749  0.16254885  1
  I  I133  1  0.66653793  0.83387731  0.49998128  1
  I  I134  1  0.66144877  0.83038463  0.83927865  1
