# generated using pymatgen
data_Cs27Sn14Pb13I81
_symmetry_space_group_name_H-M   'P 1'
_cell_length_a   18.95990533
_cell_length_b   18.96310876
_cell_length_c   18.95906577
_cell_angle_alpha   90.00016907
_cell_angle_beta   89.99672153
_cell_angle_gamma   90.00137547
_symmetry_Int_Tables_number   1
_chemical_formula_structural   Cs27Sn14Pb13I81
_chemical_formula_sum   'Cs27 Sn14 Pb13 I81'
_cell_volume   6816.51873491
_cell_formula_units_Z   1
loop_
 _symmetry_equiv_pos_site_id
 _symmetry_equiv_pos_as_xyz
  1  'x, y, z'
loop_
 _atom_site_type_symbol
 _atom_site_label
 _atom_site_symmetry_multiplicity
 _atom_site_fract_x
 _atom_site_fract_y
 _atom_site_fract_z
 _atom_site_occupancy
  Cs  Cs0  1  -0.00013927  0.00169465  0.00269688  1
  Cs  Cs1  1  -0.00120902  -0.00162021  0.32929069  1
  Cs  Cs2  1  -0.00006955  -0.00348822  0.66894837  1
  Cs  Cs3  1  -0.00304027  0.33201780  0.00117341  1
  Cs  Cs4  1  -0.00138525  0.33424764  0.33394733  1
  Cs  Cs5  1  0.00236993  0.33325643  0.66361287  1
  Cs  Cs6  1  0.00221164  0.66662033  -0.00043243  1
  Cs  Cs7  1  0.00158836  0.66582149  0.33377227  1
  Cs  Cs8  1  -0.00135364  0.66757636  0.66786916  1
  Cs  Cs9  1  0.33166865  -0.00154536  -0.00094430  1
  Cs  Cs10  1  0.33614568  -0.00069260  0.33409776  1
  Cs  Cs11  1  0.33559027  0.00766894  0.66746210  1
  Cs  Cs12  1  0.33441235  0.33429387  -0.00005424  1
  Cs  Cs13  1  0.33263792  0.33443938  0.33502512  1
  Cs  Cs14  1  0.33310246  0.32805639  0.66458551  1
  Cs  Cs15  1  0.33369092  0.66659373  0.00031822  1
  Cs  Cs16  1  0.33388275  0.66629512  0.33107013  1
  Cs  Cs17  1  0.33173941  0.66459025  0.67082027  1
  Cs  Cs18  1  0.67011686  0.00637050  -0.00065145  1
  Cs  Cs19  1  0.66580538  -0.00147131  0.33691152  1
  Cs  Cs20  1  0.66417673  -0.00236263  0.66261393  1
  Cs  Cs21  1  0.66992180  0.33160725  -0.00041622  1
  Cs  Cs22  1  0.66988164  0.33512852  0.33213109  1
  Cs  Cs23  1  0.66492683  0.33480840  0.66717108  1
  Cs  Cs24  1  0.66304161  0.66452091  -0.00148000  1
  Cs  Cs25  1  0.66364949  0.66684730  0.33352034  1
  Cs  Cs26  1  0.66958400  0.66711314  0.66720676  1
  Sn  Sn27  1  0.83414368  0.50140027  0.16733292  1
  Sn  Sn28  1  0.16763897  0.83260590  0.83325482  1
  Sn  Sn29  1  0.16786577  0.16690219  0.16677194  1
  Sn  Sn30  1  0.83348204  0.83187460  0.16640504  1
  Sn  Sn31  1  0.50041803  0.50038055  0.50082847  1
  Sn  Sn32  1  0.49924618  0.16674239  0.16671842  1
  Sn  Sn33  1  0.83363059  0.16710751  0.50013729  1
  Sn  Sn34  1  0.83261347  0.49939015  0.49930316  1
  Sn  Sn35  1  0.16626848  0.83315773  0.16672258  1
  Sn  Sn36  1  0.16738686  0.50034252  0.83414261  1
  Sn  Sn37  1  0.16709211  0.83342078  0.50011295  1
  Sn  Sn38  1  0.49901783  0.50065119  0.83227273  1
  Sn  Sn39  1  0.49937378  0.83284808  0.83359559  1
  Sn  Sn40  1  0.16595633  0.49985623  0.16587201  1
  Pb  Pb41  1  0.16648476  0.50140945  0.50019228  1
  Pb  Pb42  1  0.16641125  0.16688848  0.83548403  1
  Pb  Pb43  1  0.83500796  0.83251564  0.49792519  1
  Pb  Pb44  1  0.49740938  0.83095845  0.50260703  1
  Pb  Pb45  1  0.50000014  0.49856472  0.16623178  1
  Pb  Pb46  1  0.50186413  0.16913148  0.49773551  1
  Pb  Pb47  1  0.83348247  0.83326031  0.83617764  1
  Pb  Pb48  1  0.50002604  0.83532043  0.16453338  1
  Pb  Pb49  1  0.16464550  0.16381211  0.49738700  1
  Pb  Pb50  1  0.83375315  0.49989613  0.83329594  1
  Pb  Pb51  1  0.49992589  0.16703939  0.83517875  1
  Pb  Pb52  1  0.83342622  0.16664710  0.82949455  1
  Pb  Pb53  1  0.83363343  0.16685890  0.16800344  1
  I  I54  1  0.16545565  -0.00130052  0.16655636  1
  I  I55  1  0.16443627  -0.00411387  0.50057590  1
  I  I56  1  0.17023349  -0.00359285  0.83409855  1
  I  I57  1  0.16603563  0.33465432  0.16243207  1
  I  I58  1  0.16769121  0.33343003  0.49969613  1
  I  I59  1  0.17034114  0.33696014  0.83742651  1
  I  I60  1  0.16168869  0.66670569  0.16593825  1
  I  I61  1  0.16472065  0.66925213  0.49538959  1
  I  I62  1  0.17053424  0.66675495  0.83839127  1
  I  I63  1  0.49655520  0.00289621  0.16487772  1
  I  I64  1  0.50166293  -0.00013014  0.50066768  1
  I  I65  1  0.49479565  -0.00285688  0.83619131  1
  I  I66  1  0.49625186  0.33096693  0.16559299  1
  I  I67  1  0.49987584  0.33722423  0.50571524  1
  I  I68  1  0.49571299  0.33695975  0.83066988  1
  I  I69  1  0.49897146  0.66655305  0.16813999  1
  I  I70  1  0.50665539  0.66295916  0.49889204  1
  I  I71  1  0.49544226  0.66574696  0.83164606  1
  I  I72  1  0.83709341  -0.00217926  0.16740556  1
  I  I73  1  0.83595465  0.00156444  0.49691591  1
  I  I74  1  0.83367657  -0.00040169  0.83526164  1
  I  I75  1  0.83635061  0.33625203  0.16864374  1
  I  I76  1  0.83083343  0.33524185  0.49298456  1
  I  I77  1  0.83286365  0.33379300  0.84011773  1
  I  I78  1  0.84115743  0.66565181  0.17188188  1
  I  I79  1  0.83104236  0.66351046  0.49744623  1
  I  I80  1  0.83304346  0.66654301  0.82917883  1
  I  I81  1  0.16857200  0.16284243  0.00407660  1
  I  I82  1  0.16922360  0.16817252  0.32900833  1
  I  I83  1  0.16468988  0.16654292  0.66637388  1
  I  I84  1  0.16720121  0.50421879  0.00089889  1
  I  I85  1  0.16586507  0.50122069  0.33038879  1
  I  I86  1  0.16682445  0.50566266  0.66926637  1
  I  I87  1  0.16670690  0.83256046  0.00066895  1
  I  I88  1  0.16126905  0.83288692  0.33162727  1
  I  I89  1  0.16918058  0.82729059  0.66791367  1
  I  I90  1  0.49710951  0.16874242  0.00322614  1
  I  I91  1  0.49559918  0.16725324  0.32994991  1
  I  I92  1  0.50230023  0.16516127  0.66643383  1
  I  I93  1  0.49852718  0.50248406  -0.00263821  1
  I  I94  1  0.50109512  0.49720116  0.33513220  1
  I  I95  1  0.50032894  0.50349086  0.66728830  1
  I  I96  1  0.49421775  0.82601567  -0.00326003  1
  I  I97  1  0.49899275  0.83322470  0.33325332  1
  I  I98  1  0.49567734  0.83248212  0.67063099  1
  I  I99  1  0.83285124  0.16667652  0.00053239  1
  I  I100  1  0.83391405  0.16917197  0.33540897  1
  I  I101  1  0.83327014  0.17364303  0.66169593  1
  I  I102  1  0.83441669  0.50357090  0.00321998  1
  I  I103  1  0.83379496  0.49946603  0.33262985  1
  I  I104  1  0.83266518  0.49557962  0.66373787  1
  I  I105  1  0.83909393  0.82845579  0.00438262  1
  I  I106  1  0.83967727  0.83250660  0.32974786  1
  I  I107  1  0.83536672  0.83411864  0.66658722  1
  I  I108  1  0.00276418  0.16585231  0.16773786  1
  I  I109  1  -0.00297736  0.17502386  0.49684523  1
  I  I110  1  0.00031611  0.16650376  0.83725332  1
  I  I111  1  0.00090510  0.49890463  0.16697751  1
  I  I112  1  -0.00245131  0.49766940  0.49801901  1
  I  I113  1  0.00338015  0.50499818  0.83469240  1
  I  I114  1  0.00181875  0.83507654  0.16514692  1
  I  I115  1  0.00315781  0.83096992  0.50331719  1
  I  I116  1  0.00380666  0.82865746  0.83192955  1
  I  I117  1  0.33179614  0.16686937  0.16645549  1
  I  I118  1  0.33323066  0.16720161  0.50003157  1
  I  I119  1  0.33312086  0.16689829  0.83167185  1
  I  I120  1  0.33031676  0.50254974  0.16633858  1
  I  I121  1  0.33534136  0.50264772  0.50001139  1
  I  I122  1  0.33270774  0.50470727  0.83467232  1
  I  I123  1  0.32985101  0.83066575  0.16763785  1
  I  I124  1  0.32945107  0.83135794  0.49273292  1
  I  I125  1  0.33177005  0.82819238  0.83644342  1
  I  I126  1  0.66497719  0.16725479  0.16726482  1
  I  I127  1  0.66974458  0.16718509  0.49566819  1
  I  I128  1  0.66637489  0.16685344  0.83963387  1
  I  I129  1  0.66929052  0.50169879  0.16779668  1
  I  I130  1  0.66735220  0.49679128  0.49903115  1
  I  I131  1  0.66379740  0.50382840  0.83300515  1
  I  I132  1  0.66920502  0.83057199  0.16601962  1
  I  I133  1  0.66655550  0.83530576  0.49961993  1
  I  I134  1  0.66373780  0.82870603  0.83514751  1
