# generated using pymatgen
data_Cs27Sn13Pb14I81
_symmetry_space_group_name_H-M   'P 1'
_cell_length_a   19.08846318
_cell_length_b   19.08882344
_cell_length_c   19.04878945
_cell_angle_alpha   90.00007463
_cell_angle_beta   90.00246255
_cell_angle_gamma   90.00072824
_symmetry_Int_Tables_number   1
_chemical_formula_structural   Cs27Sn13Pb14I81
_chemical_formula_sum   'Cs27 Sn13 Pb14 I81'
_cell_volume   6940.92747352
_cell_formula_units_Z   1
loop_
 _symmetry_equiv_pos_site_id
 _symmetry_equiv_pos_as_xyz
  1  'x, y, z'
loop_
 _atom_site_type_symbol
 _atom_site_label
 _atom_site_symmetry_multiplicity
 _atom_site_fract_x
 _atom_site_fract_y
 _atom_site_fract_z
 _atom_site_occupancy
  Cs  Cs0  1  0.00447008  -0.00299280  -0.00168412  1
  Cs  Cs1  1  0.00662813  0.00169964  0.33295803  1
  Cs  Cs2  1  -0.01128283  -0.00046111  0.67482900  1
  Cs  Cs3  1  0.00034207  0.33544532  -0.00183560  1
  Cs  Cs4  1  0.00327560  0.32799337  0.33333803  1
  Cs  Cs5  1  -0.01333209  0.34735259  0.67957065  1
  Cs  Cs6  1  -0.00069635  0.66721194  -0.00195082  1
  Cs  Cs7  1  0.00595460  0.67091283  0.33058338  1
  Cs  Cs8  1  -0.00823566  0.65202673  0.68353862  1
  Cs  Cs9  1  0.33512118  0.00094131  -0.00694659  1
  Cs  Cs10  1  0.32710270  0.00471714  0.33430864  1
  Cs  Cs11  1  0.33580052  -0.00057316  0.67869049  1
  Cs  Cs12  1  0.33897942  0.33265447  -0.00034682  1
  Cs  Cs13  1  0.33213815  0.32849802  0.33505518  1
  Cs  Cs14  1  0.32904852  0.33562836  0.66361815  1
  Cs  Cs15  1  0.33549161  0.66591320  0.00102588  1
  Cs  Cs16  1  0.33212122  0.66823161  0.33624540  1
  Cs  Cs17  1  0.33479782  0.66458027  0.65895767  1
  Cs  Cs18  1  0.66046089  0.00052866  -0.00257212  1
  Cs  Cs19  1  0.66745014  0.00213104  0.33398654  1
  Cs  Cs20  1  0.67763092  -0.01198088  0.67610344  1
  Cs  Cs21  1  0.65983305  0.33540149  0.00284080  1
  Cs  Cs22  1  0.66487328  0.32987394  0.33296077  1
  Cs  Cs23  1  0.68396355  0.33133978  0.66583873  1
  Cs  Cs24  1  0.66415183  0.66127128  0.00406465  1
  Cs  Cs25  1  0.66415750  0.66906971  0.33828289  1
  Cs  Cs26  1  0.67271937  0.67975442  0.64931983  1
  Sn  Sn27  1  0.16741260  0.83368201  0.16668497  1
  Sn  Sn28  1  0.49923708  0.16632786  0.50030619  1
  Sn  Sn29  1  0.16698574  0.16670109  0.16591810  1
  Sn  Sn30  1  0.49949200  0.50020221  0.16723007  1
  Sn  Sn31  1  0.83353885  0.16628525  0.16695334  1
  Sn  Sn32  1  0.49997566  0.50007523  0.83208853  1
  Sn  Sn33  1  0.83341919  0.49991391  0.16767545  1
  Sn  Sn34  1  0.16721416  0.49969551  0.16714448  1
  Sn  Sn35  1  0.49935039  0.83386415  0.16749508  1
  Sn  Sn36  1  0.83312081  0.83376026  0.16718928  1
  Sn  Sn37  1  0.49948846  0.16603583  0.16778172  1
  Sn  Sn38  1  0.16650179  0.83505139  0.49999761  1
  Sn  Sn39  1  0.16717936  0.16492370  0.50005920  1
  Pb  Pb40  1  0.16666265  0.16684108  0.83132527  1
  Pb  Pb41  1  0.83751262  0.83375481  0.49626145  1
  Pb  Pb42  1  0.82903031  0.50048719  0.83757791  1
  Pb  Pb43  1  0.49986243  0.82998536  0.83564327  1
  Pb  Pb44  1  0.49735276  0.83688967  0.49697703  1
  Pb  Pb45  1  0.16698238  0.83311036  0.83188152  1
  Pb  Pb46  1  0.83425966  0.16625336  0.49736579  1
  Pb  Pb47  1  0.16999331  0.50003078  0.83646241  1
  Pb  Pb48  1  0.83365116  0.50021595  0.49580310  1
  Pb  Pb49  1  0.83314072  0.16657624  0.83732997  1
  Pb  Pb50  1  0.83308191  0.83286579  0.83736522  1
  Pb  Pb51  1  0.16630768  0.49957160  0.49768363  1
  Pb  Pb52  1  0.50000856  0.16918108  0.83144088  1
  Pb  Pb53  1  0.50003748  0.49708255  0.49973355  1
  I  I54  1  0.16511187  0.00018108  0.17052673  1
  I  I55  1  0.17292200  0.00056488  0.48149421  1
  I  I56  1  0.16834885  0.00005679  0.84401896  1
  I  I57  1  0.16588108  0.33273521  0.17041423  1
  I  I58  1  0.17474226  0.32985860  0.49104297  1
  I  I59  1  0.16588282  0.33345045  0.83399677  1
  I  I60  1  0.16623052  0.66717654  0.17064187  1
  I  I61  1  0.16781652  0.66948098  0.49043548  1
  I  I62  1  0.16519375  0.66652544  0.83362656  1
  I  I63  1  0.50214929  0.00046350  0.17296443  1
  I  I64  1  0.49868536  0.00402686  0.48744290  1
  I  I65  1  0.49995848  -0.00009047  0.83460750  1
  I  I66  1  0.50091416  0.33303852  0.16494781  1
  I  I67  1  0.48908726  0.32975082  0.48788019  1
  I  I68  1  0.49854909  0.33592872  0.84897782  1
  I  I69  1  0.50026589  0.66651697  0.15796134  1
  I  I70  1  0.49961590  0.66692625  0.50160661  1
  I  I71  1  0.49848715  0.66283939  0.84798897  1
  I  I72  1  0.83281689  0.00016734  0.16759196  1
  I  I73  1  0.82734504  0.00007348  0.49770961  1
  I  I74  1  0.83219938  -0.00020411  0.83300602  1
  I  I75  1  0.83311426  0.33317140  0.16647387  1
  I  I76  1  0.83508255  0.33289691  0.49895552  1
  I  I77  1  0.83520608  0.33380958  0.83236078  1
  I  I78  1  0.83381931  0.66660630  0.16537507  1
  I  I79  1  0.83173281  0.66717322  0.49765351  1
  I  I80  1  0.83694180  0.66634108  0.83594043  1
  I  I81  1  0.16603476  0.16605135  0.00443422  1
  I  I82  1  0.16707892  0.16705690  0.33001320  1
  I  I83  1  0.17980437  0.15739285  0.66266176  1
  I  I84  1  0.15992696  0.50039942  0.00541085  1
  I  I85  1  0.17097194  0.50055808  0.32869099  1
  I  I86  1  0.16882189  0.50053959  0.66691223  1
  I  I87  1  0.16429652  0.83357871  0.00445435  1
  I  I88  1  0.16617081  0.83295901  0.32968452  1
  I  I89  1  0.17131647  0.84473604  0.66280789  1
  I  I90  1  0.50068580  0.16316814  0.00393528  1
  I  I91  1  0.50004958  0.17057529  0.32963609  1
  I  I92  1  0.48635385  0.17123814  0.66295446  1
  I  I93  1  0.50038534  0.49716293  0.00494461  1
  I  I94  1  0.50125136  0.50387662  0.32910871  1
  I  I95  1  0.49474124  0.49566734  0.66939849  1
  I  I96  1  0.49685032  0.84277392  0.00505280  1
  I  I97  1  0.50537269  0.82225687  0.32865348  1
  I  I98  1  0.49736008  0.83189471  0.66605419  1
  I  I99  1  0.83325121  0.16714310  0.00602565  1
  I  I100  1  0.83234490  0.16818038  0.32881011  1
  I  I101  1  0.83301407  0.16770467  0.66666861  1
  I  I102  1  0.83966443  0.50019168  0.00497702  1
  I  I103  1  0.82707603  0.49934242  0.32748265  1
  I  I104  1  0.83360442  0.49856691  0.66733081  1
  I  I105  1  0.83934817  0.83308410  0.00575575  1
  I  I106  1  0.82780229  0.83189468  0.32839110  1
  I  I107  1  0.83339641  0.83385866  0.66652222  1
  I  I108  1  0.00077418  0.16811839  0.17112274  1
  I  I109  1  0.00365719  0.16017583  0.48934361  1
  I  I110  1  0.00006489  0.16766534  0.83300044  1
  I  I111  1  0.00026750  0.49966451  0.17054225  1
  I  I112  1  0.00023140  0.49570138  0.49853855  1
  I  I113  1  -0.00055760  0.49968891  0.83009657  1
  I  I114  1  0.00073574  0.83220020  0.17130721  1
  I  I115  1  0.00450885  0.84465250  0.48676556  1
  I  I116  1  0.00012566  0.83293625  0.83629075  1
  I  I117  1  0.33333588  0.16840840  0.17000685  1
  I  I118  1  0.33299613  0.16389555  0.48428145  1
  I  I119  1  0.33360704  0.16671424  0.84337832  1
  I  I120  1  0.33351588  0.50044067  0.16081817  1
  I  I121  1  0.33327551  0.50438782  0.49817956  1
  I  I122  1  0.33700869  0.49896893  0.84584690  1
  I  I123  1  0.33303844  0.83061714  0.17028622  1
  I  I124  1  0.33003640  0.83173674  0.48856861  1
  I  I125  1  0.33341106  0.83387389  0.83991043  1
  I  I126  1  0.66581636  0.16804887  0.17046001  1
  I  I127  1  0.66411265  0.17307864  0.49155178  1
  I  I128  1  0.66628276  0.16804814  0.83308474  1
  I  I129  1  0.66613540  0.49919645  0.15956099  1
  I  I130  1  0.66637854  0.49733342  0.49804631  1
  I  I131  1  0.66263272  0.49626924  0.84784718  1
  I  I132  1  0.66631155  0.83263859  0.16279356  1
  I  I133  1  0.66702278  0.83183899  0.50203126  1
  I  I134  1  0.66643427  0.83584935  0.83377004  1
