# generated using pymatgen
data_Cs27Sn14Pb13I81
_symmetry_space_group_name_H-M   'P 1'
_cell_length_a   18.97829896
_cell_length_b   18.97891679
_cell_length_c   18.97228200
_cell_angle_alpha   89.99923946
_cell_angle_beta   89.99899674
_cell_angle_gamma   89.99966954
_symmetry_Int_Tables_number   1
_chemical_formula_structural   Cs27Sn14Pb13I81
_chemical_formula_sum   'Cs27 Sn14 Pb13 I81'
_cell_volume   6833.57989859
_cell_formula_units_Z   1
loop_
 _symmetry_equiv_pos_site_id
 _symmetry_equiv_pos_as_xyz
  1  'x, y, z'
loop_
 _atom_site_type_symbol
 _atom_site_label
 _atom_site_symmetry_multiplicity
 _atom_site_fract_x
 _atom_site_fract_y
 _atom_site_fract_z
 _atom_site_occupancy
  Cs  Cs0  1  0.00400182  0.00331062  0.00135486  1
  Cs  Cs1  1  -0.00228334  0.00031447  0.33497566  1
  Cs  Cs2  1  -0.00059825  -0.00087969  0.66583989  1
  Cs  Cs3  1  0.00500990  0.33634566  -0.00650059  1
  Cs  Cs4  1  0.00043778  0.33422205  0.33418776  1
  Cs  Cs5  1  0.00211622  0.33357507  0.67195688  1
  Cs  Cs6  1  -0.00226121  0.65978805  0.01022554  1
  Cs  Cs7  1  0.00011662  0.66393833  0.32953796  1
  Cs  Cs8  1  0.00216789  0.66975155  0.66507263  1
  Cs  Cs9  1  0.33162251  0.00182843  0.00669622  1
  Cs  Cs10  1  0.33402511  0.00413184  0.32734576  1
  Cs  Cs11  1  0.33389494  -0.00328208  0.66591608  1
  Cs  Cs12  1  0.32708512  0.33023349  0.00030580  1
  Cs  Cs13  1  0.33257897  0.33098343  0.33153095  1
  Cs  Cs14  1  0.33407227  0.33564093  0.66626202  1
  Cs  Cs15  1  0.33638044  0.66865029  0.00060720  1
  Cs  Cs16  1  0.33160922  0.66531573  0.33329943  1
  Cs  Cs17  1  0.33454280  0.66793965  0.66608410  1
  Cs  Cs18  1  0.66602822  -0.00169576  -0.00010564  1
  Cs  Cs19  1  0.66742024  0.00334383  0.33288813  1
  Cs  Cs20  1  0.66712130  -0.00122643  0.66590849  1
  Cs  Cs21  1  0.66964447  0.33730368  -0.00395849  1
  Cs  Cs22  1  0.66567159  0.33064191  0.33514616  1
  Cs  Cs23  1  0.66569786  0.33242738  0.66655715  1
  Cs  Cs24  1  0.66635064  0.66509292  0.00256782  1
  Cs  Cs25  1  0.66745873  0.66645676  0.33360391  1
  Cs  Cs26  1  0.66515657  0.66838596  0.66598265  1
  Sn  Sn27  1  0.50009331  0.49983833  0.16703657  1
  Sn  Sn28  1  0.83327444  0.16693241  0.16646133  1
  Sn  Sn29  1  0.83428770  0.16683554  0.49971640  1
  Sn  Sn30  1  0.16684803  0.83442949  0.50025568  1
  Sn  Sn31  1  0.16601297  0.16579896  0.50057485  1
  Sn  Sn32  1  0.49998663  0.83362952  0.83262428  1
  Sn  Sn33  1  0.83270264  0.50008457  0.50058544  1
  Sn  Sn34  1  0.49992792  0.83293358  0.50007294  1
  Sn  Sn35  1  0.50009400  0.50009928  0.83321009  1
  Sn  Sn36  1  0.83327742  0.83314721  0.50055405  1
  Sn  Sn37  1  0.16641420  0.83295344  0.83295026  1
  Sn  Sn38  1  0.83371394  0.83309487  0.83305251  1
  Sn  Sn39  1  0.50086362  0.50075348  0.49981963  1
  Sn  Sn40  1  0.50002019  0.16608704  0.83309989  1
  Pb  Pb41  1  0.50004920  0.16644151  0.50127372  1
  Pb  Pb42  1  0.83145638  0.49732802  0.16918144  1
  Pb  Pb43  1  0.83320043  0.83516508  0.16692210  1
  Pb  Pb44  1  0.16656508  0.83332950  0.16715891  1
  Pb  Pb45  1  0.16678163  0.50036018  0.50011323  1
  Pb  Pb46  1  0.50024006  0.83172959  0.16707776  1
  Pb  Pb47  1  0.50229261  0.16930717  0.16352276  1
  Pb  Pb48  1  0.83161057  0.50286271  0.83080475  1
  Pb  Pb49  1  0.16373005  0.16666835  0.16939036  1
  Pb  Pb50  1  0.16929600  0.49990898  0.16668963  1
  Pb  Pb51  1  0.16910501  0.16416893  0.83067461  1
  Pb  Pb52  1  0.16910461  0.50332616  0.83307867  1
  Pb  Pb53  1  0.83193679  0.16461076  0.83272709  1
  I  I54  1  0.16890100  0.00015664  0.16463962  1
  I  I55  1  0.16354649  -0.00127497  0.50418859  1
  I  I56  1  0.16926828  -0.00387737  0.83015934  1
  I  I57  1  0.16791609  0.33303957  0.16927218  1
  I  I58  1  0.16425347  0.33068163  0.49803381  1
  I  I59  1  0.16899214  0.33323798  0.83274066  1
  I  I60  1  0.16554701  0.66671797  0.16910291  1
  I  I61  1  0.16570508  0.67023456  0.50437406  1
  I  I62  1  0.16904609  0.67142074  0.82374164  1
  I  I63  1  0.49999089  0.00040763  0.16648466  1
  I  I64  1  0.50233351  -0.00300570  0.50592213  1
  I  I65  1  0.50101934  -0.00186460  0.82676550  1
  I  I66  1  0.50161250  0.33699659  0.17044330  1
  I  I67  1  0.50307544  0.33596861  0.50192066  1
  I  I68  1  0.50202421  0.33414796  0.83162552  1
  I  I69  1  0.50153515  0.66373394  0.16305941  1
  I  I70  1  0.50257475  0.66710825  0.50405092  1
  I  I71  1  0.49957275  0.66751700  0.83213481  1
  I  I72  1  0.83185292  0.00277434  0.17409428  1
  I  I73  1  0.83317302  -0.00072477  0.49987536  1
  I  I74  1  0.82924579  -0.00355830  0.82695922  1
  I  I75  1  0.83026728  0.32987111  0.17372117  1
  I  I76  1  0.83145787  0.33313130  0.49431462  1
  I  I77  1  0.82941278  0.33348216  0.83218543  1
  I  I78  1  0.83267940  0.66625711  0.16673539  1
  I  I79  1  0.83154648  0.66759293  0.50511898  1
  I  I80  1  0.83058302  0.67109317  0.82733959  1
  I  I81  1  0.16685520  0.16538342  -0.00031564  1
  I  I82  1  0.16815947  0.15958067  0.33759814  1
  I  I83  1  0.15907087  0.16488753  0.66289321  1
  I  I84  1  0.16765785  0.50135426  -0.00033392  1
  I  I85  1  0.16963014  0.50273452  0.33392545  1
  I  I86  1  0.16923988  0.49688458  0.66639244  1
  I  I87  1  0.16948320  0.83285670  -0.00343180  1
  I  I88  1  0.16681195  0.83629284  0.33776930  1
  I  I89  1  0.16761620  0.83685016  0.66546458  1
  I  I90  1  0.50206644  0.16345893  -0.00430988  1
  I  I91  1  0.49789385  0.16687477  0.33344564  1
  I  I92  1  0.50242718  0.16983959  0.66909205  1
  I  I93  1  0.49928102  0.50128985  -0.00112988  1
  I  I94  1  0.50421414  0.50517281  0.33508516  1
  I  I95  1  0.50362638  0.50179454  0.66617001  1
  I  I96  1  0.49999538  0.83235414  -0.00374250  1
  I  I97  1  0.50062353  0.82906847  0.33723115  1
  I  I98  1  0.50025023  0.82909072  0.66650275  1
  I  I99  1  0.82767023  0.16352251  0.00171151  1
  I  I100  1  0.83534235  0.16423685  0.33607612  1
  I  I101  1  0.83526319  0.16742104  0.66304875  1
  I  I102  1  0.83089879  0.50033303  -0.00017938  1
  I  I103  1  0.82731155  0.50595336  0.33757695  1
  I  I104  1  0.82706643  0.49489942  0.66252575  1
  I  I105  1  0.83084471  0.83586602  -0.00321205  1
  I  I106  1  0.83294357  0.83141641  0.33751800  1
  I  I107  1  0.83179175  0.83555997  0.66509540  1
  I  I108  1  -0.00396686  0.16528558  0.16853768  1
  I  I109  1  -0.00115100  0.16282113  0.49603156  1
  I  I110  1  0.00011516  0.16506897  0.83569752  1
  I  I111  1  -0.00051908  0.50029388  0.16867375  1
  I  I112  1  -0.00308004  0.50257117  0.49878699  1
  I  I113  1  -0.00015328  0.49989586  0.83231884  1
  I  I114  1  -0.00012081  0.83291416  0.16600457  1
  I  I115  1  -0.00063642  0.83452546  0.50622935  1
  I  I116  1  -0.00025330  0.83567770  0.82398641  1
  I  I117  1  0.33341961  0.16791763  0.16719728  1
  I  I118  1  0.33134470  0.16344732  0.50359273  1
  I  I119  1  0.33712161  0.16607946  0.83116545  1
  I  I120  1  0.33795941  0.50036311  0.17019756  1
  I  I121  1  0.33702015  0.50315553  0.50090960  1
  I  I122  1  0.33816497  0.50181166  0.82886612  1
  I  I123  1  0.33351065  0.83289444  0.16720803  1
  I  I124  1  0.33402922  0.83234790  0.50640779  1
  I  I125  1  0.33456498  0.83199494  0.82605909  1
  I  I126  1  0.66944091  0.16559859  0.17663460  1
  I  I127  1  0.66933917  0.16434410  0.49793093  1
  I  I128  1  0.66381793  0.16430301  0.83023116  1
  I  I129  1  0.66347193  0.50060476  0.16407866  1
  I  I130  1  0.66563331  0.50291129  0.50037524  1
  I  I131  1  0.66283223  0.50229494  0.83476568  1
  I  I132  1  0.66665275  0.83388250  0.16626146  1
  I  I133  1  0.66668531  0.83275660  0.50555516  1
  I  I134  1  0.66563471  0.83363297  0.82690845  1
