# generated using pymatgen
data_Cs27Sn14Pb13I81
_symmetry_space_group_name_H-M   'P 1'
_cell_length_a   19.04300752
_cell_length_b   19.04317775
_cell_length_c   19.05390882
_cell_angle_alpha   90.00203261
_cell_angle_beta   89.99939184
_cell_angle_gamma   90.00012513
_symmetry_Int_Tables_number   1
_chemical_formula_structural   Cs27Sn14Pb13I81
_chemical_formula_sum   'Cs27 Sn14 Pb13 I81'
_cell_volume   6909.69761873
_cell_formula_units_Z   1
loop_
 _symmetry_equiv_pos_site_id
 _symmetry_equiv_pos_as_xyz
  1  'x, y, z'
loop_
 _atom_site_type_symbol
 _atom_site_label
 _atom_site_symmetry_multiplicity
 _atom_site_fract_x
 _atom_site_fract_y
 _atom_site_fract_z
 _atom_site_occupancy
  Cs  Cs0  1  0.00090943  0.00203752  -0.00146648  1
  Cs  Cs1  1  0.00152231  -0.00076027  0.33203175  1
  Cs  Cs2  1  0.00046370  0.00466857  0.67161741  1
  Cs  Cs3  1  -0.00413413  0.32806270  -0.00261894  1
  Cs  Cs4  1  -0.00270279  0.33048278  0.33659205  1
  Cs  Cs5  1  0.00032521  0.33137193  0.66604338  1
  Cs  Cs6  1  -0.00215155  0.67077806  0.00157669  1
  Cs  Cs7  1  0.00651510  0.67082063  0.33415368  1
  Cs  Cs8  1  0.00167467  0.66603869  0.66217759  1
  Cs  Cs9  1  0.33061023  0.00058707  -0.00304143  1
  Cs  Cs10  1  0.33628390  0.00214011  0.33601313  1
  Cs  Cs11  1  0.34158944  -0.00011611  0.67051458  1
  Cs  Cs12  1  0.33914371  0.34308450  0.00096207  1
  Cs  Cs13  1  0.34324153  0.33108989  0.33110110  1
  Cs  Cs14  1  0.32893310  0.33510778  0.66802778  1
  Cs  Cs15  1  0.33677873  0.65447855  -0.00169528  1
  Cs  Cs16  1  0.30854035  0.66608585  0.33012152  1
  Cs  Cs17  1  0.33709473  0.66314868  0.67058370  1
  Cs  Cs18  1  0.66768362  -0.00432159  0.00049898  1
  Cs  Cs19  1  0.66139866  -0.00175368  0.33458835  1
  Cs  Cs20  1  0.65811857  -0.00532270  0.66633161  1
  Cs  Cs21  1  0.67018510  0.33437819  0.00350613  1
  Cs  Cs22  1  0.66440400  0.33529014  0.33537764  1
  Cs  Cs23  1  0.67241507  0.33402480  0.65987090  1
  Cs  Cs24  1  0.66572239  0.67037843  0.00006914  1
  Cs  Cs25  1  0.67084035  0.66566494  0.33405645  1
  Cs  Cs26  1  0.66336622  0.66986156  0.66532419  1
  Sn  Sn27  1  0.49941111  0.16748181  0.83392004  1
  Sn  Sn28  1  0.50056849  0.50088808  0.49942653  1
  Sn  Sn29  1  0.83378679  0.16622161  0.16830168  1
  Sn  Sn30  1  0.83392154  0.16624272  0.49870204  1
  Sn  Sn31  1  0.83275270  0.49948976  0.49989214  1
  Sn  Sn32  1  0.16583893  0.16642287  0.49988809  1
  Sn  Sn33  1  0.83385042  0.50008280  0.16689332  1
  Sn  Sn34  1  0.83352107  0.50161955  0.83308191  1
  Sn  Sn35  1  0.16843944  0.16616343  0.83379743  1
  Sn  Sn36  1  0.83254467  0.83381091  0.16614078  1
  Sn  Sn37  1  0.16591772  0.83366384  0.83355180  1
  Sn  Sn38  1  0.49983882  0.83291901  0.16706236  1
  Sn  Sn39  1  0.83467975  0.83242941  0.83361627  1
  Sn  Sn40  1  0.16619515  0.16699540  0.16640389  1
  Pb  Pb41  1  0.50374008  0.49730868  0.83140840  1
  Pb  Pb42  1  0.16657718  0.83699387  0.50361246  1
  Pb  Pb43  1  0.49985880  0.83456100  0.83546747  1
  Pb  Pb44  1  0.49973130  0.82969259  0.49651653  1
  Pb  Pb45  1  0.16310642  0.49638384  0.16640177  1
  Pb  Pb46  1  0.83304711  0.16604573  0.83303376  1
  Pb  Pb47  1  0.50284260  0.50302149  0.16926916  1
  Pb  Pb48  1  0.16364055  0.49980550  0.83350380  1
  Pb  Pb49  1  0.50063200  0.16502738  0.16456388  1
  Pb  Pb50  1  0.50044353  0.16819085  0.50202840  1
  Pb  Pb51  1  0.83348245  0.83384637  0.50002874  1
  Pb  Pb52  1  0.16635078  0.83592699  0.16403690  1
  Pb  Pb53  1  0.16605537  0.49711521  0.50005618  1
  I  I54  1  0.15729882  0.00345524  0.16905035  1
  I  I55  1  0.15679243  0.00479371  0.49529240  1
  I  I56  1  0.16117139  0.00151827  0.83329281  1
  I  I57  1  0.16061041  0.32840479  0.16231172  1
  I  I58  1  0.16324127  0.32950030  0.50560176  1
  I  I59  1  0.17004494  0.32964645  0.83195496  1
  I  I60  1  0.16840413  0.66665166  0.16547908  1
  I  I61  1  0.16742804  0.66662502  0.50081140  1
  I  I62  1  0.16363673  0.66953209  0.83473600  1
  I  I63  1  0.51043582  -0.00200958  0.16565333  1
  I  I64  1  0.49998009  -0.00021113  0.50156230  1
  I  I65  1  0.50251425  0.00224589  0.83067252  1
  I  I66  1  0.49800820  0.33361726  0.16597219  1
  I  I67  1  0.50403573  0.33545931  0.49925624  1
  I  I68  1  0.49039160  0.33023336  0.83550422  1
  I  I69  1  0.50909500  0.67023031  0.16296522  1
  I  I70  1  0.51510191  0.66251360  0.50393265  1
  I  I71  1  0.49463639  0.66643096  0.83257817  1
  I  I72  1  0.83422875  0.00030222  0.16469278  1
  I  I73  1  0.84037134  0.00317938  0.49681866  1
  I  I74  1  0.83445156  -0.00232126  0.83805167  1
  I  I75  1  0.84059058  0.33304543  0.16526697  1
  I  I76  1  0.83360032  0.33294863  0.49782729  1
  I  I77  1  0.83235184  0.33519680  0.83631693  1
  I  I78  1  0.82495911  0.66673334  0.16473151  1
  I  I79  1  0.82675136  0.66393244  0.49848874  1
  I  I80  1  0.84029778  0.66721220  0.83784195  1
  I  I81  1  0.16344896  0.16014341  -0.00029326  1
  I  I82  1  0.15797071  0.16867330  0.33313358  1
  I  I83  1  0.16451372  0.16284663  0.66700656  1
  I  I84  1  0.16760218  0.49605693  -0.00014233  1
  I  I85  1  0.16542980  0.50225046  0.33333873  1
  I  I86  1  0.16270945  0.49687690  0.66679026  1
  I  I87  1  0.16293748  0.84394527  -0.00307815  1
  I  I88  1  0.16725987  0.83204151  0.33329303  1
  I  I89  1  0.15692644  0.83985665  0.67120944  1
  I  I90  1  0.49541432  0.16584028  -0.00281596  1
  I  I91  1  0.49543685  0.16619478  0.33330433  1
  I  I92  1  0.49620638  0.16476419  0.66950525  1
  I  I93  1  0.49850799  0.49983692  0.00022966  1
  I  I94  1  0.50996736  0.49510545  0.33635282  1
  I  I95  1  0.50893489  0.49918192  0.66415261  1
  I  I96  1  0.50500825  0.83498240  0.00252091  1
  I  I97  1  0.51315434  0.83860809  0.32934862  1
  I  I98  1  0.50011296  0.83461110  0.66654702  1
  I  I99  1  0.83610013  0.17008418  0.00249248  1
  I  I100  1  0.84307734  0.17057828  0.33279687  1
  I  I101  1  0.83681914  0.17217103  0.66436282  1
  I  I102  1  0.83625612  0.49785028  0.00038093  1
  I  I103  1  0.82703535  0.49725105  0.33334956  1
  I  I104  1  0.82930721  0.49724728  0.66636805  1
  I  I105  1  0.83362130  0.83025434  0.00018849  1
  I  I106  1  0.82783347  0.83114759  0.33043788  1
  I  I107  1  0.83902805  0.83051768  0.66954574  1
  I  I108  1  -0.00157699  0.16479657  0.16373934  1
  I  I109  1  -0.00100564  0.17480474  0.50280538  1
  I  I110  1  0.00222306  0.16640885  0.83315605  1
  I  I111  1  -0.00511142  0.50946222  0.17134554  1
  I  I112  1  -0.00382219  0.49779973  0.50020122  1
  I  I113  1  -0.00418249  0.49645327  0.82964530  1
  I  I114  1  -0.00346645  0.82980122  0.16476606  1
  I  I115  1  -0.00026681  0.82470419  0.49305558  1
  I  I116  1  -0.00126178  0.83743899  0.84134267  1
  I  I117  1  0.33062520  0.16147783  0.17110642  1
  I  I118  1  0.33055971  0.16808215  0.49643774  1
  I  I119  1  0.33136111  0.15645883  0.83154479  1
  I  I120  1  0.33330590  0.50144337  0.16909024  1
  I  I121  1  0.33573541  0.49843644  0.50155016  1
  I  I122  1  0.33341449  0.50377139  0.82993391  1
  I  I123  1  0.33528712  0.83798377  0.16710180  1
  I  I124  1  0.33330764  0.83311789  0.49827065  1
  I  I125  1  0.33062472  0.84058549  0.83354892  1
  I  I126  1  0.67051907  0.17032026  0.16995823  1
  I  I127  1  0.66993809  0.16979927  0.49617050  1
  I  I128  1  0.66496596  0.16739376  0.83323566  1
  I  I129  1  0.67103287  0.49061632  0.16292648  1
  I  I130  1  0.66952299  0.49000714  0.50009745  1
  I  I131  1  0.67119175  0.50533897  0.83748421  1
  I  I132  1  0.66974461  0.83656205  0.15794699  1
  I  I133  1  0.66706979  0.84241389  0.50825388  1
  I  I134  1  0.66966796  0.83107904  0.83537167  1
