# generated using pymatgen
data_Cs27Sn14Pb13I81
_symmetry_space_group_name_H-M   'P 1'
_cell_length_a   18.97418919
_cell_length_b   18.97339257
_cell_length_c   18.97883802
_cell_angle_alpha   90.00046331
_cell_angle_beta   89.99919126
_cell_angle_gamma   90.00019900
_symmetry_Int_Tables_number   1
_chemical_formula_structural   Cs27Sn14Pb13I81
_chemical_formula_sum   'Cs27 Sn14 Pb13 I81'
_cell_volume   6832.47165004
_cell_formula_units_Z   1
loop_
 _symmetry_equiv_pos_site_id
 _symmetry_equiv_pos_as_xyz
  1  'x, y, z'
loop_
 _atom_site_type_symbol
 _atom_site_label
 _atom_site_symmetry_multiplicity
 _atom_site_fract_x
 _atom_site_fract_y
 _atom_site_fract_z
 _atom_site_occupancy
  Cs  Cs0  1  -0.00012083  0.00070397  -0.00003660  1
  Cs  Cs1  1  -0.00083711  0.00139450  0.33370277  1
  Cs  Cs2  1  0.00037980  0.00205023  0.66749621  1
  Cs  Cs3  1  0.00216213  0.33228725  0.00030763  1
  Cs  Cs4  1  -0.00038999  0.33054925  0.33406453  1
  Cs  Cs5  1  0.00012669  0.32958523  0.66652165  1
  Cs  Cs6  1  -0.00454150  0.66613649  0.00109980  1
  Cs  Cs7  1  0.00039537  0.66566989  0.33513455  1
  Cs  Cs8  1  0.00109721  0.66573284  0.66378577  1
  Cs  Cs9  1  0.33255849  0.00034428  -0.00068457  1
  Cs  Cs10  1  0.33448200  -0.00222926  0.32826669  1
  Cs  Cs11  1  0.33218070  -0.00269698  0.67040561  1
  Cs  Cs12  1  0.33199036  0.33225864  0.00187370  1
  Cs  Cs13  1  0.34227786  0.33352881  0.33018980  1
  Cs  Cs14  1  0.33333483  0.33743404  0.66733674  1
  Cs  Cs15  1  0.33303906  0.66877607  -0.00045843  1
  Cs  Cs16  1  0.33104936  0.66831697  0.33764901  1
  Cs  Cs17  1  0.33188459  0.66682043  0.66390446  1
  Cs  Cs18  1  0.66810496  -0.00315385  -0.00172171  1
  Cs  Cs19  1  0.66655061  0.00073856  0.33716673  1
  Cs  Cs20  1  0.66675369  0.00059306  0.66532363  1
  Cs  Cs21  1  0.66685479  0.34303555  0.00107534  1
  Cs  Cs22  1  0.65853630  0.33235650  0.33534906  1
  Cs  Cs23  1  0.66443900  0.33335467  0.66366114  1
  Cs  Cs24  1  0.67464061  0.66044408  0.00198020  1
  Cs  Cs25  1  0.66939427  0.66707115  0.32945708  1
  Cs  Cs26  1  0.66762110  0.66555153  0.66908713  1
  Sn  Sn27  1  0.16660317  0.50089760  0.16626612  1
  Sn  Sn28  1  0.16706563  0.16671190  0.83242402  1
  Sn  Sn29  1  0.83279774  0.83256916  0.50035650  1
  Sn  Sn30  1  0.16691957  0.83238725  0.16555958  1
  Sn  Sn31  1  0.83283743  0.16669780  0.83454264  1
  Sn  Sn32  1  0.16646226  0.50043735  0.83408707  1
  Sn  Sn33  1  0.83280881  0.16663834  0.16571570  1
  Sn  Sn34  1  0.49966217  0.83328702  0.16576561  1
  Sn  Sn35  1  0.83342203  0.50046545  0.50002566  1
  Sn  Sn36  1  0.49970494  0.83377226  0.83385135  1
  Sn  Sn37  1  0.49997455  0.16628367  0.83362628  1
  Sn  Sn38  1  0.50103066  0.83343876  0.50043874  1
  Sn  Sn39  1  0.16688070  0.83289315  0.83425417  1
  Sn  Sn40  1  0.16759474  0.16660846  0.50020144  1
  Pb  Pb41  1  0.50283740  0.16429609  0.16355219  1
  Pb  Pb42  1  0.49754389  0.50072429  0.83340976  1
  Pb  Pb43  1  0.49719405  0.50313167  0.16649888  1
  Pb  Pb44  1  0.16551444  0.49735986  0.49956744  1
  Pb  Pb45  1  0.83603165  0.49707543  0.83143022  1
  Pb  Pb46  1  0.83350747  0.83491008  0.83140530  1
  Pb  Pb47  1  0.16680689  0.83501451  0.49995776  1
  Pb  Pb48  1  0.50254413  0.50296029  0.50008056  1
  Pb  Pb49  1  0.83579121  0.49728194  0.16890566  1
  Pb  Pb50  1  0.16590912  0.16635176  0.16626687  1
  Pb  Pb51  1  0.49694010  0.16426103  0.50242018  1
  Pb  Pb52  1  0.83375345  0.83485087  0.16866346  1
  Pb  Pb53  1  0.83427752  0.16658811  0.50027660  1
  I  I54  1  0.16916887  -0.00291016  0.16428259  1
  I  I55  1  0.16319605  0.00257190  0.50505966  1
  I  I56  1  0.16719527  -0.00000912  0.83287206  1
  I  I57  1  0.16197127  0.33519388  0.16371757  1
  I  I58  1  0.16146851  0.32980815  0.50527226  1
  I  I59  1  0.16541643  0.33231620  0.83273453  1
  I  I60  1  0.16962772  0.66791996  0.15959990  1
  I  I61  1  0.16734659  0.66685963  0.50244714  1
  I  I62  1  0.17183430  0.66785489  0.83688960  1
  I  I63  1  0.49201952  -0.00376191  0.16884573  1
  I  I64  1  0.50708915  -0.00377108  0.49834795  1
  I  I65  1  0.49465206  -0.00082390  0.83277594  1
  I  I66  1  0.49952849  0.33319240  0.16660646  1
  I  I67  1  0.50108719  0.33303777  0.50111708  1
  I  I68  1  0.49914576  0.33035125  0.83224882  1
  I  I69  1  0.50012221  0.67153766  0.16367592  1
  I  I70  1  0.49808378  0.67144674  0.50366754  1
  I  I71  1  0.49440968  0.67073060  0.83201112  1
  I  I72  1  0.83736488  0.00249392  0.16499721  1
  I  I73  1  0.83073554  -0.00218250  0.49996000  1
  I  I74  1  0.83898635  0.00304080  0.83350531  1
  I  I75  1  0.83755520  0.32968912  0.16373165  1
  I  I76  1  0.83932159  0.33488712  0.50074263  1
  I  I77  1  0.83390930  0.32886137  0.83420118  1
  I  I78  1  0.83184388  0.66667022  0.16710800  1
  I  I79  1  0.83147629  0.66779373  0.49981565  1
  I  I80  1  0.83333267  0.66653892  0.83294459  1
  I  I81  1  0.16767391  0.16630415  -0.00341147  1
  I  I82  1  0.16063024  0.16529178  0.33490717  1
  I  I83  1  0.16285358  0.16560330  0.66925349  1
  I  I84  1  0.16624412  0.49802018  -0.00092052  1
  I  I85  1  0.16401644  0.50460995  0.33067066  1
  I  I86  1  0.16550748  0.50182224  0.66953276  1
  I  I87  1  0.17375634  0.83571972  -0.00098900  1
  I  I88  1  0.16917114  0.83116260  0.33085596  1
  I  I89  1  0.16917719  0.83237098  0.66965602  1
  I  I90  1  0.49243255  0.16019822  -0.00430630  1
  I  I91  1  0.50026829  0.16519657  0.33319926  1
  I  I92  1  0.50469481  0.16043494  0.67047327  1
  I  I93  1  0.50345168  0.50106814  -0.00010697  1
  I  I94  1  0.49689317  0.49991119  0.33329249  1
  I  I95  1  0.49720331  0.50168465  0.66679100  1
  I  I96  1  0.49262262  0.83917526  -0.00090868  1
  I  I97  1  0.49886077  0.83235468  0.33308027  1
  I  I98  1  0.49920095  0.83792808  0.66768944  1
  I  I99  1  0.83805725  0.16434198  -0.00144154  1
  I  I100  1  0.83896613  0.16538972  0.33178953  1
  I  I101  1  0.83388406  0.16591121  0.66948357  1
  I  I102  1  0.83251692  0.50041360  -0.00005405  1
  I  I103  1  0.83757940  0.50274809  0.33638011  1
  I  I104  1  0.83645714  0.50272036  0.66386893  1
  I  I105  1  0.83142623  0.83389378  -0.00014133  1
  I  I106  1  0.83076856  0.83374260  0.33658449  1
  I  I107  1  0.83085611  0.83334651  0.66351280  1
  I  I108  1  -0.00183189  0.16412268  0.16207475  1
  I  I109  1  0.00212603  0.16382083  0.50600852  1
  I  I110  1  0.00116151  0.16629014  0.83245978  1
  I  I111  1  0.00359591  0.50681685  0.16243277  1
  I  I112  1  -0.00217633  0.50691456  0.50053528  1
  I  I113  1  0.00423085  0.50102306  0.83622423  1
  I  I114  1  0.00317952  0.83194068  0.16316477  1
  I  I115  1  -0.00189338  0.83237435  0.49997958  1
  I  I116  1  0.00336566  0.83520136  0.83613088  1
  I  I117  1  0.33365590  0.16850148  0.16792455  1
  I  I118  1  0.32922391  0.16562966  0.50482153  1
  I  I119  1  0.33228147  0.16483929  0.82783940  1
  I  I120  1  0.32905579  0.49830960  0.16330644  1
  I  I121  1  0.33323082  0.50013009  0.50028571  1
  I  I122  1  0.32912798  0.49508063  0.83556333  1
  I  I123  1  0.33262716  0.83108143  0.16861702  1
  I  I124  1  0.33565359  0.83669934  0.50034075  1
  I  I125  1  0.33266666  0.83820887  0.83180765  1
  I  I126  1  0.67041896  0.16410450  0.16413512  1
  I  I127  1  0.66624032  0.16805259  0.50079006  1
  I  I128  1  0.66644110  0.15911519  0.83686007  1
  I  I129  1  0.66684665  0.50033297  0.16792444  1
  I  I130  1  0.67046332  0.49845682  0.50041870  1
  I  I131  1  0.66692287  0.49974372  0.83169099  1
  I  I132  1  0.66403680  0.83729814  0.16484433  1
  I  I133  1  0.66617259  0.83118495  0.50022504  1
  I  I134  1  0.66373723  0.83947620  0.83418720  1
