# generated using pymatgen
data_Cs27Sn13Pb14I81
_symmetry_space_group_name_H-M   'P 1'
_cell_length_a   18.96911726
_cell_length_b   18.98243137
_cell_length_c   18.97852608
_cell_angle_alpha   89.99969923
_cell_angle_beta   90.00022891
_cell_angle_gamma   90.00016133
_symmetry_Int_Tables_number   1
_chemical_formula_structural   Cs27Sn13Pb14I81
_chemical_formula_sum   'Cs27 Sn13 Pb14 I81'
_cell_volume   6833.78703620
_cell_formula_units_Z   1
loop_
 _symmetry_equiv_pos_site_id
 _symmetry_equiv_pos_as_xyz
  1  'x, y, z'
loop_
 _atom_site_type_symbol
 _atom_site_label
 _atom_site_symmetry_multiplicity
 _atom_site_fract_x
 _atom_site_fract_y
 _atom_site_fract_z
 _atom_site_occupancy
  Cs  Cs0  1  -0.00000748  0.00134810  0.00267445  1
  Cs  Cs1  1  -0.00201552  -0.00199369  0.33386380  1
  Cs  Cs2  1  -0.00085796  -0.00105571  0.66360992  1
  Cs  Cs3  1  0.00104705  0.33162935  -0.00125212  1
  Cs  Cs4  1  0.00192681  0.33272276  0.33586671  1
  Cs  Cs5  1  0.00097828  0.33303511  0.66565840  1
  Cs  Cs6  1  0.00672694  0.66869606  -0.00077905  1
  Cs  Cs7  1  -0.00010773  0.67028374  0.33192191  1
  Cs  Cs8  1  -0.00198518  0.66795482  0.66814961  1
  Cs  Cs9  1  0.33305410  -0.00056095  -0.00217879  1
  Cs  Cs10  1  0.33485285  0.00404906  0.33467481  1
  Cs  Cs11  1  0.34126001  -0.00011631  0.66770099  1
  Cs  Cs12  1  0.33282576  0.33300956  0.00220056  1
  Cs  Cs13  1  0.33097002  0.33183228  0.33737521  1
  Cs  Cs14  1  0.32997937  0.33124175  0.65667957  1
  Cs  Cs15  1  0.32680708  0.66808569  -0.00123368  1
  Cs  Cs16  1  0.33489416  0.66365417  0.33313140  1
  Cs  Cs17  1  0.33371956  0.66906749  0.66850149  1
  Cs  Cs18  1  0.66715383  0.00436537  0.00053013  1
  Cs  Cs19  1  0.66825962  -0.00229624  0.33061386  1
  Cs  Cs20  1  0.66165888  -0.00029442  0.66978909  1
  Cs  Cs21  1  0.66699738  0.33381516  -0.00028355  1
  Cs  Cs22  1  0.66665747  0.33675820  0.33084621  1
  Cs  Cs23  1  0.66717868  0.33360790  0.67031997  1
  Cs  Cs24  1  0.66720056  0.66280194  0.00052027  1
  Cs  Cs25  1  0.66606396  0.66562017  0.33356753  1
  Cs  Cs26  1  0.66837216  0.66671815  0.66613971  1
  Sn  Sn27  1  0.16671616  0.16666630  0.83336222  1
  Sn  Sn28  1  0.83268693  0.16648073  0.50008175  1
  Sn  Sn29  1  0.50039711  0.50021872  0.16553812  1
  Sn  Sn30  1  0.83299867  0.50087957  0.83371049  1
  Sn  Sn31  1  0.83375138  0.83346431  0.50085940  1
  Sn  Sn32  1  0.83322775  0.49996755  0.50003011  1
  Sn  Sn33  1  0.83349946  0.50017429  0.16628239  1
  Sn  Sn34  1  0.49935093  0.16698257  0.16648911  1
  Sn  Sn35  1  0.50006309  0.83286719  0.16625516  1
  Sn  Sn36  1  0.83322721  0.83301805  0.83329592  1
  Sn  Sn37  1  0.16671140  0.83325496  0.50006252  1
  Sn  Sn38  1  0.16712852  0.16669186  0.16600959  1
  Sn  Sn39  1  0.50002752  0.49973177  0.83394377  1
  Pb  Pb40  1  0.50241903  0.83098158  0.83587732  1
  Pb  Pb41  1  0.16393153  0.50292412  0.50009323  1
  Pb  Pb42  1  0.16490334  0.16452409  0.49990864  1
  Pb  Pb43  1  0.16923893  0.83583188  0.16871141  1
  Pb  Pb44  1  0.50068769  0.83321050  0.49821398  1
  Pb  Pb45  1  0.50199085  0.50000437  0.50025247  1
  Pb  Pb46  1  0.49776408  0.16950578  0.83534020  1
  Pb  Pb47  1  0.83193457  0.83098529  0.16631984  1
  Pb  Pb48  1  0.16678717  0.49815927  0.83321608  1
  Pb  Pb49  1  0.16707043  0.49801816  0.16673719  1
  Pb  Pb50  1  0.50301449  0.16675365  0.49754929  1
  Pb  Pb51  1  0.83333003  0.16901372  0.16844890  1
  Pb  Pb52  1  0.16449373  0.83574126  0.83135896  1
  Pb  Pb53  1  0.83470751  0.16682227  0.83143799  1
  I  I54  1  0.17047465  0.00368851  0.16368786  1
  I  I55  1  0.15778148  -0.00280541  0.49849231  1
  I  I56  1  0.16420561  0.00328369  0.83824683  1
  I  I57  1  0.17072246  0.33001836  0.16483029  1
  I  I58  1  0.16492259  0.33304560  0.49965120  1
  I  I59  1  0.16357599  0.33040187  0.83733019  1
  I  I60  1  0.16712675  0.66688863  0.16825300  1
  I  I61  1  0.16089609  0.67052845  0.49955326  1
  I  I62  1  0.16762933  0.66690391  0.83193000  1
  I  I63  1  0.49601848  0.00053013  0.16954417  1
  I  I64  1  0.50301198  -0.00000485  0.49742725  1
  I  I65  1  0.50100247  0.00007837  0.83484610  1
  I  I66  1  0.50124609  0.33411569  0.16299334  1
  I  I67  1  0.50106579  0.33340345  0.49771034  1
  I  I68  1  0.50908898  0.33717955  0.83994601  1
  I  I69  1  0.50670976  0.66534661  0.16510301  1
  I  I70  1  0.50129562  0.66658061  0.49596219  1
  I  I71  1  0.50205531  0.66302110  0.83870451  1
  I  I72  1  0.83155281  0.00005354  0.16773678  1
  I  I73  1  0.83791079  -0.00108200  0.50275698  1
  I  I74  1  0.83576513  -0.00244284  0.82808873  1
  I  I75  1  0.82811873  0.33709039  0.16628132  1
  I  I76  1  0.83220643  0.33430565  0.49912416  1
  I  I77  1  0.83083201  0.33658882  0.83251416  1
  I  I78  1  0.82717275  0.66292066  0.17108506  1
  I  I79  1  0.83667660  0.66657131  0.50060678  1
  I  I80  1  0.82992321  0.66558997  0.82812579  1
  I  I81  1  0.16878443  0.16733646  0.00091546  1
  I  I82  1  0.17023440  0.16622165  0.33080622  1
  I  I83  1  0.16261528  0.16711465  0.66864985  1
  I  I84  1  0.16103015  0.50143387  0.00005923  1
  I  I85  1  0.16648181  0.49688125  0.33335267  1
  I  I86  1  0.16775916  0.49517537  0.66665318  1
  I  I87  1  0.16552505  0.83304809  0.00001321  1
  I  I88  1  0.15758449  0.83530733  0.33627415  1
  I  I89  1  0.16337324  0.83534267  0.66352135  1
  I  I90  1  0.50064798  0.16512623  0.00374564  1
  I  I91  1  0.49332378  0.17024483  0.32905240  1
  I  I92  1  0.49820719  0.16791957  0.66691373  1
  I  I93  1  0.50999186  0.49909268  0.00121736  1
  I  I94  1  0.50461395  0.50004829  0.32981991  1
  I  I95  1  0.50514200  0.50022115  0.66979966  1
  I  I96  1  0.50189020  0.83575967  0.00373422  1
  I  I97  1  0.50285065  0.83077534  0.32999961  1
  I  I98  1  0.49839452  0.83199405  0.66703322  1
  I  I99  1  0.83267508  0.16636244  0.00016504  1
  I  I100  1  0.83483272  0.16585282  0.33639073  1
  I  I101  1  0.83737099  0.17082581  0.66349953  1
  I  I102  1  0.82808939  0.50329899  -0.00030786  1
  I  I103  1  0.82923046  0.49946677  0.33331787  1
  I  I104  1  0.82973228  0.50080994  0.66690341  1
  I  I105  1  0.83092868  0.82887649  -0.00258902  1
  I  I106  1  0.83542750  0.83257160  0.33608198  1
  I  I107  1  0.83697830  0.82843454  0.66576434  1
  I  I108  1  0.00219342  0.16854215  0.16497273  1
  I  I109  1  -0.00322156  0.16924214  0.49736316  1
  I  I110  1  0.00241195  0.16851678  0.84004321  1
  I  I111  1  -0.00319367  0.49840051  0.16694914  1
  I  I112  1  -0.00495472  0.49685039  0.49998144  1
  I  I113  1  -0.00375999  0.50239790  0.83328554  1
  I  I114  1  -0.00009576  0.83353082  0.16589234  1
  I  I115  1  -0.00230375  0.83324011  0.50226733  1
  I  I116  1  -0.00379709  0.82616284  0.83240602  1
  I  I117  1  0.33399612  0.16854366  0.16350811  1
  I  I118  1  0.33325168  0.16470667  0.50116211  1
  I  I119  1  0.33009055  0.16726564  0.83443924  1
  I  I120  1  0.33704520  0.50199625  0.16127795  1
  I  I121  1  0.33331994  0.50067710  0.49942303  1
  I  I122  1  0.33646173  0.49875559  0.84132247  1
  I  I123  1  0.33717688  0.82725257  0.16852981  1
  I  I124  1  0.33098498  0.83561530  0.49718574  1
  I  I125  1  0.33348643  0.83233124  0.83154358  1
  I  I126  1  0.66399165  0.16592046  0.16952362  1
  I  I127  1  0.67115414  0.16459290  0.49948176  1
  I  I128  1  0.66663074  0.16521081  0.83340590  1
  I  I129  1  0.66660424  0.49756382  0.16706249  1
  I  I130  1  0.67089588  0.50322906  0.49877718  1
  I  I131  1  0.66820980  0.50241472  0.83418732  1
  I  I132  1  0.66395444  0.83781766  0.16909660  1
  I  I133  1  0.67059434  0.83221359  0.50209923  1
  I  I134  1  0.67049883  0.83281365  0.82549980  1
