# generated using pymatgen
data_Cs27Sn13Pb14I81
_symmetry_space_group_name_H-M   'P 1'
_cell_length_a   18.96852265
_cell_length_b   18.97724027
_cell_length_c   18.98507449
_cell_angle_alpha   89.99965939
_cell_angle_beta   90.00121301
_cell_angle_gamma   89.99820509
_symmetry_Int_Tables_number   1
_chemical_formula_structural   Cs27Sn13Pb14I81
_chemical_formula_sum   'Cs27 Sn13 Pb14 I81'
_cell_volume   6834.06128587
_cell_formula_units_Z   1
loop_
 _symmetry_equiv_pos_site_id
 _symmetry_equiv_pos_as_xyz
  1  'x, y, z'
loop_
 _atom_site_type_symbol
 _atom_site_label
 _atom_site_symmetry_multiplicity
 _atom_site_fract_x
 _atom_site_fract_y
 _atom_site_fract_z
 _atom_site_occupancy
  Cs  Cs0  1  -0.00006727  0.00062435  0.00002181  1
  Cs  Cs1  1  -0.00040287  0.00211630  0.33301527  1
  Cs  Cs2  1  0.00103679  -0.00652429  0.66632129  1
  Cs  Cs3  1  -0.00150013  0.33184672  0.00161968  1
  Cs  Cs4  1  0.00090815  0.33327831  0.33229933  1
  Cs  Cs5  1  -0.00033536  0.33492119  0.66805069  1
  Cs  Cs6  1  -0.00326845  0.66841333  0.00169779  1
  Cs  Cs7  1  0.00162182  0.66610064  0.33284075  1
  Cs  Cs8  1  0.00810686  0.67058391  0.66585015  1
  Cs  Cs9  1  0.33265515  0.00155270  -0.00011934  1
  Cs  Cs10  1  0.33362792  0.00117216  0.33129234  1
  Cs  Cs11  1  0.33296884  0.00119930  0.67150400  1
  Cs  Cs12  1  0.33967016  0.33303359  -0.00542360  1
  Cs  Cs13  1  0.33208066  0.33152544  0.33102369  1
  Cs  Cs14  1  0.33105472  0.33317769  0.67660585  1
  Cs  Cs15  1  0.33666034  0.66569080  0.00010624  1
  Cs  Cs16  1  0.33343726  0.66713658  0.33403017  1
  Cs  Cs17  1  0.32849198  0.66587802  0.66496880  1
  Cs  Cs18  1  0.66783495  -0.00286415  0.00014641  1
  Cs  Cs19  1  0.66728206  0.00111946  0.33823557  1
  Cs  Cs20  1  0.66701194  0.00074238  0.66054315  1
  Cs  Cs21  1  0.66618973  0.33505680  -0.00019695  1
  Cs  Cs22  1  0.66587030  0.33261492  0.33454666  1
  Cs  Cs23  1  0.66802324  0.33151902  0.66534530  1
  Cs  Cs24  1  0.66697205  0.66660079  -0.00072297  1
  Cs  Cs25  1  0.66578982  0.66640807  0.33380559  1
  Cs  Cs26  1  0.66600615  0.66672130  0.66564494  1
  Sn  Sn27  1  0.16675235  0.16696206  0.49975520  1
  Sn  Sn28  1  0.50020379  0.83321471  0.83307310  1
  Sn  Sn29  1  0.83344634  0.49973660  0.83326150  1
  Sn  Sn30  1  0.49975989  0.83261154  0.49999995  1
  Sn  Sn31  1  0.16741153  0.83336184  0.16682560  1
  Sn  Sn32  1  0.83380826  0.49913048  0.16682851  1
  Sn  Sn33  1  0.16646250  0.49949139  0.16651163  1
  Sn  Sn34  1  0.16615376  0.16719797  0.16725656  1
  Sn  Sn35  1  0.83315798  0.50025451  0.49995153  1
  Sn  Sn36  1  0.50008548  0.50009819  0.49976485  1
  Sn  Sn37  1  0.83371350  0.16752009  0.16609106  1
  Sn  Sn38  1  0.49944673  0.83331619  0.16688426  1
  Sn  Sn39  1  0.83344311  0.16690431  0.83395228  1
  Pb  Pb40  1  0.16923548  0.83555864  0.49766548  1
  Pb  Pb41  1  0.16404689  0.16663534  0.83411778  1
  Pb  Pb42  1  0.49719930  0.16742665  0.50004618  1
  Pb  Pb43  1  0.83159501  0.83330841  0.83321255  1
  Pb  Pb44  1  0.16914015  0.83320572  0.83627307  1
  Pb  Pb45  1  0.83339362  0.83354463  0.16691342  1
  Pb  Pb46  1  0.83163896  0.83046840  0.49991390  1
  Pb  Pb47  1  0.50234830  0.50184755  0.83057980  1
  Pb  Pb48  1  0.50051113  0.16443602  0.16664327  1
  Pb  Pb49  1  0.50034988  0.50174131  0.16830059  1
  Pb  Pb50  1  0.16397636  0.50008336  0.83664468  1
  Pb  Pb51  1  0.16692429  0.49813777  0.49811911  1
  Pb  Pb52  1  0.83538597  0.16879706  0.49984072  1
  Pb  Pb53  1  0.50334366  0.16445622  0.83335943  1
  I  I54  1  0.16700569  0.00054517  0.17035444  1
  I  I55  1  0.16651079  0.00316485  0.49352395  1
  I  I56  1  0.16438385  -0.00001188  0.83472174  1
  I  I57  1  0.15981968  0.33303719  0.17211030  1
  I  I58  1  0.16752337  0.33059684  0.49194496  1
  I  I59  1  0.17051779  0.33334884  0.83414107  1
  I  I60  1  0.16595186  0.66637186  0.16622712  1
  I  I61  1  0.16494967  0.66657966  0.49819446  1
  I  I62  1  0.16365165  0.66660969  0.83383617  1
  I  I63  1  0.49662574  -0.00405765  0.16920380  1
  I  I64  1  0.49856090  -0.00298342  0.49929093  1
  I  I65  1  0.50144553  -0.00375890  0.83163931  1
  I  I66  1  0.49756246  0.33353834  0.16889305  1
  I  I67  1  0.50491750  0.33654272  0.49794903  1
  I  I68  1  0.49848274  0.33359129  0.83205119  1
  I  I69  1  0.49666854  0.66998905  0.16549192  1
  I  I70  1  0.50486808  0.66699367  0.49886079  1
  I  I71  1  0.50324776  0.66976860  0.83708386  1
  I  I72  1  0.83603480  0.00311310  0.16144633  1
  I  I73  1  0.83205635  0.00033671  0.49980348  1
  I  I74  1  0.83223281  0.00301815  0.84017168  1
  I  I75  1  0.84072072  0.33397736  0.16624130  1
  I  I76  1  0.82674407  0.33690331  0.49904476  1
  I  I77  1  0.83310182  0.33399708  0.83503983  1
  I  I78  1  0.83597013  0.66338668  0.16587475  1
  I  I79  1  0.83247241  0.66194733  0.49859596  1
  I  I80  1  0.83089722  0.66334574  0.83588472  1
  I  I81  1  0.16401059  0.16539735  0.00391928  1
  I  I82  1  0.16128055  0.16609076  0.33098438  1
  I  I83  1  0.16690088  0.16712508  0.66439346  1
  I  I84  1  0.16269700  0.49797372  0.00513064  1
  I  I85  1  0.16112787  0.50205175  0.32982300  1
  I  I86  1  0.16619208  0.49833348  0.66658494  1
  I  I87  1  0.17138266  0.83608898  0.00472243  1
  I  I88  1  0.17193687  0.83134267  0.32946149  1
  I  I89  1  0.16730494  0.83524637  0.66646373  1
  I  I90  1  0.49591394  0.16443885  0.00013182  1
  I  I91  1  0.50443380  0.16331844  0.33330436  1
  I  I92  1  0.49948795  0.16379611  0.66658802  1
  I  I93  1  0.50036069  0.50257667  0.00001293  1
  I  I94  1  0.50586485  0.50656028  0.33604742  1
  I  I95  1  0.50480861  0.50541257  0.66268880  1
  I  I96  1  0.49642225  0.83449496  0.00081244  1
  I  I97  1  0.49616924  0.82932033  0.33323077  1
  I  I98  1  0.50363638  0.82944737  0.66590786  1
  I  I99  1  0.83842228  0.17387385  0.00147594  1
  I  I100  1  0.83559096  0.16998625  0.33030669  1
  I  I101  1  0.83332276  0.17097313  0.66893142  1
  I  I102  1  0.83799992  0.49647954  0.00100256  1
  I  I103  1  0.83298410  0.49694025  0.33239438  1
  I  I104  1  0.82628757  0.49551517  0.66660079  1
  I  I105  1  0.82981957  0.82925189  0.00031778  1
  I  I106  1  0.82998361  0.83381174  0.33312992  1
  I  I107  1  0.83061002  0.83513809  0.66658787  1
  I  I108  1  0.00005238  0.16517788  0.16689037  1
  I  I109  1  0.00295189  0.16881710  0.49614083  1
  I  I110  1  -0.00385673  0.17077096  0.83599817  1
  I  I111  1  -0.00083795  0.50173546  0.16870134  1
  I  I112  1  -0.00283003  0.49676881  0.50062673  1
  I  I113  1  -0.00449107  0.49683847  0.82818622  1
  I  I114  1  0.00289898  0.83312989  0.16667496  1
  I  I115  1  0.00055179  0.83278280  0.49890798  1
  I  I116  1  -0.00001373  0.83339951  0.83497448  1
  I  I117  1  0.33003324  0.16820132  0.17135503  1
  I  I118  1  0.32962827  0.16708485  0.49078137  1
  I  I119  1  0.33330262  0.16533738  0.83363595  1
  I  I120  1  0.33068501  0.49850539  0.17016637  1
  I  I121  1  0.33592767  0.50453675  0.49662011  1
  I  I122  1  0.33350014  0.50093980  0.83325425  1
  I  I123  1  0.33307007  0.83329777  0.16710647  1
  I  I124  1  0.33731869  0.82580100  0.50127415  1
  I  I125  1  0.33725851  0.83314155  0.83081920  1
  I  I126  1  0.67027915  0.17052811  0.16296848  1
  I  I127  1  0.66683599  0.16436193  0.49957892  1
  I  I128  1  0.67117705  0.17119254  0.83955907  1
  I  I129  1  0.67005409  0.49731549  0.16535415  1
  I  I130  1  0.66744808  0.50376449  0.49746173  1
  I  I131  1  0.67050836  0.49710746  0.83943404  1
  I  I132  1  0.66373232  0.83265688  0.16657130  1
  I  I133  1  0.66288957  0.83380900  0.49625065  1
  I  I134  1  0.66338874  0.83302811  0.83729307  1
