# generated using pymatgen
data_Cs27Sn14Pb13I81
_symmetry_space_group_name_H-M   'P 1'
_cell_length_a   18.97820163
_cell_length_b   18.98306888
_cell_length_c   18.96655819
_cell_angle_alpha   90.00116724
_cell_angle_beta   89.99953776
_cell_angle_gamma   90.00027270
_symmetry_Int_Tables_number   1
_chemical_formula_structural   Cs27Sn14Pb13I81
_chemical_formula_sum   'Cs27 Sn14 Pb13 I81'
_cell_volume   6832.97776722
_cell_formula_units_Z   1
loop_
 _symmetry_equiv_pos_site_id
 _symmetry_equiv_pos_as_xyz
  1  'x, y, z'
loop_
 _atom_site_type_symbol
 _atom_site_label
 _atom_site_symmetry_multiplicity
 _atom_site_fract_x
 _atom_site_fract_y
 _atom_site_fract_z
 _atom_site_occupancy
  Cs  Cs0  1  -0.00082511  -0.00099810  -0.00012324  1
  Cs  Cs1  1  -0.00656235  0.00500151  0.33929133  1
  Cs  Cs2  1  0.00094658  -0.00131690  0.66320097  1
  Cs  Cs3  1  0.00167947  0.33690925  -0.00259141  1
  Cs  Cs4  1  -0.00088036  0.32625236  0.33351294  1
  Cs  Cs5  1  -0.00170946  0.33389970  0.66953187  1
  Cs  Cs6  1  0.00203016  0.66421770  -0.00101617  1
  Cs  Cs7  1  0.00007578  0.66956922  0.33278750  1
  Cs  Cs8  1  0.00118388  0.66700235  0.66652382  1
  Cs  Cs9  1  0.33480453  -0.00201051  0.00068016  1
  Cs  Cs10  1  0.33082767  0.00529067  0.33804700  1
  Cs  Cs11  1  0.33582587  -0.00115237  0.66560865  1
  Cs  Cs12  1  0.33166413  0.33344822  0.00024000  1
  Cs  Cs13  1  0.33584763  0.33284499  0.32906743  1
  Cs  Cs14  1  0.33455293  0.33292807  0.66800957  1
  Cs  Cs15  1  0.33109640  0.66805826  0.00035971  1
  Cs  Cs16  1  0.33373599  0.66314841  0.33286743  1
  Cs  Cs17  1  0.33290906  0.66848294  0.66711543  1
  Cs  Cs18  1  0.66624733  -0.00437900  0.00524930  1
  Cs  Cs19  1  0.67427359  -0.00150103  0.32468335  1
  Cs  Cs20  1  0.66080332  0.00112401  0.66841083  1
  Cs  Cs21  1  0.66799138  0.33314368  -0.00163923  1
  Cs  Cs22  1  0.66365750  0.33524660  0.33571685  1
  Cs  Cs23  1  0.66570469  0.33320035  0.66596753  1
  Cs  Cs24  1  0.66692789  0.67054252  0.00112219  1
  Cs  Cs25  1  0.66680427  0.66537408  0.33426054  1
  Cs  Cs26  1  0.66557948  0.66576978  0.66520128  1
  Sn  Sn27  1  0.83425094  0.49982192  0.16582776  1
  Sn  Sn28  1  0.50025258  0.16549661  0.50058980  1
  Sn  Sn29  1  0.83318890  0.16624380  0.83324254  1
  Sn  Sn30  1  0.50014303  0.83424410  0.49953959  1
  Sn  Sn31  1  0.16638221  0.49972120  0.49980016  1
  Sn  Sn32  1  0.16581321  0.83338946  0.83388922  1
  Sn  Sn33  1  0.49995893  0.49958191  0.83345226  1
  Sn  Sn34  1  0.49996456  0.16740883  0.83347868  1
  Sn  Sn35  1  0.16667474  0.83327309  0.16657636  1
  Sn  Sn36  1  0.16679923  0.16625893  0.83325461  1
  Sn  Sn37  1  0.16687345  0.50011630  0.83323701  1
  Sn  Sn38  1  0.16544641  0.50077904  0.16671633  1
  Sn  Sn39  1  0.83420763  0.83318083  0.83295110  1
  Sn  Sn40  1  0.83307395  0.50033755  0.83389411  1
  Pb  Pb41  1  0.49687738  0.83329254  0.17018672  1
  Pb  Pb42  1  0.50002042  0.50011969  0.16365260  1
  Pb  Pb43  1  0.83612903  0.83094240  0.16440194  1
  Pb  Pb44  1  0.83600366  0.50001986  0.50004084  1
  Pb  Pb45  1  0.16854548  0.16919628  0.50262383  1
  Pb  Pb46  1  0.83043729  0.16676155  0.50258850  1
  Pb  Pb47  1  0.50007188  0.16659080  0.16619619  1
  Pb  Pb48  1  0.83079642  0.83322791  0.50255698  1
  Pb  Pb49  1  0.16792469  0.83176443  0.49976745  1
  Pb  Pb50  1  0.49798571  0.49966573  0.50226016  1
  Pb  Pb51  1  0.49979645  0.83340861  0.83263407  1
  Pb  Pb52  1  0.83347628  0.16970308  0.16389571  1
  Pb  Pb53  1  0.16653435  0.16650927  0.16443629  1
  I  I54  1  0.16969105  -0.00303997  0.15949748  1
  I  I55  1  0.16756949  0.00026193  0.50070132  1
  I  I56  1  0.16497967  -0.00038062  0.83780277  1
  I  I57  1  0.16400424  0.33693136  0.16494118  1
  I  I58  1  0.16885246  0.33720162  0.50077676  1
  I  I59  1  0.16558879  0.33439942  0.83289544  1
  I  I60  1  0.16421857  0.66526680  0.16036246  1
  I  I61  1  0.17019177  0.66381853  0.50634895  1
  I  I62  1  0.16520543  0.66566182  0.83348100  1
  I  I63  1  0.49842609  -0.00019714  0.16012815  1
  I  I64  1  0.49712192  0.00087787  0.51012753  1
  I  I65  1  0.49916522  0.00272461  0.83040100  1
  I  I66  1  0.49717482  0.33365025  0.17091470  1
  I  I67  1  0.49855612  0.33084129  0.50437423  1
  I  I68  1  0.49924314  0.33325503  0.82799516  1
  I  I69  1  0.50127317  0.66655479  0.16652755  1
  I  I70  1  0.49772045  0.66828787  0.50312240  1
  I  I71  1  0.49922679  0.66415329  0.83115098  1
  I  I72  1  0.83351857  -0.00015798  0.16514058  1
  I  I73  1  0.83727917  0.00005484  0.50192769  1
  I  I74  1  0.83606998  0.00013664  0.83107924  1
  I  I75  1  0.84063820  0.33765595  0.15983538  1
  I  I76  1  0.83120855  0.33350823  0.50253922  1
  I  I77  1  0.83546294  0.33401505  0.83655615  1
  I  I78  1  0.83518893  0.66309136  0.15895555  1
  I  I79  1  0.82929463  0.66645799  0.50435717  1
  I  I80  1  0.83587756  0.66575721  0.83655991  1
  I  I81  1  0.16921070  0.17197236  -0.00474392  1
  I  I82  1  0.17027797  0.16775130  0.33359015  1
  I  I83  1  0.16473764  0.16681997  0.67144697  1
  I  I84  1  0.16627622  0.50007333  -0.00178772  1
  I  I85  1  0.16360978  0.50668276  0.33230987  1
  I  I86  1  0.16733981  0.50021608  0.66918426  1
  I  I87  1  0.16426153  0.82791811  -0.00213413  1
  I  I88  1  0.17114927  0.82521092  0.33058465  1
  I  I89  1  0.16455615  0.83157620  0.67015779  1
  I  I90  1  0.49935736  0.17203849  -0.00448740  1
  I  I91  1  0.49730273  0.16350816  0.33660504  1
  I  I92  1  0.49974340  0.16698989  0.66889020  1
  I  I93  1  0.49541600  0.49418368  -0.00480218  1
  I  I94  1  0.49932714  0.49929152  0.33338258  1
  I  I95  1  0.49990809  0.49865837  0.67073886  1
  I  I96  1  0.50165056  0.83316651  0.00002035  1
  I  I97  1  0.49748248  0.83849066  0.33783426  1
  I  I98  1  0.49730272  0.83409162  0.66512682  1
  I  I99  1  0.83069925  0.16501138  -0.00508637  1
  I  I100  1  0.83166540  0.16795442  0.33322832  1
  I  I101  1  0.83635237  0.17139644  0.67163744  1
  I  I102  1  0.83834423  0.49914691  -0.00251581  1
  I  I103  1  0.83779439  0.50117350  0.33013124  1
  I  I104  1  0.83426541  0.49920194  0.67083092  1
  I  I105  1  0.83248181  0.83578372  -0.00427017  1
  I  I106  1  0.83340979  0.83126871  0.33298074  1
  I  I107  1  0.84099551  0.82961922  0.67148637  1
  I  I108  1  0.00009102  0.16520841  0.16592552  1
  I  I109  1  0.00007800  0.16778064  0.50089317  1
  I  I110  1  0.00024911  0.17056595  0.83524142  1
  I  I111  1  0.00129022  0.50368445  0.15921938  1
  I  I112  1  0.00391767  0.50172636  0.50716736  1
  I  I113  1  0.00080849  0.49779651  0.83370344  1
  I  I114  1  0.00401478  0.82953625  0.16368195  1
  I  I115  1  0.00011750  0.83118709  0.49951789  1
  I  I116  1  0.00106362  0.83235666  0.83633094  1
  I  I117  1  0.33307358  0.16980179  0.16296892  1
  I  I118  1  0.33633910  0.16342473  0.50811277  1
  I  I119  1  0.33320986  0.17049503  0.82992127  1
  I  I120  1  0.32975005  0.50308946  0.16524835  1
  I  I121  1  0.33011419  0.50052394  0.50145695  1
  I  I122  1  0.33199699  0.49774446  0.83279755  1
  I  I123  1  0.32909517  0.82477108  0.15619627  1
  I  I124  1  0.33570252  0.83624906  0.50469797  1
  I  I125  1  0.33029172  0.83194550  0.83492940  1
  I  I126  1  0.66687448  0.16822203  0.16386665  1
  I  I127  1  0.66248556  0.16561986  0.50839756  1
  I  I128  1  0.66650815  0.17130090  0.82874824  1
  I  I129  1  0.66970174  0.49883859  0.16055348  1
  I  I130  1  0.66649740  0.49987634  0.50066655  1
  I  I131  1  0.66734005  0.49741826  0.83686776  1
  I  I132  1  0.66698168  0.83221347  0.16568427  1
  I  I133  1  0.66282459  0.83546584  0.50435796  1
  I  I134  1  0.66909625  0.83202070  0.83023145  1
