# generated using pymatgen
data_Cs27Sn14Pb13I81
_symmetry_space_group_name_H-M   'P 1'
_cell_length_a   18.96053179
_cell_length_b   18.96123074
_cell_length_c   18.96123078
_cell_angle_alpha   90.00032900
_cell_angle_beta   90.00062637
_cell_angle_gamma   90.00062656
_symmetry_Int_Tables_number   1
_chemical_formula_structural   Cs27Sn14Pb13I81
_chemical_formula_sum   'Cs27 Sn14 Pb13 I81'
_cell_volume   6816.84722594
_cell_formula_units_Z   1
loop_
 _symmetry_equiv_pos_site_id
 _symmetry_equiv_pos_as_xyz
  1  'x, y, z'
loop_
 _atom_site_type_symbol
 _atom_site_label
 _atom_site_symmetry_multiplicity
 _atom_site_fract_x
 _atom_site_fract_y
 _atom_site_fract_z
 _atom_site_occupancy
  Cs  Cs0  1  -0.00053994  -0.00072202  -0.00036628  1
  Cs  Cs1  1  -0.00768649  0.00361107  0.33694428  1
  Cs  Cs2  1  -0.00007148  -0.00684117  0.66437361  1
  Cs  Cs3  1  0.00175048  0.33464739  0.00404333  1
  Cs  Cs4  1  -0.00007124  0.33104018  0.32649196  1
  Cs  Cs5  1  0.00001720  0.33387330  0.66720663  1
  Cs  Cs6  1  -0.00249565  0.66508463  -0.00158210  1
  Cs  Cs7  1  -0.00054008  0.66630025  0.33261146  1
  Cs  Cs8  1  0.00175049  0.67070996  0.66798066  1
  Cs  Cs9  1  0.33558453  0.00064671  0.00156750  1
  Cs  Cs10  1  0.33361910  -0.00083821  0.33249500  1
  Cs  Cs11  1  0.33216582  0.00168019  0.66671571  1
  Cs  Cs12  1  0.33169934  0.33171240  -0.00108098  1
  Cs  Cs13  1  0.33216586  0.33338225  0.33501362  1
  Cs  Cs14  1  0.33392623  0.33309845  0.66643186  1
  Cs  Cs15  1  0.33388774  0.66786367  0.00119691  1
  Cs  Cs16  1  0.33558451  0.66823420  0.33398031  1
  Cs  Cs17  1  0.33169938  0.66558569  0.66504562  1
  Cs  Cs18  1  0.66311344  -0.00530435  0.00128663  1
  Cs  Cs19  1  0.67162541  -0.00124200  0.33209126  1
  Cs  Cs20  1  0.66831919  0.00284079  0.66620724  1
  Cs  Cs21  1  0.66634364  0.33377919  -0.00451042  1
  Cs  Cs22  1  0.66831918  0.33287389  0.33617407  1
  Cs  Cs23  1  0.66689666  0.33447962  0.66781299  1
  Cs  Cs24  1  0.66638978  0.66909779  0.00243108  1
  Cs  Cs25  1  0.66311340  0.66795344  0.32802916  1
  Cs  Cs26  1  0.66634383  0.66215660  0.66711236  1
  Sn  Sn27  1  0.49958022  0.49850740  0.16559968  1
  Sn  Sn28  1  0.16721777  0.16752953  0.50086288  1
  Sn  Sn29  1  0.49951635  0.16569910  0.49903244  1
  Sn  Sn30  1  0.16545100  0.49912380  0.50062610  1
  Sn  Sn31  1  0.16660261  0.49927720  0.83261053  1
  Sn  Sn32  1  0.83486949  0.16730394  0.83321058  1
  Sn  Sn33  1  0.49988795  0.16786145  0.16792371  1
  Sn  Sn34  1  0.49967436  0.50094905  0.83428230  1
  Sn  Sn35  1  0.83486941  0.49987719  0.50063727  1
  Sn  Sn36  1  0.49958018  0.83226631  0.83184071  1
  Sn  Sn37  1  0.49988797  0.83459040  0.50119480  1
  Sn  Sn38  1  0.16637115  0.83352153  0.16685496  1
  Sn  Sn39  1  0.83377279  0.49913217  0.83246550  1
  Sn  Sn40  1  0.16545101  0.16729277  0.83245716  1
  Pb  Pb41  1  0.83368943  0.16868869  0.50202193  1
  Pb  Pb42  1  0.83020390  0.82988077  0.50021256  1
  Pb  Pb43  1  0.49908430  0.83355636  0.16688971  1
  Pb  Pb44  1  0.16873407  0.50142198  0.16672589  1
  Pb  Pb45  1  0.49968973  0.16699110  0.83288945  1
  Pb  Pb46  1  0.83066198  0.49984214  0.16636351  1
  Pb  Pb47  1  0.16873408  0.83339255  0.83475524  1
  Pb  Pb48  1  0.83709480  0.83332644  0.16665976  1
  Pb  Pb49  1  0.83020390  0.16687926  0.16321406  1
  Pb  Pb50  1  0.16825708  0.83347222  0.49821102  1
  Pb  Pb51  1  0.16825709  0.16487771  0.16680549  1
  Pb  Pb52  1  0.49968976  0.49955609  0.50032447  1
  Pb  Pb53  1  0.83066203  0.83303018  0.83317544  1
  I  I54  1  0.17296915  -0.00236473  0.16507062  1
  I  I55  1  0.17082546  0.00317980  0.50358989  1
  I  I56  1  0.16500406  0.00318755  0.83052957  1
  I  I57  1  0.16776638  0.33326857  0.16643545  1
  I  I58  1  0.17107237  0.33334898  0.50395032  1
  I  I59  1  0.16964859  0.33412783  0.83046504  1
  I  I60  1  0.17220953  0.66880812  0.16647473  1
  I  I61  1  0.16579404  0.66353794  0.50353547  1
  I  I62  1  0.16560706  0.66326215  0.83046211  1
  I  I63  1  0.49753595  0.00232848  0.16598900  1
  I  I64  1  0.49376056  0.00117752  0.50041535  1
  I  I65  1  0.49955720  -0.00162793  0.83365130  1
  I  I66  1  0.49843024  0.33356305  0.16584106  1
  I  I67  1  0.49867384  0.33088838  0.49941896  1
  I  I68  1  0.50016562  0.33609611  0.83409091  1
  I  I69  1  0.49869279  0.66443695  0.16590247  1
  I  I70  1  0.49992449  0.66809137  0.50050257  1
  I  I71  1  0.49981655  0.66497004  0.83379917  1
  I  I72  1  0.82949517  0.00033811  0.16498913  1
  I  I73  1  0.83487133  0.00017581  0.50124278  1
  I  I74  1  0.83577520  0.00300013  0.83378755  1
  I  I75  1  0.83525601  0.33342247  0.16819886  1
  I  I76  1  0.83005372  0.33667584  0.50351548  1
  I  I77  1  0.82975406  0.33478555  0.82959315  1
  I  I78  1  0.82897035  0.66625349  0.16508288  1
  I  I79  1  0.83785457  0.66183439  0.50741494  1
  I  I80  1  0.83529257  0.66282474  0.83006593  1
  I  I81  1  0.16579383  0.17020234  -0.00312872  1
  I  I82  1  0.17082530  0.17025639  0.33651313  1
  I  I83  1  0.17107272  0.17061706  0.66668232  1
  I  I84  1  0.16560698  0.49712841  -0.00340449  1
  I  I85  1  0.16500406  0.49719636  0.33652086  1
  I  I86  1  0.16964873  0.49713191  0.66746117  1
  I  I87  1  0.17220920  0.83314148  0.00214147  1
  I  I88  1  0.17296926  0.83173734  0.33096860  1
  I  I89  1  0.16776675  0.83310179  0.66660194  1
  I  I90  1  0.49992477  0.16716929  0.00142475  1
  I  I91  1  0.49376043  0.16708177  0.33451089  1
  I  I92  1  0.49867363  0.16608593  0.66422165  1
  I  I93  1  0.49981669  0.50046518  -0.00169661  1
  I  I94  1  0.49955717  0.50031848  0.33170539  1
  I  I95  1  0.50016555  0.50075786  0.66942947  1
  I  I96  1  0.49869300  0.83256975  -0.00222972  1
  I  I97  1  0.49753566  0.83265553  0.33566180  1
  I  I98  1  0.49843033  0.83250723  0.66689638  1
  I  I99  1  0.83785444  0.17408174  -0.00483227  1
  I  I100  1  0.83487155  0.16790915  0.33350915  1
  I  I101  1  0.83005382  0.17018209  0.67000912  1
  I  I102  1  0.83529269  0.49673203  -0.00384192  1
  I  I103  1  0.83577521  0.50045446  0.33633346  1
  I  I104  1  0.82975400  0.49626005  0.66811887  1
  I  I105  1  0.82897030  0.83174993  -0.00041313  1
  I  I106  1  0.82949569  0.83165575  0.33367146  1
  I  I107  1  0.83525532  0.83486495  0.66675579  1
  I  I108  1  0.00004671  0.16413210  0.16869417  1
  I  I109  1  0.00316051  0.16860478  0.50193844  1
  I  I110  1  0.00126364  0.17414584  0.82913069  1
  I  I111  1  0.00021792  0.50292023  0.16475954  1
  I  I112  1  0.00126364  0.49579755  0.50747935  1
  I  I113  1  0.00058019  0.49562373  0.82895689  1
  I  I114  1  0.00457275  0.83228743  0.16562075  1
  I  I115  1  0.00004672  0.83536087  0.49746589  1
  I  I116  1  0.00021793  0.83142626  0.83625317  1
  I  I117  1  0.33648104  0.16946159  0.16495452  1
  I  I118  1  0.33321700  0.16939159  0.50272465  1
  I  I119  1  0.33096269  0.16978584  0.83254172  1
  I  I120  1  0.33685383  0.49768655  0.16282537  1
  I  I121  1  0.33096270  0.49920809  0.50311909  1
  I  I122  1  0.33320161  0.49943056  0.83276402  1
  I  I123  1  0.33196599  0.83270615  0.16603912  1
  I  I124  1  0.33648100  0.83162124  0.50279499  1
  I  I125  1  0.33685384  0.82949231  0.83102018  1
  I  I126  1  0.66190911  0.16940605  0.17148273  1
  I  I127  1  0.66394754  0.16503041  0.49836371  1
  I  I128  1  0.66818183  0.17032917  0.83338933  1
  I  I129  1  0.66228625  0.49847051  0.16366594  1
  I  I130  1  0.66818178  0.50005620  0.50366249  1
  I  I131  1  0.66638952  0.49910455  0.83243800  1
  I  I132  1  0.66640020  0.83288252  0.16621625  1
  I  I133  1  0.66190912  0.83814900  0.50273894  1
  I  I134  1  0.66228626  0.83033268  0.83180393  1
