# generated using pymatgen
data_Cs27Sn13Pb14I81
_symmetry_space_group_name_H-M   'P 1'
_cell_length_a   18.98952188
_cell_length_b   18.98883528
_cell_length_c   19.00093458
_cell_angle_alpha   90.00049347
_cell_angle_beta   89.99857859
_cell_angle_gamma   90.00195744
_symmetry_Int_Tables_number   1
_chemical_formula_structural   Cs27Sn13Pb14I81
_chemical_formula_sum   'Cs27 Sn13 Pb14 I81'
_cell_volume   6851.52614745
_cell_formula_units_Z   1
loop_
 _symmetry_equiv_pos_site_id
 _symmetry_equiv_pos_as_xyz
  1  'x, y, z'
loop_
 _atom_site_type_symbol
 _atom_site_label
 _atom_site_symmetry_multiplicity
 _atom_site_fract_x
 _atom_site_fract_y
 _atom_site_fract_z
 _atom_site_occupancy
  Cs  Cs0  1  0.00197253  0.00335338  0.00214075  1
  Cs  Cs1  1  -0.00140870  -0.00090606  0.33302401  1
  Cs  Cs2  1  0.00100179  0.00155137  0.66517562  1
  Cs  Cs3  1  -0.00865394  0.33978008  -0.00952388  1
  Cs  Cs4  1  0.00120881  0.33513042  0.32959038  1
  Cs  Cs5  1  -0.00032971  0.33707646  0.67794129  1
  Cs  Cs6  1  -0.00324517  0.66058116  0.00075883  1
  Cs  Cs7  1  -0.00204954  0.66528158  0.33339426  1
  Cs  Cs8  1  -0.00117950  0.66498672  0.66504438  1
  Cs  Cs9  1  0.33374643  -0.00052061  0.00113350  1
  Cs  Cs10  1  0.33091584  0.00077365  0.33095717  1
  Cs  Cs11  1  0.33318717  -0.00120304  0.66690492  1
  Cs  Cs12  1  0.33165613  0.33030071  0.00110354  1
  Cs  Cs13  1  0.33476339  0.33822127  0.33532680  1
  Cs  Cs14  1  0.33223024  0.33465235  0.66329508  1
  Cs  Cs15  1  0.33557809  0.66978931  0.00164734  1
  Cs  Cs16  1  0.33258487  0.66268678  0.33314436  1
  Cs  Cs17  1  0.33342123  0.66923364  0.66559053  1
  Cs  Cs18  1  0.66240364  -0.00082797  0.00151613  1
  Cs  Cs19  1  0.67395174  0.00200756  0.33511506  1
  Cs  Cs20  1  0.66627452  0.00037982  0.66345027  1
  Cs  Cs21  1  0.67239134  0.33512575  0.00101617  1
  Cs  Cs22  1  0.66625537  0.33280094  0.33744866  1
  Cs  Cs23  1  0.66752504  0.33079025  0.66200347  1
  Cs  Cs24  1  0.66561863  0.66581143  -0.00044565  1
  Cs  Cs25  1  0.67068795  0.66464030  0.33150495  1
  Cs  Cs26  1  0.66720242  0.66856102  0.66820805  1
  Sn  Sn27  1  0.16630174  0.83342965  0.83366265  1
  Sn  Sn28  1  0.49985647  0.83372702  0.83324119  1
  Sn  Sn29  1  0.16668966  0.16599661  0.49930877  1
  Sn  Sn30  1  0.49949007  0.83351824  0.49920217  1
  Sn  Sn31  1  0.49934374  0.49948625  0.83329982  1
  Sn  Sn32  1  0.16759899  0.83408212  0.49965062  1
  Sn  Sn33  1  0.49969692  0.16664335  0.83389340  1
  Sn  Sn34  1  0.16750244  0.83376498  0.16676476  1
  Sn  Sn35  1  0.83356507  0.83414686  0.83361179  1
  Sn  Sn36  1  0.16739625  0.16611615  0.16717950  1
  Sn  Sn37  1  0.49936412  0.83426206  0.16736349  1
  Sn  Sn38  1  0.49918615  0.16565841  0.16629271  1
  Sn  Sn39  1  0.83332536  0.50004833  0.50015401  1
  Pb  Pb40  1  0.83302689  0.50001312  0.16911361  1
  Pb  Pb41  1  0.83726508  0.16905210  0.50012872  1
  Pb  Pb42  1  0.50141091  0.50290014  0.50210340  1
  Pb  Pb43  1  0.49988638  0.49964938  0.16450940  1
  Pb  Pb44  1  0.83014284  0.16377757  0.83335466  1
  Pb  Pb45  1  0.83353205  0.83346291  0.16410746  1
  Pb  Pb46  1  0.16499592  0.50004552  0.50005634  1
  Pb  Pb47  1  0.16951540  0.50293735  0.83344002  1
  Pb  Pb48  1  0.83043380  0.50244369  0.83168033  1
  Pb  Pb49  1  0.83384176  0.83253216  0.50185714  1
  Pb  Pb50  1  0.16870980  0.16475772  0.83381232  1
  Pb  Pb51  1  0.49810582  0.16432527  0.49935686  1
  Pb  Pb52  1  0.83360172  0.16645144  0.16663720  1
  Pb  Pb53  1  0.16688089  0.49948384  0.16642413  1
  I  I54  1  0.17137381  -0.00139272  0.16694684  1
  I  I55  1  0.17021334  -0.00194277  0.50020075  1
  I  I56  1  0.16958322  -0.00402746  0.83231488  1
  I  I57  1  0.17322672  0.32922508  0.17441533  1
  I  I58  1  0.16648288  0.33009560  0.49379808  1
  I  I59  1  0.16800571  0.33310013  0.83223714  1
  I  I60  1  0.17154543  0.67072989  0.16718326  1
  I  I61  1  0.16963353  0.67049716  0.50039275  1
  I  I62  1  0.16922947  0.67201844  0.83234675  1
  I  I63  1  0.49555838  -0.00133284  0.15965926  1
  I  I64  1  0.49964020  -0.00386500  0.50696219  1
  I  I65  1  0.50001614  -0.00179659  0.83433109  1
  I  I66  1  0.49526461  0.32950283  0.16188441  1
  I  I67  1  0.49963030  0.33315975  0.50110759  1
  I  I68  1  0.49958406  0.33252966  0.83851621  1
  I  I69  1  0.49588729  0.67044078  0.16536523  1
  I  I70  1  0.49358747  0.67140894  0.50080625  1
  I  I71  1  0.50033478  0.66922741  0.83272774  1
  I  I72  1  0.83245074  -0.00027408  0.16771505  1
  I  I73  1  0.83123913  0.00004237  0.50124581  1
  I  I74  1  0.83122718  -0.00419605  0.83135815  1
  I  I75  1  0.83325635  0.33315923  0.16595346  1
  I  I76  1  0.83110783  0.33656927  0.50091545  1
  I  I77  1  0.83296231  0.33344943  0.83241947  1
  I  I78  1  0.83323993  0.66715836  0.16577772  1
  I  I79  1  0.83416928  0.66492260  0.50257263  1
  I  I80  1  0.83121805  0.67023593  0.83248557  1
  I  I81  1  0.17050476  0.16044339  0.00297285  1
  I  I82  1  0.17234051  0.15713229  0.33269858  1
  I  I83  1  0.16799510  0.16147100  0.66462378  1
  I  I84  1  0.16507258  0.50029774  -0.00019918  1
  I  I85  1  0.16562311  0.50528623  0.33339564  1
  I  I86  1  0.16639393  0.49949002  0.66675238  1
  I  I87  1  0.17072324  0.83691319  0.00018584  1
  I  I88  1  0.17401303  0.83687412  0.33329168  1
  I  I89  1  0.17036320  0.83631250  0.66657643  1
  I  I90  1  0.49424462  0.16055311  0.00012050  1
  I  I91  1  0.49838384  0.16149817  0.33018169  1
  I  I92  1  0.49924002  0.16473012  0.66910058  1
  I  I93  1  0.50096811  0.50770014  -0.00339966  1
  I  I94  1  0.50211322  0.50058808  0.33348747  1
  I  I95  1  0.50049994  0.50119880  0.67001845  1
  I  I96  1  0.49799895  0.83309541  -0.00071590  1
  I  I97  1  0.49297206  0.83730275  0.33275548  1
  I  I98  1  0.49764350  0.83266619  0.66785109  1
  I  I99  1  0.83856739  0.16789621  -0.00019548  1
  I  I100  1  0.82727299  0.16695327  0.33352773  1
  I  I101  1  0.83269281  0.16638675  0.66675453  1
  I  I102  1  0.83352307  0.50036922  -0.00056640  1
  I  I103  1  0.83283043  0.50369763  0.33687126  1
  I  I104  1  0.83364326  0.50210664  0.66440534  1
  I  I105  1  0.83114714  0.83197700  -0.00382059  1
  I  I106  1  0.83213229  0.83058663  0.33336126  1
  I  I107  1  0.83105490  0.83146853  0.66965659  1
  I  I108  1  0.00410649  0.15969403  0.17282667  1
  I  I109  1  0.00514110  0.15697313  0.49348493  1
  I  I110  1  0.00023902  0.16532457  0.83314566  1
  I  I111  1  0.00009800  0.50152908  0.16621152  1
  I  I112  1  -0.00248216  0.50408571  0.50139098  1
  I  I113  1  -0.00021559  0.50122424  0.83253515  1
  I  I114  1  0.00385673  0.83765272  0.16756718  1
  I  I115  1  0.00365293  0.83511816  0.50054984  1
  I  I116  1  0.00104611  0.83330053  0.83185140  1
  I  I117  1  0.33368374  0.16067578  0.16545206  1
  I  I118  1  0.33031241  0.16434679  0.49987359  1
  I  I119  1  0.33687367  0.16318405  0.83422071  1
  I  I120  1  0.33353408  0.50163427  0.16768748  1
  I  I121  1  0.33333088  0.49940693  0.50105784  1
  I  I122  1  0.33735578  0.50358933  0.83210704  1
  I  I123  1  0.33378727  0.83656236  0.16190751  1
  I  I124  1  0.33310180  0.83572324  0.50575462  1
  I  I125  1  0.33432977  0.83291453  0.83272287  1
  I  I126  1  0.66280141  0.16139868  0.16138542  1
  I  I127  1  0.66657378  0.16612023  0.50012403  1
  I  I128  1  0.66165428  0.16385652  0.83906827  1
  I  I129  1  0.66617460  0.50163634  0.16581491  1
  I  I130  1  0.66895350  0.50281468  0.50171364  1
  I  I131  1  0.66290856  0.50427856  0.83302039  1
  I  I132  1  0.66295423  0.83690411  0.16612555  1
  I  I133  1  0.66382265  0.83122498  0.50174412  1
  I  I134  1  0.66440196  0.83241543  0.83265318  1
