# generated using pymatgen
data_Cs27Sn14Pb13I81
_symmetry_space_group_name_H-M   'P 1'
_cell_length_a   18.96996864
_cell_length_b   18.96994552
_cell_length_c   18.98520802
_cell_angle_alpha   90.00122932
_cell_angle_beta   90.00050980
_cell_angle_gamma   90.00018913
_symmetry_Int_Tables_number   1
_chemical_formula_structural   Cs27Sn14Pb13I81
_chemical_formula_sum   'Cs27 Sn14 Pb13 I81'
_cell_volume   6832.00312723
_cell_formula_units_Z   1
loop_
 _symmetry_equiv_pos_site_id
 _symmetry_equiv_pos_as_xyz
  1  'x, y, z'
loop_
 _atom_site_type_symbol
 _atom_site_label
 _atom_site_symmetry_multiplicity
 _atom_site_fract_x
 _atom_site_fract_y
 _atom_site_fract_z
 _atom_site_occupancy
  Cs  Cs0  1  0.00116073  0.00147075  -0.00051944  1
  Cs  Cs1  1  0.00200320  0.00118654  0.33364152  1
  Cs  Cs2  1  -0.00131148  0.00157937  0.66656835  1
  Cs  Cs3  1  -0.00013281  0.33424416  0.00072981  1
  Cs  Cs4  1  -0.00170076  0.33130202  0.33195039  1
  Cs  Cs5  1  0.00017489  0.33146323  0.66697190  1
  Cs  Cs6  1  -0.00083540  0.66463390  -0.00013760  1
  Cs  Cs7  1  0.00028494  0.66585154  0.33385112  1
  Cs  Cs8  1  0.00052405  0.66559698  0.66639430  1
  Cs  Cs9  1  0.32999709  0.00051034  0.00426227  1
  Cs  Cs10  1  0.32909060  0.00212179  0.32901510  1
  Cs  Cs11  1  0.33278708  -0.00095313  0.66624605  1
  Cs  Cs12  1  0.33962630  0.33539558  0.00186732  1
  Cs  Cs13  1  0.34380458  0.33126872  0.33209763  1
  Cs  Cs14  1  0.33770309  0.34241558  0.66565533  1
  Cs  Cs15  1  0.33268156  0.66592567  -0.00402099  1
  Cs  Cs16  1  0.32777940  0.66685287  0.33817696  1
  Cs  Cs17  1  0.32965416  0.65988459  0.66686484  1
  Cs  Cs18  1  0.66784675  -0.00268331  -0.00372553  1
  Cs  Cs19  1  0.66818438  -0.00172979  0.33565876  1
  Cs  Cs20  1  0.66771683  -0.00090128  0.66726525  1
  Cs  Cs21  1  0.65935843  0.33375177  0.00046491  1
  Cs  Cs22  1  0.66243685  0.33680279  0.33202516  1
  Cs  Cs23  1  0.66210795  0.32847919  0.66715412  1
  Cs  Cs24  1  0.66854116  0.66854142  0.00300200  1
  Cs  Cs25  1  0.66892138  0.66705100  0.33071276  1
  Cs  Cs26  1  0.66943701  0.67120350  0.66609766  1
  Sn  Sn27  1  0.83387749  0.16681960  0.49909857  1
  Sn  Sn28  1  0.50043021  0.83328270  0.16696313  1
  Sn  Sn29  1  0.83314459  0.83342163  0.49985343  1
  Sn  Sn30  1  0.16641305  0.16702743  0.50105521  1
  Sn  Sn31  1  0.16631853  0.83411546  0.83302987  1
  Sn  Sn32  1  0.50027114  0.83361307  0.49986350  1
  Sn  Sn33  1  0.83333137  0.50020430  0.83258804  1
  Sn  Sn34  1  0.83331325  0.16598205  0.16711245  1
  Sn  Sn35  1  0.83357748  0.49971625  0.50107383  1
  Sn  Sn36  1  0.49974643  0.83355972  0.83311978  1
  Sn  Sn37  1  0.83319642  0.83443978  0.16680336  1
  Sn  Sn38  1  0.16676287  0.16656962  0.83229856  1
  Sn  Sn39  1  0.16651684  0.49979285  0.16692743  1
  Sn  Sn40  1  0.83369371  0.83262413  0.83326917  1
  Pb  Pb41  1  0.16613637  0.83190071  0.16441551  1
  Pb  Pb42  1  0.50031094  0.16407860  0.50015663  1
  Pb  Pb43  1  0.16628551  0.83493254  0.50226974  1
  Pb  Pb44  1  0.50346297  0.16376762  0.16663922  1
  Pb  Pb45  1  0.16465106  0.49953740  0.83457731  1
  Pb  Pb46  1  0.50352965  0.50283742  0.83325840  1
  Pb  Pb47  1  0.49638994  0.16407005  0.83316899  1
  Pb  Pb48  1  0.83404807  0.49998482  0.16667817  1
  Pb  Pb49  1  0.16440136  0.49656572  0.49789409  1
  Pb  Pb50  1  0.16488271  0.16881540  0.16661285  1
  Pb  Pb51  1  0.83438418  0.16676736  0.83330633  1
  Pb  Pb52  1  0.50321718  0.50322953  0.50003619  1
  Pb  Pb53  1  0.49702760  0.50350445  0.16679668  1
  I  I54  1  0.16822858  -0.00001750  0.16728092  1
  I  I55  1  0.16003281  0.00269766  0.50038790  1
  I  I56  1  0.16345941  -0.00116687  0.83124064  1
  I  I57  1  0.16009958  0.33592099  0.16440695  1
  I  I58  1  0.15872605  0.32886115  0.50703461  1
  I  I59  1  0.16094107  0.33058457  0.83120941  1
  I  I60  1  0.16328542  0.66460074  0.16440100  1
  I  I61  1  0.16652999  0.66655765  0.50036903  1
  I  I62  1  0.16805847  0.66959469  0.83564454  1
  I  I63  1  0.49952372  -0.00458039  0.16629541  1
  I  I64  1  0.50739002  -0.00422508  0.50104085  1
  I  I65  1  0.50811063  -0.00475881  0.83282234  1
  I  I66  1  0.50054771  0.33337417  0.16621161  1
  I  I67  1  0.50031025  0.33334304  0.49965607  1
  I  I68  1  0.50040985  0.33349416  0.83416531  1
  I  I69  1  0.50952083  0.67153992  0.16574093  1
  I  I70  1  0.50483962  0.67160765  0.50050101  1
  I  I71  1  0.49444566  0.67161982  0.83327793  1
  I  I72  1  0.83129023  -0.00156266  0.16914847  1
  I  I73  1  0.83299551  -0.00094803  0.49968376  1
  I  I74  1  0.83140931  -0.00341510  0.83180057  1
  I  I75  1  0.83864288  0.33097863  0.16951949  1
  I  I76  1  0.84047794  0.33270862  0.49967322  1
  I  I77  1  0.83844809  0.33556282  0.83107925  1
  I  I78  1  0.83082385  0.66995407  0.16801811  1
  I  I79  1  0.82865945  0.66804456  0.50027384  1
  I  I80  1  0.83524547  0.66910778  0.83113903  1
  I  I81  1  0.16383992  0.16228620  -0.00250407  1
  I  I82  1  0.16249723  0.16690619  0.33589658  1
  I  I83  1  0.15813742  0.16083886  0.66653031  1
  I  I84  1  0.16144336  0.50014818  0.00197040  1
  I  I85  1  0.16210496  0.50227002  0.33072867  1
  I  I86  1  0.16688594  0.50177931  0.66649299  1
  I  I87  1  0.16542048  0.83864878  -0.00364566  1
  I  I88  1  0.16714584  0.83364897  0.33339413  1
  I  I89  1  0.16531332  0.83416804  0.67034488  1
  I  I90  1  0.50062277  0.16409465  -0.00001727  1
  I  I91  1  0.49429522  0.16343654  0.33337489  1
  I  I92  1  0.50575080  0.16240356  0.66664370  1
  I  I93  1  0.50258739  0.50214109  -0.00001789  1
  I  I94  1  0.50192110  0.50225814  0.33341596  1
  I  I95  1  0.49573952  0.50215417  0.66666234  1
  I  I96  1  0.50416972  0.83338800  -0.00031246  1
  I  I97  1  0.50929907  0.83306012  0.33345750  1
  I  I98  1  0.50516927  0.83463597  0.66683728  1
  I  I99  1  0.83596174  0.16244715  0.00213661  1
  I  I100  1  0.83981938  0.16261068  0.33447441  1
  I  I101  1  0.83567159  0.16375494  0.66385348  1
  I  I102  1  0.83632399  0.50491998  -0.00222447  1
  I  I103  1  0.83559891  0.50310132  0.33589443  1
  I  I104  1  0.83538267  0.50544110  0.66638696  1
  I  I105  1  0.83111989  0.83292673  -0.00040993  1
  I  I106  1  0.82696121  0.83332753  0.33373835  1
  I  I107  1  0.83111092  0.83306762  0.66660195  1
  I  I108  1  -0.00317257  0.15935898  0.16832292  1
  I  I109  1  -0.00178623  0.16307245  0.50008026  1
  I  I110  1  0.00215388  0.15966744  0.83251030  1
  I  I111  1  0.00132850  0.50298439  0.16568149  1
  I  I112  1  -0.00387609  0.50706276  0.50290254  1
  I  I113  1  -0.00320489  0.50772302  0.83081363  1
  I  I114  1  -0.00347695  0.83533710  0.16697691  1
  I  I115  1  -0.00366462  0.83198309  0.49953712  1
  I  I116  1  -0.00122018  0.83325775  0.83367082  1
  I  I117  1  0.33337166  0.16654058  0.16694508  1
  I  I118  1  0.33047004  0.16348363  0.50398231  1
  I  I119  1  0.32824928  0.16083463  0.82843466  1
  I  I120  1  0.32964353  0.49990396  0.16479449  1
  I  I121  1  0.33327649  0.50055864  0.49835974  1
  I  I122  1  0.33336242  0.50108749  0.83558036  1
  I  I123  1  0.33583526  0.83039636  0.16638560  1
  I  I124  1  0.33575233  0.83615133  0.49936563  1
  I  I125  1  0.33335068  0.83947493  0.83443568  1
  I  I126  1  0.67165758  0.16696228  0.17280411  1
  I  I127  1  0.67052470  0.16780613  0.49603429  1
  I  I128  1  0.66670540  0.16683689  0.83344136  1
  I  I129  1  0.66666241  0.49813856  0.16644792  1
  I  I130  1  0.67163971  0.49497702  0.50216596  1
  I  I131  1  0.67165935  0.50473414  0.83122508  1
  I  I132  1  0.66833644  0.83640609  0.16259462  1
  I  I133  1  0.66870548  0.83501063  0.50391419  1
  I  I134  1  0.66780749  0.82848161  0.83373031  1
