# generated using pymatgen
data_Cs27Sn13Pb14I81
_symmetry_space_group_name_H-M   'P 1'
_cell_length_a   18.97787688
_cell_length_b   18.97787681
_cell_length_c   18.97606201
_cell_angle_alpha   89.99915414
_cell_angle_beta   89.99915415
_cell_angle_gamma   90.00220435
_symmetry_Int_Tables_number   1
_chemical_formula_structural   Cs27Sn13Pb14I81
_chemical_formula_sum   'Cs27 Sn13 Pb14 I81'
_cell_volume   6834.41487280
_cell_formula_units_Z   1
loop_
 _symmetry_equiv_pos_site_id
 _symmetry_equiv_pos_as_xyz
  1  'x, y, z'
loop_
 _atom_site_type_symbol
 _atom_site_label
 _atom_site_symmetry_multiplicity
 _atom_site_fract_x
 _atom_site_fract_y
 _atom_site_fract_z
 _atom_site_occupancy
  Cs  Cs0  1  -0.00001638  -0.00146756  0.00175883  1
  Cs  Cs1  1  0.00782284  -0.00782279  0.33333323  1
  Cs  Cs2  1  0.00146761  0.00001626  0.66490779  1
  Cs  Cs3  1  -0.00166951  0.33531827  -0.00048538  1
  Cs  Cs4  1  -0.00194714  0.33382217  0.33419366  1
  Cs  Cs5  1  0.00071247  0.33202890  0.66643792  1
  Cs  Cs6  1  -0.00025077  0.66316961  -0.00133579  1
  Cs  Cs7  1  0.00123702  0.67280225  0.34067907  1
  Cs  Cs8  1  -0.00103897  0.66860756  0.66199162  1
  Cs  Cs9  1  0.33139256  0.00103899  0.00467515  1
  Cs  Cs10  1  0.32719787  -0.00123679  0.32598754  1
  Cs  Cs11  1  0.33683050  0.00025089  0.66800238  1
  Cs  Cs12  1  0.33157563  0.33343889  0.00026704  1
  Cs  Cs13  1  0.33377706  0.33555688  0.33189151  1
  Cs  Cs14  1  0.33190396  0.33252137  0.66682225  1
  Cs  Cs15  1  0.33299486  0.66529532  -0.00197766  1
  Cs  Cs16  1  0.33461676  0.66538309  0.33333320  1
  Cs  Cs17  1  0.33470463  0.66700520  0.66864432  1
  Cs  Cs18  1  0.66797120  -0.00071251  0.00022857  1
  Cs  Cs19  1  0.66617787  0.00194709  0.33247323  1
  Cs  Cs20  1  0.66468174  0.00166951  0.66715196  1
  Cs  Cs21  1  0.66887180  0.33288281  -0.00062898  1
  Cs  Cs22  1  0.66636661  0.33363351  0.33333330  1
  Cs  Cs23  1  0.66711715  0.33112829  0.66729558  1
  Cs  Cs24  1  0.66747878  0.66809603  -0.00015562  1
  Cs  Cs25  1  0.66444320  0.66622301  0.33477517  1
  Cs  Cs26  1  0.66656090  0.66842438  0.66639969  1
  Sn  Sn27  1  0.50033046  0.49966951  0.83333336  1
  Sn  Sn28  1  0.83335194  0.49939132  0.83361133  1
  Sn  Sn29  1  0.83294503  0.16656596  0.50001935  1
  Sn  Sn30  1  0.16624295  0.50080393  0.83351213  1
  Sn  Sn31  1  0.16545706  0.49992568  0.16602161  1
  Sn  Sn32  1  0.16722710  0.83277291  0.83333333  1
  Sn  Sn33  1  0.49919605  0.83375703  0.83315453  1
  Sn  Sn34  1  0.50036507  0.16566164  0.50048949  1
  Sn  Sn35  1  0.50007425  0.83454291  0.50064509  1
  Sn  Sn36  1  0.83433840  0.49963490  0.16617721  1
  Sn  Sn37  1  0.50060866  0.16664808  0.83305533  1
  Sn  Sn38  1  0.83273223  0.16726780  0.83333335  1
  Sn  Sn39  1  0.83343405  0.16705499  0.16664733  1
  Pb  Pb40  1  0.50009521  0.49939385  0.50255330  1
  Pb  Pb41  1  0.16660803  0.16678615  0.83332771  1
  Pb  Pb42  1  0.16751453  0.16670607  0.49994606  1
  Pb  Pb43  1  0.16995748  0.83339217  0.50288761  1
  Pb  Pb44  1  0.83329396  0.83248545  0.16672062  1
  Pb  Pb45  1  0.16660782  0.83004253  0.16377902  1
  Pb  Pb46  1  0.83321382  0.83339193  0.83333896  1
  Pb  Pb47  1  0.50060621  0.49990476  0.16411332  1
  Pb  Pb48  1  0.83056871  0.83649843  0.50012279  1
  Pb  Pb49  1  0.50003747  0.83339023  0.16642670  1
  Pb  Pb50  1  0.50195269  0.16674842  0.16658442  1
  Pb  Pb51  1  0.16660974  0.49996254  0.50023996  1
  Pb  Pb52  1  0.16350158  0.16943136  0.16654385  1
  Pb  Pb53  1  0.83325161  0.49804731  0.50008224  1
  I  I54  1  0.16580671  -0.00021407  0.16627416  1
  I  I55  1  0.16277415  -0.00009122  0.50216011  1
  I  I56  1  0.16999965  -0.00262234  0.83113798  1
  I  I57  1  0.16650914  0.33728791  0.15769489  1
  I  I58  1  0.16959449  0.33336248  0.50328639  1
  I  I59  1  0.16897628  0.33669200  0.83705387  1
  I  I60  1  0.15978751  0.66223181  0.16356870  1
  I  I61  1  0.16776324  0.66679411  0.49835700  1
  I  I62  1  0.17070694  0.66549014  0.83722969  1
  I  I63  1  0.50278576  0.00020597  0.16123376  1
  I  I64  1  0.50578176  0.00084057  0.51132618  1
  I  I65  1  0.50064248  0.00048140  0.82888780  1
  I  I66  1  0.49732840  0.33341881  0.16739142  1
  I  I67  1  0.50450756  0.32965535  0.50428945  1
  I  I68  1  0.50087313  0.33307700  0.83007971  1
  I  I69  1  0.50289337  0.66644558  0.16718148  1
  I  I70  1  0.49846499  0.66938561  0.50471923  1
  I  I71  1  0.49934719  0.66650287  0.83035596  1
  I  I72  1  0.83005953  0.00350129  0.16423228  1
  I  I73  1  0.83139152  0.00488640  0.50259308  1
  I  I74  1  0.83018724  0.00357606  0.83374978  1
  I  I75  1  0.83651850  0.33345735  0.16466718  1
  I  I76  1  0.82590877  0.32971928  0.50086676  1
  I  I77  1  0.83042912  0.33325475  0.83386154  1
  I  I78  1  0.83616642  0.66242640  0.15866163  1
  I  I79  1  0.83261538  0.66681287  0.49958802  1
  I  I80  1  0.83082401  0.66331724  0.83930833  1
  I  I81  1  0.16862986  0.16363022  -0.00034371  1
  I  I82  1  0.16761420  0.16896606  0.33313960  1
  I  I83  1  0.16122714  0.16969665  0.66708145  1
  I  I84  1  0.16592092  0.50363674  -0.00190560  1
  I  I85  1  0.16125369  0.49742464  0.32987560  1
  I  I86  1  0.16645304  0.50308440  0.67100862  1
  I  I87  1  0.17397310  0.83259895  -0.00420133  1
  I  I88  1  0.16740936  0.83259087  0.33333333  1
  I  I89  1  0.16740035  0.82602693  0.67086796  1
  I  I90  1  0.50353720  0.16644875  -0.00376187  1
  I  I91  1  0.50473906  0.16177626  0.33667014  1
  I  I92  1  0.50782895  0.16627664  0.66822912  1
  I  I93  1  0.49996587  0.49992558  -0.00478368  1
  I  I94  1  0.49933466  0.50066512  0.33333334  1
  I  I95  1  0.50007460  0.50003409  0.67145028  1
  I  I96  1  0.49691519  0.83354647  -0.00434198  1
  I  I97  1  0.50257539  0.83874668  0.33679107  1
  I  I98  1  0.49636367  0.83407906  0.66857228  1
  I  I99  1  0.82907821  0.17129936  -0.00114792  1
  I  I100  1  0.82794968  0.17205027  0.33333332  1
  I  I101  1  0.82870059  0.17092189  0.66781456  1
  I  I102  1  0.83372330  0.49217117  -0.00156245  1
  I  I103  1  0.83822337  0.49526076  0.32999655  1
  I  I104  1  0.83355148  0.49646248  0.67042851  1
  I  I105  1  0.83030363  0.83877290  -0.00041478  1
  I  I106  1  0.83103337  0.83238600  0.33352702  1
  I  I107  1  0.83636995  0.83137036  0.66701038  1
  I  I108  1  -0.00488638  0.16860832  0.16407376  1
  I  I109  1  -0.00350131  0.16994048  0.50243432  1
  I  I110  1  -0.00357608  0.16981301  0.83291692  1
  I  I111  1  -0.00084059  0.49421837  0.15534064  1
  I  I112  1  -0.00020594  0.49721422  0.50543245  1
  I  I113  1  -0.00048140  0.49935768  0.83777908  1
  I  I114  1  0.00009120  0.83722575  0.16450709  1
  I  I115  1  0.00021411  0.83419321  0.50039205  1
  I  I116  1  0.00262228  0.82999991  0.83552897  1
  I  I117  1  0.33318717  0.16738452  0.16707870  1
  I  I118  1  0.33757363  0.16383332  0.50800511  1
  I  I119  1  0.33668279  0.16917607  0.82735814  1
  I  I120  1  0.33061437  0.50153515  0.16194734  1
  I  I121  1  0.33355442  0.49710681  0.49948574  1
  I  I122  1  0.33349714  0.50065240  0.83631048  1
  I  I123  1  0.33320590  0.83223678  0.16830972  1
  I  I124  1  0.33776822  0.84021246  0.50309838  1
  I  I125  1  0.33450985  0.82929364  0.82943651  1
  I  I126  1  0.67028076  0.17409149  0.16579983  1
  I  I127  1  0.66654268  0.16348168  0.50199941  1
  I  I128  1  0.66674527  0.16957057  0.83280536  1
  I  I129  1  0.67034463  0.49549209  0.16237718  1
  I  I130  1  0.66658122  0.50267133  0.49927538  1
  I  I131  1  0.66692303  0.49912731  0.83658689  1
  I  I132  1  0.66663750  0.83040560  0.16337983  1
  I  I133  1  0.66271212  0.83349087  0.50897180  1
  I  I134  1  0.66330800  0.83102352  0.82961312  1
