# generated using pymatgen
data_Cs27Sn13Pb14I81
_symmetry_space_group_name_H-M   'P 1'
_cell_length_a   18.96978337
_cell_length_b   18.98221387
_cell_length_c   18.97743552
_cell_angle_alpha   90.00014151
_cell_angle_beta   90.00175449
_cell_angle_gamma   89.99949480
_symmetry_Int_Tables_number   1
_chemical_formula_structural   Cs27Sn13Pb14I81
_chemical_formula_sum   'Cs27 Sn13 Pb14 I81'
_cell_volume   6833.55599833
_cell_formula_units_Z   1
loop_
 _symmetry_equiv_pos_site_id
 _symmetry_equiv_pos_as_xyz
  1  'x, y, z'
loop_
 _atom_site_type_symbol
 _atom_site_label
 _atom_site_symmetry_multiplicity
 _atom_site_fract_x
 _atom_site_fract_y
 _atom_site_fract_z
 _atom_site_occupancy
  Cs  Cs0  1  -0.00178376  0.00278447  0.00089651  1
  Cs  Cs1  1  0.00106709  0.00049461  0.33253487  1
  Cs  Cs2  1  0.00036535  0.00160391  0.66732222  1
  Cs  Cs3  1  -0.00184528  0.33258312  0.00004173  1
  Cs  Cs4  1  0.00038306  0.33222052  0.33365174  1
  Cs  Cs5  1  0.00082502  0.33275332  0.66666972  1
  Cs  Cs6  1  0.00073866  0.66536108  0.00244927  1
  Cs  Cs7  1  0.00044481  0.66733936  0.33203519  1
  Cs  Cs8  1  -0.00046286  0.66621502  0.66495186  1
  Cs  Cs9  1  0.33285576  -0.00270579  -0.00049021  1
  Cs  Cs10  1  0.33451881  0.00064196  0.33459292  1
  Cs  Cs11  1  0.33164284  0.00121678  0.66598968  1
  Cs  Cs12  1  0.33345354  0.33695322  -0.00347865  1
  Cs  Cs13  1  0.33778117  0.33440935  0.33153610  1
  Cs  Cs14  1  0.33316019  0.33263716  0.66917767  1
  Cs  Cs15  1  0.33401186  0.66526624  0.00077306  1
  Cs  Cs16  1  0.33458559  0.66461546  0.32815003  1
  Cs  Cs17  1  0.33082924  0.66699834  0.66930315  1
  Cs  Cs18  1  0.66893750  -0.00056579  0.00109783  1
  Cs  Cs19  1  0.65707325  0.00418781  0.33184260  1
  Cs  Cs20  1  0.66640968  -0.01035676  0.66683819  1
  Cs  Cs21  1  0.66960144  0.33053529  0.00081355  1
  Cs  Cs22  1  0.65937622  0.33018910  0.33532160  1
  Cs  Cs23  1  0.66272528  0.33645793  0.66447139  1
  Cs  Cs24  1  0.66687831  0.66899592  -0.00182584  1
  Cs  Cs25  1  0.66428332  0.66627045  0.34100358  1
  Cs  Cs26  1  0.66928695  0.67176536  0.66179709  1
  Sn  Sn27  1  0.16612878  0.83264488  0.83364238  1
  Sn  Sn28  1  0.16618886  0.83320619  0.49964091  1
  Sn  Sn29  1  0.83395722  0.83258012  0.16726406  1
  Sn  Sn30  1  0.50030440  0.16672273  0.83331992  1
  Sn  Sn31  1  0.16657057  0.16631771  0.16713008  1
  Sn  Sn32  1  0.16616335  0.50065536  0.83270247  1
  Sn  Sn33  1  0.16581604  0.16696210  0.49896951  1
  Sn  Sn34  1  0.83336287  0.50070646  0.16671007  1
  Sn  Sn35  1  0.16641897  0.49982069  0.50039837  1
  Sn  Sn36  1  0.83369394  0.16661841  0.50021154  1
  Sn  Sn37  1  0.16593897  0.83430402  0.16668126  1
  Sn  Sn38  1  0.50052791  0.49945132  0.83338699  1
  Sn  Sn39  1  0.83328204  0.49998580  0.83369445  1
  Pb  Pb40  1  0.49687742  0.83323670  0.49992394  1
  Pb  Pb41  1  0.83495787  0.16673502  0.16858156  1
  Pb  Pb42  1  0.49684298  0.50015422  0.50253706  1
  Pb  Pb43  1  0.16542689  0.49990119  0.16654502  1
  Pb  Pb44  1  0.83607843  0.83112239  0.83519452  1
  Pb  Pb45  1  0.50012562  0.83311772  0.16659768  1
  Pb  Pb46  1  0.83549123  0.83581443  0.49702745  1
  Pb  Pb47  1  0.49781322  0.83283562  0.83341644  1
  Pb  Pb48  1  0.49942989  0.16658693  0.50252710  1
  Pb  Pb49  1  0.83526552  0.49836879  0.49974089  1
  Pb  Pb50  1  0.83074009  0.16875779  0.83077408  1
  Pb  Pb51  1  0.16754449  0.16681476  0.83333599  1
  Pb  Pb52  1  0.49667467  0.16676354  0.16377697  1
  Pb  Pb53  1  0.50390510  0.50015872  0.16407938  1
  I  I54  1  0.16160998  -0.00101045  0.16831980  1
  I  I55  1  0.16331142  0.00008215  0.49994666  1
  I  I56  1  0.16969958  -0.00241239  0.83163498  1
  I  I57  1  0.16461676  0.33120335  0.16933667  1
  I  I58  1  0.16268796  0.33314250  0.50124409  1
  I  I59  1  0.16603512  0.33636833  0.83077957  1
  I  I60  1  0.16454397  0.66927428  0.16850150  1
  I  I61  1  0.16725200  0.66672190  0.50183965  1
  I  I62  1  0.16863946  0.66573761  0.83056855  1
  I  I63  1  0.50358765  0.00012252  0.16332827  1
  I  I64  1  0.49837678  0.00020474  0.50340374  1
  I  I65  1  0.49580932  0.00224530  0.83259953  1
  I  I66  1  0.49892497  0.33342408  0.16773697  1
  I  I67  1  0.49723646  0.33335366  0.49941733  1
  I  I68  1  0.49539256  0.33479265  0.83284548  1
  I  I69  1  0.49315087  0.66649740  0.16341769  1
  I  I70  1  0.50040805  0.66651456  0.50271834  1
  I  I71  1  0.49953653  0.66327521  0.83407488  1
  I  I72  1  0.83793436  -0.00255146  0.16784815  1
  I  I73  1  0.84090581  0.00332441  0.50004213  1
  I  I74  1  0.83306592  -0.00010847  0.83422430  1
  I  I75  1  0.83650526  0.33580866  0.16245182  1
  I  I76  1  0.84177408  0.33080314  0.49909771  1
  I  I77  1  0.84027189  0.33715727  0.83969257  1
  I  I78  1  0.84174181  0.66671070  0.16163128  1
  I  I79  1  0.83461717  0.66678547  0.50170206  1
  I  I80  1  0.82974645  0.66272296  0.83361675  1
  I  I81  1  0.16840626  0.16341097  0.00222041  1
  I  I82  1  0.16272374  0.16395096  0.33415121  1
  I  I83  1  0.16530148  0.16470213  0.66399627  1
  I  I84  1  0.16848374  0.50246639  -0.00303441  1
  I  I85  1  0.16316904  0.50161366  0.33573770  1
  I  I86  1  0.16533615  0.50229217  0.66763096  1
  I  I87  1  0.16426384  0.83334565  0.00027554  1
  I  I88  1  0.16252028  0.83419128  0.33318253  1
  I  I89  1  0.16863158  0.83276678  0.66656415  1
  I  I90  1  0.49807573  0.17188839  -0.00374520  1
  I  I91  1  0.50127245  0.16611075  0.33344995  1
  I  I92  1  0.49561462  0.17263962  0.66991245  1
  I  I93  1  0.49158642  0.49653816  -0.00419420  1
  I  I94  1  0.49920650  0.50005950  0.33334932  1
  I  I95  1  0.50309522  0.49552662  0.67089569  1
  I  I96  1  0.49541257  0.83364532  -0.00020731  1
  I  I97  1  0.49781930  0.83416171  0.33322025  1
  I  I98  1  0.49869162  0.83380923  0.66696438  1
  I  I99  1  0.83417978  0.16590617  0.00003292  1
  I  I100  1  0.83788726  0.16891614  0.33627847  1
  I  I101  1  0.84307537  0.16875242  0.66335715  1
  I  I102  1  0.83670189  0.50258011  -0.00082980  1
  I  I103  1  0.83875922  0.50299547  0.33076579  1
  I  I104  1  0.83308077  0.49707137  0.66950339  1
  I  I105  1  0.84024180  0.83316990  0.00312173  1
  I  I106  1  0.84191101  0.82541007  0.32937985  1
  I  I107  1  0.83425634  0.83292418  0.66636693  1
  I  I108  1  0.00334915  0.16511049  0.16705063  1
  I  I109  1  0.00260710  0.16717637  0.49752301  1
  I  I110  1  0.00003222  0.16767429  0.83452270  1
  I  I111  1  -0.00222921  0.50075949  0.16053950  1
  I  I112  1  0.00381128  0.50133422  0.50622201  1
  I  I113  1  0.00095669  0.50441875  0.83321947  1
  I  I114  1  0.00184955  0.83279158  0.16617971  1
  I  I115  1  0.00424018  0.83117170  0.50233430  1
  I  I116  1  0.00449739  0.82909751  0.83105150  1
  I  I117  1  0.32843271  0.16115156  0.17354038  1
  I  I118  1  0.32934328  0.16582457  0.49766809  1
  I  I119  1  0.33510276  0.17257422  0.83234344  1
  I  I120  1  0.33319134  0.49996451  0.16643988  1
  I  I121  1  0.32809724  0.49763676  0.50420326  1
  I  I122  1  0.33202094  0.49954472  0.82829334  1
  I  I123  1  0.32913386  0.83723871  0.16687577  1
  I  I124  1  0.32758368  0.83658451  0.49852158  1
  I  I125  1  0.32887836  0.82830063  0.83518118  1
  I  I126  1  0.66673023  0.16617774  0.16850678  1
  I  I127  1  0.66914245  0.16896965  0.50033037  1
  I  I128  1  0.66319158  0.17315523  0.83242417  1
  I  I129  1  0.67195966  0.50517217  0.16186255  1
  I  I130  1  0.66682998  0.49703061  0.50024860  1
  I  I131  1  0.66699323  0.49315751  0.83988635  1
  I  I132  1  0.67023395  0.82917598  0.16480979  1
  I  I133  1  0.66722455  0.83524799  0.49919830  1
  I  I134  1  0.66703924  0.83331232  0.83537979  1
