# generated using pymatgen
data_Cs27Sn13Pb14I81
_symmetry_space_group_name_H-M   'P 1'
_cell_length_a   18.97667659
_cell_length_b   18.98224660
_cell_length_c   18.97379761
_cell_angle_alpha   90.00060831
_cell_angle_beta   90.00034739
_cell_angle_gamma   89.99969746
_symmetry_Int_Tables_number   1
_chemical_formula_structural   Cs27Sn13Pb14I81
_chemical_formula_sum   'Cs27 Sn13 Pb14 I81'
_cell_volume   6834.74051335
_cell_formula_units_Z   1
loop_
 _symmetry_equiv_pos_site_id
 _symmetry_equiv_pos_as_xyz
  1  'x, y, z'
loop_
 _atom_site_type_symbol
 _atom_site_label
 _atom_site_symmetry_multiplicity
 _atom_site_fract_x
 _atom_site_fract_y
 _atom_site_fract_z
 _atom_site_occupancy
  Cs  Cs0  1  -0.00849199  0.00200765  0.00441131  1
  Cs  Cs1  1  -0.00506397  -0.00689506  0.33080505  1
  Cs  Cs2  1  -0.00591739  -0.00251157  0.66394769  1
  Cs  Cs3  1  0.00065019  0.33274285  0.00613714  1
  Cs  Cs4  1  -0.00078626  0.33184549  0.32724002  1
  Cs  Cs5  1  0.00197770  0.33586437  0.66637642  1
  Cs  Cs6  1  -0.00233300  0.66478519  0.00343988  1
  Cs  Cs7  1  0.00149244  0.67385014  0.32986159  1
  Cs  Cs8  1  0.00174940  0.66555418  0.66629925  1
  Cs  Cs9  1  0.33447650  0.00200604  -0.00091807  1
  Cs  Cs10  1  0.33186838  -0.00073312  0.33372290  1
  Cs  Cs11  1  0.33356112  0.00076054  0.66718663  1
  Cs  Cs12  1  0.33083306  0.33047058  -0.00308661  1
  Cs  Cs13  1  0.33414296  0.33327127  0.33525043  1
  Cs  Cs14  1  0.33311207  0.33294157  0.66687683  1
  Cs  Cs15  1  0.33388113  0.66836183  -0.00008244  1
  Cs  Cs16  1  0.33510415  0.66939376  0.32636562  1
  Cs  Cs17  1  0.33234082  0.66630588  0.66700939  1
  Cs  Cs18  1  0.66933310  -0.00204404  -0.00098970  1
  Cs  Cs19  1  0.67056131  -0.00057800  0.33542877  1
  Cs  Cs20  1  0.66934201  0.00060103  0.66653034  1
  Cs  Cs21  1  0.66862579  0.33243639  -0.00062029  1
  Cs  Cs22  1  0.66671566  0.33574418  0.33407966  1
  Cs  Cs23  1  0.66642821  0.33397084  0.66557723  1
  Cs  Cs24  1  0.66747458  0.66896158  0.00498290  1
  Cs  Cs25  1  0.66253240  0.66403735  0.32269777  1
  Cs  Cs26  1  0.66627023  0.66454438  0.66711301  1
  Sn  Sn27  1  0.50002976  0.50004292  0.83295231  1
  Sn  Sn28  1  0.49971486  0.16683216  0.16682769  1
  Sn  Sn29  1  0.16650330  0.49999959  0.83271357  1
  Sn  Sn30  1  0.49991265  0.83375462  0.50110817  1
  Sn  Sn31  1  0.16690605  0.16698077  0.50087549  1
  Sn  Sn32  1  0.16588838  0.49946291  0.50037624  1
  Sn  Sn33  1  0.49913349  0.83357844  0.83207931  1
  Sn  Sn34  1  0.16685962  0.16599153  0.83210575  1
  Sn  Sn35  1  0.83466894  0.50021038  0.50060364  1
  Sn  Sn36  1  0.49955505  0.16643918  0.83295240  1
  Sn  Sn37  1  0.83363520  0.49968993  0.83232123  1
  Sn  Sn38  1  0.49919891  0.16581009  0.50032240  1
  Sn  Sn39  1  0.16699667  0.83393828  0.83300474  1
  Pb  Pb40  1  0.16699422  0.49989901  0.16715971  1
  Pb  Pb41  1  0.49927257  0.50018732  0.50145147  1
  Pb  Pb42  1  0.16708450  0.83381628  0.16291121  1
  Pb  Pb43  1  0.83399260  0.16910567  0.83300851  1
  Pb  Pb44  1  0.83400115  0.16881151  0.50027133  1
  Pb  Pb45  1  0.83030121  0.16688524  0.16690673  1
  Pb  Pb46  1  0.16854351  0.83342593  0.50184669  1
  Pb  Pb47  1  0.83313792  0.83328942  0.16665806  1
  Pb  Pb48  1  0.83348135  0.49983049  0.16712204  1
  Pb  Pb49  1  0.49972304  0.83621838  0.16621918  1
  Pb  Pb50  1  0.16840130  0.16652830  0.16714270  1
  Pb  Pb51  1  0.83331577  0.83056129  0.83304127  1
  Pb  Pb52  1  0.49951060  0.49718266  0.16297565  1
  Pb  Pb53  1  0.82988498  0.82967477  0.50037524  1
  I  I54  1  0.16835663  0.00029998  0.16713905  1
  I  I55  1  0.17138090  0.00310447  0.50463584  1
  I  I56  1  0.17701306  0.00098548  0.82976406  1
  I  I57  1  0.16792726  0.33320636  0.16145271  1
  I  I58  1  0.16985124  0.33312108  0.50827945  1
  I  I59  1  0.17063551  0.33339590  0.83001700  1
  I  I60  1  0.16722834  0.66674697  0.16723933  1
  I  I61  1  0.16424957  0.66378844  0.50575762  1
  I  I62  1  0.17027132  0.66567228  0.82957847  1
  I  I63  1  0.49868286  0.00373953  0.16126916  1
  I  I64  1  0.49474577  0.00154609  0.50433782  1
  I  I65  1  0.49316433  0.00071828  0.83351070  1
  I  I66  1  0.49949755  0.32947553  0.16831209  1
  I  I67  1  0.49982219  0.33045820  0.50109174  1
  I  I68  1  0.49803615  0.33286019  0.83334142  1
  I  I69  1  0.50146564  0.66679284  0.16753731  1
  I  I70  1  0.50050712  0.66883019  0.50668495  1
  I  I71  1  0.49721260  0.66672098  0.82775927  1
  I  I72  1  0.83326655  0.00022662  0.16572578  1
  I  I73  1  0.83488645  -0.00027816  0.49830738  1
  I  I74  1  0.83285596  -0.00003430  0.83533971  1
  I  I75  1  0.83240289  0.33353215  0.16539248  1
  I  I76  1  0.83084202  0.33673823  0.50577444  1
  I  I77  1  0.83098245  0.33722485  0.82931132  1
  I  I78  1  0.83098777  0.66619356  0.16547089  1
  I  I79  1  0.83904207  0.66191861  0.50708841  1
  I  I80  1  0.83265611  0.66232396  0.82911729  1
  I  I81  1  0.17157202  0.16860323  -0.00381753  1
  I  I82  1  0.17228631  0.17358266  0.33723749  1
  I  I83  1  0.17597405  0.16956350  0.66757894  1
  I  I84  1  0.16665054  0.49893756  -0.00442427  1
  I  I85  1  0.16240813  0.49396257  0.33738557  1
  I  I86  1  0.16634315  0.49871377  0.66813961  1
  I  I87  1  0.17481646  0.83189859  -0.00594361  1
  I  I88  1  0.16844852  0.83233664  0.33371328  1
  I  I89  1  0.17019527  0.83179535  0.67032944  1
  I  I90  1  0.49617003  0.16798447  -0.00221423  1
  I  I91  1  0.49600472  0.16260704  0.33496712  1
  I  I92  1  0.49628374  0.16658209  0.66740621  1
  I  I93  1  0.49986723  0.50157228  -0.00586326  1
  I  I94  1  0.50131658  0.50053519  0.33342403  1
  I  I95  1  0.50003044  0.49629954  0.67013977  1
  I  I96  1  0.49654467  0.83265387  -0.00396680  1
  I  I97  1  0.50055623  0.83640501  0.33637304  1
  I  I98  1  0.49674630  0.83762358  0.66823616  1
  I  I99  1  0.83356032  0.16970877  -0.00033988  1
  I  I100  1  0.83264618  0.17067823  0.33368881  1
  I  I101  1  0.82694038  0.16562050  0.66673837  1
  I  I102  1  0.83323608  0.49997161  -0.00349164  1
  I  I103  1  0.83662636  0.49871227  0.33689900  1
  I  I104  1  0.83364145  0.49926639  0.66774520  1
  I  I105  1  0.83135519  0.83077484  -0.00068083  1
  I  I106  1  0.83176105  0.83095764  0.33387626  1
  I  I107  1  0.83329423  0.83526228  0.66676431  1
  I  I108  1  0.00016771  0.16732438  0.16510971  1
  I  I109  1  0.00388921  0.16964447  0.50720650  1
  I  I110  1  0.00399049  0.16632839  0.82831325  1
  I  I111  1  0.00016107  0.49845312  0.16107837  1
  I  I112  1  0.00137122  0.49374348  0.51056561  1
  I  I113  1  0.00118563  0.50027966  0.82904177  1
  I  I114  1  0.00021043  0.83375657  0.16599230  1
  I  I115  1  0.00008427  0.83593125  0.50098872  1
  I  I116  1  0.00332586  0.83351023  0.83317637  1
  I  I117  1  0.33657902  0.16688305  0.16457504  1
  I  I118  1  0.33409303  0.16987485  0.50148552  1
  I  I119  1  0.33425050  0.17084817  0.83329513  1
  I  I120  1  0.33347124  0.50074602  0.16767236  1
  I  I121  1  0.33047473  0.49787894  0.50565115  1
  I  I122  1  0.33303241  0.49947350  0.82995400  1
  I  I123  1  0.33376178  0.83180159  0.16843145  1
  I  I124  1  0.33670544  0.83281736  0.50334026  1
  I  I125  1  0.33437814  0.82911879  0.83009711  1
  I  I126  1  0.66180336  0.16734765  0.16484686  1
  I  I127  1  0.66308490  0.16478108  0.50101523  1
  I  I128  1  0.66305859  0.16686294  0.83325505  1
  I  I129  1  0.66639957  0.49894654  0.16728686  1
  I  I130  1  0.66814590  0.49955872  0.50571398  1
  I  I131  1  0.66595711  0.49898340  0.82913138  1
  I  I132  1  0.66590386  0.83320888  0.16426015  1
  I  I133  1  0.66179730  0.83991508  0.50741830  1
  I  I134  1  0.66294311  0.83422174  0.83098592  1
