# generated using pymatgen
data_Cs27Sn14Pb13I81
_symmetry_space_group_name_H-M   'P 1'
_cell_length_a   18.98580675
_cell_length_b   18.97162533
_cell_length_c   18.97162535
_cell_angle_alpha   89.99684692
_cell_angle_beta   90.00086870
_cell_angle_gamma   90.00086867
_symmetry_Int_Tables_number   1
_chemical_formula_structural   Cs27Sn14Pb13I81
_chemical_formula_sum   'Cs27 Sn14 Pb13 I81'
_cell_volume   6833.42030594
_cell_formula_units_Z   1
loop_
 _symmetry_equiv_pos_site_id
 _symmetry_equiv_pos_as_xyz
  1  'x, y, z'
loop_
 _atom_site_type_symbol
 _atom_site_label
 _atom_site_symmetry_multiplicity
 _atom_site_fract_x
 _atom_site_fract_y
 _atom_site_fract_z
 _atom_site_occupancy
  Cs  Cs0  1  -0.00279818  -0.00192762  -0.00128948  1
  Cs  Cs1  1  0.00180383  -0.00142179  0.33406094  1
  Cs  Cs2  1  0.00023903  -0.00028589  0.66638068  1
  Cs  Cs3  1  -0.00180243  0.33191942  -0.00141403  1
  Cs  Cs4  1  -0.00183137  0.33491307  0.33548320  1
  Cs  Cs5  1  -0.00279833  0.33204394  0.66473922  1
  Cs  Cs6  1  -0.00183138  0.66881657  0.00157963  1
  Cs  Cs7  1  0.00475858  0.66684393  0.33351073  1
  Cs  Cs8  1  0.00180382  0.66739434  0.66524486  1
  Cs  Cs9  1  0.33231382  0.00302975  -0.00066988  1
  Cs  Cs10  1  0.33309938  0.00001659  0.33532638  1
  Cs  Cs11  1  0.33218679  -0.00110509  0.66556152  1
  Cs  Cs12  1  0.33432220  0.33213006  -0.00120336  1
  Cs  Cs13  1  0.33201025  0.33458938  0.33216570  1
  Cs  Cs14  1  0.33231392  0.33266365  0.66969658  1
  Cs  Cs15  1  0.33201018  0.66549909  0.00125620  1
  Cs  Cs16  1  0.33800672  0.66035961  0.32702633  1
  Cs  Cs17  1  0.33309934  0.66865985  0.66668314  1
  Cs  Cs18  1  0.66969061  -0.00202756  0.00054611  1
  Cs  Cs19  1  0.66459053  0.00014857  0.33329417  1
  Cs  Cs20  1  0.66895849  -0.00080064  0.66586616  1
  Cs  Cs21  1  0.66612018  0.33469383  0.00136051  1
  Cs  Cs22  1  0.66962689  0.33298908  0.33336047  1
  Cs  Cs23  1  0.66969060  0.33387943  0.66463917  1
  Cs  Cs24  1  0.66962673  0.66669387  -0.00034410  1
  Cs  Cs25  1  0.65597428  0.66869816  0.33536493  1
  Cs  Cs26  1  0.66459063  0.66662750  0.66681518  1
  Sn  Sn27  1  0.83357418  0.16709521  0.16651492  1
  Sn  Sn28  1  0.16639382  0.16653914  0.16744298  1
  Sn  Sn29  1  0.50002989  0.16670533  0.16674461  1
  Sn  Sn30  1  0.16737581  0.83266251  0.83284295  1
  Sn  Sn31  1  0.49918287  0.83357205  0.83350514  1
  Sn  Sn32  1  0.50029642  0.16636315  0.83302982  1
  Sn  Sn33  1  0.83406444  0.83308992  0.49975658  1
  Sn  Sn34  1  0.83338166  0.49972487  0.16639150  1
  Sn  Sn35  1  0.83357419  0.49984825  0.83376193  1
  Sn  Sn36  1  0.16737578  0.16617633  0.49932924  1
  Sn  Sn37  1  0.16639379  0.50077631  0.83320577  1
  Sn  Sn38  1  0.16641540  0.83363439  0.50030099  1
  Sn  Sn39  1  0.50002994  0.50007800  0.83337195  1
  Sn  Sn40  1  0.49918288  0.16683847  0.50023876  1
  Pb  Pb41  1  0.16448601  0.49733339  0.16400009  1
  Pb  Pb42  1  0.83366893  0.16504318  0.49771117  1
  Pb  Pb43  1  0.49978852  0.49692256  0.50238794  1
  Pb  Pb44  1  0.50207728  0.49770655  0.16437327  1
  Pb  Pb45  1  0.83336415  0.83263559  0.16956627  1
  Pb  Pb46  1  0.83366893  0.83104440  0.83170989  1
  Pb  Pb47  1  0.83046240  0.16866020  0.83532690  1
  Pb  Pb48  1  0.16683933  0.50000228  0.50199394  1
  Pb  Pb49  1  0.16793333  0.16634085  0.83300752  1
  Pb  Pb50  1  0.49978857  0.83572132  0.16358921  1
  Pb  Pb51  1  0.49886394  0.83522993  0.50189661  1
  Pb  Pb52  1  0.83336413  0.50289960  0.49930236  1
  Pb  Pb53  1  0.16683934  0.83532727  0.16666902  1
  I  I54  1  0.16478522  0.00408037  0.16468419  1
  I  I55  1  0.16646977  0.00044352  0.50286526  1
  I  I56  1  0.17194132  -0.00247882  0.83252297  1
  I  I57  1  0.16998911  0.32905455  0.17071584  1
  I  I58  1  0.17090167  0.32990299  0.49760807  1
  I  I59  1  0.16798676  0.33547262  0.83434849  1
  I  I60  1  0.16407992  0.66636626  0.16882686  1
  I  I61  1  0.16081814  0.66989967  0.50448148  1
  I  I62  1  0.17142308  0.66720063  0.82760723  1
  I  I63  1  0.50328149  0.00464275  0.16406616  1
  I  I64  1  0.49917774  0.00359223  0.50222356  1
  I  I65  1  0.49414563  0.00046230  0.83377004  1
  I  I66  1  0.49751989  0.32919609  0.16379363  1
  I  I67  1  0.49513185  0.32842308  0.50179925  1
  I  I68  1  0.49931482  0.33302757  0.83404559  1
  I  I69  1  0.50239691  0.66636482  0.16647782  1
  I  I70  1  0.50101178  0.66686397  0.50185375  1
  I  I71  1  0.49995344  0.66653563  0.83205998  1
  I  I72  1  0.83218753  0.00309612  0.16795925  1
  I  I73  1  0.83454737  -0.00256485  0.50013037  1
  I  I74  1  0.83290963  -0.00005458  0.83458538  1
  I  I75  1  0.83262869  0.33230620  0.16228740  1
  I  I76  1  0.83313648  0.33330320  0.50210049  1
  I  I77  1  0.83491812  0.33683657  0.83355782  1
  I  I78  1  0.83398128  0.66351557  0.16071575  1
  I  I79  1  0.84053710  0.67050000  0.50051499  1
  I  I80  1  0.82854207  0.66306019  0.83941283  1
  I  I81  1  0.16798666  0.16768179  0.00213930  1
  I  I82  1  0.17142300  0.16094033  0.33386730  1
  I  I83  1  0.17194164  0.16585645  0.66418787  1
  I  I84  1  0.16998914  0.50404893  -0.00427873  1
  I  I85  1  0.16407977  0.50216037  0.33303298  1
  I  I86  1  0.16478520  0.49801748  0.67074710  1
  I  I87  1  0.17090154  0.83094173  -0.00343031  1
  I  I88  1  0.16081809  0.83781498  0.33656630  1
  I  I89  1  0.16646997  0.83619826  0.66711024  1
  I  I90  1  0.49931482  0.16737864  -0.00030573  1
  I  I91  1  0.49995319  0.16539348  0.33320231  1
  I  I92  1  0.49414587  0.16710362  0.66712894  1
  I  I93  1  0.49751973  0.49712693  -0.00413725  1
  I  I94  1  0.50239723  0.49981169  0.33303154  1
  I  I95  1  0.50328131  0.49739891  0.67130949  1
  I  I96  1  0.49513198  0.83513295  -0.00491024  1
  I  I97  1  0.50101167  0.83518638  0.33353060  1
  I  I98  1  0.49917772  0.83555710  0.67025891  1
  I  I99  1  0.83491825  0.16689146  0.00350327  1
  I  I100  1  0.82854222  0.17274582  0.32972689  1
  I  I101  1  0.83290905  0.16791897  0.66661206  1
  I  I102  1  0.83262895  0.49562010  -0.00102716  1
  I  I103  1  0.83398102  0.49404971  0.33018223  1
  I  I104  1  0.83218773  0.50129268  0.66976273  1
  I  I105  1  0.83313657  0.83543425  -0.00003017  1
  I  I106  1  0.84053722  0.83384831  0.33716668  1
  I  I107  1  0.83454697  0.83346338  0.66410187  1
  I  I108  1  0.00014584  0.17073563  0.17147275  1
  I  I109  1  0.00295459  0.16473833  0.49620790  1
  I  I110  1  -0.00019233  0.16710951  0.83377579  1
  I  I111  1  -0.00324470  0.49342736  0.16009420  1
  I  I112  1  0.00005629  0.49473298  0.50410210  1
  I  I113  1  0.00014582  0.50480609  0.83740224  1
  I  I114  1  0.00005632  0.83743555  0.16139969  1
  I  I115  1  0.00178107  0.83968439  0.50635127  1
  I  I116  1  0.00295457  0.82954092  0.83140485  1
  I  I117  1  0.33366394  0.16459132  0.16617803  1
  I  I118  1  0.33305495  0.16099290  0.49638827  1
  I  I119  1  0.33621280  0.17091987  0.83758660  1
  I  I120  1  0.33333305  0.49890505  0.16557190  1
  I  I121  1  0.33331323  0.50370361  0.50168056  1
  I  I122  1  0.33366395  0.49951136  0.83125797  1
  I  I123  1  0.33331320  0.83501411  0.17037006  1
  I  I124  1  0.33021289  0.83815049  0.50481711  1
  I  I125  1  0.33305496  0.82972160  0.82765976  1
  I  I126  1  0.66630861  0.17083469  0.16543152  1
  I  I127  1  0.66404784  0.16512350  0.50065814  1
  I  I128  1  0.66200760  0.16544668  0.83211367  1
  I  I129  1  0.66987944  0.49333564  0.16000196  1
  I  I130  1  0.66667426  0.50049406  0.50328267  1
  I  I131  1  0.66630863  0.49876481  0.83750136  1
  I  I132  1  0.66667418  0.83661565  0.16716076  1
  I  I133  1  0.66794683  0.83459648  0.50126289  1
  I  I134  1  0.66404779  0.83399194  0.83179021  1
