# generated using pymatgen
data_Cs27Sn13Pb14I81
_symmetry_space_group_name_H-M   'P 1'
_cell_length_a   18.98174966
_cell_length_b   18.98337201
_cell_length_c   18.96648021
_cell_angle_alpha   89.99894091
_cell_angle_beta   90.00179651
_cell_angle_gamma   89.99941445
_symmetry_Int_Tables_number   1
_chemical_formula_structural   Cs27Sn13Pb14I81
_chemical_formula_sum   'Cs27 Sn13 Pb14 I81'
_cell_volume   6834.33624442
_cell_formula_units_Z   1
loop_
 _symmetry_equiv_pos_site_id
 _symmetry_equiv_pos_as_xyz
  1  'x, y, z'
loop_
 _atom_site_type_symbol
 _atom_site_label
 _atom_site_symmetry_multiplicity
 _atom_site_fract_x
 _atom_site_fract_y
 _atom_site_fract_z
 _atom_site_occupancy
  Cs  Cs0  1  -0.01104096  0.00192309  0.00301597  1
  Cs  Cs1  1  0.00240192  -0.00887174  0.33223327  1
  Cs  Cs2  1  -0.00097482  -0.00032284  0.66585274  1
  Cs  Cs3  1  -0.00118719  0.33407561  0.00525352  1
  Cs  Cs4  1  0.00011921  0.33501578  0.32680283  1
  Cs  Cs5  1  0.00421396  0.33069295  0.66806917  1
  Cs  Cs6  1  -0.00201048  0.66397274  0.00403230  1
  Cs  Cs7  1  -0.00562663  0.67264909  0.32801387  1
  Cs  Cs8  1  0.00089142  0.66999582  0.66564964  1
  Cs  Cs9  1  0.33547916  -0.00053343  0.00276043  1
  Cs  Cs10  1  0.33362649  -0.00189467  0.32832142  1
  Cs  Cs11  1  0.33299589  0.00105722  0.66688287  1
  Cs  Cs12  1  0.33297980  0.33464479  -0.00144191  1
  Cs  Cs13  1  0.33283155  0.33165795  0.33498875  1
  Cs  Cs14  1  0.33319672  0.33265838  0.66722180  1
  Cs  Cs15  1  0.33458977  0.66524400  -0.00243840  1
  Cs  Cs16  1  0.33145668  0.67048839  0.33186118  1
  Cs  Cs17  1  0.33394630  0.66609501  0.66824517  1
  Cs  Cs18  1  0.67137069  -0.00023341  0.00569704  1
  Cs  Cs19  1  0.66328107  0.00008563  0.32609115  1
  Cs  Cs20  1  0.66652255  0.00150045  0.66803834  1
  Cs  Cs21  1  0.66716963  0.33196618  -0.00009708  1
  Cs  Cs22  1  0.66918591  0.33610946  0.33616303  1
  Cs  Cs23  1  0.66536728  0.33312338  0.66503756  1
  Cs  Cs24  1  0.66506622  0.66843625  -0.00043534  1
  Cs  Cs25  1  0.67398664  0.66349641  0.33511076  1
  Cs  Cs26  1  0.66639117  0.66561455  0.66481931  1
  Sn  Sn27  1  0.49919713  0.83389719  0.83242739  1
  Sn  Sn28  1  0.83379331  0.16655784  0.50017840  1
  Sn  Sn29  1  0.49989140  0.16563544  0.50089257  1
  Sn  Sn30  1  0.50023255  0.49978982  0.83388009  1
  Sn  Sn31  1  0.16628920  0.49999444  0.83239038  1
  Sn  Sn32  1  0.16647806  0.16731863  0.50053383  1
  Sn  Sn33  1  0.83355014  0.49983317  0.83236317  1
  Sn  Sn34  1  0.16655331  0.49985287  0.50048322  1
  Sn  Sn35  1  0.16719414  0.83389867  0.83326846  1
  Sn  Sn36  1  0.49945619  0.16628293  0.83284619  1
  Sn  Sn37  1  0.49947382  0.49974877  0.16627864  1
  Sn  Sn38  1  0.49981865  0.83419914  0.50100505  1
  Sn  Sn39  1  0.16726073  0.16609074  0.83332138  1
  Pb  Pb40  1  0.16864358  0.83363632  0.50180864  1
  Pb  Pb41  1  0.16690961  0.16661663  0.16636480  1
  Pb  Pb42  1  0.83340372  0.16867085  0.83191744  1
  Pb  Pb43  1  0.83331216  0.16699459  0.17053204  1
  Pb  Pb44  1  0.83051213  0.49976809  0.16402319  1
  Pb  Pb45  1  0.83302083  0.83315816  0.16659908  1
  Pb  Pb46  1  0.49821272  0.49994175  0.50041398  1
  Pb  Pb47  1  0.16703280  0.83335059  0.16249932  1
  Pb  Pb48  1  0.49979279  0.16900909  0.16659148  1
  Pb  Pb49  1  0.16874393  0.50000067  0.16667146  1
  Pb  Pb50  1  0.83013204  0.83608030  0.50056325  1
  Pb  Pb51  1  0.83691975  0.49808669  0.50229405  1
  Pb  Pb52  1  0.83305844  0.83094374  0.83303063  1
  Pb  Pb53  1  0.49988758  0.83071065  0.16645505  1
  I  I54  1  0.16805261  -0.00000370  0.16874514  1
  I  I55  1  0.16495354  0.00339711  0.50475956  1
  I  I56  1  0.17505500  0.00099193  0.82810526  1
  I  I57  1  0.16765958  0.33341836  0.16306851  1
  I  I58  1  0.16997689  0.33236175  0.50849830  1
  I  I59  1  0.17033798  0.33344439  0.82891847  1
  I  I60  1  0.16833646  0.66648190  0.16813201  1
  I  I61  1  0.17061009  0.66429118  0.50591129  1
  I  I62  1  0.17055776  0.66565338  0.82939724  1
  I  I63  1  0.50085254  -0.00001780  0.16474051  1
  I  I64  1  0.49877388  0.00133035  0.50829019  1
  I  I65  1  0.49255039  0.00056435  0.82734476  1
  I  I66  1  0.49929929  0.33650821  0.16077489  1
  I  I67  1  0.50109068  0.33032167  0.50292983  1
  I  I68  1  0.49772169  0.33330934  0.83309352  1
  I  I69  1  0.49866905  0.66318181  0.16065560  1
  I  I70  1  0.49700107  0.66862098  0.50389347  1
  I  I71  1  0.49727458  0.66629498  0.83346024  1
  I  I72  1  0.83185715  0.00027289  0.16411624  1
  I  I73  1  0.83938541  0.00414887  0.50323156  1
  I  I74  1  0.83366196  0.00028792  0.83278518  1
  I  I75  1  0.83265484  0.33360398  0.16579719  1
  I  I76  1  0.82616311  0.33031952  0.50237463  1
  I  I77  1  0.83192310  0.33643669  0.83158002  1
  I  I78  1  0.83261260  0.66604487  0.16724653  1
  I  I79  1  0.83248908  0.66657213  0.49999490  1
  I  I80  1  0.83260669  0.66283959  0.83305826  1
  I  I81  1  0.17287298  0.16878153  -0.00463065  1
  I  I82  1  0.16823472  0.17286324  0.33747962  1
  I  I83  1  0.16822296  0.16870182  0.66722790  1
  I  I84  1  0.16559383  0.49935881  -0.00426057  1
  I  I85  1  0.17053962  0.49301517  0.33656579  1
  I  I86  1  0.16985638  0.49831567  0.66860221  1
  I  I87  1  0.17524214  0.83132932  -0.00601212  1
  I  I88  1  0.16840338  0.83304435  0.33362245  1
  I  I89  1  0.16942792  0.83193193  0.67027141  1
  I  I90  1  0.49502349  0.16521654  -0.00397327  1
  I  I91  1  0.49911924  0.16363374  0.33714501  1
  I  I92  1  0.49920307  0.16869068  0.66726554  1
  I  I93  1  0.49794548  0.50020971  -0.00337090  1
  I  I94  1  0.49716603  0.49915354  0.33183410  1
  I  I95  1  0.50093547  0.50006205  0.67017502  1
  I  I96  1  0.49596930  0.83466033  -0.00399120  1
  I  I97  1  0.49962943  0.83801038  0.33641810  1
  I  I98  1  0.49670372  0.83174684  0.66826637  1
  I  I99  1  0.83317593  0.16736492  -0.00015065  1
  I  I100  1  0.83134350  0.16903888  0.33865748  1
  I  I101  1  0.83244694  0.16819666  0.66403087  1
  I  I102  1  0.83908496  0.49868438  -0.00435050  1
  I  I103  1  0.83186676  0.49858469  0.33361901  1
  I  I104  1  0.82633441  0.49984695  0.67017848  1
  I  I105  1  0.83180946  0.83407404  -0.00068755  1
  I  I106  1  0.83200659  0.83263634  0.33391319  1
  I  I107  1  0.83437860  0.83222341  0.66684421  1
  I  I108  1  0.00009240  0.16862025  0.16368963  1
  I  I109  1  0.00155953  0.17287408  0.50601902  1
  I  I110  1  0.00334414  0.16697418  0.82882410  1
  I  I111  1  -0.00002304  0.49982848  0.16573295  1
  I  I112  1  0.00487163  0.49454553  0.50685320  1
  I  I113  1  0.00151062  0.49962517  0.82782997  1
  I  I114  1  0.00020403  0.83234095  0.16660903  1
  I  I115  1  0.00027708  0.83388542  0.50111152  1
  I  I116  1  0.00334641  0.83336020  0.83282738  1
  I  I117  1  0.33351467  0.16753543  0.17052004  1
  I  I118  1  0.33348637  0.16795003  0.50494456  1
  I  I119  1  0.33378669  0.17112800  0.82619759  1
  I  I120  1  0.33630708  0.49973050  0.15899303  1
  I  I121  1  0.33051511  0.49461130  0.50612165  1
  I  I122  1  0.33346463  0.50005012  0.83384066  1
  I  I123  1  0.33372696  0.83294006  0.16904758  1
  I  I124  1  0.33664827  0.83754436  0.50303944  1
  I  I125  1  0.33434834  0.82896520  0.82941224  1
  I  I126  1  0.66630684  0.16746679  0.16517655  1
  I  I127  1  0.66499806  0.16322533  0.50494183  1
  I  I128  1  0.66336815  0.16784337  0.82896111  1
  I  I129  1  0.66261326  0.49990321  0.16208813  1
  I  I130  1  0.66652916  0.49918786  0.50038615  1
  I  I131  1  0.66506089  0.49974997  0.83792111  1
  I  I132  1  0.66591247  0.83287504  0.16433694  1
  I  I133  1  0.66182071  0.83574096  0.50737735  1
  I  I134  1  0.66274559  0.83273087  0.83022203  1
