# generated using pymatgen
data_Cs27Sn14Pb13I81
_symmetry_space_group_name_H-M   'P 1'
_cell_length_a   18.96468882
_cell_length_b   18.96139119
_cell_length_c   18.95610027
_cell_angle_alpha   90.00120126
_cell_angle_beta   89.99944556
_cell_angle_gamma   89.99912669
_symmetry_Int_Tables_number   1
_chemical_formula_structural   Cs27Sn14Pb13I81
_chemical_formula_sum   'Cs27 Sn14 Pb13 I81'
_cell_volume   6816.55457615
_cell_formula_units_Z   1
loop_
 _symmetry_equiv_pos_site_id
 _symmetry_equiv_pos_as_xyz
  1  'x, y, z'
loop_
 _atom_site_type_symbol
 _atom_site_label
 _atom_site_symmetry_multiplicity
 _atom_site_fract_x
 _atom_site_fract_y
 _atom_site_fract_z
 _atom_site_occupancy
  Cs  Cs0  1  0.00518045  0.00289451  -0.00644679  1
  Cs  Cs1  1  0.00342141  -0.00189086  0.33222205  1
  Cs  Cs2  1  -0.00198649  0.00154064  0.67310955  1
  Cs  Cs3  1  0.00152808  0.33114011  0.00056449  1
  Cs  Cs4  1  -0.00199288  0.33554303  0.33305572  1
  Cs  Cs5  1  0.00083794  0.33371592  0.66722963  1
  Cs  Cs6  1  -0.00165947  0.66655012  -0.00156481  1
  Cs  Cs7  1  -0.00242934  0.66586668  0.33524747  1
  Cs  Cs8  1  0.00417652  0.66440777  0.66493923  1
  Cs  Cs9  1  0.32752664  -0.00547034  0.00077230  1
  Cs  Cs10  1  0.33020948  -0.00089111  0.33471439  1
  Cs  Cs11  1  0.33384506  -0.00104962  0.66165216  1
  Cs  Cs12  1  0.33454466  0.33344419  0.00014889  1
  Cs  Cs13  1  0.33546516  0.33203921  0.33226994  1
  Cs  Cs14  1  0.33446037  0.33506369  0.66844344  1
  Cs  Cs15  1  0.33424334  0.67134345  -0.00102201  1
  Cs  Cs16  1  0.33398146  0.66812014  0.33377812  1
  Cs  Cs17  1  0.33183995  0.66557926  0.66657821  1
  Cs  Cs18  1  0.66693398  -0.00163014  -0.00235962  1
  Cs  Cs19  1  0.66605699  0.00131933  0.33415546  1
  Cs  Cs20  1  0.66929287  0.00317938  0.66829598  1
  Cs  Cs21  1  0.66539518  0.33614059  0.00188861  1
  Cs  Cs22  1  0.66624881  0.33269218  0.33237005  1
  Cs  Cs23  1  0.66557847  0.33039000  0.66635481  1
  Cs  Cs24  1  0.66555812  0.66496533  0.00080111  1
  Cs  Cs25  1  0.66803936  0.66637045  0.33196509  1
  Cs  Cs26  1  0.66552280  0.66737230  0.66867100  1
  Sn  Sn27  1  0.16693371  0.50015238  0.16668566  1
  Sn  Sn28  1  0.83317496  0.83383313  0.16691812  1
  Sn  Sn29  1  0.50069620  0.83262477  0.49964839  1
  Sn  Sn30  1  0.50045227  0.16674090  0.16548864  1
  Sn  Sn31  1  0.83262948  0.49996310  0.83382710  1
  Sn  Sn32  1  0.49980543  0.16695970  0.83480633  1
  Sn  Sn33  1  0.83338726  0.49994130  0.16595575  1
  Sn  Sn34  1  0.16615782  0.83421043  0.49971083  1
  Sn  Sn35  1  0.50090698  0.49936166  0.83364954  1
  Sn  Sn36  1  0.49970606  0.49964735  0.16654875  1
  Sn  Sn37  1  0.50036795  0.50071921  0.49983766  1
  Sn  Sn38  1  0.83318938  0.83333997  0.49955115  1
  Sn  Sn39  1  0.83273463  0.16630176  0.16679586  1
  Sn  Sn40  1  0.16631358  0.16668485  0.49994988  1
  Pb  Pb41  1  0.83324202  0.83084689  0.83355370  1
  Pb  Pb42  1  0.83576314  0.16425055  0.49781275  1
  Pb  Pb43  1  0.16985505  0.16697186  0.83076121  1
  Pb  Pb44  1  0.16897968  0.50002667  0.49807198  1
  Pb  Pb45  1  0.16659768  0.83320475  0.83034946  1
  Pb  Pb46  1  0.50174221  0.83373018  0.16846197  1
  Pb  Pb47  1  0.16710221  0.49991641  0.83611194  1
  Pb  Pb48  1  0.83114091  0.50149007  0.50011373  1
  Pb  Pb49  1  0.16381293  0.83087900  0.16845850  1
  Pb  Pb50  1  0.16696567  0.16835418  0.16809608  1
  Pb  Pb51  1  0.50004371  0.83337423  0.83081869  1
  Pb  Pb52  1  0.49896121  0.16672203  0.49959580  1
  Pb  Pb53  1  0.83122048  0.16931410  0.83601465  1
  I  I54  1  0.16703545  -0.00019362  0.16750173  1
  I  I55  1  0.17063438  -0.00113643  0.49769996  1
  I  I56  1  0.16785373  0.00024757  0.83627401  1
  I  I57  1  0.16338221  0.33636896  0.17056503  1
  I  I58  1  0.17005733  0.33140119  0.49783071  1
  I  I59  1  0.16473471  0.33355650  0.82878608  1
  I  I60  1  0.16893774  0.66287062  0.16925391  1
  I  I61  1  0.16551639  0.66935450  0.49807888  1
  I  I62  1  0.16862824  0.66620694  0.83116693  1
  I  I63  1  0.50481474  0.00297999  0.16491872  1
  I  I64  1  0.50051990  -0.00252368  0.49956994  1
  I  I65  1  0.49963791  0.00304453  0.83616177  1
  I  I66  1  0.50392221  0.33472174  0.16907024  1
  I  I67  1  0.49764236  0.33602644  0.49938241  1
  I  I68  1  0.50350550  0.33487855  0.83148618  1
  I  I69  1  0.50088962  0.66341704  0.16524148  1
  I  I70  1  0.49808119  0.66612094  0.49920479  1
  I  I71  1  0.50347580  0.66305544  0.83585974  1
  I  I72  1  0.82738411  0.00013333  0.17378832  1
  I  I73  1  0.82744450  -0.00409115  0.49462301  1
  I  I74  1  0.83181308  0.00028434  0.83344191  1
  I  I75  1  0.83232445  0.33440897  0.16289386  1
  I  I76  1  0.83372431  0.33336683  0.49895413  1
  I  I77  1  0.83096823  0.33744020  0.83778884  1
  I  I78  1  0.83298154  0.66550847  0.16773540  1
  I  I79  1  0.83715458  0.66972286  0.49424296  1
  I  I80  1  0.82623744  0.66275983  0.83920019  1
  I  I81  1  0.16501259  0.16844947  0.00016657  1
  I  I82  1  0.16997994  0.16288356  0.33589310  1
  I  I83  1  0.16837442  0.16259419  0.66272524  1
  I  I84  1  0.16962244  0.49853159  0.00422590  1
  I  I85  1  0.16551387  0.50024861  0.33016217  1
  I  I86  1  0.16678546  0.50105480  0.66638759  1
  I  I87  1  0.16600908  0.83229549  0.00045052  1
  I  I88  1  0.16944441  0.83609417  0.33673487  1
  I  I89  1  0.16505122  0.83502760  0.66159135  1
  I  I90  1  0.50414447  0.17622855  0.00117091  1
  I  I91  1  0.50248739  0.17084451  0.33043439  1
  I  I92  1  0.49720840  0.17039222  0.66859242  1
  I  I93  1  0.50134358  0.49503802  0.00098420  1
  I  I94  1  0.50018505  0.49971341  0.33215661  1
  I  I95  1  0.50390004  0.49994605  0.66700465  1
  I  I96  1  0.50220390  0.83084825  0.00022875  1
  I  I97  1  0.49861005  0.82926399  0.33679867  1
  I  I98  1  0.50132085  0.82936060  0.66225262  1
  I  I99  1  0.83303211  0.16236082  0.00443969  1
  I  I100  1  0.82642615  0.17298639  0.32944317  1
  I  I101  1  0.83260312  0.16640932  0.66683003  1
  I  I102  1  0.82863424  0.50236450  0.00200784  1
  I  I103  1  0.83225331  0.49916645  0.32996819  1
  I  I104  1  0.82831774  0.50249661  0.66909526  1
  I  I105  1  0.83155949  0.83301580  0.00337504  1
  I  I106  1  0.83291600  0.82999627  0.33306274  1
  I  I107  1  0.83343547  0.83125863  0.66344910  1
  I  I108  1  -0.00277009  0.16867570  0.17048310  1
  I  I109  1  0.00339392  0.16307278  0.49712516  1
  I  I110  1  -0.00018345  0.16757128  0.83338786  1
  I  I111  1  -0.00162151  0.50017758  0.16374720  1
  I  I112  1  -0.00009261  0.50126657  0.49942824  1
  I  I113  1  -0.00296917  0.50185324  0.83763955  1
  I  I114  1  -0.00436843  0.83232853  0.17318048  1
  I  I115  1  -0.00034834  0.83664993  0.49450634  1
  I  I116  1  -0.00037765  0.83111061  0.83179314  1
  I  I117  1  0.33658168  0.17275951  0.16546580  1
  I  I118  1  0.33134539  0.16131455  0.49776751  1
  I  I119  1  0.33793163  0.17471374  0.83934319  1
  I  I120  1  0.33513114  0.49482035  0.16821485  1
  I  I121  1  0.33730410  0.50460610  0.49985312  1
  I  I122  1  0.33720641  0.49650800  0.83292052  1
  I  I123  1  0.33330256  0.83268796  0.16897939  1
  I  I124  1  0.33365794  0.83326072  0.50090666  1
  I  I125  1  0.33367950  0.83069447  0.83241254  1
  I  I126  1  0.66616748  0.17190493  0.16544002  1
  I  I127  1  0.66669445  0.16557833  0.50104399  1
  I  I128  1  0.66313248  0.16877443  0.83205074  1
  I  I129  1  0.66642767  0.49987315  0.16643065  1
  I  I130  1  0.66278672  0.50420579  0.49583194  1
  I  I131  1  0.66548884  0.49791162  0.83789341  1
  I  I132  1  0.66988524  0.82853056  0.17319149  1
  I  I133  1  0.66662313  0.82757209  0.49586113  1
  I  I134  1  0.66661297  0.83446910  0.82932070  1
