# generated using pymatgen
data_Cs27Sn14Pb13I81
_symmetry_space_group_name_H-M   'P 1'
_cell_length_a   18.97435443
_cell_length_b   18.97921526
_cell_length_c   18.97332869
_cell_angle_alpha   90.00079863
_cell_angle_beta   90.00025503
_cell_angle_gamma   89.99875710
_symmetry_Int_Tables_number   1
_chemical_formula_structural   Cs27Sn14Pb13I81
_chemical_formula_sum   'Cs27 Sn14 Pb13 I81'
_cell_volume   6832.64395570
_cell_formula_units_Z   1
loop_
 _symmetry_equiv_pos_site_id
 _symmetry_equiv_pos_as_xyz
  1  'x, y, z'
loop_
 _atom_site_type_symbol
 _atom_site_label
 _atom_site_symmetry_multiplicity
 _atom_site_fract_x
 _atom_site_fract_y
 _atom_site_fract_z
 _atom_site_occupancy
  Cs  Cs0  1  -0.00287406  0.00273786  0.00062865  1
  Cs  Cs1  1  0.00060592  -0.00133426  0.33290662  1
  Cs  Cs2  1  0.00121485  -0.00140102  0.66564697  1
  Cs  Cs3  1  -0.00119720  0.33034222  -0.00330272  1
  Cs  Cs4  1  -0.00021956  0.33445913  0.33128713  1
  Cs  Cs5  1  -0.00017793  0.33620097  0.67394829  1
  Cs  Cs6  1  0.00120962  0.66699626  0.00345764  1
  Cs  Cs7  1  0.00095968  0.66752377  0.33353245  1
  Cs  Cs8  1  -0.00221652  0.66604534  0.66617945  1
  Cs  Cs9  1  0.33462879  0.00079124  0.00000898  1
  Cs  Cs10  1  0.33237882  0.00021713  0.33452880  1
  Cs  Cs11  1  0.33228310  0.00180846  0.66330378  1
  Cs  Cs12  1  0.33264441  0.33303378  -0.00242016  1
  Cs  Cs13  1  0.33433627  0.33156255  0.33349191  1
  Cs  Cs14  1  0.33497250  0.33221443  0.66962006  1
  Cs  Cs15  1  0.34033528  0.66582552  0.00078616  1
  Cs  Cs16  1  0.32995022  0.66836405  0.33030732  1
  Cs  Cs17  1  0.33163081  0.66734349  0.66991931  1
  Cs  Cs18  1  0.66780829  0.00049082  -0.00389304  1
  Cs  Cs19  1  0.66927644  0.00113244  0.33406196  1
  Cs  Cs20  1  0.66591748  -0.00196840  0.66584583  1
  Cs  Cs21  1  0.66872098  0.32879307  -0.00032023  1
  Cs  Cs22  1  0.66515431  0.33474353  0.33635530  1
  Cs  Cs23  1  0.66474323  0.34475762  0.66142419  1
  Cs  Cs24  1  0.65601692  0.66862754  -0.00528733  1
  Cs  Cs25  1  0.66754958  0.66375255  0.33193612  1
  Cs  Cs26  1  0.66929077  0.66015252  0.67401149  1
  Sn  Sn27  1  0.50014659  0.16638126  0.83360778  1
  Sn  Sn28  1  0.16741160  0.16659013  0.16730608  1
  Sn  Sn29  1  0.83398043  0.50137808  0.16668846  1
  Sn  Sn30  1  0.16645331  0.83321117  0.49999775  1
  Sn  Sn31  1  0.83315583  0.83376180  0.49917088  1
  Sn  Sn32  1  0.49931687  0.16619234  0.16606335  1
  Sn  Sn33  1  0.16589398  0.49987365  0.16753279  1
  Sn  Sn34  1  0.16616282  0.83347876  0.16634248  1
  Sn  Sn35  1  0.16634493  0.83359430  0.83394317  1
  Sn  Sn36  1  0.16662342  0.49972926  0.49932905  1
  Sn  Sn37  1  0.83459285  0.16634992  0.50008056  1
  Sn  Sn38  1  0.16543925  0.16723394  0.49938939  1
  Sn  Sn39  1  0.50057351  0.83282325  0.49967203  1
  Sn  Sn40  1  0.83368622  0.83223307  0.16726432  1
  Pb  Pb41  1  0.83371732  0.50030759  0.83756625  1
  Pb  Pb42  1  0.49966599  0.49702780  0.83347713  1
  Pb  Pb43  1  0.49977145  0.49730132  0.16681664  1
  Pb  Pb44  1  0.16763180  0.16463641  0.83325977  1
  Pb  Pb45  1  0.49753553  0.83521357  0.83056762  1
  Pb  Pb46  1  0.83052678  0.16650826  0.82910986  1
  Pb  Pb47  1  0.83556853  0.83339355  0.83361059  1
  Pb  Pb48  1  0.49667855  0.50358371  0.49952965  1
  Pb  Pb49  1  0.50045644  0.83543272  0.16845747  1
  Pb  Pb50  1  0.83374041  0.16634820  0.16833558  1
  Pb  Pb51  1  0.16657049  0.50272338  0.83415595  1
  Pb  Pb52  1  0.83579652  0.50051337  0.49823190  1
  Pb  Pb53  1  0.49997938  0.16531258  0.49975261  1
  I  I54  1  0.16705165  -0.00047390  0.16973138  1
  I  I55  1  0.16696275  -0.00067848  0.49782932  1
  I  I56  1  0.16794752  -0.00316164  0.83198498  1
  I  I57  1  0.16708408  0.33299575  0.17413430  1
  I  I58  1  0.16288884  0.33232656  0.49221125  1
  I  I59  1  0.16898030  0.33319281  0.83244828  1
  I  I60  1  0.16186977  0.66756776  0.17028458  1
  I  I61  1  0.16752152  0.66811420  0.49742365  1
  I  I62  1  0.16700246  0.67075334  0.83101572  1
  I  I63  1  0.49454841  0.00321841  0.16504115  1
  I  I64  1  0.49442465  -0.00246866  0.49932056  1
  I  I65  1  0.49863388  0.00268992  0.83784199  1
  I  I66  1  0.49572855  0.32923168  0.16453997  1
  I  I67  1  0.50080309  0.33336165  0.50106233  1
  I  I68  1  0.49680757  0.32906315  0.83634356  1
  I  I69  1  0.49752883  0.66692273  0.16820173  1
  I  I70  1  0.49997974  0.67149833  0.49877866  1
  I  I71  1  0.49923821  0.66700458  0.83221220  1
  I  I72  1  0.83714540  -0.00280244  0.16953035  1
  I  I73  1  0.83796090  -0.00138389  0.49407152  1
  I  I74  1  0.83349798  0.00003391  0.83866827  1
  I  I75  1  0.83657293  0.33516629  0.16851590  1
  I  I76  1  0.83632090  0.33098847  0.49797715  1
  I  I77  1  0.83394296  0.33315790  0.83349586  1
  I  I78  1  0.84333168  0.66807145  0.17386941  1
  I  I79  1  0.83494682  0.67001236  0.49781041  1
  I  I80  1  0.83369489  0.66697921  0.82678553  1
  I  I81  1  0.16896218  0.16644370  0.00331146  1
  I  I82  1  0.16935659  0.16243566  0.33327069  1
  I  I83  1  0.16562989  0.16525353  0.66324964  1
  I  I84  1  0.16283055  0.49907314  0.00412291  1
  I  I85  1  0.16372455  0.50398465  0.33270120  1
  I  I86  1  0.16773892  0.50008452  0.66357376  1
  I  I87  1  0.16199905  0.83409749  0.00179676  1
  I  I88  1  0.16655907  0.83369192  0.33364916  1
  I  I89  1  0.16759900  0.83436160  0.66447860  1
  I  I90  1  0.49311729  0.16588107  0.00139169  1
  I  I91  1  0.49731713  0.16555739  0.33110569  1
  I  I92  1  0.49876421  0.16298339  0.66823384  1
  I  I93  1  0.49771699  0.50389592  0.00039815  1
  I  I94  1  0.50178912  0.49538787  0.33327989  1
  I  I95  1  0.49860560  0.49706481  0.66624125  1
  I  I96  1  0.49940429  0.83296432  0.00006812  1
  I  I97  1  0.49394793  0.83746714  0.33627208  1
  I  I98  1  0.49843298  0.83800154  0.66264751  1
  I  I99  1  0.83497613  0.16696133  0.00013731  1
  I  I100  1  0.83276754  0.16408315  0.33625975  1
  I  I101  1  0.83965492  0.15867225  0.66119058  1
  I  I102  1  0.84206581  0.50422764  0.00567598  1
  I  I103  1  0.83620471  0.50124127  0.33030755  1
  I  I104  1  0.83362567  0.49939432  0.66638332  1
  I  I105  1  0.83891038  0.83022297  0.00377017  1
  I  I106  1  0.83888425  0.83419869  0.33377470  1
  I  I107  1  0.83494509  0.83875423  0.66299286  1
  I  I108  1  0.00329532  0.16604143  0.16960220  1
  I  I109  1  0.00181234  0.16059399  0.49359318  1
  I  I110  1  -0.00006412  0.16607566  0.83561185  1
  I  I111  1  0.00173846  0.49959738  0.17154982  1
  I  I112  1  0.00390872  0.50439227  0.49721523  1
  I  I113  1  0.00046431  0.49834611  0.82999501  1
  I  I114  1  0.00162549  0.83489104  0.17104553  1
  I  I115  1  0.00130141  0.83466259  0.49920700  1
  I  I116  1  0.00367154  0.83505682  0.82853061  1
  I  I117  1  0.33102640  0.16605285  0.16936693  1
  I  I118  1  0.33007457  0.16480099  0.49890509  1
  I  I119  1  0.33546016  0.16436986  0.83253187  1
  I  I120  1  0.32947212  0.50341591  0.17035384  1
  I  I121  1  0.32831261  0.49823221  0.49299634  1
  I  I122  1  0.33284917  0.50128324  0.83450751  1
  I  I123  1  0.32981103  0.83122770  0.16830824  1
  I  I124  1  0.33102023  0.83467771  0.49972482  1
  I  I125  1  0.32960329  0.83387996  0.83364033  1
  I  I126  1  0.66477393  0.16618628  0.16508863  1
  I  I127  1  0.66901955  0.16025975  0.49906862  1
  I  I128  1  0.66291562  0.16428609  0.84185438  1
  I  I129  1  0.66969773  0.50368861  0.16719030  1
  I  I130  1  0.66695240  0.49823714  0.49870424  1
  I  I131  1  0.66667171  0.50081465  0.83289618  1
  I  I132  1  0.66977467  0.83083003  0.17283131  1
  I  I133  1  0.66802907  0.84176159  0.49392307  1
  I  I134  1  0.66647233  0.83422517  0.83311926  1
