# generated using pymatgen
data_Cs27Sn14Pb13I81
_symmetry_space_group_name_H-M   'P 1'
_cell_length_a   18.96609741
_cell_length_b   18.95942161
_cell_length_c   18.95991769
_cell_angle_alpha   89.99942139
_cell_angle_beta   89.99986221
_cell_angle_gamma   89.99950776
_symmetry_Int_Tables_number   1
_chemical_formula_structural   Cs27Sn14Pb13I81
_chemical_formula_sum   'Cs27 Sn14 Pb13 I81'
_cell_volume   6817.72545218
_cell_formula_units_Z   1
loop_
 _symmetry_equiv_pos_site_id
 _symmetry_equiv_pos_as_xyz
  1  'x, y, z'
loop_
 _atom_site_type_symbol
 _atom_site_label
 _atom_site_symmetry_multiplicity
 _atom_site_fract_x
 _atom_site_fract_y
 _atom_site_fract_z
 _atom_site_occupancy
  Cs  Cs0  1  -0.00014765  -0.00313986  -0.00352315  1
  Cs  Cs1  1  0.00275359  0.00150420  0.33720197  1
  Cs  Cs2  1  0.00793438  -0.00179525  0.66789803  1
  Cs  Cs3  1  -0.00120598  0.33292786  0.00155842  1
  Cs  Cs4  1  0.00131850  0.33543540  0.33163126  1
  Cs  Cs5  1  -0.00045742  0.33235866  0.66637596  1
  Cs  Cs6  1  -0.00233508  0.67230721  0.00545559  1
  Cs  Cs7  1  0.00692202  0.66484166  0.32861902  1
  Cs  Cs8  1  -0.00103702  0.66914410  0.66625752  1
  Cs  Cs9  1  0.33287040  0.00127415  0.00106527  1
  Cs  Cs10  1  0.33297986  -0.00181007  0.33264632  1
  Cs  Cs11  1  0.32757833  0.00088866  0.66625120  1
  Cs  Cs12  1  0.33504704  0.33202557  -0.00169257  1
  Cs  Cs13  1  0.33302991  0.33341636  0.33355186  1
  Cs  Cs14  1  0.33331946  0.33400104  0.66819421  1
  Cs  Cs15  1  0.33604726  0.66717768  0.00173563  1
  Cs  Cs16  1  0.32819109  0.66849417  0.33321255  1
  Cs  Cs17  1  0.33567876  0.66440002  0.66534636  1
  Cs  Cs18  1  0.66638196  -0.00023868  0.00052740  1
  Cs  Cs19  1  0.66589603  0.00061629  0.33554269  1
  Cs  Cs20  1  0.66719310  -0.00137096  0.66412613  1
  Cs  Cs21  1  0.66616992  0.33323448  -0.00132070  1
  Cs  Cs22  1  0.66715861  0.33170088  0.33402804  1
  Cs  Cs23  1  0.66637574  0.33534675  0.66741262  1
  Cs  Cs24  1  0.66745638  0.66797034  0.00005859  1
  Cs  Cs25  1  0.66677006  0.66744690  0.33511533  1
  Cs  Cs26  1  0.66640764  0.66587829  0.66693167  1
  Sn  Sn27  1  0.83258937  0.50093535  0.50050349  1
  Sn  Sn28  1  0.50032397  0.49995504  0.83336862  1
  Sn  Sn29  1  0.16672296  0.16688565  0.16641881  1
  Sn  Sn30  1  0.83263903  0.83223438  0.49999835  1
  Sn  Sn31  1  0.83244721  0.16715173  0.83379053  1
  Sn  Sn32  1  0.16600124  0.50031228  0.83361888  1
  Sn  Sn33  1  0.50050827  0.49936421  0.16685787  1
  Sn  Sn34  1  0.83313580  0.16675288  0.16581431  1
  Sn  Sn35  1  0.50031251  0.83362595  0.83236280  1
  Sn  Sn36  1  0.50087814  0.83245816  0.50107038  1
  Sn  Sn37  1  0.50087833  0.50068976  0.49970421  1
  Sn  Sn38  1  0.50093227  0.16627914  0.83372999  1
  Sn  Sn39  1  0.83347692  0.49963962  0.83294997  1
  Sn  Sn40  1  0.50039421  0.16759025  0.16598051  1
  Pb  Pb41  1  0.83308235  0.83640850  0.16990485  1
  Pb  Pb42  1  0.83326929  0.16701311  0.50089696  1
  Pb  Pb43  1  0.49983498  0.16681184  0.50049330  1
  Pb  Pb44  1  0.16982631  0.83016184  0.83347396  1
  Pb  Pb45  1  0.83132410  0.49847875  0.16670613  1
  Pb  Pb46  1  0.16673501  0.16718766  0.49727001  1
  Pb  Pb47  1  0.16939850  0.49826110  0.16395916  1
  Pb  Pb48  1  0.50021932  0.83343422  0.16701654  1
  Pb  Pb49  1  0.16645861  0.16850841  0.83495080  1
  Pb  Pb50  1  0.16664508  0.83609885  0.16630251  1
  Pb  Pb51  1  0.83140321  0.83343731  0.83161504  1
  Pb  Pb52  1  0.16647900  0.49991918  0.50215378  1
  Pb  Pb53  1  0.16702187  0.83289311  0.50016320  1
  I  I54  1  0.17105443  0.00462568  0.16554949  1
  I  I55  1  0.16656675  -0.00012350  0.50013447  1
  I  I56  1  0.16671868  0.00011890  0.83443825  1
  I  I57  1  0.16531067  0.33021285  0.16607278  1
  I  I58  1  0.16720364  0.33387730  0.50051336  1
  I  I59  1  0.17230256  0.33629621  0.83372135  1
  I  I60  1  0.16852785  0.66621899  0.16687227  1
  I  I61  1  0.16741317  0.66634247  0.49931395  1
  I  I62  1  0.16666206  0.66210075  0.83253948  1
  I  I63  1  0.49955695  0.00361701  0.16368218  1
  I  I64  1  0.50422467  -0.00290655  0.50217971  1
  I  I65  1  0.50491325  0.00105881  0.83431564  1
  I  I66  1  0.50007859  0.33278456  0.16375949  1
  I  I67  1  0.50421385  0.33679720  0.50190110  1
  I  I68  1  0.50015582  0.33414764  0.83401027  1
  I  I69  1  0.50035822  0.66351945  0.16317161  1
  I  I70  1  0.50373870  0.66552499  0.50375473  1
  I  I71  1  0.49949719  0.66514534  0.83320148  1
  I  I72  1  0.82960753  0.00494605  0.16123584  1
  I  I73  1  0.82768506  -0.00255626  0.49814654  1
  I  I74  1  0.82829134  0.00299871  0.83644062  1
  I  I75  1  0.83378813  0.33002789  0.16753115  1
  I  I76  1  0.82792808  0.33661358  0.50146232  1
  I  I77  1  0.82846007  0.33404828  0.83160888  1
  I  I78  1  0.83123487  0.66650718  0.16381363  1
  I  I79  1  0.82749270  0.66525141  0.50676855  1
  I  I80  1  0.83169865  0.66339996  0.83075103  1
  I  I81  1  0.16851462  0.16910354  0.00281748  1
  I  I82  1  0.16746310  0.16739913  0.32879212  1
  I  I83  1  0.16677245  0.16658362  0.66722166  1
  I  I84  1  0.16745865  0.49810502  -0.00389613  1
  I  I85  1  0.16701644  0.49832184  0.33292442  1
  I  I86  1  0.17262607  0.49805006  0.67012839  1
  I  I87  1  0.16829901  0.83240446  -0.00040233  1
  I  I88  1  0.16912819  0.83428505  0.33342809  1
  I  I89  1  0.16547987  0.83606554  0.66688516  1
  I  I90  1  0.50012180  0.16987901  -0.00047856  1
  I  I91  1  0.50044302  0.16972991  0.33018160  1
  I  I92  1  0.50542388  0.16958446  0.67037104  1
  I  I93  1  0.49948012  0.49903471  -0.00138762  1
  I  I94  1  0.50481030  0.49884048  0.33390297  1
  I  I95  1  0.50009174  0.50008655  0.66769590  1
  I  I96  1  0.49927745  0.83081577  -0.00298194  1
  I  I97  1  0.50337815  0.83103161  0.33660664  1
  I  I98  1  0.50389635  0.82988766  0.66685745  1
  I  I99  1  0.83172057  0.17266594  -0.00092143  1
  I  I100  1  0.83216261  0.16636743  0.33061377  1
  I  I101  1  0.82652945  0.16906579  0.67028809  1
  I  I102  1  0.83157944  0.49677055  -0.00326464  1
  I  I103  1  0.82771661  0.50108501  0.33609943  1
  I  I104  1  0.82846511  0.49746406  0.66768433  1
  I  I105  1  0.83225614  0.83141699  -0.00019602  1
  I  I106  1  0.82505057  0.82860545  0.33792002  1
  I  I107  1  0.82948750  0.83376679  0.66362421  1
  I  I108  1  -0.00085980  0.16627698  0.16334370  1
  I  I109  1  -0.00050309  0.16608910  0.50024582  1
  I  I110  1  -0.00315816  0.17156289  0.83657892  1
  I  I111  1  -0.00010515  0.49734801  0.16727772  1
  I  I112  1  -0.00370467  0.50257777  0.50430074  1
  I  I113  1  -0.00165380  0.49316293  0.82774006  1
  I  I114  1  -0.00032197  0.83363084  0.16814676  1
  I  I115  1  -0.00326107  0.83040175  0.49947829  1
  I  I116  1  -0.00023616  0.83446418  0.83131753  1
  I  I117  1  0.33505905  0.17053000  0.16285999  1
  I  I118  1  0.33390864  0.16658677  0.50057555  1
  I  I119  1  0.33674078  0.16782508  0.83664751  1
  I  I120  1  0.33788506  0.49465857  0.16695748  1
  I  I121  1  0.33711999  0.50325568  0.50067364  1
  I  I122  1  0.33576732  0.49936409  0.83328033  1
  I  I123  1  0.33395374  0.83511045  0.16861895  1
  I  I124  1  0.33722194  0.82931046  0.50310715  1
  I  I125  1  0.33853194  0.83496792  0.82763616  1
  I  I126  1  0.66569113  0.17035633  0.16256034  1
  I  I127  1  0.66651982  0.16590734  0.49455879  1
  I  I128  1  0.66575154  0.17172300  0.84111824  1
  I  I129  1  0.66290289  0.49411100  0.16294091  1
  I  I130  1  0.66568889  0.50312736  0.50466028  1
  I  I131  1  0.66568500  0.49843043  0.83217310  1
  I  I132  1  0.66637038  0.83637536  0.16509075  1
  I  I133  1  0.66547705  0.82937888  0.50355681  1
  I  I134  1  0.66296133  0.82993138  0.83186802  1
