# generated using pymatgen
data_Cs27Sn14Pb13I81
_symmetry_space_group_name_H-M   'P 1'
_cell_length_a   18.98179133
_cell_length_b   18.98564868
_cell_length_c   18.96203698
_cell_angle_alpha   90.00107605
_cell_angle_beta   89.99879097
_cell_angle_gamma   90.00020375
_symmetry_Int_Tables_number   1
_chemical_formula_structural   Cs27Sn14Pb13I81
_chemical_formula_sum   'Cs27 Sn14 Pb13 I81'
_cell_volume   6833.56963140
_cell_formula_units_Z   1
loop_
 _symmetry_equiv_pos_site_id
 _symmetry_equiv_pos_as_xyz
  1  'x, y, z'
loop_
 _atom_site_type_symbol
 _atom_site_label
 _atom_site_symmetry_multiplicity
 _atom_site_fract_x
 _atom_site_fract_y
 _atom_site_fract_z
 _atom_site_occupancy
  Cs  Cs0  1  0.00116391  -0.00021689  0.00113868  1
  Cs  Cs1  1  0.00251889  -0.00421372  0.33478802  1
  Cs  Cs2  1  -0.00368936  0.00251608  0.66257940  1
  Cs  Cs3  1  0.00054541  0.33199082  -0.00128999  1
  Cs  Cs4  1  0.00237810  0.33454877  0.33607017  1
  Cs  Cs5  1  -0.00702350  0.33572612  0.66238935  1
  Cs  Cs6  1  0.00126134  0.66844019  0.00017648  1
  Cs  Cs7  1  0.00227943  0.66852445  0.33867208  1
  Cs  Cs8  1  -0.00242243  0.66258276  0.66129525  1
  Cs  Cs9  1  0.33166020  0.00075538  -0.00078720  1
  Cs  Cs10  1  0.33120497  -0.00038551  0.33883600  1
  Cs  Cs11  1  0.33911970  0.00018408  0.66482785  1
  Cs  Cs12  1  0.33284351  0.33342209  0.00003378  1
  Cs  Cs13  1  0.33469865  0.33358887  0.33474987  1
  Cs  Cs14  1  0.33198711  0.33394673  0.66758283  1
  Cs  Cs15  1  0.33273631  0.66551893  -0.00187981  1
  Cs  Cs16  1  0.32845959  0.66511116  0.33338192  1
  Cs  Cs17  1  0.33622994  0.66640816  0.66943717  1
  Cs  Cs18  1  0.66725275  -0.00066551  0.00004716  1
  Cs  Cs19  1  0.66668708  0.00079166  0.33568564  1
  Cs  Cs20  1  0.66414186  -0.00158939  0.65691122  1
  Cs  Cs21  1  0.66691444  0.33320103  0.00141072  1
  Cs  Cs22  1  0.66228526  0.33220737  0.32907931  1
  Cs  Cs23  1  0.67379628  0.33291695  0.66672566  1
  Cs  Cs24  1  0.66632044  0.66792204  0.00125329  1
  Cs  Cs25  1  0.66784492  0.66613148  0.32960476  1
  Cs  Cs26  1  0.66632319  0.66900723  0.66413019  1
  Sn  Sn27  1  0.49977155  0.16752964  0.83428181  1
  Sn  Sn28  1  0.16704573  0.16686388  0.83376440  1
  Sn  Sn29  1  0.83410487  0.83355273  0.83410516  1
  Sn  Sn30  1  0.83498279  0.50009886  0.16594029  1
  Sn  Sn31  1  0.16563746  0.49917631  0.16557512  1
  Sn  Sn32  1  0.49943913  0.16523874  0.16553527  1
  Sn  Sn33  1  0.50006093  0.83456501  0.16609136  1
  Sn  Sn34  1  0.49989934  0.49894641  0.83252736  1
  Sn  Sn35  1  0.16538857  0.83357487  0.83368266  1
  Sn  Sn36  1  0.16684697  0.49956332  0.83420137  1
  Sn  Sn37  1  0.83377132  0.16646490  0.16597946  1
  Sn  Sn38  1  0.83265543  0.83347113  0.16570686  1
  Sn  Sn39  1  0.16683239  0.16750057  0.16606596  1
  Sn  Sn40  1  0.50001019  0.49974179  0.50152624  1
  Pb  Pb41  1  0.16686243  0.83329571  0.50471587  1
  Pb  Pb42  1  0.49989166  0.16884327  0.50039977  1
  Pb  Pb43  1  0.83323979  0.50198555  0.83535383  1
  Pb  Pb44  1  0.83304838  0.16431564  0.83499483  1
  Pb  Pb45  1  0.16664124  0.83348604  0.16541551  1
  Pb  Pb46  1  0.83330235  0.83324881  0.49962479  1
  Pb  Pb47  1  0.16857028  0.49979124  0.50046569  1
  Pb  Pb48  1  0.49935807  0.49981243  0.16568040  1
  Pb  Pb49  1  0.16683447  0.16686054  0.50072593  1
  Pb  Pb50  1  0.50016886  0.83370369  0.83492901  1
  Pb  Pb51  1  0.83330877  0.16679396  0.49625288  1
  Pb  Pb52  1  0.83044594  0.49990427  0.49640503  1
  Pb  Pb53  1  0.49982286  0.83054518  0.49619244  1
  I  I54  1  0.16508069  0.00288605  0.16206302  1
  I  I55  1  0.16689754  0.00008046  0.49636453  1
  I  I56  1  0.16733223  0.00098127  0.83971810  1
  I  I57  1  0.16456084  0.33313941  0.15979299  1
  I  I58  1  0.16760135  0.33342670  0.50142935  1
  I  I59  1  0.17362552  0.33338591  0.83909423  1
  I  I60  1  0.16565908  0.66414394  0.16255006  1
  I  I61  1  0.16787556  0.66640319  0.49629118  1
  I  I62  1  0.16834597  0.66562238  0.83887347  1
  I  I63  1  0.50321455  0.00137518  0.16038241  1
  I  I64  1  0.50074091  0.00002846  0.50221120  1
  I  I65  1  0.49623441  0.00277142  0.83790315  1
  I  I66  1  0.50287588  0.33077008  0.16650028  1
  I  I67  1  0.49897074  0.33638330  0.49693541  1
  I  I68  1  0.49225047  0.33314126  0.83638215  1
  I  I69  1  0.50397700  0.66828775  0.16640802  1
  I  I70  1  0.49954936  0.66303320  0.50623412  1
  I  I71  1  0.49647006  0.66437559  0.83241063  1
  I  I72  1  0.83193226  -0.00004221  0.16205392  1
  I  I73  1  0.83189182  -0.00014193  0.49945743  1
  I  I74  1  0.83721909  -0.00334539  0.84133757  1
  I  I75  1  0.83191380  0.33305423  0.16713532  1
  I  I76  1  0.83337760  0.33361924  0.50089319  1
  I  I77  1  0.83451567  0.33321965  0.83476569  1
  I  I78  1  0.83070327  0.66699052  0.16263945  1
  I  I79  1  0.83248912  0.66650283  0.49721103  1
  I  I80  1  0.83624947  0.66973837  0.84124727  1
  I  I81  1  0.16784468  0.16796705  0.00047256  1
  I  I82  1  0.16699100  0.17148423  0.32919865  1
  I  I83  1  0.17313465  0.16628891  0.67118450  1
  I  I84  1  0.16967176  0.49922480  -0.00029287  1
  I  I85  1  0.16505181  0.49611725  0.32985251  1
  I  I86  1  0.16956123  0.50022968  0.67063750  1
  I  I87  1  0.16589196  0.83269527  -0.00276645  1
  I  I88  1  0.16686781  0.83269097  0.33312769  1
  I  I89  1  0.16162899  0.83248765  0.67302826  1
  I  I90  1  0.49890326  0.16957780  0.00082654  1
  I  I91  1  0.50088307  0.16514558  0.32956043  1
  I  I92  1  0.49369133  0.16748761  0.67045932  1
  I  I93  1  0.49835315  0.49925233  -0.00268389  1
  I  I94  1  0.50145850  0.50090679  0.33425590  1
  I  I95  1  0.49293050  0.49581974  0.66917415  1
  I  I96  1  0.50239858  0.83175679  0.00296144  1
  I  I97  1  0.50661700  0.83776539  0.32794880  1
  I  I98  1  0.50021865  0.83571903  0.66684570  1
  I  I99  1  0.83276633  0.16858433  0.00372714  1
  I  I100  1  0.83203645  0.16421021  0.32716075  1
  I  I101  1  0.83315626  0.16439147  0.66702469  1
  I  I102  1  0.83134567  0.49827798  0.00374668  1
  I  I103  1  0.83732515  0.50253686  0.32786267  1
  I  I104  1  0.83564683  0.50237017  0.66683647  1
  I  I105  1  0.83298094  0.83303317  0.00155290  1
  I  I106  1  0.82830052  0.83358961  0.32912961  1
  I  I107  1  0.83817878  0.83263097  0.66992007  1
  I  I108  1  0.00060173  0.16743900  0.16205875  1
  I  I109  1  0.00008606  0.16763068  0.50140393  1
  I  I110  1  0.00308861  0.16881133  0.83842517  1
  I  I111  1  0.00087559  0.49725234  0.16060253  1
  I  I112  1  -0.00012424  0.50036600  0.50154419  1
  I  I113  1  0.00308977  0.49760235  0.83706792  1
  I  I114  1  -0.00259658  0.83533654  0.16404099  1
  I  I115  1  -0.00001077  0.83226472  0.49386782  1
  I  I116  1  0.00045028  0.83337695  0.84172831  1
  I  I117  1  0.33330740  0.16763884  0.16248100  1
  I  I118  1  0.33346682  0.16686110  0.49359961  1
  I  I119  1  0.33308775  0.16579769  0.84170145  1
  I  I120  1  0.33067003  0.49801200  0.16602848  1
  I  I121  1  0.33623839  0.49980816  0.49743056  1
  I  I122  1  0.33273970  0.50216211  0.83617413  1
  I  I123  1  0.33547651  0.83475813  0.16433530  1
  I  I124  1  0.33356830  0.83308555  0.49790171  1
  I  I125  1  0.33091511  0.83235663  0.83621526  1
  I  I126  1  0.66619859  0.16729675  0.16318919  1
  I  I127  1  0.66641568  0.16756168  0.50062041  1
  I  I128  1  0.66364256  0.17095617  0.83890690  1
  I  I129  1  0.66840347  0.49853648  0.16725383  1
  I  I130  1  0.66290137  0.49984285  0.50550455  1
  I  I131  1  0.66378192  0.49701356  0.83229301  1
  I  I132  1  0.66754900  0.83426546  0.16083069  1
  I  I133  1  0.66647216  0.83257069  0.50499929  1
  I  I134  1  0.66885592  0.83207789  0.83776901  1
