# generated using pymatgen
data_Cs27Sn13Pb14I81
_symmetry_space_group_name_H-M   'P 1'
_cell_length_a   18.97602721
_cell_length_b   18.97044232
_cell_length_c   18.98469488
_cell_angle_alpha   89.99771118
_cell_angle_beta   90.00089572
_cell_angle_gamma   89.99844857
_symmetry_Int_Tables_number   1
_chemical_formula_structural   Cs27Sn13Pb14I81
_chemical_formula_sum   'Cs27 Sn13 Pb14 I81'
_cell_volume   6834.17935926
_cell_formula_units_Z   1
loop_
 _symmetry_equiv_pos_site_id
 _symmetry_equiv_pos_as_xyz
  1  'x, y, z'
loop_
 _atom_site_type_symbol
 _atom_site_label
 _atom_site_symmetry_multiplicity
 _atom_site_fract_x
 _atom_site_fract_y
 _atom_site_fract_z
 _atom_site_occupancy
  Cs  Cs0  1  -0.00142654  -0.00079407  0.00097363  1
  Cs  Cs1  1  -0.00393547  0.00084210  0.33179277  1
  Cs  Cs2  1  0.00404163  0.00320223  0.66639728  1
  Cs  Cs3  1  0.00498649  0.33385040  -0.00375944  1
  Cs  Cs4  1  -0.00017519  0.33147122  0.32950984  1
  Cs  Cs5  1  0.00047135  0.33139549  0.67041742  1
  Cs  Cs6  1  -0.00418662  0.66599726  -0.00297621  1
  Cs  Cs7  1  0.00028670  0.66773331  0.33659388  1
  Cs  Cs8  1  0.00058515  0.66404923  0.66536571  1
  Cs  Cs9  1  0.33400679  0.00062063  -0.00244912  1
  Cs  Cs10  1  0.33308004  -0.00302010  0.33252262  1
  Cs  Cs11  1  0.33089451  0.00089675  0.66950505  1
  Cs  Cs12  1  0.33162696  0.33256360  0.00425531  1
  Cs  Cs13  1  0.33307842  0.33353166  0.32682416  1
  Cs  Cs14  1  0.33319685  0.33215809  0.66764455  1
  Cs  Cs15  1  0.33479673  0.66730529  0.00245043  1
  Cs  Cs16  1  0.33424879  0.66754943  0.33459579  1
  Cs  Cs17  1  0.33280387  0.66723913  0.66223438  1
  Cs  Cs18  1  0.66790394  -0.00299066  -0.00135840  1
  Cs  Cs19  1  0.67117387  0.00489584  0.33388863  1
  Cs  Cs20  1  0.66391047  0.00196553  0.66758987  1
  Cs  Cs21  1  0.66314767  0.33576255  0.00132645  1
  Cs  Cs22  1  0.66674008  0.33298551  0.33648335  1
  Cs  Cs23  1  0.66663152  0.33279006  0.66298761  1
  Cs  Cs24  1  0.66804667  0.66783646  0.00032332  1
  Cs  Cs25  1  0.66486936  0.66554033  0.33312027  1
  Cs  Cs26  1  0.66639602  0.66584703  0.66668084  1
  Sn  Sn27  1  0.49972026  0.50027816  0.83316565  1
  Sn  Sn28  1  0.16700757  0.16692025  0.49992599  1
  Sn  Sn29  1  0.83329361  0.16651669  0.83349384  1
  Sn  Sn30  1  0.16694632  0.83298921  0.16563384  1
  Sn  Sn31  1  0.83286144  0.50008795  0.16732877  1
  Sn  Sn32  1  0.49967994  0.83291005  0.16748847  1
  Sn  Sn33  1  0.50093964  0.50110188  0.16693046  1
  Sn  Sn34  1  0.16662304  0.83327642  0.83417786  1
  Sn  Sn35  1  0.50111532  0.83308313  0.49926567  1
  Sn  Sn36  1  0.83292453  0.50068676  0.49924583  1
  Sn  Sn37  1  0.50049113  0.50064773  0.49995831  1
  Sn  Sn38  1  0.16587935  0.16572122  0.83263499  1
  Sn  Sn39  1  0.83237158  0.83294085  0.50033220  1
  Pb  Pb40  1  0.83555184  0.83509772  0.83037800  1
  Pb  Pb41  1  0.16644208  0.50282421  0.16677859  1
  Pb  Pb42  1  0.49957255  0.16894492  0.83339813  1
  Pb  Pb43  1  0.83126961  0.49828843  0.83298127  1
  Pb  Pb44  1  0.16663381  0.49732562  0.49982763  1
  Pb  Pb45  1  0.50032647  0.16600872  0.16681523  1
  Pb  Pb46  1  0.16669235  0.16377422  0.16609319  1
  Pb  Pb47  1  0.83279539  0.83142160  0.16860799  1
  Pb  Pb48  1  0.83324616  0.16993535  0.16375119  1
  Pb  Pb49  1  0.49762726  0.16647048  0.49980284  1
  Pb  Pb50  1  0.16683121  0.83482938  0.49988605  1
  Pb  Pb51  1  0.49829196  0.83143984  0.83308006  1
  Pb  Pb52  1  0.83514839  0.16715987  0.50145949  1
  Pb  Pb53  1  0.16912422  0.50011393  0.83328536  1
  I  I54  1  0.17308995  -0.00414910  0.16602561  1
  I  I55  1  0.16655610  0.00243504  0.50255496  1
  I  I56  1  0.16445151  0.00027507  0.83245180  1
  I  I57  1  0.16769665  0.33342809  0.16596954  1
  I  I58  1  0.16644973  0.32971196  0.50798117  1
  I  I59  1  0.16386157  0.33032415  0.82880480  1
  I  I60  1  0.16939515  0.67067863  0.16190015  1
  I  I61  1  0.16630238  0.66678572  0.50116554  1
  I  I62  1  0.16874977  0.66961539  0.83684416  1
  I  I63  1  0.49490235  -0.00419338  0.17103330  1
  I  I64  1  0.50317905  -0.00366442  0.49537204  1
  I  I65  1  0.50077862  -0.00023223  0.83321971  1
  I  I66  1  0.50318442  0.33724982  0.16746408  1
  I  I67  1  0.50373640  0.33695047  0.49959025  1
  I  I68  1  0.49867153  0.33726227  0.83301537  1
  I  I69  1  0.49878106  0.66611324  0.16746743  1
  I  I70  1  0.50232943  0.66626737  0.49959468  1
  I  I71  1  0.49893912  0.66339484  0.83318336  1
  I  I72  1  0.83329885  -0.00027356  0.16822375  1
  I  I73  1  0.83026115  -0.00254794  0.50126284  1
  I  I74  1  0.83465368  0.00300124  0.83138711  1
  I  I75  1  0.82670395  0.33801770  0.17415037  1
  I  I76  1  0.82900594  0.33660767  0.49772828  1
  I  I77  1  0.84074711  0.33059053  0.83175563  1
  I  I78  1  0.83168938  0.66332488  0.16693232  1
  I  I79  1  0.83060737  0.66597944  0.49732042  1
  I  I80  1  0.83491307  0.66658287  0.83434315  1
  I  I81  1  0.16313122  0.16529695  -0.00331723  1
  I  I82  1  0.16754525  0.16635292  0.33551902  1
  I  I83  1  0.16384740  0.16081592  0.66796116  1
  I  I84  1  0.16703071  0.49578540  0.00003216  1
  I  I85  1  0.17010443  0.49891106  0.33336464  1
  I  I86  1  0.16768168  0.50415809  0.66655913  1
  I  I87  1  0.17269020  0.83864936  0.00002743  1
  I  I88  1  0.16876442  0.83421450  0.33128287  1
  I  I89  1  0.16703515  0.83674912  0.66865972  1
  I  I90  1  0.49769525  0.16833920  -0.00010169  1
  I  I91  1  0.49709045  0.17080703  0.33352773  1
  I  I92  1  0.50049175  0.16751741  0.66660523  1
  I  I93  1  0.50341523  0.50275751  0.00139691  1
  I  I94  1  0.50394230  0.50438689  0.33348489  1
  I  I95  1  0.50307372  0.50309325  0.66513174  1
  I  I96  1  0.49672870  0.82876865  0.00271544  1
  I  I97  1  0.49586556  0.82505475  0.33343066  1
  I  I98  1  0.50166489  0.82870418  0.66364476  1
  I  I99  1  0.84095705  0.16730480  -0.00391512  1
  I  I100  1  0.83574149  0.16530644  0.33350463  1
  I  I101  1  0.83683980  0.16887993  0.66917443  1
  I  I102  1  0.82872995  0.49837097  0.00237841  1
  I  I103  1  0.82576126  0.50287549  0.33422618  1
  I  I104  1  0.82889480  0.50219517  0.66356615  1
  I  I105  1  0.83194364  0.83298674  -0.00004671  1
  I  I106  1  0.83544098  0.83268820  0.33661286  1
  I  I107  1  0.82871445  0.82657600  0.66252734  1
  I  I108  1  0.00005826  0.16677006  0.16935932  1
  I  I109  1  0.00290829  0.16531515  0.50315557  1
  I  I110  1  0.00135760  0.16461498  0.82854571  1
  I  I111  1  -0.00305435  0.50049050  0.17179408  1
  I  I112  1  -0.00343868  0.50428985  0.49601044  1
  I  I113  1  -0.00010182  0.50070971  0.83339691  1
  I  I114  1  0.00217895  0.83283285  0.16473177  1
  I  I115  1  -0.00223083  0.82988812  0.50031328  1
  I  I116  1  0.00369505  0.83438771  0.83799004  1
  I  I117  1  0.33325703  0.17221295  0.16474445  1
  I  I118  1  0.32997212  0.16578056  0.50798376  1
  I  I119  1  0.32996264  0.16360905  0.82930375  1
  I  I120  1  0.33681496  0.50100151  0.16771829  1
  I  I121  1  0.33696815  0.50418485  0.49934312  1
  I  I122  1  0.33725721  0.49847669  0.83315081  1
  I  I123  1  0.33447543  0.82793509  0.16915098  1
  I  I124  1  0.33614883  0.82936093  0.49893617  1
  I  I125  1  0.33028085  0.83945111  0.83246239  1
  I  I126  1  0.66692545  0.16207140  0.16446885  1
  I  I127  1  0.66676524  0.16647869  0.50256653  1
  I  I128  1  0.66904018  0.16928626  0.83266747  1
  I  I129  1  0.66523172  0.50533268  0.16654253  1
  I  I130  1  0.66599529  0.50297054  0.49969135  1
  I  I131  1  0.66334101  0.49839103  0.83339410  1
  I  I132  1  0.66348265  0.83025924  0.16837562  1
  I  I133  1  0.66569646  0.82947861  0.49514461  1
  I  I134  1  0.66664823  0.83531934  0.83569663  1
