# generated using pymatgen
data_Cs27Sn14Pb13I81
_symmetry_space_group_name_H-M   'P 1'
_cell_length_a   18.98297196
_cell_length_b   18.96601861
_cell_length_c   18.97762798
_cell_angle_alpha   89.99989486
_cell_angle_beta   89.99958657
_cell_angle_gamma   89.99826542
_symmetry_Int_Tables_number   1
_chemical_formula_structural   Cs27Sn14Pb13I81
_chemical_formula_sum   'Cs27 Sn14 Pb13 I81'
_cell_volume   6832.54195666
_cell_formula_units_Z   1
loop_
 _symmetry_equiv_pos_site_id
 _symmetry_equiv_pos_as_xyz
  1  'x, y, z'
loop_
 _atom_site_type_symbol
 _atom_site_label
 _atom_site_symmetry_multiplicity
 _atom_site_fract_x
 _atom_site_fract_y
 _atom_site_fract_z
 _atom_site_occupancy
  Cs  Cs0  1  -0.00105331  0.00119689  0.00286644  1
  Cs  Cs1  1  0.00042065  -0.00188523  0.33421325  1
  Cs  Cs2  1  0.00562624  -0.00098434  0.66133414  1
  Cs  Cs3  1  0.00033758  0.33529247  -0.00071374  1
  Cs  Cs4  1  -0.00020572  0.33416856  0.33487152  1
  Cs  Cs5  1  -0.00219898  0.33185224  0.66553653  1
  Cs  Cs6  1  0.00142445  0.66402090  -0.00684279  1
  Cs  Cs7  1  -0.00230902  0.66463826  0.33100249  1
  Cs  Cs8  1  0.00112977  0.67099284  0.67640004  1
  Cs  Cs9  1  0.33512896  0.00093166  0.00203589  1
  Cs  Cs10  1  0.32912387  0.00142198  0.33013172  1
  Cs  Cs11  1  0.32963715  -0.00536294  0.66569916  1
  Cs  Cs12  1  0.33400098  0.33319763  0.00120778  1
  Cs  Cs13  1  0.33354681  0.33510159  0.33365484  1
  Cs  Cs14  1  0.33611459  0.33197438  0.66408436  1
  Cs  Cs15  1  0.32995034  0.66604309  0.00048854  1
  Cs  Cs16  1  0.33593202  0.66301068  0.33303109  1
  Cs  Cs17  1  0.33779450  0.67749675  0.66557985  1
  Cs  Cs18  1  0.66579298  0.00087800  0.00184401  1
  Cs  Cs19  1  0.67069019  0.00094078  0.32962086  1
  Cs  Cs20  1  0.66591692  -0.00203414  0.66825155  1
  Cs  Cs21  1  0.66553165  0.33143541  -0.00049860  1
  Cs  Cs22  1  0.66650228  0.33344939  0.33382260  1
  Cs  Cs23  1  0.66743065  0.33392223  0.66594583  1
  Cs  Cs24  1  0.66864853  0.66828695  -0.00064869  1
  Cs  Cs25  1  0.66666009  0.66612077  0.33533987  1
  Cs  Cs26  1  0.66256313  0.67421391  0.66697507  1
  Sn  Sn27  1  0.83220200  0.16727649  0.49995699  1
  Sn  Sn28  1  0.16688020  0.16730447  0.83408320  1
  Sn  Sn29  1  0.16553510  0.16643492  0.16604990  1
  Sn  Sn30  1  0.16710656  0.83355409  0.16680015  1
  Sn  Sn31  1  0.50069827  0.16670272  0.50086095  1
  Sn  Sn32  1  0.83345155  0.16703119  0.83313734  1
  Sn  Sn33  1  0.50098867  0.50082229  0.16565680  1
  Sn  Sn34  1  0.83461103  0.16788529  0.16675259  1
  Sn  Sn35  1  0.49987080  0.49928472  0.83385251  1
  Sn  Sn36  1  0.83247368  0.49898770  0.16702614  1
  Sn  Sn37  1  0.49979936  0.16747321  0.83199866  1
  Sn  Sn38  1  0.16553913  0.50021633  0.50080481  1
  Sn  Sn39  1  0.49939266  0.83192161  0.16675802  1
  Sn  Sn40  1  0.83438525  0.49964579  0.49990588  1
  Pb  Pb41  1  0.50001712  0.83385311  0.83599168  1
  Pb  Pb42  1  0.50081454  0.49867036  0.50028332  1
  Pb  Pb43  1  0.16642101  0.16781315  0.49974856  1
  Pb  Pb44  1  0.83114577  0.49824966  0.83289550  1
  Pb  Pb45  1  0.50007619  0.16718785  0.16666500  1
  Pb  Pb46  1  0.16640226  0.82957972  0.49700803  1
  Pb  Pb47  1  0.83372589  0.83263394  0.16663442  1
  Pb  Pb48  1  0.83347141  0.83283120  0.49993607  1
  Pb  Pb49  1  0.83333701  0.83690435  0.83340378  1
  Pb  Pb50  1  0.16968077  0.49759256  0.83017837  1
  Pb  Pb51  1  0.16672558  0.83628079  0.83619437  1
  Pb  Pb52  1  0.16625941  0.49966864  0.16754051  1
  Pb  Pb53  1  0.50013381  0.83721333  0.49664187  1
  I  I54  1  0.16815082  0.00164115  0.16340911  1
  I  I55  1  0.16728502  0.00006354  0.50180119  1
  I  I56  1  0.16914731  0.00495864  0.83279954  1
  I  I57  1  0.16622891  0.33043907  0.16410753  1
  I  I58  1  0.16577222  0.33532026  0.49598123  1
  I  I59  1  0.16482977  0.32932599  0.84174239  1
  I  I60  1  0.16891662  0.66859011  0.17122324  1
  I  I61  1  0.16167314  0.66181880  0.49720130  1
  I  I62  1  0.16788584  0.66642384  0.83353967  1
  I  I63  1  0.49903445  -0.00127635  0.16729808  1
  I  I64  1  0.50523961  0.00528119  0.50567989  1
  I  I65  1  0.50072863  0.00393236  0.83111311  1
  I  I66  1  0.50066494  0.33567629  0.16605202  1
  I  I67  1  0.50132164  0.33048110  0.49852655  1
  I  I68  1  0.50044011  0.33179826  0.83687809  1
  I  I69  1  0.49952296  0.66517410  0.16197958  1
  I  I70  1  0.49984679  0.66673202  0.50263365  1
  I  I71  1  0.50066080  0.66378349  0.83489002  1
  I  I72  1  0.83297926  0.00345938  0.16663271  1
  I  I73  1  0.82911467  0.00417878  0.49886498  1
  I  I74  1  0.82913975  0.00614146  0.83542987  1
  I  I75  1  0.83281313  0.33232974  0.16761098  1
  I  I76  1  0.83314356  0.33212994  0.49800318  1
  I  I77  1  0.83457922  0.32947533  0.83424278  1
  I  I78  1  0.83149863  0.66303900  0.17289823  1
  I  I79  1  0.83641461  0.66263052  0.49179666  1
  I  I80  1  0.83149309  0.66622930  0.83394923  1
  I  I81  1  0.16457057  0.16341404  0.00071515  1
  I  I82  1  0.16487693  0.16418508  0.33044035  1
  I  I83  1  0.16498111  0.17047027  0.66903790  1
  I  I84  1  0.16496127  0.50180672  -0.00026281  1
  I  I85  1  0.16793074  0.49641708  0.33525716  1
  I  I86  1  0.16034474  0.49460086  0.66284747  1
  I  I87  1  0.17089877  0.83382332  0.00410236  1
  I  I88  1  0.17072832  0.84340674  0.32934662  1
  I  I89  1  0.16649017  0.83446138  0.66669564  1
  I  I90  1  0.50206092  0.16699719  -0.00217819  1
  I  I91  1  0.50282234  0.16713015  0.33515565  1
  I  I92  1  0.50286874  0.17401856  0.66770048  1
  I  I93  1  0.50457016  0.49643774  0.00114285  1
  I  I94  1  0.50042161  0.50145443  0.33069921  1
  I  I95  1  0.49953004  0.49428451  0.66900892  1
  I  I96  1  0.49661124  0.83554913  0.00380136  1
  I  I97  1  0.49638565  0.82757842  0.32894842  1
  I  I98  1  0.50030172  0.83035505  0.66666729  1
  I  I99  1  0.83328891  0.16985385  0.00067939  1
  I  I100  1  0.83227413  0.17007705  0.33292493  1
  I  I101  1  0.83201612  0.17136969  0.66630812  1
  I  I102  1  0.83086505  0.49566907  0.00284148  1
  I  I103  1  0.83144018  0.49156631  0.33250228  1
  I  I104  1  0.83604177  0.49339014  0.66374742  1
  I  I105  1  0.83271718  0.83362714  0.00046035  1
  I  I106  1  0.83264831  0.83963453  0.33300300  1
  I  I107  1  0.83273128  0.83208289  0.66661430  1
  I  I108  1  -0.00067131  0.16614893  0.16407336  1
  I  I109  1  -0.00296705  0.16908561  0.50172526  1
  I  I110  1  -0.00039363  0.16594045  0.83481427  1
  I  I111  1  -0.00277777  0.49811934  0.17002671  1
  I  I112  1  -0.00171070  0.49148097  0.49144041  1
  I  I113  1  -0.00003167  0.49903222  0.83627837  1
  I  I114  1  0.00266780  0.83696434  0.16752281  1
  I  I115  1  0.00010066  0.83996770  0.49661952  1
  I  I116  1  0.00023667  0.83225002  0.83666174  1
  I  I117  1  0.33139519  0.16594340  0.16440776  1
  I  I118  1  0.33538663  0.16974498  0.50179105  1
  I  I119  1  0.33385520  0.17089449  0.83469213  1
  I  I120  1  0.33570877  0.49961886  0.16566053  1
  I  I121  1  0.33217216  0.49594489  0.49790223  1
  I  I122  1  0.33729725  0.49211496  0.83980224  1
  I  I123  1  0.33339867  0.83542861  0.16636491  1
  I  I124  1  0.33337470  0.83323429  0.50087574  1
  I  I125  1  0.33344096  0.83575901  0.83239917  1
  I  I126  1  0.66914718  0.16705215  0.16531935  1
  I  I127  1  0.66777249  0.17285304  0.50127707  1
  I  I128  1  0.66652297  0.17074756  0.83353483  1
  I  I129  1  0.66692193  0.49843553  0.16924640  1
  I  I130  1  0.66955714  0.49537082  0.49716767  1
  I  I131  1  0.66337818  0.49226837  0.83418176  1
  I  I132  1  0.66420932  0.83388547  0.16622419  1
  I  I133  1  0.66650805  0.82939778  0.49749769  1
  I  I134  1  0.66631440  0.83553741  0.83600190  1
