# generated using pymatgen
data_Cs27Sn13Pb14I81
_symmetry_space_group_name_H-M   'P 1'
_cell_length_a   18.97373766
_cell_length_b   18.97373762
_cell_length_c   18.98728258
_cell_angle_alpha   90.00000007
_cell_angle_beta   90.00000006
_cell_angle_gamma   89.99709751
_symmetry_Int_Tables_number   1
_chemical_formula_structural   Cs27Sn13Pb14I81
_chemical_formula_sum   'Cs27 Sn13 Pb14 I81'
_cell_volume   6835.47336489
_cell_formula_units_Z   1
loop_
 _symmetry_equiv_pos_site_id
 _symmetry_equiv_pos_as_xyz
  1  'x, y, z'
loop_
 _atom_site_type_symbol
 _atom_site_label
 _atom_site_symmetry_multiplicity
 _atom_site_fract_x
 _atom_site_fract_y
 _atom_site_fract_z
 _atom_site_occupancy
  Cs  Cs0  1  0.00172327  -0.00146072  -0.00034050  1
  Cs  Cs1  1  0.00172332  -0.00146080  0.33367386  1
  Cs  Cs2  1  -0.00206179  0.00349488  0.66666668  1
  Cs  Cs3  1  -0.00034979  0.33566000  -0.00578489  1
  Cs  Cs4  1  -0.00034974  0.33565995  0.33911827  1
  Cs  Cs5  1  -0.00066076  0.33142462  0.66666670  1
  Cs  Cs6  1  -0.00045938  0.66712600  0.00037852  1
  Cs  Cs7  1  -0.00045934  0.66712601  0.33295481  1
  Cs  Cs8  1  0.00056690  0.66609974  0.66666672  1
  Cs  Cs9  1  0.33346100  0.00272498  0.00570557  1
  Cs  Cs10  1  0.33346093  0.00272499  0.32762790  1
  Cs  Cs11  1  0.33515861  -0.00200600  0.66666663  1
  Cs  Cs12  1  0.33615167  0.33051486  0.00359537  1
  Cs  Cs13  1  0.33615177  0.33051489  0.32973814  1
  Cs  Cs14  1  0.33235987  0.33430660  0.66666670  1
  Cs  Cs15  1  0.33100665  0.66701638  -0.00578489  1
  Cs  Cs16  1  0.33100657  0.66701625  0.33911821  1
  Cs  Cs17  1  0.33524226  0.66732747  0.66666672  1
  Cs  Cs18  1  0.66603260  0.00063409  0.00098680  1
  Cs  Cs19  1  0.66603259  0.00063408  0.33234665  1
  Cs  Cs20  1  0.66706742  -0.00040076  0.66666657  1
  Cs  Cs21  1  0.66394165  0.33320569  0.00570543  1
  Cs  Cs22  1  0.66394160  0.33320564  0.32762789  1
  Cs  Cs23  1  0.66867227  0.33150780  0.66666672  1
  Cs  Cs24  1  0.66812738  0.66494329  -0.00034042  1
  Cs  Cs25  1  0.66812724  0.66494328  0.33367370  1
  Cs  Cs26  1  0.66317172  0.66872845  0.66666662  1
  Sn  Sn27  1  0.50008551  0.83210697  0.16666668  1
  Sn  Sn28  1  0.83399037  0.83267626  0.50083363  1
  Sn  Sn29  1  0.16573670  0.83295780  0.50105058  1
  Sn  Sn30  1  0.83370879  0.50092993  0.50105059  1
  Sn  Sn31  1  0.50000412  0.16666253  0.50114223  1
  Sn  Sn32  1  0.16655580  0.50011086  0.16666667  1
  Sn  Sn33  1  0.83370878  0.50092996  0.83228272  1
  Sn  Sn34  1  0.16594691  0.50071977  0.50025082  1
  Sn  Sn35  1  0.50000408  0.16666254  0.83219110  1
  Sn  Sn36  1  0.83399037  0.83267628  0.83249975  1
  Sn  Sn37  1  0.16594690  0.50071975  0.83308253  1
  Sn  Sn38  1  0.83455966  0.16658109  0.16666671  1
  Sn  Sn39  1  0.16573672  0.83295782  0.83228274  1
  Pb  Pb40  1  0.49994361  0.83492246  0.83487700  1
  Pb  Pb41  1  0.83526050  0.49847282  0.16666666  1
  Pb  Pb42  1  0.50150752  0.16515922  0.16666666  1
  Pb  Pb43  1  0.83174423  0.16672308  0.83487702  1
  Pb  Pb44  1  0.16819389  0.83140616  0.16666665  1
  Pb  Pb45  1  0.16358028  0.16939390  0.16666667  1
  Pb  Pb46  1  0.16869521  0.16640719  0.83318230  1
  Pb  Pb47  1  0.50025948  0.49797150  0.83318227  1
  Pb  Pb48  1  0.83218354  0.83448312  0.16666668  1
  Pb  Pb49  1  0.50025949  0.49797152  0.50015107  1
  Pb  Pb50  1  0.83174424  0.16672308  0.49845631  1
  Pb  Pb51  1  0.49727277  0.50308643  0.16666665  1
  Pb  Pb52  1  0.16869518  0.16640720  0.50015107  1
  Pb  Pb53  1  0.49994359  0.83492247  0.49845631  1
  I  I54  1  0.16870880  -0.00034857  0.16666678  1
  I  I55  1  0.16296682  -0.00373730  0.50461127  1
  I  I56  1  0.16296667  -0.00373731  0.82872197  1
  I  I57  1  0.16776015  0.33758930  0.16666660  1
  I  I58  1  0.16288285  0.33703901  0.50096834  1
  I  I59  1  0.16288288  0.33703899  0.83236500  1
  I  I60  1  0.16622494  0.66352209  0.16666662  1
  I  I61  1  0.16408665  0.66635202  0.49974222  1
  I  I62  1  0.16408658  0.66635201  0.83359115  1
  I  I63  1  0.49910591  -0.00228864  0.16666657  1
  I  I64  1  0.50083347  0.00262165  0.50262748  1
  I  I65  1  0.50083354  0.00262166  0.83070582  1
  I  I66  1  0.49990277  0.33337045  0.16666665  1
  I  I67  1  0.50019181  0.33010098  0.50230956  1
  I  I68  1  0.50019190  0.33010097  0.83102365  1
  I  I69  1  0.50306607  0.67032009  0.16666672  1
  I  I70  1  0.49983693  0.66678964  0.49747883  1
  I  I71  1  0.49983680  0.66678964  0.83585446  1
  I  I72  1  0.83035053  0.00218250  0.16666668  1
  I  I73  1  0.83619205  -0.00322806  0.50290746  1
  I  I74  1  0.83619212  -0.00322803  0.83042582  1
  I  I75  1  0.83156759  0.33089539  0.16666673  1
  I  I76  1  0.83750971  0.33658799  0.50320072  1
  I  I77  1  0.83750966  0.33658795  0.83013249  1
  I  I78  1  0.83173322  0.66650315  0.16666651  1
  I  I79  1  0.83648844  0.66674474  0.50216967  1
  I  I80  1  0.83648857  0.66674469  0.83116384  1
  I  I81  1  0.17062668  0.16623992  -0.00010819  1
  I  I82  1  0.17062671  0.16624011  0.33344150  1
  I  I83  1  0.16555212  0.17105758  0.66666666  1
  I  I84  1  0.16294440  0.50372242  -0.00162944  1
  I  I85  1  0.16294411  0.50372242  0.33496276  1
  I  I86  1  0.16312943  0.50353714  0.66666665  1
  I  I87  1  0.16397550  0.82929505  -0.00311509  1
  I  I88  1  0.16397547  0.82929495  0.33644841  1
  I  I89  1  0.16490258  0.82584623  0.66666666  1
  I  I90  1  0.50122983  0.16543653  -0.00187550  1
  I  I91  1  0.50122991  0.16543643  0.33520883  1
  I  I92  1  0.50108976  0.16557773  0.66666665  1
  I  I93  1  0.50042702  0.49604013  -0.00010818  1
  I  I94  1  0.50042689  0.49604015  0.33344150  1
  I  I95  1  0.49560871  0.50111428  0.66666667  1
  I  I96  1  0.49978627  0.83748687  0.00226709  1
  I  I97  1  0.49978665  0.83748698  0.33106620  1
  I  I98  1  0.49986112  0.83471819  0.66666667  1
  I  I99  1  0.82917996  0.16688036  0.00226709  1
  I  I100  1  0.82917990  0.16688034  0.33106622  1
  I  I101  1  0.83194818  0.16680521  0.66666667  1
  I  I102  1  0.83737137  0.50269110  -0.00311507  1
  I  I103  1  0.83737168  0.50269135  0.33644844  1
  I  I104  1  0.84082090  0.50176417  0.66666665  1
  I  I105  1  0.83597983  0.83068685  -0.00328454  1
  I  I106  1  0.83597966  0.83068672  0.33661787  1
  I  I107  1  0.83589008  0.83077690  0.66666664  1
  I  I108  1  -0.00365344  0.16360086  0.16666667  1
  I  I109  1  -0.00012297  0.16682982  0.49747881  1
  I  I110  1  -0.00012296  0.16682992  0.83585448  1
  I  I111  1  0.00314461  0.50044173  0.16666640  1
  I  I112  1  0.00031470  0.50257986  0.49974206  1
  I  I113  1  0.00031467  0.50257978  0.83359139  1
  I  I114  1  0.00016351  0.83493323  0.16666673  1
  I  I115  1  -0.00007805  0.83017845  0.50216939  1
  I  I116  1  -0.00007805  0.83017837  0.83116387  1
  I  I117  1  0.33329623  0.16676362  0.16666666  1
  I  I118  1  0.33656571  0.16647502  0.50231009  1
  I  I119  1  0.33656570  0.16647500  0.83102327  1
  I  I120  1  0.32907738  0.49890680  0.16666678  1
  I  I121  1  0.32962768  0.50378398  0.50096814  1
  I  I122  1  0.32962768  0.50378404  0.83236511  1
  I  I123  1  0.33577131  0.83509912  0.16666678  1
  I  I124  1  0.33007870  0.82915681  0.50320068  1
  I  I125  1  0.33007871  0.82915684  0.83013261  1
  I  I126  1  0.66895530  0.16756076  0.16666665  1
  I  I127  1  0.66404498  0.16583304  0.50262708  1
  I  I128  1  0.66404499  0.16583307  0.83070636  1
  I  I129  1  0.66701520  0.49795761  0.16666681  1
  I  I130  1  0.67040397  0.50370007  0.50461163  1
  I  I131  1  0.67040393  0.50370017  0.82872156  1
  I  I132  1  0.66448420  0.83631634  0.16666650  1
  I  I133  1  0.66989473  0.83047468  0.50290785  1
  I  I134  1  0.66989476  0.83047451  0.83042566  1
