# generated using pymatgen
data_Cs27Sn14Pb13I81
_symmetry_space_group_name_H-M   'P 1'
_cell_length_a   18.98167618
_cell_length_b   18.96347211
_cell_length_c   18.98233287
_cell_angle_alpha   90.00082418
_cell_angle_beta   89.99972355
_cell_angle_gamma   89.99997594
_symmetry_Int_Tables_number   1
_chemical_formula_structural   Cs27Sn14Pb13I81
_chemical_formula_sum   'Cs27 Sn14 Pb13 I81'
_cell_volume   6832.85181404
_cell_formula_units_Z   1
loop_
 _symmetry_equiv_pos_site_id
 _symmetry_equiv_pos_as_xyz
  1  'x, y, z'
loop_
 _atom_site_type_symbol
 _atom_site_label
 _atom_site_symmetry_multiplicity
 _atom_site_fract_x
 _atom_site_fract_y
 _atom_site_fract_z
 _atom_site_occupancy
  Cs  Cs0  1  -0.00177046  0.01053628  0.00127924  1
  Cs  Cs1  1  -0.00019695  -0.00099844  0.33183853  1
  Cs  Cs2  1  0.00121952  0.00118215  0.66607687  1
  Cs  Cs3  1  -0.00016656  0.33350545  -0.00065445  1
  Cs  Cs4  1  0.00237532  0.33536343  0.33500786  1
  Cs  Cs5  1  -0.00177818  0.33613052  0.66620904  1
  Cs  Cs6  1  0.00102180  0.66546188  0.00110200  1
  Cs  Cs7  1  0.00047448  0.66709297  0.33362640  1
  Cs  Cs8  1  -0.00072710  0.66528721  0.66541858  1
  Cs  Cs9  1  0.33334432  0.00297198  -0.00968975  1
  Cs  Cs10  1  0.33166140  0.00109932  0.33474177  1
  Cs  Cs11  1  0.33409303  0.00362435  0.67385537  1
  Cs  Cs12  1  0.33553139  0.33052430  0.00569030  1
  Cs  Cs13  1  0.34105329  0.32618135  0.33316489  1
  Cs  Cs14  1  0.33537139  0.32831177  0.66196516  1
  Cs  Cs15  1  0.33195886  0.66743486  -0.00071907  1
  Cs  Cs16  1  0.33307296  0.66704111  0.33203228  1
  Cs  Cs17  1  0.33192037  0.66820713  0.66862255  1
  Cs  Cs18  1  0.66904338  0.00876044  0.00010527  1
  Cs  Cs19  1  0.66951646  -0.00521639  0.33063566  1
  Cs  Cs20  1  0.66601622  -0.00070298  0.66868115  1
  Cs  Cs21  1  0.66488596  0.32854751  0.00092478  1
  Cs  Cs22  1  0.65655880  0.33451549  0.33420580  1
  Cs  Cs23  1  0.66753038  0.33299665  0.66587189  1
  Cs  Cs24  1  0.66753823  0.66617726  -0.00033810  1
  Cs  Cs25  1  0.66542704  0.66856709  0.33324339  1
  Cs  Cs26  1  0.66827301  0.66616762  0.66589320  1
  Sn  Sn27  1  0.83320143  0.50106204  0.83360882  1
  Sn  Sn28  1  0.16753280  0.83285148  0.16688750  1
  Sn  Sn29  1  0.16697669  0.83250445  0.49961407  1
  Sn  Sn30  1  0.16616933  0.50071100  0.16738006  1
  Sn  Sn31  1  0.16703420  0.50046069  0.83314818  1
  Sn  Sn32  1  0.49942085  0.83274767  0.49966367  1
  Sn  Sn33  1  0.83345454  0.16678839  0.49951702  1
  Sn  Sn34  1  0.83385531  0.83252162  0.83317959  1
  Sn  Sn35  1  0.49994330  0.50049242  0.83315906  1
  Sn  Sn36  1  0.83360651  0.50004299  0.49934279  1
  Sn  Sn37  1  0.83363376  0.83320033  0.50086594  1
  Sn  Sn38  1  0.16660839  0.50076293  0.49951985  1
  Sn  Sn39  1  0.83361308  0.50043515  0.16705106  1
  Sn  Sn40  1  0.49868281  0.83279389  0.16657475  1
  Pb  Pb41  1  0.16471222  0.16644898  0.49991220  1
  Pb  Pb42  1  0.50287736  0.16268408  0.49996417  1
  Pb  Pb43  1  0.16657573  0.16645624  0.16700628  1
  Pb  Pb44  1  0.49953340  0.50190638  0.16472205  1
  Pb  Pb45  1  0.49985980  0.16231598  0.16687797  1
  Pb  Pb46  1  0.50023700  0.17020354  0.83305055  1
  Pb  Pb47  1  0.49948008  0.50213646  0.50172062  1
  Pb  Pb48  1  0.83354415  0.16726988  0.83102719  1
  Pb  Pb49  1  0.16631293  0.17064604  0.83308443  1
  Pb  Pb50  1  0.83349487  0.17080261  0.17004739  1
  Pb  Pb51  1  0.16395845  0.83182654  0.83366381  1
  Pb  Pb52  1  0.83407333  0.83180554  0.16628279  1
  Pb  Pb53  1  0.50249483  0.83175587  0.83369808  1
  I  I54  1  0.16961662  -0.00397132  0.17327333  1
  I  I55  1  0.16482546  -0.00397442  0.49436960  1
  I  I56  1  0.16514181  -0.00027360  0.83344232  1
  I  I57  1  0.16096987  0.33757492  0.16575784  1
  I  I58  1  0.16113720  0.33721582  0.50119879  1
  I  I59  1  0.16170525  0.33963681  0.83271034  1
  I  I60  1  0.16621990  0.66579323  0.16797214  1
  I  I61  1  0.16130361  0.66638058  0.49961670  1
  I  I62  1  0.16720590  0.66305854  0.83302968  1
  I  I63  1  0.49606537  -0.00576647  0.17154645  1
  I  I64  1  0.49937738  -0.00549265  0.49662793  1
  I  I65  1  0.50227193  -0.00032592  0.83374452  1
  I  I66  1  0.50046119  0.33351872  0.16446681  1
  I  I67  1  0.50014256  0.33342561  0.50221316  1
  I  I68  1  0.50345072  0.33853383  0.83306257  1
  I  I69  1  0.49932613  0.66963844  0.17133862  1
  I  I70  1  0.50569425  0.67011400  0.49706953  1
  I  I71  1  0.49939622  0.66377551  0.83281846  1
  I  I72  1  0.83266999  -0.00001811  0.16576181  1
  I  I73  1  0.83280102  -0.00196490  0.50511774  1
  I  I74  1  0.83234751  -0.00301556  0.82887276  1
  I  I75  1  0.84001716  0.33910734  0.16323455  1
  I  I76  1  0.83919678  0.33556803  0.50113191  1
  I  I77  1  0.83412260  0.33767843  0.83258492  1
  I  I78  1  0.83441747  0.66339018  0.17003848  1
  I  I79  1  0.83398399  0.66639530  0.50154342  1
  I  I80  1  0.83317589  0.66490320  0.82754491  1
  I  I81  1  0.16584155  0.16517728  0.00008394  1
  I  I82  1  0.16497851  0.17172733  0.33351223  1
  I  I83  1  0.16614085  0.16578981  0.66637128  1
  I  I84  1  0.16279139  0.50442484  0.00040732  1
  I  I85  1  0.15681766  0.50515149  0.33379332  1
  I  I86  1  0.16253217  0.50428589  0.66593947  1
  I  I87  1  0.17074253  0.82719108  0.00278890  1
  I  I88  1  0.16490848  0.82559638  0.33443216  1
  I  I89  1  0.16780941  0.82893679  0.66357895  1
  I  I90  1  0.50135003  0.16508061  -0.00003894  1
  I  I91  1  0.50088873  0.17310073  0.33362433  1
  I  I92  1  0.50014088  0.16446332  0.66635351  1
  I  I93  1  0.50146216  0.50383994  -0.00301227  1
  I  I94  1  0.50181486  0.49916180  0.33336079  1
  I  I95  1  0.50153717  0.50380027  0.66948453  1
  I  I96  1  0.49603959  0.82943717  0.00252020  1
  I  I97  1  0.50303629  0.83120006  0.33427152  1
  I  I98  1  0.49917703  0.83123562  0.66397096  1
  I  I99  1  0.83267328  0.16516389  0.00018443  1
  I  I100  1  0.83464023  0.16245757  0.33760939  1
  I  I101  1  0.83382685  0.17077340  0.66332687  1
  I  I102  1  0.83625242  0.50640326  -0.00072485  1
  I  I103  1  0.84042413  0.50099504  0.33451414  1
  I  I104  1  0.83572141  0.50050153  0.66610440  1
  I  I105  1  0.83258416  0.82592256  -0.00237065  1
  I  I106  1  0.83246927  0.83242997  0.33649984  1
  I  I107  1  0.83261479  0.82850972  0.66477372  1
  I  I108  1  -0.00022297  0.16092247  0.16614663  1
  I  I109  1  -0.00325182  0.16365677  0.50097048  1
  I  I110  1  -0.00037027  0.16702687  0.83349024  1
  I  I111  1  0.00039904  0.50577153  0.16354353  1
  I  I112  1  -0.00074014  0.50355883  0.50343436  1
  I  I113  1  -0.00061268  0.50357351  0.83272225  1
  I  I114  1  0.00283754  0.82959444  0.17066215  1
  I  I115  1  -0.00038336  0.83202061  0.49971306  1
  I  I116  1  -0.00384796  0.82620169  0.82822912  1
  I  I117  1  0.33328358  0.17384661  0.16832764  1
  I  I118  1  0.33349437  0.16850576  0.49987832  1
  I  I119  1  0.33335326  0.16527153  0.83201000  1
  I  I120  1  0.33000496  0.50247143  0.16588433  1
  I  I121  1  0.33003078  0.50512098  0.50084695  1
  I  I122  1  0.33236414  0.50125998  0.83330462  1
  I  I123  1  0.33215410  0.82559414  0.17584662  1
  I  I124  1  0.33224585  0.82625785  0.49472104  1
  I  I125  1  0.33310640  0.83114169  0.83053479  1
  I  I126  1  0.66687295  0.16696871  0.16657104  1
  I  I127  1  0.67080530  0.17074487  0.50102802  1
  I  I128  1  0.66708515  0.16804140  0.83276105  1
  I  I129  1  0.66925978  0.50202572  0.16697820  1
  I  I130  1  0.66987296  0.50088771  0.50049577  1
  I  I131  1  0.66834491  0.50443149  0.83250787  1
  I  I132  1  0.66529095  0.83052825  0.17083340  1
  I  I133  1  0.66789869  0.83281744  0.49949218  1
  I  I134  1  0.67032934  0.82569136  0.82825706  1
