# generated using pymatgen
data_Cs27Sn13Pb14I81
_symmetry_space_group_name_H-M   'P 1'
_cell_length_a   18.97825927
_cell_length_b   18.97418136
_cell_length_c   18.98070548
_cell_angle_alpha   89.99854871
_cell_angle_beta   90.00058247
_cell_angle_gamma   90.00217420
_symmetry_Int_Tables_number   1
_chemical_formula_structural   Cs27Sn13Pb14I81
_chemical_formula_sum   'Cs27 Sn13 Pb14 I81'
_cell_volume   6834.89382486
_cell_formula_units_Z   1
loop_
 _symmetry_equiv_pos_site_id
 _symmetry_equiv_pos_as_xyz
  1  'x, y, z'
loop_
 _atom_site_type_symbol
 _atom_site_label
 _atom_site_symmetry_multiplicity
 _atom_site_fract_x
 _atom_site_fract_y
 _atom_site_fract_z
 _atom_site_occupancy
  Cs  Cs0  1  0.00198726  0.00081150  0.00403248  1
  Cs  Cs1  1  0.00010468  -0.00295339  0.33256245  1
  Cs  Cs2  1  0.00029350  0.00074314  0.66473851  1
  Cs  Cs3  1  -0.00110608  0.33390609  -0.00148907  1
  Cs  Cs4  1  -0.00101084  0.33428267  0.33376352  1
  Cs  Cs5  1  -0.00060695  0.33416544  0.66782642  1
  Cs  Cs6  1  0.00138427  0.66632526  0.00776171  1
  Cs  Cs7  1  0.00017517  0.66880288  0.32903519  1
  Cs  Cs8  1  0.00261843  0.66395360  0.66555728  1
  Cs  Cs9  1  0.33171591  0.00055121  0.00209149  1
  Cs  Cs10  1  0.33455615  0.00376474  0.33246709  1
  Cs  Cs11  1  0.33020792  -0.00081363  0.66552284  1
  Cs  Cs12  1  0.33301218  0.33111092  0.00339349  1
  Cs  Cs13  1  0.34390627  0.32644927  0.32809352  1
  Cs  Cs14  1  0.33230867  0.33356676  0.66530250  1
  Cs  Cs15  1  0.33125475  0.66784504  -0.00050882  1
  Cs  Cs16  1  0.33429257  0.66649543  0.33372489  1
  Cs  Cs17  1  0.33215634  0.66657709  0.66649980  1
  Cs  Cs18  1  0.66626973  -0.00060333  -0.00425068  1
  Cs  Cs19  1  0.66655738  -0.00000067  0.33398971  1
  Cs  Cs20  1  0.66839751  -0.00310653  0.66958254  1
  Cs  Cs21  1  0.66829811  0.33290084  -0.00095024  1
  Cs  Cs22  1  0.66113548  0.33348392  0.33232035  1
  Cs  Cs23  1  0.66767406  0.33390718  0.66701805  1
  Cs  Cs24  1  0.66775992  0.66885429  -0.00158961  1
  Cs  Cs25  1  0.66591275  0.66615061  0.33145281  1
  Cs  Cs26  1  0.66609328  0.66828381  0.66784406  1
  Sn  Sn27  1  0.50009731  0.83306994  0.16757893  1
  Sn  Sn28  1  0.83395523  0.49938939  0.50072700  1
  Sn  Sn29  1  0.50033061  0.16745278  0.83263537  1
  Sn  Sn30  1  0.16757390  0.83240894  0.50096137  1
  Sn  Sn31  1  0.83343415  0.49967103  0.83245648  1
  Sn  Sn32  1  0.49987589  0.49924257  0.83308749  1
  Sn  Sn33  1  0.16647698  0.50017424  0.50015761  1
  Sn  Sn34  1  0.83335042  0.16684403  0.16667684  1
  Sn  Sn35  1  0.83333818  0.16761261  0.50012396  1
  Sn  Sn36  1  0.16652596  0.50087061  0.83270053  1
  Sn  Sn37  1  0.83269709  0.16724391  0.83301205  1
  Sn  Sn38  1  0.16619804  0.83260645  0.83253663  1
  Sn  Sn39  1  0.49928690  0.83313667  0.49940100  1
  Pb  Pb40  1  0.50227930  0.16466561  0.16392599  1
  Pb  Pb41  1  0.16629556  0.16733250  0.83325011  1
  Pb  Pb42  1  0.50011944  0.50215214  0.16346955  1
  Pb  Pb43  1  0.83083055  0.83569048  0.16656156  1
  Pb  Pb44  1  0.83389362  0.83235966  0.50024723  1
  Pb  Pb45  1  0.16465922  0.16744146  0.49986015  1
  Pb  Pb46  1  0.16423629  0.16691814  0.16699989  1
  Pb  Pb47  1  0.83322182  0.49803804  0.16695742  1
  Pb  Pb48  1  0.16875170  0.83322955  0.16746542  1
  Pb  Pb49  1  0.49997874  0.50167501  0.50190163  1
  Pb  Pb50  1  0.16685576  0.49973367  0.16767920  1
  Pb  Pb51  1  0.50261666  0.16427636  0.50260479  1
  Pb  Pb52  1  0.49789873  0.83338610  0.83282470  1
  Pb  Pb53  1  0.83664745  0.83283615  0.83326588  1
  I  I54  1  0.16587769  -0.00028002  0.16474202  1
  I  I55  1  0.16865536  -0.00305378  0.50432311  1
  I  I56  1  0.16773563  -0.00256160  0.82969511  1
  I  I57  1  0.16761939  0.33345565  0.16479753  1
  I  I58  1  0.16249699  0.33717640  0.50734680  1
  I  I59  1  0.16612419  0.33700983  0.82854001  1
  I  I60  1  0.16544289  0.66668431  0.16451826  1
  I  I61  1  0.16449877  0.66646631  0.50551704  1
  I  I62  1  0.16792257  0.66555180  0.82909565  1
  I  I63  1  0.50069742  -0.00305004  0.16834968  1
  I  I64  1  0.49528615  -0.00360283  0.49900429  1
  I  I65  1  0.50492852  0.00219892  0.83352654  1
  I  I66  1  0.50028500  0.33300972  0.16771101  1
  I  I67  1  0.49728753  0.33334756  0.49925222  1
  I  I68  1  0.49987232  0.33387774  0.83289435  1
  I  I69  1  0.49999526  0.67006981  0.16888508  1
  I  I70  1  0.50116953  0.66970732  0.49974508  1
  I  I71  1  0.50302990  0.66395921  0.83331493  1
  I  I72  1  0.83346785  0.00392143  0.16590996  1
  I  I73  1  0.83255376  0.00272099  0.50097746  1
  I  I74  1  0.82868599  0.00321510  0.83268159  1
  I  I75  1  0.83210016  0.33002494  0.16523797  1
  I  I76  1  0.83934681  0.33395276  0.50196019  1
  I  I77  1  0.83440063  0.33355525  0.83306154  1
  I  I78  1  0.83322113  0.66655401  0.16609591  1
  I  I79  1  0.83373060  0.66317438  0.50686867  1
  I  I80  1  0.82916302  0.66289284  0.82746359  1
  I  I81  1  0.16489881  0.16505629  -0.00050272  1
  I  I82  1  0.16437349  0.16547757  0.33373667  1
  I  I83  1  0.16480066  0.16395668  0.66675537  1
  I  I84  1  0.16515980  0.50444018  -0.00387896  1
  I  I85  1  0.15896921  0.50618072  0.33769918  1
  I  I86  1  0.16506243  0.50487240  0.66748846  1
  I  I87  1  0.16761521  0.82947016  -0.00275828  1
  I  I88  1  0.16715565  0.82889722  0.33707537  1
  I  I89  1  0.17273473  0.82985335  0.66605509  1
  I  I90  1  0.50556611  0.16781025  -0.00392556  1
  I  I91  1  0.50160510  0.16657459  0.33346535  1
  I  I92  1  0.50593486  0.16811060  0.67042814  1
  I  I93  1  0.50086668  0.49855498  -0.00519679  1
  I  I94  1  0.50011041  0.50009793  0.33360079  1
  I  I95  1  0.50069415  0.49936271  0.67027003  1
  I  I96  1  0.49938254  0.83399531  0.00124200  1
  I  I97  1  0.49492730  0.83353631  0.33453619  1
  I  I98  1  0.49792340  0.83347053  0.66443107  1
  I  I99  1  0.82936705  0.16979163  -0.00165772  1
  I  I100  1  0.83562561  0.16940013  0.33420616  1
  I  I101  1  0.82994869  0.17064563  0.66743958  1
  I  I102  1  0.83388834  0.49639445  -0.00365106  1
  I  I103  1  0.83867043  0.49712377  0.33703647  1
  I  I104  1  0.83441859  0.49216327  0.66747435  1
  I  I105  1  0.83256382  0.83352215  -0.00036926  1
  I  I106  1  0.83711307  0.83405389  0.33365030  1
  I  I107  1  0.82739468  0.83962975  0.66672759  1
  I  I108  1  -0.00446903  0.16595463  0.16223144  1
  I  I109  1  -0.00396551  0.16514316  0.50410197  1
  I  I110  1  -0.00355595  0.16917230  0.83334054  1
  I  I111  1  -0.00011879  0.49972279  0.16186990  1
  I  I112  1  -0.00016402  0.50145186  0.50857021  1
  I  I113  1  -0.00039961  0.49888953  0.82903650  1
  I  I114  1  0.00013410  0.83503936  0.16645063  1
  I  I115  1  0.00306680  0.83341758  0.50525944  1
  I  I116  1  0.00443129  0.83082916  0.82626868  1
  I  I117  1  0.33410017  0.16556699  0.16473336  1
  I  I118  1  0.33367317  0.16796245  0.50160859  1
  I  I119  1  0.33587362  0.16871869  0.83386384  1
  I  I120  1  0.33353023  0.49968285  0.16573937  1
  I  I121  1  0.33049762  0.50490202  0.50641192  1
  I  I122  1  0.33276420  0.50098217  0.82955195  1
  I  I123  1  0.33635345  0.83463560  0.16634157  1
  I  I124  1  0.33239395  0.82760623  0.50110856  1
  I  I125  1  0.33027000  0.82952575  0.83206776  1
  I  I126  1  0.67013521  0.16571578  0.16822184  1
  I  I127  1  0.67077940  0.17154047  0.49855389  1
  I  I128  1  0.66786734  0.17299320  0.83358099  1
  I  I129  1  0.66670473  0.50158362  0.16712094  1
  I  I130  1  0.66953874  0.49757655  0.50440758  1
  I  I131  1  0.66742679  0.49527737  0.83007422  1
  I  I132  1  0.66307021  0.83288244  0.17183704  1
  I  I133  1  0.66434028  0.83428053  0.49634580  1
  I  I134  1  0.66658185  0.83161423  0.83354698  1
