# generated using pymatgen
data_Cs27Sn13Pb14I81
_symmetry_space_group_name_H-M   'P 1'
_cell_length_a   19.00174528
_cell_length_b   18.99190722
_cell_length_c   18.98160889
_cell_angle_alpha   89.99927469
_cell_angle_beta   89.99840130
_cell_angle_gamma   89.99938726
_symmetry_Int_Tables_number   1
_chemical_formula_structural   Cs27Sn13Pb14I81
_chemical_formula_sum   'Cs27 Sn13 Pb14 I81'
_cell_volume   6850.07130645
_cell_formula_units_Z   1
loop_
 _symmetry_equiv_pos_site_id
 _symmetry_equiv_pos_as_xyz
  1  'x, y, z'
loop_
 _atom_site_type_symbol
 _atom_site_label
 _atom_site_symmetry_multiplicity
 _atom_site_fract_x
 _atom_site_fract_y
 _atom_site_fract_z
 _atom_site_occupancy
  Cs  Cs0  1  -0.00047578  0.00487520  0.00227389  1
  Cs  Cs1  1  -0.00337453  -0.00079826  0.33677438  1
  Cs  Cs2  1  0.00071561  0.00024240  0.66466443  1
  Cs  Cs3  1  -0.00092402  0.32534028  0.00016084  1
  Cs  Cs4  1  0.00383494  0.33827347  0.33122175  1
  Cs  Cs5  1  -0.00688894  0.33145200  0.66926648  1
  Cs  Cs6  1  -0.00009669  0.66815485  -0.00029370  1
  Cs  Cs7  1  0.00435993  0.66387051  0.33383367  1
  Cs  Cs8  1  -0.00010763  0.66672157  0.66603101  1
  Cs  Cs9  1  0.33280326  0.00062971  -0.00011889  1
  Cs  Cs10  1  0.33508722  0.00110980  0.33766959  1
  Cs  Cs11  1  0.33466994  -0.00107651  0.66613136  1
  Cs  Cs12  1  0.32967894  0.33328024  0.00543104  1
  Cs  Cs13  1  0.33196038  0.34163059  0.32463547  1
  Cs  Cs14  1  0.33725018  0.32979757  0.66787116  1
  Cs  Cs15  1  0.33260762  0.66679826  -0.00252729  1
  Cs  Cs16  1  0.32868930  0.65650543  0.33099513  1
  Cs  Cs17  1  0.33287397  0.66899393  0.66905769  1
  Cs  Cs18  1  0.66809564  -0.00251000  0.00898096  1
  Cs  Cs19  1  0.66811530  -0.00026726  0.33097580  1
  Cs  Cs20  1  0.66337451  -0.00128947  0.66450286  1
  Cs  Cs21  1  0.67181272  0.33046696  0.00030737  1
  Cs  Cs22  1  0.66276115  0.33644191  0.33469594  1
  Cs  Cs23  1  0.66783299  0.33456296  0.66583287  1
  Cs  Cs24  1  0.66782317  0.66981164  0.00025535  1
  Cs  Cs25  1  0.66578466  0.66445781  0.32863134  1
  Cs  Cs26  1  0.66675527  0.66607205  0.66816862  1
  Sn  Sn27  1  0.83339088  0.50031563  0.16627350  1
  Sn  Sn28  1  0.83284068  0.16610156  0.50016743  1
  Sn  Sn29  1  0.50067762  0.83331896  0.50029872  1
  Sn  Sn30  1  0.50015884  0.16620993  0.83314813  1
  Sn  Sn31  1  0.16651989  0.83308464  0.83424796  1
  Sn  Sn32  1  0.16687854  0.50003732  0.83270005  1
  Sn  Sn33  1  0.49938329  0.49985692  0.83323478  1
  Sn  Sn34  1  0.83331999  0.83381098  0.83268246  1
  Sn  Sn35  1  0.49982983  0.16607000  0.50060895  1
  Sn  Sn36  1  0.16689704  0.83392440  0.16617254  1
  Sn  Sn37  1  0.16720123  0.16719896  0.50021555  1
  Sn  Sn38  1  0.50026072  0.83380478  0.83278947  1
  Sn  Sn39  1  0.83219897  0.83363730  0.50085379  1
  Pb  Pb40  1  0.83323257  0.50077254  0.49830890  1
  Pb  Pb41  1  0.16862219  0.16627287  0.83158215  1
  Pb  Pb42  1  0.83330392  0.16899141  0.17017621  1
  Pb  Pb43  1  0.83540670  0.83219489  0.16739981  1
  Pb  Pb44  1  0.49748564  0.83321848  0.16740917  1
  Pb  Pb45  1  0.16675923  0.16382248  0.16959829  1
  Pb  Pb46  1  0.16714129  0.83427157  0.50054128  1
  Pb  Pb47  1  0.50205961  0.50017226  0.16283526  1
  Pb  Pb48  1  0.16673174  0.49682694  0.50353790  1
  Pb  Pb49  1  0.83040629  0.16347471  0.83136404  1
  Pb  Pb50  1  0.16471908  0.50197394  0.16327496  1
  Pb  Pb51  1  0.49986037  0.50047035  0.50225809  1
  Pb  Pb52  1  0.83342835  0.50208796  0.83467621  1
  Pb  Pb53  1  0.49995990  0.16646840  0.16719686  1
  I  I54  1  0.16523603  -0.00369659  0.15672228  1
  I  I55  1  0.16681848  0.00224610  0.50244490  1
  I  I56  1  0.16739650  -0.00334771  0.83552936  1
  I  I57  1  0.16564190  0.33348123  0.16699950  1
  I  I58  1  0.16655901  0.32879692  0.50106591  1
  I  I59  1  0.17175007  0.33562869  0.83042987  1
  I  I60  1  0.16620204  0.66973572  0.16724765  1
  I  I61  1  0.16608262  0.66673852  0.49704362  1
  I  I62  1  0.17176485  0.66829469  0.83630240  1
  I  I63  1  0.50060492  -0.00032910  0.16149256  1
  I  I64  1  0.50027308  -0.00016907  0.50873671  1
  I  I65  1  0.49873518  -0.00116904  0.82766147  1
  I  I66  1  0.49969733  0.33344321  0.16790651  1
  I  I67  1  0.50215933  0.32998480  0.50512343  1
  I  I68  1  0.49507651  0.33302251  0.82833053  1
  I  I69  1  0.50036336  0.66675969  0.16844101  1
  I  I70  1  0.50547804  0.67035000  0.50471662  1
  I  I71  1  0.49918821  0.66814868  0.82962954  1
  I  I72  1  0.83440257  -0.00010105  0.16495297  1
  I  I73  1  0.83309577  -0.00077059  0.50383176  1
  I  I74  1  0.83626294  -0.00457671  0.83277276  1
  I  I75  1  0.83414006  0.33647416  0.16490965  1
  I  I76  1  0.83222574  0.33024069  0.49849034  1
  I  I77  1  0.83359222  0.33301270  0.83335484  1
  I  I78  1  0.83392680  0.66472397  0.16756709  1
  I  I79  1  0.82866289  0.67055409  0.50345670  1
  I  I80  1  0.82940662  0.67035998  0.82784638  1
  I  I81  1  0.16831849  0.16901143  -0.00028501  1
  I  I82  1  0.16893173  0.16346516  0.33776893  1
  I  I83  1  0.16513088  0.16360876  0.66369457  1
  I  I84  1  0.17213240  0.50197258  -0.00425783  1
  I  I85  1  0.16550873  0.50115689  0.33310193  1
  I  I86  1  0.16924622  0.51004368  0.67097526  1
  I  I87  1  0.16691535  0.82884500  -0.00249030  1
  I  I88  1  0.16509409  0.83674314  0.33180027  1
  I  I89  1  0.16707979  0.83071664  0.66986639  1
  I  I90  1  0.49892933  0.16533722  -0.00362716  1
  I  I91  1  0.50140573  0.15976036  0.33771151  1
  I  I92  1  0.49942274  0.16551097  0.66624392  1
  I  I93  1  0.49519120  0.50186583  -0.00527366  1
  I  I94  1  0.50076602  0.49960758  0.33318109  1
  I  I95  1  0.49798980  0.50086245  0.67048778  1
  I  I96  1  0.50305819  0.83366922  -0.00375437  1
  I  I97  1  0.50448801  0.84071465  0.33718023  1
  I  I98  1  0.49853861  0.83416254  0.66785860  1
  I  I99  1  0.83210995  0.16638548  -0.00015240  1
  I  I100  1  0.83035752  0.15790513  0.33834574  1
  I  I101  1  0.83598891  0.16678931  0.66324912  1
  I  I102  1  0.83251796  0.50388697  0.00213885  1
  I  I103  1  0.83437080  0.50189085  0.33060369  1
  I  I104  1  0.83368231  0.49844951  0.66689111  1
  I  I105  1  0.82996928  0.83006842  -0.00283552  1
  I  I106  1  0.83018151  0.83693835  0.33691226  1
  I  I107  1  0.83482716  0.83551073  0.66679216  1
  I  I108  1  0.00002021  0.16716875  0.16709417  1
  I  I109  1  -0.00058868  0.16087164  0.49940355  1
  I  I110  1  -0.00024375  0.16786716  0.83095616  1
  I  I111  1  -0.00245043  0.50195165  0.16627483  1
  I  I112  1  -0.00002563  0.50045567  0.50165414  1
  I  I113  1  0.00253857  0.50615869  0.83427332  1
  I  I114  1  0.00284262  0.83152682  0.16206806  1
  I  I115  1  -0.00229596  0.83810759  0.50288743  1
  I  I116  1  0.00022776  0.82688557  0.83238703  1
  I  I117  1  0.33322611  0.16748766  0.16925487  1
  I  I118  1  0.33480517  0.15999518  0.50556283  1
  I  I119  1  0.33659518  0.16214577  0.82605088  1
  I  I120  1  0.33306694  0.50038657  0.16886635  1
  I  I121  1  0.33330145  0.50134560  0.49659850  1
  I  I122  1  0.33382718  0.50634917  0.83212486  1
  I  I123  1  0.32998385  0.83276600  0.16165587  1
  I  I124  1  0.33621768  0.83928708  0.50435924  1
  I  I125  1  0.33404333  0.83230037  0.83281698  1
  I  I126  1  0.66678610  0.16622130  0.16684459  1
  I  I127  1  0.66608253  0.16219824  0.50444469  1
  I  I128  1  0.66255101  0.16962512  0.82709530  1
  I  I129  1  0.66941919  0.50200409  0.16649874  1
  I  I130  1  0.66657486  0.49560508  0.50172707  1
  I  I131  1  0.66378892  0.50105595  0.83434191  1
  I  I132  1  0.66676766  0.83190282  0.16389788  1
  I  I133  1  0.66644825  0.84149850  0.50871522  1
  I  I134  1  0.66590062  0.83217888  0.82803033  1
