# generated using pymatgen
data_Cs27Sn14Pb13I81
_symmetry_space_group_name_H-M   'P 1'
_cell_length_a   18.95635190
_cell_length_b   18.96475703
_cell_length_c   18.96081305
_cell_angle_alpha   90.00049161
_cell_angle_beta   89.99811647
_cell_angle_gamma   90.00110832
_symmetry_Int_Tables_number   1
_chemical_formula_structural   Cs27Sn14Pb13I81
_chemical_formula_sum   'Cs27 Sn14 Pb13 I81'
_cell_volume   6816.46173467
_cell_formula_units_Z   1
loop_
 _symmetry_equiv_pos_site_id
 _symmetry_equiv_pos_as_xyz
  1  'x, y, z'
loop_
 _atom_site_type_symbol
 _atom_site_label
 _atom_site_symmetry_multiplicity
 _atom_site_fract_x
 _atom_site_fract_y
 _atom_site_fract_z
 _atom_site_occupancy
  Cs  Cs0  1  -0.00035095  0.00030395  0.00057796  1
  Cs  Cs1  1  0.00138679  0.00034562  0.33469313  1
  Cs  Cs2  1  0.00022956  -0.00198171  0.66494662  1
  Cs  Cs3  1  -0.00266696  0.33469845  0.00095390  1
  Cs  Cs4  1  -0.00066497  0.33275083  0.33286905  1
  Cs  Cs5  1  0.00157272  0.33606250  0.66385818  1
  Cs  Cs6  1  -0.00028839  0.66565836  -0.00379090  1
  Cs  Cs7  1  0.00102925  0.66737237  0.33629416  1
  Cs  Cs8  1  -0.00036555  0.66703895  0.66564783  1
  Cs  Cs9  1  0.33225593  -0.00129523  0.00251711  1
  Cs  Cs10  1  0.33117250  -0.00059295  0.33105125  1
  Cs  Cs11  1  0.33326242  -0.00068597  0.66683740  1
  Cs  Cs12  1  0.33085967  0.33288500  -0.00346405  1
  Cs  Cs13  1  0.33289650  0.33129367  0.33432425  1
  Cs  Cs14  1  0.33953599  0.33387813  0.66886918  1
  Cs  Cs15  1  0.33461589  0.66664529  0.00117815  1
  Cs  Cs16  1  0.33449495  0.66851641  0.33176538  1
  Cs  Cs17  1  0.33223219  0.66725360  0.66795489  1
  Cs  Cs18  1  0.66940739  0.00048468  -0.00315481  1
  Cs  Cs19  1  0.66686279  -0.00155631  0.33369449  1
  Cs  Cs20  1  0.66581325  0.00034836  0.66938002  1
  Cs  Cs21  1  0.67441129  0.33743900  -0.00461706  1
  Cs  Cs22  1  0.66756959  0.33716838  0.33410006  1
  Cs  Cs23  1  0.65419003  0.33093051  0.66867756  1
  Cs  Cs24  1  0.66710033  0.66214425  0.00291857  1
  Cs  Cs25  1  0.66410300  0.66651158  0.33142010  1
  Cs  Cs26  1  0.66875976  0.66850024  0.66686066  1
  Sn  Sn27  1  0.16737496  0.83419869  0.83437132  1
  Sn  Sn28  1  0.83373858  0.49969892  0.50011787  1
  Sn  Sn29  1  0.16567401  0.83300951  0.16565613  1
  Sn  Sn30  1  0.83360882  0.16695359  0.50007364  1
  Sn  Sn31  1  0.16617503  0.16765051  0.50042614  1
  Sn  Sn32  1  0.16632245  0.16580615  0.83310194  1
  Sn  Sn33  1  0.83221171  0.83346709  0.49909414  1
  Sn  Sn34  1  0.16630649  0.49894549  0.49909544  1
  Sn  Sn35  1  0.50096038  0.83363212  0.50059940  1
  Sn  Sn36  1  0.16676418  0.50000211  0.16765525  1
  Sn  Sn37  1  0.50013562  0.16700708  0.16651331  1
  Sn  Sn38  1  0.16740019  0.16699789  0.16648388  1
  Sn  Sn39  1  0.83431988  0.83361024  0.16740050  1
  Sn  Sn40  1  0.49922330  0.83340501  0.83287314  1
  Pb  Pb41  1  0.83366899  0.16501734  0.16852350  1
  Pb  Pb42  1  0.50017470  0.83471043  0.16629167  1
  Pb  Pb43  1  0.16664559  0.50001242  0.83305822  1
  Pb  Pb44  1  0.83342418  0.49976915  0.82981115  1
  Pb  Pb45  1  0.49989862  0.50298590  0.83360099  1
  Pb  Pb46  1  0.49748366  0.49643559  0.16671418  1
  Pb  Pb47  1  0.16652536  0.83336864  0.49999406  1
  Pb  Pb48  1  0.83606356  0.16675681  0.83009158  1
  Pb  Pb49  1  0.83577236  0.50256852  0.16881536  1
  Pb  Pb50  1  0.49777200  0.16451171  0.83631821  1
  Pb  Pb51  1  0.49949394  0.50268923  0.49984147  1
  Pb  Pb52  1  0.83361841  0.83328576  0.83342686  1
  Pb  Pb53  1  0.49962235  0.16449004  0.49832532  1
  I  I54  1  0.16706518  0.00007337  0.16717435  1
  I  I55  1  0.16439349  0.00236092  0.49783183  1
  I  I56  1  0.16989221  -0.00054279  0.83542485  1
  I  I57  1  0.17166293  0.33240254  0.16790484  1
  I  I58  1  0.15917388  0.33248512  0.49670213  1
  I  I59  1  0.16553749  0.33016489  0.83532263  1
  I  I60  1  0.16230507  0.66760350  0.16766940  1
  I  I61  1  0.16417814  0.66471925  0.49733503  1
  I  I62  1  0.16999687  0.66996397  0.83569541  1
  I  I63  1  0.49214876  0.00214838  0.16822977  1
  I  I64  1  0.50269952  -0.00352256  0.50225316  1
  I  I65  1  0.49740031  -0.00344724  0.82906676  1
  I  I66  1  0.49363939  0.32869898  0.16966598  1
  I  I67  1  0.50231754  0.33306522  0.49866782  1
  I  I68  1  0.49817722  0.33279318  0.83296583  1
  I  I69  1  0.49897614  0.66685694  0.16674512  1
  I  I70  1  0.50234450  0.67092716  0.50218647  1
  I  I71  1  0.49229270  0.67154555  0.82979808  1
  I  I72  1  0.83917434  -0.00319539  0.17317200  1
  I  I73  1  0.83519501  -0.00043901  0.49635770  1
  I  I74  1  0.83250988  -0.00020460  0.83031700  1
  I  I75  1  0.83353900  0.33342296  0.16840600  1
  I  I76  1  0.84119011  0.33304684  0.49951356  1
  I  I77  1  0.83631705  0.33309379  0.83522533  1
  I  I78  1  0.83724182  0.67081189  0.17203802  1
  I  I79  1  0.83484075  0.66727595  0.49667094  1
  I  I80  1  0.83597590  0.66710186  0.83090712  1
  I  I81  1  0.17225188  0.16490477  0.00089777  1
  I  I82  1  0.16654718  0.16601751  0.33325069  1
  I  I83  1  0.16137441  0.16492162  0.66579582  1
  I  I84  1  0.16808514  0.49866268  0.00304948  1
  I  I85  1  0.16304985  0.49794239  0.33373260  1
  I  I86  1  0.16228449  0.49866828  0.66323249  1
  I  I87  1  0.16709441  0.83626571  0.00087405  1
  I  I88  1  0.16629008  0.83565798  0.33096259  1
  I  I89  1  0.16746833  0.83613067  0.66860124  1
  I  I90  1  0.49273807  0.16247871  0.00381418  1
  I  I91  1  0.49219213  0.16226896  0.33086387  1
  I  I92  1  0.49943332  0.16639179  0.66677143  1
  I  I93  1  0.49723586  0.50342854  0.00034102  1
  I  I94  1  0.50051809  0.50405883  0.33341019  1
  I  I95  1  0.49759177  0.49768459  0.66631158  1
  I  I96  1  0.49713229  0.83580628  -0.00229525  1
  I  I97  1  0.50072915  0.83465191  0.33541934  1
  I  I98  1  0.49888791  0.83434516  0.66628417  1
  I  I99  1  0.83360332  0.16306869  0.00015053  1
  I  I100  1  0.83996367  0.16648310  0.33691677  1
  I  I101  1  0.83861832  0.16233734  0.66154566  1
  I  I102  1  0.83433803  0.50257486  0.00037903  1
  I  I103  1  0.83646547  0.49872178  0.33713700  1
  I  I104  1  0.84264177  0.50505992  0.66120680  1
  I  I105  1  0.83512784  0.83483044  0.00292064  1
  I  I106  1  0.83418959  0.83380269  0.33456315  1
  I  I107  1  0.83341195  0.83294752  0.66320968  1
  I  I108  1  0.00377874  0.16717823  0.16584793  1
  I  I109  1  0.00132417  0.16426656  0.49793682  1
  I  I110  1  0.00474857  0.15912307  0.83851117  1
  I  I111  1  0.00423879  0.49514313  0.16886991  1
  I  I112  1  0.00084452  0.50174015  0.49633309  1
  I  I113  1  0.00058128  0.50366456  0.83451403  1
  I  I114  1  0.00167851  0.83580906  0.16792957  1
  I  I115  1  -0.00220927  0.83350620  0.49911877  1
  I  I116  1  0.00332959  0.83669392  0.83401268  1
  I  I117  1  0.33023476  0.16322447  0.16959233  1
  I  I118  1  0.32972291  0.16888787  0.50078556  1
  I  I119  1  0.32917465  0.16443826  0.82828795  1
  I  I120  1  0.32857153  0.50641234  0.17335653  1
  I  I121  1  0.32970129  0.49674092  0.49683899  1
  I  I122  1  0.33269801  0.49904221  0.83006653  1
  I  I123  1  0.33011826  0.83275748  0.16694218  1
  I  I124  1  0.33490875  0.83394071  0.50030763  1
  I  I125  1  0.33191577  0.83708747  0.83233782  1
  I  I126  1  0.66479339  0.16096477  0.17039206  1
  I  I127  1  0.66928574  0.16751524  0.49665114  1
  I  I128  1  0.66646135  0.16478955  0.83353830  1
  I  I129  1  0.66706254  0.50136783  0.16821337  1
  I  I130  1  0.66980315  0.49847912  0.50041046  1
  I  I131  1  0.66669731  0.50154823  0.83243623  1
  I  I132  1  0.66911038  0.83634347  0.16897672  1
  I  I133  1  0.66800811  0.83360991  0.49931527  1
  I  I134  1  0.66416337  0.83329795  0.83124563  1
