# generated using pymatgen
data_Cs27Sn14Pb13I81
_symmetry_space_group_name_H-M   'P 1'
_cell_length_a   18.96615458
_cell_length_b   18.98447411
_cell_length_c   18.97608876
_cell_angle_alpha   90.00002541
_cell_angle_beta   90.00309900
_cell_angle_gamma   90.00200436
_symmetry_Int_Tables_number   1
_chemical_formula_structural   Cs27Sn14Pb13I81
_chemical_formula_sum   'Cs27 Sn14 Pb13 I81'
_cell_volume   6832.57738830
_cell_formula_units_Z   1
loop_
 _symmetry_equiv_pos_site_id
 _symmetry_equiv_pos_as_xyz
  1  'x, y, z'
loop_
 _atom_site_type_symbol
 _atom_site_label
 _atom_site_symmetry_multiplicity
 _atom_site_fract_x
 _atom_site_fract_y
 _atom_site_fract_z
 _atom_site_occupancy
  Cs  Cs0  1  -0.00248489  -0.00066570  0.00339629  1
  Cs  Cs1  1  0.00198784  -0.00149747  0.33148022  1
  Cs  Cs2  1  -0.00008274  0.00356163  0.66443297  1
  Cs  Cs3  1  -0.00123438  0.33535247  0.00018870  1
  Cs  Cs4  1  0.00098484  0.33276253  0.33331703  1
  Cs  Cs5  1  -0.00077127  0.33000368  0.66530429  1
  Cs  Cs6  1  -0.00069733  0.66597206  0.00002268  1
  Cs  Cs7  1  -0.00082337  0.66974347  0.33140832  1
  Cs  Cs8  1  0.00163146  0.66662593  0.66768907  1
  Cs  Cs9  1  0.33648253  -0.00066536  -0.00133267  1
  Cs  Cs10  1  0.32963898  0.00335900  0.33363718  1
  Cs  Cs11  1  0.33224853  0.00139832  0.66797557  1
  Cs  Cs12  1  0.33417962  0.33501043  0.00053653  1
  Cs  Cs13  1  0.33374794  0.33274301  0.33288209  1
  Cs  Cs14  1  0.33258602  0.33070979  0.66715485  1
  Cs  Cs15  1  0.33421527  0.66494752  -0.00463194  1
  Cs  Cs16  1  0.33866923  0.66266706  0.33325859  1
  Cs  Cs17  1  0.33363013  0.67024627  0.67112436  1
  Cs  Cs18  1  0.66769455  -0.00121134  0.00219475  1
  Cs  Cs19  1  0.66510523  -0.00415468  0.33103357  1
  Cs  Cs20  1  0.66873942  0.00017703  0.66478744  1
  Cs  Cs21  1  0.66721214  0.33323719  -0.00228196  1
  Cs  Cs22  1  0.66247108  0.33766644  0.33446720  1
  Cs  Cs23  1  0.66807501  0.33334334  0.66908337  1
  Cs  Cs24  1  0.67062410  0.66775532  -0.00067492  1
  Cs  Cs25  1  0.66051735  0.66559101  0.34286596  1
  Cs  Cs26  1  0.66438755  0.66591685  0.66024848  1
  Sn  Sn27  1  0.16675432  0.83365220  0.16698355  1
  Sn  Sn28  1  0.16705168  0.16677300  0.83399632  1
  Sn  Sn29  1  0.83264842  0.50101009  0.83364071  1
  Sn  Sn30  1  0.49946103  0.16726357  0.83258889  1
  Sn  Sn31  1  0.16716162  0.16667377  0.49986935  1
  Sn  Sn32  1  0.16651527  0.83309226  0.49917862  1
  Sn  Sn33  1  0.83362508  0.83252217  0.83343528  1
  Sn  Sn34  1  0.16589197  0.16621499  0.16616339  1
  Sn  Sn35  1  0.83331931  0.50033449  0.16662108  1
  Sn  Sn36  1  0.83385120  0.83280526  0.16616202  1
  Sn  Sn37  1  0.16638750  0.50016355  0.49999416  1
  Sn  Sn38  1  0.49963018  0.16653336  0.50080759  1
  Sn  Sn39  1  0.83377927  0.16686681  0.16693987  1
  Sn  Sn40  1  0.50074260  0.49938187  0.83346709  1
  Pb  Pb41  1  0.49723163  0.49764764  0.50283437  1
  Pb  Pb42  1  0.49961105  0.16664171  0.16639581  1
  Pb  Pb43  1  0.83542223  0.83337817  0.49964729  1
  Pb  Pb44  1  0.83311943  0.16666625  0.83512437  1
  Pb  Pb45  1  0.50299366  0.83384731  0.83332927  1
  Pb  Pb46  1  0.49653010  0.83632504  0.50004937  1
  Pb  Pb47  1  0.83528991  0.49990116  0.50034882  1
  Pb  Pb48  1  0.49949024  0.83316433  0.16661519  1
  Pb  Pb49  1  0.50299775  0.50010587  0.16401785  1
  Pb  Pb50  1  0.16607979  0.49774217  0.83157802  1
  Pb  Pb51  1  0.16499780  0.50030526  0.16835253  1
  Pb  Pb52  1  0.16444880  0.83585312  0.83398081  1
  Pb  Pb53  1  0.83304150  0.16666768  0.49668560  1
  I  I54  1  0.15812171  0.00100873  0.17177514  1
  I  I55  1  0.17007379  0.00105353  0.49889497  1
  I  I56  1  0.17055333  0.00397583  0.82900557  1
  I  I57  1  0.16247945  0.33022937  0.16782353  1
  I  I58  1  0.16957022  0.33158031  0.50003697  1
  I  I59  1  0.16528881  0.32948971  0.83349590  1
  I  I60  1  0.16140594  0.66967835  0.17175439  1
  I  I61  1  0.16259066  0.66739860  0.49557065  1
  I  I62  1  0.16915892  0.66669858  0.83202530  1
  I  I63  1  0.50577448  0.00028347  0.16431815  1
  I  I64  1  0.49523481  0.00428835  0.50657828  1
  I  I65  1  0.49607079  0.00348536  0.82975179  1
  I  I66  1  0.50008257  0.33316907  0.16878815  1
  I  I67  1  0.49339313  0.32987086  0.50053175  1
  I  I68  1  0.50267699  0.33239098  0.82982205  1
  I  I69  1  0.49767453  0.66650595  0.16497946  1
  I  I70  1  0.49895758  0.66649424  0.50076060  1
  I  I71  1  0.50158230  0.66387128  0.83479868  1
  I  I72  1  0.83794525  -0.00031184  0.16213953  1
  I  I73  1  0.83467277  0.00014469  0.50282276  1
  I  I74  1  0.83459357  -0.00189427  0.83785009  1
  I  I75  1  0.83793603  0.33321161  0.16244196  1
  I  I76  1  0.83771476  0.33314719  0.49978416  1
  I  I77  1  0.83266819  0.33551091  0.83791665  1
  I  I78  1  0.83923770  0.66726283  0.16034144  1
  I  I79  1  0.83632327  0.66665149  0.49650108  1
  I  I80  1  0.82982378  0.66592231  0.84206411  1
  I  I81  1  0.16623603  0.16239516  0.00069314  1
  I  I82  1  0.16644401  0.16586565  0.33351357  1
  I  I83  1  0.17092479  0.16673164  0.66618675  1
  I  I84  1  0.16850293  0.49921764  -0.00018631  1
  I  I85  1  0.16409312  0.49457720  0.33630686  1
  I  I86  1  0.16471050  0.49959871  0.66363825  1
  I  I87  1  0.16355286  0.83883563  0.00309126  1
  I  I88  1  0.15954379  0.83986065  0.33276094  1
  I  I89  1  0.16521639  0.83496123  0.66434623  1
  I  I90  1  0.49663747  0.17054681  -0.00312544  1
  I  I91  1  0.49599133  0.16582318  0.33584527  1
  I  I92  1  0.49088351  0.17025160  0.66731152  1
  I  I93  1  0.49883591  0.49191587  -0.00402153  1
  I  I94  1  0.50135564  0.49891029  0.33377382  1
  I  I95  1  0.50792304  0.49733285  0.67038049  1
  I  I96  1  0.49465278  0.83643096  -0.00031027  1
  I  I97  1  0.50610737  0.83463186  0.33350769  1
  I  I98  1  0.50052632  0.83180766  0.66674554  1
  I  I99  1  0.83781792  0.16644923  0.00308660  1
  I  I100  1  0.83850722  0.16566835  0.32851317  1
  I  I101  1  0.83649380  0.16704913  0.66675364  1
  I  I102  1  0.83098768  0.50014904  -0.00007445  1
  I  I103  1  0.83713613  0.49982306  0.33027271  1
  I  I104  1  0.83054881  0.50411053  0.67017154  1
  I  I105  1  0.83913459  0.83301418  0.00121280  1
  I  I106  1  0.83635884  0.83431829  0.32969611  1
  I  I107  1  0.83429184  0.82860927  0.66941738  1
  I  I108  1  0.00104681  0.16584456  0.16625371  1
  I  I109  1  0.00369705  0.16634012  0.50346046  1
  I  I110  1  0.00255771  0.16664834  0.83008130  1
  I  I111  1  -0.00327832  0.49919583  0.15969401  1
  I  I112  1  0.00340560  0.49530342  0.50244056  1
  I  I113  1  -0.00302278  0.50221666  0.83659253  1
  I  I114  1  -0.00022126  0.83528814  0.16700733  1
  I  I115  1  0.00375177  0.83822622  0.49879894  1
  I  I116  1  -0.00332986  0.82817793  0.83541299  1
  I  I117  1  0.32966245  0.16147947  0.16735018  1
  I  I118  1  0.33131586  0.16645691  0.49892487  1
  I  I119  1  0.33289725  0.17169029  0.83405505  1
  I  I120  1  0.33320673  0.49945761  0.16659564  1
  I  I121  1  0.32935081  0.50137511  0.50001697  1
  I  I122  1  0.33543227  0.49666046  0.83030531  1
  I  I123  1  0.32919343  0.84089315  0.17140685  1
  I  I124  1  0.32830341  0.83155331  0.49427901  1
  I  I125  1  0.33306459  0.83075098  0.83346271  1
  I  I126  1  0.66970859  0.16564515  0.16547705  1
  I  I127  1  0.66373555  0.16803553  0.50519999  1
  I  I128  1  0.66422036  0.16787899  0.82977406  1
  I  I129  1  0.67166493  0.49827715  0.16593006  1
  I  I130  1  0.66633584  0.49810814  0.49752326  1
  I  I131  1  0.66744240  0.49626453  0.83789139  1
  I  I132  1  0.67057373  0.83615716  0.16095727  1
  I  I133  1  0.66646093  0.83461000  0.49928643  1
  I  I134  1  0.67099600  0.83533278  0.84136644  1
