# generated using pymatgen
data_Cs27Sn14Pb13I81
_symmetry_space_group_name_H-M   'P 1'
_cell_length_a   18.98065981
_cell_length_b   18.97615406
_cell_length_c   18.97172080
_cell_angle_alpha   90.00036169
_cell_angle_beta   90.00029870
_cell_angle_gamma   90.00129822
_symmetry_Int_Tables_number   1
_chemical_formula_structural   Cs27Sn14Pb13I81
_chemical_formula_sum   'Cs27 Sn14 Pb13 I81'
_cell_volume   6833.23296583
_cell_formula_units_Z   1
loop_
 _symmetry_equiv_pos_site_id
 _symmetry_equiv_pos_as_xyz
  1  'x, y, z'
loop_
 _atom_site_type_symbol
 _atom_site_label
 _atom_site_symmetry_multiplicity
 _atom_site_fract_x
 _atom_site_fract_y
 _atom_site_fract_z
 _atom_site_occupancy
  Cs  Cs0  1  -0.00101230  -0.00051403  -0.00280345  1
  Cs  Cs1  1  -0.00112970  -0.00184231  0.33582635  1
  Cs  Cs2  1  0.00209287  0.00124909  0.66831756  1
  Cs  Cs3  1  -0.00117009  0.33658957  0.00285707  1
  Cs  Cs4  1  -0.00025127  0.33310817  0.33203955  1
  Cs  Cs5  1  -0.00241537  0.33168385  0.66548677  1
  Cs  Cs6  1  0.00040317  0.66583785  -0.00011788  1
  Cs  Cs7  1  0.00073206  0.67024778  0.33218060  1
  Cs  Cs8  1  0.00124606  0.66474472  0.66815700  1
  Cs  Cs9  1  0.33506595  0.00175979  -0.00179990  1
  Cs  Cs10  1  0.33490783  0.00175558  0.33168140  1
  Cs  Cs11  1  0.33181101  0.00127122  0.66862484  1
  Cs  Cs12  1  0.33232164  0.33496519  0.00496140  1
  Cs  Cs13  1  0.33127932  0.33114718  0.32955874  1
  Cs  Cs14  1  0.33469561  0.33108428  0.66660317  1
  Cs  Cs15  1  0.33035806  0.66405057  -0.00189631  1
  Cs  Cs16  1  0.33428080  0.66746679  0.33683077  1
  Cs  Cs17  1  0.33452723  0.66564559  0.66540184  1
  Cs  Cs18  1  0.66619541  0.00016950  -0.00017210  1
  Cs  Cs19  1  0.66756535  -0.00900314  0.33266457  1
  Cs  Cs20  1  0.66598274  0.00200158  0.66920942  1
  Cs  Cs21  1  0.66792322  0.33413756  0.00129330  1
  Cs  Cs22  1  0.66894676  0.33428577  0.33199763  1
  Cs  Cs23  1  0.66689834  0.33744509  0.66388825  1
  Cs  Cs24  1  0.66828380  0.66487314  0.00171732  1
  Cs  Cs25  1  0.66439280  0.67252431  0.33634510  1
  Cs  Cs26  1  0.66305967  0.65676243  0.65982522  1
  Sn  Sn27  1  0.50069717  0.50010807  0.16669939  1
  Sn  Sn28  1  0.16670099  0.16645765  0.83315487  1
  Sn  Sn29  1  0.16706200  0.83399784  0.16613133  1
  Sn  Sn30  1  0.83336607  0.16616749  0.83418872  1
  Sn  Sn31  1  0.83238756  0.49981666  0.16674216  1
  Sn  Sn32  1  0.16751355  0.16673783  0.50068557  1
  Sn  Sn33  1  0.49961618  0.16638969  0.50017731  1
  Sn  Sn34  1  0.83335943  0.16667027  0.16617671  1
  Sn  Sn35  1  0.50027237  0.83340433  0.83318171  1
  Sn  Sn36  1  0.49992732  0.16631038  0.83283157  1
  Sn  Sn37  1  0.83286691  0.83357595  0.83289143  1
  Sn  Sn38  1  0.16645679  0.49939481  0.50028958  1
  Sn  Sn39  1  0.16682981  0.83371752  0.50037779  1
  Sn  Sn40  1  0.16675779  0.83407325  0.83329382  1
  Pb  Pb41  1  0.83560246  0.50014178  0.49694179  1
  Pb  Pb42  1  0.83530032  0.83343625  0.50378594  1
  Pb  Pb43  1  0.49782842  0.49716582  0.49754107  1
  Pb  Pb44  1  0.16633555  0.50227644  0.16885883  1
  Pb  Pb45  1  0.49992962  0.49935197  0.83500803  1
  Pb  Pb46  1  0.49761747  0.83129378  0.16404821  1
  Pb  Pb47  1  0.83336373  0.49973505  0.83493226  1
  Pb  Pb48  1  0.16669531  0.49941399  0.83118593  1
  Pb  Pb49  1  0.50237633  0.16765254  0.16664581  1
  Pb  Pb50  1  0.16453442  0.16465449  0.16652954  1
  Pb  Pb51  1  0.83499378  0.83354404  0.16458631  1
  Pb  Pb52  1  0.83312569  0.16645861  0.50039486  1
  Pb  Pb53  1  0.49783438  0.83581205  0.50268155  1
  I  I54  1  0.16497004  -0.00318089  0.16962561  1
  I  I55  1  0.16967436  0.00037010  0.50201083  1
  I  I56  1  0.16603122  -0.00014806  0.82939004  1
  I  I57  1  0.16741100  0.33319795  0.16693977  1
  I  I58  1  0.17017797  0.33171761  0.50404160  1
  I  I59  1  0.16670738  0.32942768  0.82922920  1
  I  I60  1  0.16451579  0.67015696  0.16460845  1
  I  I61  1  0.16456882  0.66778535  0.49938686  1
  I  I62  1  0.16610683  0.67022197  0.83304438  1
  I  I63  1  0.50051313  -0.00006301  0.16863916  1
  I  I64  1  0.49414328  0.00373693  0.50019205  1
  I  I65  1  0.49888901  0.00087781  0.83072934  1
  I  I66  1  0.49990971  0.33559901  0.16470823  1
  I  I67  1  0.49350710  0.32949664  0.50804998  1
  I  I68  1  0.49969000  0.32934225  0.83030536  1
  I  I69  1  0.50629138  0.66358420  0.16533050  1
  I  I70  1  0.49805516  0.66674748  0.50084174  1
  I  I71  1  0.49810894  0.66965229  0.83637355  1
  I  I72  1  0.83570306  0.00251771  0.16409296  1
  I  I73  1  0.83540739  0.00014397  0.49251309  1
  I  I74  1  0.83466450  0.00109780  0.83941701  1
  I  I75  1  0.83169189  0.33269710  0.16027500  1
  I  I76  1  0.83701313  0.33308616  0.50430122  1
  I  I77  1  0.83411394  0.32962275  0.83505415  1
  I  I78  1  0.83235726  0.66445936  0.16489153  1
  I  I79  1  0.83594485  0.66682371  0.50024296  1
  I  I80  1  0.83651383  0.66982730  0.83528104  1
  I  I81  1  0.16934701  0.16151058  -0.00324931  1
  I  I82  1  0.16986238  0.16550955  0.33623407  1
  I  I83  1  0.16518854  0.16265424  0.66729139  1
  I  I84  1  0.16653466  0.50076920  0.00033268  1
  I  I85  1  0.16642177  0.49879904  0.33668398  1
  I  I86  1  0.16750175  0.50436512  0.66326501  1
  I  I87  1  0.16617317  0.83714356  -0.00192235  1
  I  I88  1  0.16539107  0.83260932  0.33415956  1
  I  I89  1  0.16604123  0.83441304  0.66760779  1
  I  I90  1  0.49692793  0.16391573  -0.00343584  1
  I  I91  1  0.49404870  0.17030893  0.33579708  1
  I  I92  1  0.49978061  0.16302280  0.66811697  1
  I  I93  1  0.50225047  0.49814340  0.00285872  1
  I  I94  1  0.50360867  0.49852290  0.33000331  1
  I  I95  1  0.49871841  0.50207189  0.66634969  1
  I  I96  1  0.49689810  0.84078724  -0.00402388  1
  I  I97  1  0.49801144  0.83391664  0.33348757  1
  I  I98  1  0.49787949  0.83449460  0.67090883  1
  I  I99  1  0.83389565  0.16680377  -0.00158248  1
  I  I100  1  0.83503787  0.17268821  0.33076832  1
  I  I101  1  0.83484899  0.16125399  0.67028065  1
  I  I102  1  0.83192255  0.49822937  0.00297927  1
  I  I103  1  0.83078500  0.49226414  0.32895030  1
  I  I104  1  0.83446993  0.49989272  0.66648862  1
  I  I105  1  0.83741305  0.83500711  -0.00356236  1
  I  I106  1  0.83652005  0.83347593  0.33328594  1
  I  I107  1  0.83651260  0.84232063  0.67185922  1
  I  I108  1  -0.00312705  0.17264096  0.16232619  1
  I  I109  1  0.00343929  0.16609790  0.50314764  1
  I  I110  1  0.00055043  0.16077854  0.83276038  1
  I  I111  1  -0.00236635  0.49686333  0.16755194  1
  I  I112  1  0.00393366  0.49734183  0.49907096  1
  I  I113  1  0.00014117  0.50063468  0.83591562  1
  I  I114  1  0.00307993  0.83129014  0.16495872  1
  I  I115  1  0.00445192  0.83689051  0.50113523  1
  I  I116  1  0.00112032  0.83921629  0.83325209  1
  I  I117  1  0.33323380  0.16856757  0.16452324  1
  I  I118  1  0.33181579  0.16636924  0.50769520  1
  I  I119  1  0.33288635  0.16019209  0.82789493  1
  I  I120  1  0.33504312  0.50107447  0.16718747  1
  I  I121  1  0.32995332  0.50319666  0.49747950  1
  I  I122  1  0.33323751  0.50085483  0.83789726  1
  I  I123  1  0.32959768  0.83182606  0.16502526  1
  I  I124  1  0.32921120  0.83074839  0.50173605  1
  I  I125  1  0.33219719  0.83914628  0.83349673  1
  I  I126  1  0.67015472  0.16846981  0.16204729  1
  I  I127  1  0.66382088  0.16841445  0.50426942  1
  I  I128  1  0.66657130  0.16000396  0.83403237  1
  I  I129  1  0.66744379  0.49474206  0.16431558  1
  I  I130  1  0.66632753  0.49805550  0.50141059  1
  I  I131  1  0.66664947  0.50105076  0.83196181  1
  I  I132  1  0.66665423  0.83423673  0.16502287  1
  I  I133  1  0.66625754  0.83455807  0.49947982  1
  I  I134  1  0.66670681  0.84184145  0.83631718  1
