# generated using pymatgen
data_Cs27Sn13Pb14I81
_symmetry_space_group_name_H-M   'P 1'
_cell_length_a   18.97001265
_cell_length_b   18.97876979
_cell_length_c   18.98256437
_cell_angle_alpha   90.00138960
_cell_angle_beta   90.00025543
_cell_angle_gamma   90.00098349
_symmetry_Int_Tables_number   1
_chemical_formula_structural   Cs27Sn13Pb14I81
_chemical_formula_sum   'Cs27 Sn13 Pb14 I81'
_cell_volume   6834.24524794
_cell_formula_units_Z   1
loop_
 _symmetry_equiv_pos_site_id
 _symmetry_equiv_pos_as_xyz
  1  'x, y, z'
loop_
 _atom_site_type_symbol
 _atom_site_label
 _atom_site_symmetry_multiplicity
 _atom_site_fract_x
 _atom_site_fract_y
 _atom_site_fract_z
 _atom_site_occupancy
  Cs  Cs0  1  0.00129370  -0.00039596  -0.00022767  1
  Cs  Cs1  1  0.00199885  0.00008881  0.33258551  1
  Cs  Cs2  1  0.00152299  -0.00527261  0.66738548  1
  Cs  Cs3  1  -0.00097431  0.33319123  0.00174992  1
  Cs  Cs4  1  -0.00156953  0.33402287  0.33297770  1
  Cs  Cs5  1  0.00340812  0.33793011  0.66653448  1
  Cs  Cs6  1  -0.00136845  0.66595196  -0.00362987  1
  Cs  Cs7  1  -0.00088875  0.66580774  0.33683847  1
  Cs  Cs8  1  0.00799702  0.66588361  0.66609610  1
  Cs  Cs9  1  0.32780370  -0.00615254  -0.00448939  1
  Cs  Cs10  1  0.32385664  -0.00109537  0.33334890  1
  Cs  Cs11  1  0.32935296  0.01021405  0.67066446  1
  Cs  Cs12  1  0.33168547  0.33423908  -0.00091441  1
  Cs  Cs13  1  0.33594134  0.33018919  0.33307114  1
  Cs  Cs14  1  0.32955470  0.32604603  0.66873854  1
  Cs  Cs15  1  0.33511414  0.66986607  0.00053425  1
  Cs  Cs16  1  0.33607699  0.67023575  0.33176075  1
  Cs  Cs17  1  0.32477106  0.66582519  0.66578921  1
  Cs  Cs18  1  0.66706410  -0.00247480  -0.00212206  1
  Cs  Cs19  1  0.66768896  -0.00002464  0.33423452  1
  Cs  Cs20  1  0.66536514  0.00044076  0.66762575  1
  Cs  Cs21  1  0.66793585  0.33474714  0.00210843  1
  Cs  Cs22  1  0.66757141  0.33409837  0.33253575  1
  Cs  Cs23  1  0.66586050  0.33243796  0.66621968  1
  Cs  Cs24  1  0.66586534  0.66682248  0.00014393  1
  Cs  Cs25  1  0.66640252  0.66615826  0.33386992  1
  Cs  Cs26  1  0.66751577  0.66716433  0.66492725  1
  Sn  Sn27  1  0.83220522  0.83391388  0.49919823  1
  Sn  Sn28  1  0.50049336  0.83330276  0.50024066  1
  Sn  Sn29  1  0.83280334  0.16765999  0.83323262  1
  Sn  Sn30  1  0.83329011  0.50031686  0.16608926  1
  Sn  Sn31  1  0.83212806  0.49924171  0.83372556  1
  Sn  Sn32  1  0.83282206  0.16595678  0.50019512  1
  Sn  Sn33  1  0.50068184  0.16644952  0.16646116  1
  Sn  Sn34  1  0.16684067  0.50009694  0.16708086  1
  Sn  Sn35  1  0.50033768  0.50053416  0.50036745  1
  Sn  Sn36  1  0.50086582  0.50019778  0.83307395  1
  Sn  Sn37  1  0.49999226  0.49932345  0.16660832  1
  Sn  Sn38  1  0.83217740  0.16635255  0.16664432  1
  Sn  Sn39  1  0.83274550  0.83322555  0.16751860  1
  Pb  Pb40  1  0.16303424  0.16692752  0.49967951  1
  Pb  Pb41  1  0.50213707  0.16868351  0.83640084  1
  Pb  Pb42  1  0.16662024  0.16864478  0.16656036  1
  Pb  Pb43  1  0.16320696  0.16708165  0.83381819  1
  Pb  Pb44  1  0.83317988  0.83283425  0.83278718  1
  Pb  Pb45  1  0.16336292  0.83045849  0.16669520  1
  Pb  Pb46  1  0.17072594  0.49977340  0.49708549  1
  Pb  Pb47  1  0.50018536  0.83084220  0.82991085  1
  Pb  Pb48  1  0.16687554  0.83322388  0.83345350  1
  Pb  Pb49  1  0.16691972  0.83337321  0.49983062  1
  Pb  Pb50  1  0.50178443  0.83387674  0.16823776  1
  Pb  Pb51  1  0.16682787  0.49987043  0.83578169  1
  Pb  Pb52  1  0.83201763  0.50014013  0.50040407  1
  Pb  Pb53  1  0.50172851  0.16636267  0.49785051  1
  I  I54  1  0.16686303  -0.00011811  0.16710939  1
  I  I55  1  0.17081831  0.00003843  0.49890223  1
  I  I56  1  0.16529118  0.00035519  0.83386621  1
  I  I57  1  0.16201233  0.33673835  0.16631013  1
  I  I58  1  0.16552568  0.33360931  0.49947970  1
  I  I59  1  0.16767337  0.33372067  0.83335390  1
  I  I60  1  0.16863381  0.66238911  0.16655938  1
  I  I61  1  0.16060145  0.66643337  0.50009875  1
  I  I62  1  0.16245652  0.66590848  0.83330717  1
  I  I63  1  0.50768431  0.00282974  0.16936009  1
  I  I64  1  0.50495693  -0.00252121  0.49683293  1
  I  I65  1  0.50153599  0.00028402  0.83356904  1
  I  I66  1  0.50513393  0.33529059  0.16918631  1
  I  I67  1  0.50248531  0.33612908  0.49953011  1
  I  I68  1  0.50280965  0.33725884  0.82916631  1
  I  I69  1  0.50128668  0.66316251  0.16537749  1
  I  I70  1  0.50747215  0.66571642  0.49698885  1
  I  I71  1  0.50808664  0.66195346  0.84086495  1
  I  I72  1  0.82820097  0.00097629  0.16710423  1
  I  I73  1  0.82784307  -0.00013179  0.49621348  1
  I  I74  1  0.83413028  0.00289809  0.83646889  1
  I  I75  1  0.83303499  0.33380097  0.16660661  1
  I  I76  1  0.83136017  0.33113828  0.49690300  1
  I  I77  1  0.82959619  0.33412351  0.83715766  1
  I  I78  1  0.83306070  0.66538360  0.16677356  1
  I  I79  1  0.83059528  0.66895091  0.49563935  1
  I  I80  1  0.82979343  0.66310256  0.83821448  1
  I  I81  1  0.16448203  0.16794731  0.00037004  1
  I  I82  1  0.16464994  0.16775424  0.33292716  1
  I  I83  1  0.16762953  0.16774340  0.66675541  1
  I  I84  1  0.16857501  0.49923569  0.00362691  1
  I  I85  1  0.16188714  0.49959015  0.32926847  1
  I  I86  1  0.16475997  0.50107552  0.66667299  1
  I  I87  1  0.16498489  0.83273531  0.00057386  1
  I  I88  1  0.16732914  0.83233977  0.33316561  1
  I  I89  1  0.16233654  0.83043029  0.66627521  1
  I  I90  1  0.50703645  0.17315628  0.00444905  1
  I  I91  1  0.50779666  0.17464762  0.32996359  1
  I  I92  1  0.50221808  0.16818288  0.66668625  1
  I  I93  1  0.50147750  0.49508884  0.00124324  1
  I  I94  1  0.50121967  0.50025645  0.33213941  1
  I  I95  1  0.50821364  0.50520634  0.66683243  1
  I  I96  1  0.50175770  0.83220339  0.00009356  1
  I  I97  1  0.50443460  0.82593352  0.33608105  1
  I  I98  1  0.50984874  0.82808684  0.66186264  1
  I  I99  1  0.83020695  0.16835260  0.00120356  1
  I  I100  1  0.82997197  0.16717991  0.33213707  1
  I  I101  1  0.83286949  0.16711120  0.66660539  1
  I  I102  1  0.83013178  0.49775192  0.00150286  1
  I  I103  1  0.83246817  0.49795704  0.33031838  1
  I  I104  1  0.82807445  0.49662014  0.66925984  1
  I  I105  1  0.83372533  0.83446903  0.00294664  1
  I  I106  1  0.82989062  0.83511171  0.33295342  1
  I  I107  1  0.82945155  0.83685475  0.66329513  1
  I  I108  1  -0.00428586  0.16775656  0.16672934  1
  I  I109  1  -0.00584440  0.16176758  0.49608311  1
  I  I110  1  -0.00564014  0.17353409  0.83671947  1
  I  I111  1  -0.00223876  0.49970232  0.16212173  1
  I  I112  1  -0.00010269  0.50020871  0.50003385  1
  I  I113  1  -0.00357419  0.49656486  0.83793015  1
  I  I114  1  -0.00539128  0.83503685  0.17239565  1
  I  I115  1  -0.00374336  0.83763934  0.49613017  1
  I  I116  1  -0.00089701  0.83090774  0.83172591  1
  I  I117  1  0.33666701  0.17332891  0.16873095  1
  I  I118  1  0.33372859  0.16659157  0.49768710  1
  I  I119  1  0.33371573  0.16796567  0.83391329  1
  I  I120  1  0.33512134  0.49483559  0.16721793  1
  I  I121  1  0.33897495  0.50664668  0.50041452  1
  I  I122  1  0.33679636  0.50182376  0.83438932  1
  I  I123  1  0.33348518  0.83307184  0.16878034  1
  I  I124  1  0.33677019  0.82565080  0.49857560  1
  I  I125  1  0.33391776  0.83039290  0.83365098  1
  I  I126  1  0.66859868  0.17297006  0.16741983  1
  I  I127  1  0.67027564  0.16605786  0.50023048  1
  I  I128  1  0.67059701  0.16893176  0.83203545  1
  I  I129  1  0.66708612  0.49902099  0.16614089  1
  I  I130  1  0.66402602  0.50078197  0.49502723  1
  I  I131  1  0.66750292  0.49667952  0.83902801  1
  I  I132  1  0.67039601  0.82881993  0.16878551  1
  I  I133  1  0.66789635  0.83221368  0.49547119  1
  I  I134  1  0.66695610  0.83404577  0.83519001  1
