# generated using pymatgen
data_Cs27Sn13Pb14I81
_symmetry_space_group_name_H-M   'P 1'
_cell_length_a   18.97164635
_cell_length_b   18.98057090
_cell_length_c   18.98105829
_cell_angle_alpha   89.99977701
_cell_angle_beta   89.99859435
_cell_angle_gamma   90.00197793
_symmetry_Int_Tables_number   1
_chemical_formula_structural   Cs27Sn13Pb14I81
_chemical_formula_sum   'Cs27 Sn13 Pb14 I81'
_cell_volume   6834.94011552
_cell_formula_units_Z   1
loop_
 _symmetry_equiv_pos_site_id
 _symmetry_equiv_pos_as_xyz
  1  'x, y, z'
loop_
 _atom_site_type_symbol
 _atom_site_label
 _atom_site_symmetry_multiplicity
 _atom_site_fract_x
 _atom_site_fract_y
 _atom_site_fract_z
 _atom_site_occupancy
  Cs  Cs0  1  -0.00083302  -0.00056112  0.00035889  1
  Cs  Cs1  1  0.00077010  -0.00074021  0.33465781  1
  Cs  Cs2  1  0.00105572  0.00086930  0.66524150  1
  Cs  Cs3  1  -0.00026326  0.33576558  -0.00241820  1
  Cs  Cs4  1  -0.00093250  0.32983935  0.33720754  1
  Cs  Cs5  1  -0.00529956  0.33418191  0.66578007  1
  Cs  Cs6  1  0.00227577  0.66515439  0.00068449  1
  Cs  Cs7  1  0.00070791  0.66932034  0.33192189  1
  Cs  Cs8  1  0.00092681  0.66648921  0.66733601  1
  Cs  Cs9  1  0.33453884  0.00069095  -0.00086290  1
  Cs  Cs10  1  0.33368315  0.00126448  0.33059520  1
  Cs  Cs11  1  0.33269719  0.00128283  0.66744242  1
  Cs  Cs12  1  0.33353714  0.33427088  -0.00085616  1
  Cs  Cs13  1  0.33700869  0.33279996  0.33279786  1
  Cs  Cs14  1  0.33197115  0.33098800  0.66852390  1
  Cs  Cs15  1  0.33017437  0.66461363  0.00560594  1
  Cs  Cs16  1  0.33686488  0.66359457  0.32955107  1
  Cs  Cs17  1  0.33447823  0.66686455  0.66608163  1
  Cs  Cs18  1  0.66607208  0.00065450  -0.00014720  1
  Cs  Cs19  1  0.66579946  -0.00077721  0.32931635  1
  Cs  Cs20  1  0.66515488  -0.00103228  0.66923739  1
  Cs  Cs21  1  0.66649771  0.33118637  -0.00062904  1
  Cs  Cs22  1  0.66375717  0.33832458  0.33316621  1
  Cs  Cs23  1  0.67107081  0.33503761  0.66676860  1
  Cs  Cs24  1  0.66758807  0.67053921  -0.00074124  1
  Cs  Cs25  1  0.66345817  0.66243270  0.33800809  1
  Cs  Cs26  1  0.66247481  0.66643108  0.66238679  1
  Sn  Sn27  1  0.16591988  0.83399380  0.83277410  1
  Sn  Sn28  1  0.16634280  0.83233784  0.50053644  1
  Sn  Sn29  1  0.16676342  0.16616267  0.83399408  1
  Sn  Sn30  1  0.83390509  0.83358891  0.50018433  1
  Sn  Sn31  1  0.50025158  0.16636295  0.50110367  1
  Sn  Sn32  1  0.49945689  0.16767486  0.83214451  1
  Sn  Sn33  1  0.83441044  0.16699557  0.16652635  1
  Sn  Sn34  1  0.16650808  0.50081018  0.50019782  1
  Sn  Sn35  1  0.83435938  0.83349953  0.83298924  1
  Sn  Sn36  1  0.16569370  0.16666624  0.16558379  1
  Sn  Sn37  1  0.49979924  0.49941059  0.83337266  1
  Sn  Sn38  1  0.83373628  0.50001493  0.16651714  1
  Sn  Sn39  1  0.83373120  0.83302245  0.16685135  1
  Pb  Pb40  1  0.49901499  0.83354168  0.83339542  1
  Pb  Pb41  1  0.83077929  0.16439712  0.49753425  1
  Pb  Pb42  1  0.16453279  0.49707617  0.16904578  1
  Pb  Pb43  1  0.50275911  0.83311213  0.16672723  1
  Pb  Pb44  1  0.83126977  0.50302687  0.83495873  1
  Pb  Pb45  1  0.49909650  0.83539340  0.50005312  1
  Pb  Pb46  1  0.49992616  0.16666975  0.16592579  1
  Pb  Pb47  1  0.83356153  0.16490467  0.83489636  1
  Pb  Pb48  1  0.83531519  0.50247158  0.49813596  1
  Pb  Pb49  1  0.16504012  0.83508876  0.16669252  1
  Pb  Pb50  1  0.16781730  0.16605912  0.50034903  1
  Pb  Pb51  1  0.50232477  0.49992564  0.16399044  1
  Pb  Pb52  1  0.49765667  0.49764742  0.50217342  1
  Pb  Pb53  1  0.16798515  0.50012227  0.83181414  1
  I  I54  1  0.16131503  0.00304577  0.16769940  1
  I  I55  1  0.16340050  -0.00281152  0.50108528  1
  I  I56  1  0.16844229  0.00003454  0.83147296  1
  I  I57  1  0.16115032  0.32921395  0.16221092  1
  I  I58  1  0.16995298  0.33476001  0.49870810  1
  I  I59  1  0.17011441  0.33031686  0.83578686  1
  I  I60  1  0.16523797  0.66668301  0.16399418  1
  I  I61  1  0.16219670  0.66844733  0.50587805  1
  I  I62  1  0.16397379  0.66980613  0.83102730  1
  I  I63  1  0.50267533  0.00037624  0.16506116  1
  I  I64  1  0.49816472  0.00309517  0.50662605  1
  I  I65  1  0.49904122  0.00296904  0.83039370  1
  I  I66  1  0.50336304  0.33305378  0.16916514  1
  I  I67  1  0.49751260  0.32990886  0.50082192  1
  I  I68  1  0.49420509  0.33146610  0.83050768  1
  I  I69  1  0.50050555  0.66634417  0.16464224  1
  I  I70  1  0.50233539  0.66655059  0.50139559  1
  I  I71  1  0.50207284  0.66451771  0.83404735  1
  I  I72  1  0.83673167  -0.00030632  0.16673965  1
  I  I73  1  0.84022487  -0.00374481  0.49812416  1
  I  I74  1  0.83226813  -0.00332184  0.83586464  1
  I  I75  1  0.83672475  0.33249635  0.16582269  1
  I  I76  1  0.83444875  0.33333128  0.49772306  1
  I  I77  1  0.83506759  0.33330502  0.83599392  1
  I  I78  1  0.83202591  0.66787356  0.16598615  1
  I  I79  1  0.83363389  0.67078365  0.49814298  1
  I  I80  1  0.83782420  0.67117551  0.83626903  1
  I  I81  1  0.16890492  0.16098117  -0.00117510  1
  I  I82  1  0.16417600  0.16627123  0.33125972  1
  I  I83  1  0.17061443  0.16459990  0.66949365  1
  I  I84  1  0.16753632  0.50209500  0.00004162  1
  I  I85  1  0.16620106  0.50584488  0.33666972  1
  I  I86  1  0.16710611  0.49976532  0.66400245  1
  I  I87  1  0.16313237  0.83624588  -0.00293431  1
  I  I88  1  0.16203070  0.83256076  0.33602161  1
  I  I89  1  0.15855759  0.83586696  0.66714707  1
  I  I90  1  0.49907747  0.16947096  -0.00322297  1
  I  I91  1  0.49959803  0.16472435  0.33528101  1
  I  I92  1  0.49329933  0.16866802  0.66827014  1
  I  I93  1  0.49856557  0.49283590  -0.00364824  1
  I  I94  1  0.50038266  0.49840801  0.33353162  1
  I  I95  1  0.50093871  0.49828145  0.66978442  1
  I  I96  1  0.50107319  0.83606683  -0.00035750  1
  I  I97  1  0.49961449  0.83672556  0.33362375  1
  I  I98  1  0.50642271  0.83249746  0.66684738  1
  I  I99  1  0.83223314  0.16316180  0.00310644  1
  I  I100  1  0.83844563  0.16361310  0.32943303  1
  I  I101  1  0.83528042  0.16483383  0.66667221  1
  I  I102  1  0.83328516  0.50186484  0.00307342  1
  I  I103  1  0.83345300  0.50098796  0.33003881  1
  I  I104  1  0.83285201  0.50097767  0.66660462  1
  I  I105  1  0.83596913  0.83381819  0.00005315  1
  I  I106  1  0.83764020  0.83478267  0.33327969  1
  I  I107  1  0.83738532  0.83432918  0.66678369  1
  I  I108  1  -0.00023690  0.16540309  0.16189940  1
  I  I109  1  -0.00006651  0.16825067  0.50120345  1
  I  I110  1  0.00291972  0.16354742  0.83587264  1
  I  I111  1  -0.00340590  0.50331590  0.16526199  1
  I  I112  1  0.00311223  0.49927830  0.50136192  1
  I  I113  1  -0.00004000  0.49770337  0.83327201  1
  I  I114  1  -0.00351950  0.83271896  0.16646924  1
  I  I115  1  0.00008304  0.83118661  0.50023420  1
  I  I116  1  0.00046928  0.83894877  0.83294417  1
  I  I117  1  0.33050450  0.16577949  0.16632134  1
  I  I118  1  0.33560674  0.16476839  0.49953517  1
  I  I119  1  0.33252461  0.16385181  0.83544878  1
  I  I120  1  0.33300960  0.49830400  0.16746330  1
  I  I121  1  0.32999456  0.50735776  0.49941680  1
  I  I122  1  0.33592552  0.49946421  0.83225057  1
  I  I123  1  0.33269837  0.83600404  0.16633615  1
  I  I124  1  0.32959511  0.83174811  0.50685309  1
  I  I125  1  0.32972726  0.83563980  0.82710535  1
  I  I126  1  0.66975189  0.16457184  0.16678110  1
  I  I127  1  0.66323989  0.16513557  0.50564504  1
  I  I128  1  0.66421722  0.16806020  0.83176062  1
  I  I129  1  0.67063645  0.49820694  0.16776437  1
  I  I130  1  0.66670406  0.50081984  0.49897767  1
  I  I131  1  0.66354056  0.49354615  0.83400704  1
  I  I132  1  0.67220710  0.83796716  0.16531873  1
  I  I133  1  0.66975033  0.83569648  0.49951586  1
  I  I134  1  0.66947350  0.83361382  0.83462617  1
