# generated using pymatgen
data_Cs27Sn14Pb13I81
_symmetry_space_group_name_H-M   'P 1'
_cell_length_a   18.96018697
_cell_length_b   18.96041946
_cell_length_c   18.96412385
_cell_angle_alpha   89.99932730
_cell_angle_beta   89.99850249
_cell_angle_gamma   89.99957332
_symmetry_Int_Tables_number   1
_chemical_formula_structural   Cs27Sn14Pb13I81
_chemical_formula_sum   'Cs27 Sn14 Pb13 I81'
_cell_volume   6817.47162721
_cell_formula_units_Z   1
loop_
 _symmetry_equiv_pos_site_id
 _symmetry_equiv_pos_as_xyz
  1  'x, y, z'
loop_
 _atom_site_type_symbol
 _atom_site_label
 _atom_site_symmetry_multiplicity
 _atom_site_fract_x
 _atom_site_fract_y
 _atom_site_fract_z
 _atom_site_occupancy
  Cs  Cs0  1  0.00174729  0.00018735  -0.00015664  1
  Cs  Cs1  1  0.00096885  -0.00046352  0.33547873  1
  Cs  Cs2  1  0.00003059  0.00109772  0.66677855  1
  Cs  Cs3  1  -0.00675748  0.33596157  0.00399485  1
  Cs  Cs4  1  0.00062725  0.33667322  0.32757411  1
  Cs  Cs5  1  -0.00005961  0.32978009  0.66844037  1
  Cs  Cs6  1  0.00270940  0.66590286  0.00295287  1
  Cs  Cs7  1  0.00475503  0.66375980  0.33293417  1
  Cs  Cs8  1  0.00253983  0.66930524  0.66482751  1
  Cs  Cs9  1  0.33330370  0.00053162  -0.00044942  1
  Cs  Cs10  1  0.33560074  0.00181186  0.33149265  1
  Cs  Cs11  1  0.33349013  0.00116435  0.66791754  1
  Cs  Cs12  1  0.33318372  0.33090137  -0.00136575  1
  Cs  Cs13  1  0.33154359  0.33401211  0.33154342  1
  Cs  Cs14  1  0.33358429  0.33384872  0.66692959  1
  Cs  Cs15  1  0.33398172  0.66845860  -0.00077784  1
  Cs  Cs16  1  0.32902441  0.66285845  0.33398214  1
  Cs  Cs17  1  0.33158665  0.66232287  0.66640390  1
  Cs  Cs18  1  0.66551233  -0.00096786  0.00026016  1
  Cs  Cs19  1  0.66521888  -0.00224194  0.33483193  1
  Cs  Cs20  1  0.66664159  -0.00063476  0.66529732  1
  Cs  Cs21  1  0.67480609  0.33527261  0.00084642  1
  Cs  Cs22  1  0.66651921  0.33242546  0.33290766  1
  Cs  Cs23  1  0.66631277  0.33554638  0.66779846  1
  Cs  Cs24  1  0.66568445  0.66681649  0.00027116  1
  Cs  Cs25  1  0.66596727  0.66959395  0.33334104  1
  Cs  Cs26  1  0.66554596  0.66645430  0.66695256  1
  Sn  Sn27  1  0.50018747  0.50050880  0.16656928  1
  Sn  Sn28  1  0.49989242  0.16619315  0.83258812  1
  Sn  Sn29  1  0.83315353  0.16691373  0.50016741  1
  Sn  Sn30  1  0.50020182  0.83359483  0.50023392  1
  Sn  Sn31  1  0.83264312  0.83345950  0.83324272  1
  Sn  Sn32  1  0.50046525  0.83214135  0.16695258  1
  Sn  Sn33  1  0.50069470  0.83394738  0.83280312  1
  Sn  Sn34  1  0.49986740  0.16610627  0.50098465  1
  Sn  Sn35  1  0.16716046  0.16785281  0.83269257  1
  Sn  Sn36  1  0.83299871  0.50029151  0.50042236  1
  Sn  Sn37  1  0.16698441  0.16647411  0.50050551  1
  Sn  Sn38  1  0.83274555  0.83312549  0.49994062  1
  Sn  Sn39  1  0.16660943  0.49889026  0.83325669  1
  Sn  Sn40  1  0.83277087  0.83349726  0.16693801  1
  Pb  Pb41  1  0.16923003  0.49991830  0.16384949  1
  Pb  Pb42  1  0.16719108  0.83347477  0.16691347  1
  Pb  Pb43  1  0.50017003  0.16629952  0.16630039  1
  Pb  Pb44  1  0.50143083  0.49977314  0.49839828  1
  Pb  Pb45  1  0.16414933  0.49704126  0.50180847  1
  Pb  Pb46  1  0.16651949  0.16662130  0.16604270  1
  Pb  Pb47  1  0.83124405  0.50265497  0.16899323  1
  Pb  Pb48  1  0.83556948  0.50300893  0.83138310  1
  Pb  Pb49  1  0.16712907  0.83406083  0.83321178  1
  Pb  Pb50  1  0.83317423  0.16382536  0.16966444  1
  Pb  Pb51  1  0.16726904  0.83551624  0.49996287  1
  Pb  Pb52  1  0.83293775  0.16474402  0.83169957  1
  Pb  Pb53  1  0.49892253  0.49969351  0.83512095  1
  I  I54  1  0.16832433  -0.00001259  0.16448117  1
  I  I55  1  0.16263163  0.00372136  0.50704706  1
  I  I56  1  0.16783807  0.00316284  0.82880361  1
  I  I57  1  0.16945525  0.33336234  0.16961953  1
  I  I58  1  0.16871438  0.32883580  0.50224094  1
  I  I59  1  0.17336590  0.33156788  0.82816770  1
  I  I60  1  0.16510744  0.66665606  0.16471616  1
  I  I61  1  0.16609697  0.66636725  0.50141765  1
  I  I62  1  0.16626221  0.66484936  0.83459708  1
  I  I63  1  0.50404804  -0.00350788  0.16726167  1
  I  I64  1  0.50382114  -0.00032369  0.49873926  1
  I  I65  1  0.49777084  -0.00056532  0.83414587  1
  I  I66  1  0.49775872  0.33551746  0.16794630  1
  I  I67  1  0.50135331  0.32999171  0.50285260  1
  I  I68  1  0.49662018  0.33017923  0.82932300  1
  I  I69  1  0.50412999  0.66906297  0.16627116  1
  I  I70  1  0.50554224  0.66993743  0.50231777  1
  I  I71  1  0.50201756  0.66999940  0.83111069  1
  I  I72  1  0.82567374  -0.00448246  0.16807407  1
  I  I73  1  0.83283048  -0.00074047  0.49984104  1
  I  I74  1  0.83391674  -0.00366485  0.83109837  1
  I  I75  1  0.83221170  0.33361058  0.16812552  1
  I  I76  1  0.83279345  0.33224471  0.50125133  1
  I  I77  1  0.83114371  0.33327259  0.83108409  1
  I  I78  1  0.83071253  0.67086773  0.16844324  1
  I  I79  1  0.82799697  0.66858483  0.50032905  1
  I  I80  1  0.82811686  0.67119585  0.83060049  1
  I  I81  1  0.17307635  0.16804900  -0.00401942  1
  I  I82  1  0.16742027  0.16439091  0.33691096  1
  I  I83  1  0.16752731  0.16947265  0.66658265  1
  I  I84  1  0.16599452  0.49393800  -0.00385659  1
  I  I85  1  0.16596822  0.49923346  0.33345250  1
  I  I86  1  0.16863982  0.49941938  0.66953430  1
  I  I87  1  0.16592100  0.83558521  -0.00021892  1
  I  I88  1  0.16638474  0.83535477  0.33361800  1
  I  I89  1  0.16502395  0.83098704  0.66670292  1
  I  I90  1  0.49339042  0.16246599  -0.00339802  1
  I  I91  1  0.50009014  0.16330404  0.33679311  1
  I  I92  1  0.49919552  0.15939888  0.66602442  1
  I  I93  1  0.49871736  0.50543551  0.00283256  1
  I  I94  1  0.50164487  0.50471721  0.33061589  1
  I  I95  1  0.49973965  0.50250471  0.66667168  1
  I  I96  1  0.50513327  0.83352739  -0.00057374  1
  I  I97  1  0.50621887  0.83477942  0.33416272  1
  I  I98  1  0.50632604  0.83865328  0.66647963  1
  I  I99  1  0.83384774  0.16520895  -0.00014665  1
  I  I100  1  0.83239508  0.16460560  0.33849687  1
  I  I101  1  0.83367994  0.16327271  0.66305193  1
  I  I102  1  0.83415366  0.50089450  0.00005699  1
  I  I103  1  0.83329105  0.50045961  0.33701153  1
  I  I104  1  0.83181341  0.50201556  0.66330216  1
  I  I105  1  0.82714227  0.83356033  -0.00024078  1
  I  I106  1  0.82682461  0.83460285  0.33452062  1
  I  I107  1  0.82825259  0.83383349  0.66562821  1
  I  I108  1  -0.00027778  0.16468142  0.16665871  1
  I  I109  1  -0.00043803  0.16501308  0.50427891  1
  I  I110  1  0.00234181  0.16749097  0.82823638  1
  I  I111  1  -0.00025286  0.50122561  0.16712034  1
  I  I112  1  -0.00385322  0.50345372  0.50020171  1
  I  I113  1  0.00324945  0.49420276  0.83208229  1
  I  I114  1  -0.00348553  0.83472603  0.16697999  1
  I  I115  1  -0.00349860  0.83439406  0.50015180  1
  I  I116  1  -0.00289621  0.83331526  0.83249645  1
  I  I117  1  0.33368352  0.16410462  0.17142382  1
  I  I118  1  0.33448967  0.16144911  0.50376550  1
  I  I119  1  0.33420529  0.16438531  0.82594892  1
  I  I120  1  0.33702128  0.50769574  0.16918344  1
  I  I121  1  0.33325523  0.50083903  0.49907619  1
  I  I122  1  0.33090147  0.50061038  0.83302710  1
  I  I123  1  0.33761585  0.83075794  0.16617202  1
  I  I124  1  0.33724585  0.83742436  0.50034282  1
  I  I125  1  0.33699721  0.83442176  0.83365616  1
  I  I126  1  0.66644885  0.16970465  0.16563006  1
  I  I127  1  0.66616907  0.16448755  0.50315472  1
  I  I128  1  0.66356710  0.16343013  0.82937481  1
  I  I129  1  0.66351635  0.50184314  0.16522843  1
  I  I130  1  0.66951462  0.49698644  0.50025487  1
  I  I131  1  0.66683808  0.49782876  0.83389063  1
  I  I132  1  0.66582081  0.83019572  0.16736261  1
  I  I133  1  0.66681714  0.83780241  0.49979245  1
  I  I134  1  0.66555583  0.83816201  0.83295323  1
