# generated using pymatgen
data_Cs27Sn14Pb13I81
_symmetry_space_group_name_H-M   'P 1'
_cell_length_a   18.96360858
_cell_length_b   18.95923762
_cell_length_c   18.95966396
_cell_angle_alpha   90.00023178
_cell_angle_beta   89.99973823
_cell_angle_gamma   90.00065431
_symmetry_Int_Tables_number   1
_chemical_formula_structural   Cs27Sn14Pb13I81
_chemical_formula_sum   'Cs27 Sn14 Pb13 I81'
_cell_volume   6816.67342028
_cell_formula_units_Z   1
loop_
 _symmetry_equiv_pos_site_id
 _symmetry_equiv_pos_as_xyz
  1  'x, y, z'
loop_
 _atom_site_type_symbol
 _atom_site_label
 _atom_site_symmetry_multiplicity
 _atom_site_fract_x
 _atom_site_fract_y
 _atom_site_fract_z
 _atom_site_occupancy
  Cs  Cs0  1  -0.00075605  0.00241883  0.00039638  1
  Cs  Cs1  1  -0.00181010  -0.00136179  0.33237906  1
  Cs  Cs2  1  0.00021223  0.00292676  0.66709967  1
  Cs  Cs3  1  0.00104063  0.33663785  -0.00241326  1
  Cs  Cs4  1  -0.00023338  0.33351582  0.34063127  1
  Cs  Cs5  1  -0.00105315  0.32612880  0.66201057  1
  Cs  Cs6  1  0.00076418  0.66487131  -0.00116699  1
  Cs  Cs7  1  0.00104668  0.66821111  0.33245043  1
  Cs  Cs8  1  -0.00136969  0.66693522  0.66819679  1
  Cs  Cs9  1  0.33378977  -0.00106399  -0.00035151  1
  Cs  Cs10  1  0.33254949  0.00012817  0.33453423  1
  Cs  Cs11  1  0.33521315  -0.00023123  0.66664195  1
  Cs  Cs12  1  0.33242389  0.33415088  0.00060574  1
  Cs  Cs13  1  0.33537870  0.33637494  0.33354024  1
  Cs  Cs14  1  0.33368318  0.33070914  0.66586273  1
  Cs  Cs15  1  0.33229405  0.66655092  -0.00169801  1
  Cs  Cs16  1  0.33205952  0.66356598  0.33376548  1
  Cs  Cs17  1  0.33356614  0.66813570  0.66824312  1
  Cs  Cs18  1  0.66640145  0.00021545  0.00857035  1
  Cs  Cs19  1  0.66770785  0.00126152  0.32649113  1
  Cs  Cs20  1  0.66332083  -0.00089142  0.66706388  1
  Cs  Cs21  1  0.66725466  0.33247607  0.00056855  1
  Cs  Cs22  1  0.66419906  0.33355243  0.33411437  1
  Cs  Cs23  1  0.66760397  0.33285012  0.66587127  1
  Cs  Cs24  1  0.66795908  0.66739777  -0.00172972  1
  Cs  Cs25  1  0.66578768  0.66423046  0.33226116  1
  Cs  Cs26  1  0.66827188  0.66736509  0.66807691  1
  Sn  Sn27  1  0.16667978  0.83337448  0.16624427  1
  Sn  Sn28  1  0.83416007  0.83314186  0.83285880  1
  Sn  Sn29  1  0.83388023  0.50038177  0.83372010  1
  Sn  Sn30  1  0.50025528  0.83394464  0.49995720  1
  Sn  Sn31  1  0.16569660  0.83292607  0.83327396  1
  Sn  Sn32  1  0.49996300  0.16582529  0.50055128  1
  Sn  Sn33  1  0.83429234  0.50009650  0.16612289  1
  Sn  Sn34  1  0.16556657  0.49973650  0.16609669  1
  Sn  Sn35  1  0.16630903  0.50026858  0.83331743  1
  Sn  Sn36  1  0.16646988  0.16718406  0.16657912  1
  Sn  Sn37  1  0.49993082  0.49907561  0.83318504  1
  Sn  Sn38  1  0.83317156  0.83320539  0.50066453  1
  Sn  Sn39  1  0.50009939  0.16721890  0.83316985  1
  Sn  Sn40  1  0.16655011  0.83315127  0.50047097  1
  Pb  Pb41  1  0.83624635  0.17022364  0.16654558  1
  Pb  Pb42  1  0.49988877  0.50017673  0.16398779  1
  Pb  Pb43  1  0.50026165  0.83335431  0.83217072  1
  Pb  Pb44  1  0.49730102  0.83302454  0.16982387  1
  Pb  Pb45  1  0.83344054  0.50204124  0.50034351  1
  Pb  Pb46  1  0.83077790  0.16630901  0.83347546  1
  Pb  Pb47  1  0.49799464  0.16680556  0.16670739  1
  Pb  Pb48  1  0.16843426  0.16654374  0.83472701  1
  Pb  Pb49  1  0.49999219  0.50015781  0.50269469  1
  Pb  Pb50  1  0.83051192  0.16342059  0.49996619  1
  Pb  Pb51  1  0.83543430  0.83141059  0.16612781  1
  Pb  Pb52  1  0.16864715  0.16400647  0.49769206  1
  Pb  Pb53  1  0.16654610  0.50194466  0.50056230  1
  I  I54  1  0.16924439  -0.00130553  0.16726973  1
  I  I55  1  0.16529206  -0.00461377  0.50104090  1
  I  I56  1  0.16466551  -0.00339780  0.83386003  1
  I  I57  1  0.16445470  0.33487066  0.16021709  1
  I  I58  1  0.16915168  0.33308422  0.49939608  1
  I  I59  1  0.16551257  0.33648622  0.83890983  1
  I  I60  1  0.16354006  0.66653075  0.16637624  1
  I  I61  1  0.16985742  0.67082565  0.49605222  1
  I  I62  1  0.16882775  0.66689344  0.83695979  1
  I  I63  1  0.49815869  -0.00010007  0.16150582  1
  I  I64  1  0.49844935  -0.00085098  0.50731566  1
  I  I65  1  0.49824277  0.00199093  0.83001859  1
  I  I66  1  0.49714937  0.33354766  0.17114900  1
  I  I67  1  0.49885495  0.33064040  0.50183753  1
  I  I68  1  0.49896435  0.33408168  0.82817393  1
  I  I69  1  0.49727695  0.66658544  0.16734166  1
  I  I70  1  0.49900812  0.67003153  0.50085494  1
  I  I71  1  0.49926376  0.66418988  0.83247854  1
  I  I72  1  0.83426330  -0.00023592  0.16659956  1
  I  I73  1  0.83732535  -0.00497553  0.50595668  1
  I  I74  1  0.83753353  -0.00366336  0.82845167  1
  I  I75  1  0.83761909  0.33824292  0.15928158  1
  I  I76  1  0.83160278  0.33325989  0.49989246  1
  I  I77  1  0.83559393  0.33689272  0.83792024  1
  I  I78  1  0.83916450  0.66350648  0.16506770  1
  I  I79  1  0.83142961  0.67062613  0.50177370  1
  I  I80  1  0.83193356  0.66648229  0.83306665  1
  I  I81  1  0.17002383  0.16227468  0.00271957  1
  I  I82  1  0.16913397  0.16782728  0.32969663  1
  I  I83  1  0.16701470  0.16682157  0.66656852  1
  I  I84  1  0.16702542  0.50461034  -0.00048871  1
  I  I85  1  0.16287564  0.50125944  0.33005433  1
  I  I86  1  0.16685059  0.50532129  0.67054360  1
  I  I87  1  0.16283467  0.83215467  -0.00075555  1
  I  I88  1  0.16775146  0.83338305  0.33326632  1
  I  I89  1  0.16704324  0.82838144  0.66738666  1
  I  I90  1  0.49857771  0.17111780  -0.00283390  1
  I  I91  1  0.49831686  0.16074889  0.33624162  1
  I  I92  1  0.49830481  0.16636024  0.66686100  1
  I  I93  1  0.49902187  0.49517285  -0.00439616  1
  I  I94  1  0.49973635  0.49965550  0.33336695  1
  I  I95  1  0.49939883  0.49991970  0.67106659  1
  I  I96  1  0.49969522  0.83410792  -0.00015895  1
  I  I97  1  0.50122612  0.83975587  0.33826710  1
  I  I98  1  0.49520227  0.83395115  0.66402515  1
  I  I99  1  0.82931926  0.16071904  -0.00006167  1
  I  I100  1  0.83127454  0.16637832  0.33325910  1
  I  I101  1  0.83621421  0.17116527  0.66676710  1
  I  I102  1  0.83397429  0.50580804  -0.00154056  1
  I  I103  1  0.83892583  0.50165119  0.33050020  1
  I  I104  1  0.83339688  0.50317099  0.67043396  1
  I  I105  1  0.83711648  0.83088624  -0.00320515  1
  I  I106  1  0.83405273  0.83230545  0.33571598  1
  I  I107  1  0.83742512  0.82744931  0.66745548  1
  I  I108  1  0.00427017  0.16206026  0.16549398  1
  I  I109  1  0.00015764  0.16623525  0.49893292  1
  I  I110  1  0.00017665  0.16826725  0.83481893  1
  I  I111  1  0.00141345  0.50099897  0.15823024  1
  I  I112  1  0.00005438  0.50134008  0.50278644  1
  I  I113  1  0.00045423  0.50697870  0.83944093  1
  I  I114  1  0.00392461  0.83478406  0.17137955  1
  I  I115  1  0.00056848  0.83071316  0.50008533  1
  I  I116  1  0.00085620  0.82587983  0.82913058  1
  I  I117  1  0.32985090  0.16826988  0.16635322  1
  I  I118  1  0.33649976  0.16048485  0.50391235  1
  I  I119  1  0.33639756  0.16979327  0.83035704  1
  I  I120  1  0.32960704  0.50073706  0.16336587  1
  I  I121  1  0.33326908  0.50343703  0.49930360  1
  I  I122  1  0.33219778  0.50135814  0.83677040  1
  I  I123  1  0.32843229  0.83029251  0.16439517  1
  I  I124  1  0.33277081  0.83686420  0.50000527  1
  I  I125  1  0.33045597  0.83043849  0.83308966  1
  I  I126  1  0.66672007  0.16726706  0.16706174  1
  I  I127  1  0.66246697  0.16205500  0.50400044  1
  I  I128  1  0.66263863  0.17034377  0.82909632  1
  I  I129  1  0.66959684  0.50148809  0.16304523  1
  I  I130  1  0.66667071  0.50318862  0.49911441  1
  I  I131  1  0.66746572  0.50130498  0.83636382  1
  I  I132  1  0.66701929  0.83212704  0.16640322  1
  I  I133  1  0.66687150  0.83600089  0.50693682  1
  I  I134  1  0.66927314  0.82929635  0.82755114  1
