# generated using pymatgen
data_Cs27Sn14Pb13I81
_symmetry_space_group_name_H-M   'P 1'
_cell_length_a   18.97660423
_cell_length_b   18.98143689
_cell_length_c   18.96761555
_cell_angle_alpha   90.00252287
_cell_angle_beta   90.00130411
_cell_angle_gamma   89.99834730
_symmetry_Int_Tables_number   1
_chemical_formula_structural   Cs27Sn14Pb13I81
_chemical_formula_sum   'Cs27 Sn14 Pb13 I81'
_cell_volume   6832.19610407
_cell_formula_units_Z   1
loop_
 _symmetry_equiv_pos_site_id
 _symmetry_equiv_pos_as_xyz
  1  'x, y, z'
loop_
 _atom_site_type_symbol
 _atom_site_label
 _atom_site_symmetry_multiplicity
 _atom_site_fract_x
 _atom_site_fract_y
 _atom_site_fract_z
 _atom_site_occupancy
  Cs  Cs0  1  -0.00404596  0.00178401  -0.00256713  1
  Cs  Cs1  1  0.00150850  0.00179462  0.33465529  1
  Cs  Cs2  1  0.00044055  -0.00128205  0.66755132  1
  Cs  Cs3  1  -0.01084130  0.33409646  0.00037155  1
  Cs  Cs4  1  -0.00132428  0.33348311  0.33481189  1
  Cs  Cs5  1  0.00418412  0.33320504  0.66186250  1
  Cs  Cs6  1  0.00046565  0.66363537  0.00236834  1
  Cs  Cs7  1  0.00375178  0.66341069  0.33105157  1
  Cs  Cs8  1  0.00007202  0.66758228  0.66679900  1
  Cs  Cs9  1  0.33417477  -0.00189161  0.00010825  1
  Cs  Cs10  1  0.33418950  0.00163809  0.33237929  1
  Cs  Cs11  1  0.33087535  0.00123807  0.66878625  1
  Cs  Cs12  1  0.33542041  0.33090387  -0.00309726  1
  Cs  Cs13  1  0.33342139  0.33078478  0.33449009  1
  Cs  Cs14  1  0.33260010  0.33426581  0.66894638  1
  Cs  Cs15  1  0.33173748  0.67032325  0.00309001  1
  Cs  Cs16  1  0.33353941  0.66655520  0.33148688  1
  Cs  Cs17  1  0.33380432  0.66568324  0.66580422  1
  Cs  Cs18  1  0.66725569  -0.00036767  0.00155169  1
  Cs  Cs19  1  0.66556749  -0.00023124  0.33297836  1
  Cs  Cs20  1  0.67141465  -0.00571529  0.66685918  1
  Cs  Cs21  1  0.67295203  0.33600050  -0.00492400  1
  Cs  Cs22  1  0.66761160  0.33100759  0.33219822  1
  Cs  Cs23  1  0.66332009  0.33807372  0.67196760  1
  Cs  Cs24  1  0.66817618  0.66685477  -0.00198399  1
  Cs  Cs25  1  0.66182801  0.67082255  0.33596621  1
  Cs  Cs26  1  0.66726921  0.66760433  0.66729122  1
  Sn  Sn27  1  0.83343076  0.49962215  0.49961062  1
  Sn  Sn28  1  0.16637151  0.50003123  0.50039233  1
  Sn  Sn29  1  0.83301028  0.16741017  0.49994040  1
  Sn  Sn30  1  0.16691290  0.50062090  0.83329379  1
  Sn  Sn31  1  0.16705072  0.16663308  0.49915114  1
  Sn  Sn32  1  0.16709636  0.83326750  0.50042203  1
  Sn  Sn33  1  0.83284374  0.83323033  0.16720050  1
  Sn  Sn34  1  0.50080206  0.83336298  0.16591351  1
  Sn  Sn35  1  0.16753416  0.83232088  0.83268454  1
  Sn  Sn36  1  0.16701292  0.16691830  0.16677159  1
  Sn  Sn37  1  0.49982978  0.49937805  0.16666589  1
  Sn  Sn38  1  0.49933404  0.16736431  0.16699169  1
  Sn  Sn39  1  0.49919722  0.83354671  0.83376733  1
  Sn  Sn40  1  0.50007674  0.16656297  0.49998544  1
  Pb  Pb41  1  0.49763559  0.83552700  0.49995859  1
  Pb  Pb42  1  0.83320580  0.16674534  0.82951373  1
  Pb  Pb43  1  0.49965839  0.49770457  0.49848771  1
  Pb  Pb44  1  0.16827899  0.49694481  0.16646029  1
  Pb  Pb45  1  0.83288527  0.16521706  0.16856894  1
  Pb  Pb46  1  0.50013865  0.16425135  0.83355965  1
  Pb  Pb47  1  0.49757634  0.50258048  0.83585743  1
  Pb  Pb48  1  0.83061946  0.50229964  0.16948304  1
  Pb  Pb49  1  0.16657147  0.16681044  0.83364249  1
  Pb  Pb50  1  0.83403624  0.83312749  0.83574789  1
  Pb  Pb51  1  0.83624565  0.50025126  0.83030655  1
  Pb  Pb52  1  0.16693644  0.83534311  0.16627628  1
  Pb  Pb53  1  0.83602184  0.83302341  0.49799378  1
  I  I54  1  0.17185456  0.00299725  0.17223404  1
  I  I55  1  0.16683227  0.00078597  0.49971447  1
  I  I56  1  0.17054747  -0.00295918  0.82996602  1
  I  I57  1  0.17238418  0.32924564  0.17197131  1
  I  I58  1  0.16574240  0.33294539  0.50011944  1
  I  I59  1  0.16683848  0.33597662  0.82861131  1
  I  I60  1  0.16781486  0.66665519  0.16984125  1
  I  I61  1  0.16188825  0.66635619  0.50410566  1
  I  I62  1  0.17051548  0.66748208  0.82497314  1
  I  I63  1  0.49953134  0.00014178  0.16713044  1
  I  I64  1  0.49983610  0.00352542  0.49408719  1
  I  I65  1  0.49192965  -0.00366340  0.83870672  1
  I  I66  1  0.49337330  0.33200755  0.17366053  1
  I  I67  1  0.49538560  0.32960862  0.49362011  1
  I  I68  1  0.49851957  0.33353209  0.83395984  1
  I  I69  1  0.50381077  0.66774757  0.16294147  1
  I  I70  1  0.49984986  0.66682665  0.49809373  1
  I  I71  1  0.49755617  0.67052236  0.83815341  1
  I  I72  1  0.82857540  -0.00249856  0.16914055  1
  I  I73  1  0.83432240  0.00258550  0.49785603  1
  I  I74  1  0.83621463  -0.00040389  0.83101230  1
  I  I75  1  0.83322166  0.33339689  0.16569506  1
  I  I76  1  0.83991730  0.33268416  0.49828629  1
  I  I77  1  0.83420084  0.33366704  0.83847290  1
  I  I78  1  0.82948241  0.66999480  0.16887211  1
  I  I79  1  0.83889724  0.66412831  0.49811687  1
  I  I80  1  0.83098556  0.66677744  0.83065374  1
  I  I81  1  0.17401938  0.16464816  0.00300532  1
  I  I82  1  0.16773816  0.16558998  0.33509260  1
  I  I83  1  0.16689541  0.16636938  0.66307774  1
  I  I84  1  0.17075277  0.50572856  -0.00231354  1
  I  I85  1  0.16403995  0.50238835  0.33646827  1
  I  I86  1  0.16360061  0.49861269  0.66496616  1
  I  I87  1  0.16803765  0.83012879  -0.00246931  1
  I  I88  1  0.16626318  0.83181952  0.33582966  1
  I  I89  1  0.17141783  0.83538428  0.66623577  1
  I  I90  1  0.49293602  0.16664053  0.00373996  1
  I  I91  1  0.49820688  0.16378665  0.33280280  1
  I  I92  1  0.49783297  0.16579109  0.66337601  1
  I  I93  1  0.49764032  0.49477093  0.00388288  1
  I  I94  1  0.49735897  0.50577722  0.33050638  1
  I  I95  1  0.50209895  0.49980249  0.66662535  1
  I  I96  1  0.49686046  0.83531979  0.00124322  1
  I  I97  1  0.50216923  0.83273585  0.33038726  1
  I  I98  1  0.49674667  0.83554007  0.66888025  1
  I  I99  1  0.83475157  0.16475303  0.00036009  1
  I  I100  1  0.83486550  0.16930630  0.33675192  1
  I  I101  1  0.83559983  0.16802756  0.66096736  1
  I  I102  1  0.83450314  0.50108711  0.00023432  1
  I  I103  1  0.84235017  0.49556396  0.33700582  1
  I  I104  1  0.83347781  0.49638209  0.66222823  1
  I  I105  1  0.83352529  0.83470620  0.00364099  1
  I  I106  1  0.82667589  0.83438976  0.33053028  1
  I  I107  1  0.83059089  0.83406003  0.66634211  1
  I  I108  1  0.00244745  0.16371055  0.17100153  1
  I  I109  1  0.00139945  0.16725406  0.49607031  1
  I  I110  1  0.00035353  0.16307807  0.83621390  1
  I  I111  1  0.00007806  0.50094996  0.16470169  1
  I  I112  1  0.00169379  0.49533272  0.50276311  1
  I  I113  1  0.00433910  0.50704070  0.83358786  1
  I  I114  1  -0.00147220  0.83600654  0.16837052  1
  I  I115  1  0.00408116  0.83833137  0.50381592  1
  I  I116  1  0.00362015  0.83085618  0.82982984  1
  I  I117  1  0.33421498  0.16378306  0.17567638  1
  I  I118  1  0.33238325  0.16590655  0.49510684  1
  I  I119  1  0.33322652  0.16803369  0.82888102  1
  I  I120  1  0.33604843  0.50578608  0.16935633  1
  I  I121  1  0.33004735  0.49935046  0.50245734  1
  I  I122  1  0.32985309  0.50103416  0.82488057  1
  I  I123  1  0.33603368  0.83290700  0.16575623  1
  I  I124  1  0.32944118  0.83267431  0.49870268  1
  I  I125  1  0.33255575  0.83059277  0.83607160  1
  I  I126  1  0.66329687  0.16610798  0.17200022  1
  I  I127  1  0.66632563  0.17016808  0.49434755  1
  I  I128  1  0.66642739  0.16420533  0.83388611  1
  I  I129  1  0.66276071  0.49484103  0.16880672  1
  I  I130  1  0.66885555  0.49517127  0.49606858  1
  I  I131  1  0.66650846  0.50103746  0.83239591  1
  I  I132  1  0.66446430  0.83595565  0.16240976  1
  I  I133  1  0.66648882  0.83378101  0.50206723  1
  I  I134  1  0.66386216  0.83557309  0.83593028  1
