# generated using pymatgen
data_Cs27Sn13Pb14I81
_symmetry_space_group_name_H-M   'P 1'
_cell_length_a   18.98548687
_cell_length_b   18.96415959
_cell_length_c   18.98663366
_cell_angle_alpha   89.99854825
_cell_angle_beta   89.99984971
_cell_angle_gamma   90.00006191
_symmetry_Int_Tables_number   1
_chemical_formula_structural   Cs27Sn13Pb14I81
_chemical_formula_sum   'Cs27 Sn13 Pb14 I81'
_cell_volume   6836.01978537
_cell_formula_units_Z   1
loop_
 _symmetry_equiv_pos_site_id
 _symmetry_equiv_pos_as_xyz
  1  'x, y, z'
loop_
 _atom_site_type_symbol
 _atom_site_label
 _atom_site_symmetry_multiplicity
 _atom_site_fract_x
 _atom_site_fract_y
 _atom_site_fract_z
 _atom_site_occupancy
  Cs  Cs0  1  0.00054795  0.00083884  -0.00172405  1
  Cs  Cs1  1  0.00227072  0.00091977  0.33665500  1
  Cs  Cs2  1  0.00263296  0.00431724  0.66577700  1
  Cs  Cs3  1  0.00205274  0.33240189  -0.00242190  1
  Cs  Cs4  1  -0.00104972  0.32916801  0.32386294  1
  Cs  Cs5  1  -0.00078841  0.32712665  0.67642121  1
  Cs  Cs6  1  0.00014412  0.66321910  0.00096467  1
  Cs  Cs7  1  -0.00048341  0.66760151  0.33403107  1
  Cs  Cs8  1  -0.00019707  0.66669562  0.66452118  1
  Cs  Cs9  1  0.33432911  -0.00122477  0.00004375  1
  Cs  Cs10  1  0.33140258  0.00529592  0.33446296  1
  Cs  Cs11  1  0.33050226  0.00072582  0.66593121  1
  Cs  Cs12  1  0.32724869  0.33187238  0.00021785  1
  Cs  Cs13  1  0.33495433  0.32852006  0.33117120  1
  Cs  Cs14  1  0.33347928  0.33373716  0.66812451  1
  Cs  Cs15  1  0.33463151  0.66759013  0.00011796  1
  Cs  Cs16  1  0.33378278  0.66648117  0.33528638  1
  Cs  Cs17  1  0.33551763  0.66629188  0.66459714  1
  Cs  Cs18  1  0.66562663  -0.00300242  0.00056670  1
  Cs  Cs19  1  0.66667640  0.00374511  0.33251086  1
  Cs  Cs20  1  0.66689217  -0.00000136  0.66756724  1
  Cs  Cs21  1  0.67237589  0.33203396  0.00030800  1
  Cs  Cs22  1  0.66573802  0.32680438  0.33338131  1
  Cs  Cs23  1  0.66721098  0.33242109  0.66619397  1
  Cs  Cs24  1  0.66590181  0.66844425  0.00040141  1
  Cs  Cs25  1  0.66641898  0.66657802  0.33475955  1
  Cs  Cs26  1  0.66495399  0.66685000  0.66535614  1
  Sn  Sn27  1  0.83343912  0.83276404  0.16707403  1
  Sn  Sn28  1  0.49979602  0.83250875  0.16824094  1
  Sn  Sn29  1  0.50016724  0.49886063  0.83369795  1
  Sn  Sn30  1  0.83468887  0.83269169  0.83291315  1
  Sn  Sn31  1  0.50021689  0.16796217  0.83346500  1
  Sn  Sn32  1  0.50018808  0.50076014  0.16688018  1
  Sn  Sn33  1  0.16682458  0.83264482  0.16599914  1
  Sn  Sn34  1  0.16601646  0.49985549  0.49995510  1
  Sn  Sn35  1  0.83237555  0.83279298  0.50006553  1
  Sn  Sn36  1  0.83368421  0.50032610  0.49997689  1
  Sn  Sn37  1  0.16561758  0.83241877  0.83385348  1
  Sn  Sn38  1  0.50067412  0.83298312  0.49893107  1
  Sn  Sn39  1  0.50018277  0.50075180  0.49949940  1
  Pb  Pb40  1  0.16656984  0.17102997  0.50002029  1
  Pb  Pb41  1  0.50008387  0.16666751  0.16411270  1
  Pb  Pb42  1  0.83326039  0.16395790  0.16649282  1
  Pb  Pb43  1  0.83329576  0.16690419  0.50000086  1
  Pb  Pb44  1  0.83120637  0.50192585  0.16885325  1
  Pb  Pb45  1  0.16671926  0.16396831  0.16654320  1
  Pb  Pb46  1  0.16861240  0.50235733  0.83161412  1
  Pb  Pb47  1  0.49999321  0.16667969  0.50200022  1
  Pb  Pb48  1  0.16666546  0.83228971  0.49980754  1
  Pb  Pb49  1  0.16902292  0.16402545  0.83342295  1
  Pb  Pb50  1  0.83102277  0.16401600  0.83340727  1
  Pb  Pb51  1  0.83129301  0.50223725  0.83143063  1
  Pb  Pb52  1  0.16872179  0.50217430  0.16869220  1
  Pb  Pb53  1  0.50002241  0.83269153  0.83300416  1
  I  I54  1  0.17027522  -0.00541815  0.16434491  1
  I  I55  1  0.16747170  -0.00021510  0.50017051  1
  I  I56  1  0.16599240  -0.00447673  0.83547647  1
  I  I57  1  0.16951956  0.33389993  0.16916236  1
  I  I58  1  0.17118068  0.33904273  0.50077038  1
  I  I59  1  0.16684732  0.33360181  0.83082339  1
  I  I60  1  0.16558682  0.67078842  0.16308672  1
  I  I61  1  0.16911279  0.66453923  0.50049308  1
  I  I62  1  0.16636969  0.67056540  0.83685951  1
  I  I63  1  0.50046934  -0.00401124  0.16872405  1
  I  I64  1  0.50444747  -0.00362676  0.49763535  1
  I  I65  1  0.50024560  0.00109951  0.83329880  1
  I  I66  1  0.49980272  0.33677456  0.17149004  1
  I  I67  1  0.50074542  0.33733851  0.49740072  1
  I  I68  1  0.49963383  0.33508774  0.83085239  1
  I  I69  1  0.50008041  0.66802205  0.16544828  1
  I  I70  1  0.50072863  0.66648402  0.50199991  1
  I  I71  1  0.49987355  0.66434119  0.83197763  1
  I  I72  1  0.82892600  -0.00580411  0.16936613  1
  I  I73  1  0.82806028  -0.00435803  0.49959949  1
  I  I74  1  0.83353791  -0.00500277  0.83083828  1
  I  I75  1  0.83033244  0.33389689  0.16949494  1
  I  I76  1  0.82939984  0.33709770  0.50055203  1
  I  I77  1  0.83307515  0.33365755  0.83064128  1
  I  I78  1  0.83416405  0.67098309  0.16482474  1
  I  I79  1  0.83080070  0.66805123  0.50028705  1
  I  I80  1  0.83313573  0.67089877  0.83489387  1
  I  I81  1  0.16881441  0.16797627  -0.00018532  1
  I  I82  1  0.16809198  0.16283333  0.33331899  1
  I  I83  1  0.16813483  0.16183892  0.66688855  1
  I  I84  1  0.16985992  0.50059629  0.00011233  1
  I  I85  1  0.16948097  0.50536491  0.33674261  1
  I  I86  1  0.17062613  0.50539801  0.66357551  1
  I  I87  1  0.16595832  0.83334217  0.00038241  1
  I  I88  1  0.16556573  0.83097232  0.33086040  1
  I  I89  1  0.16559125  0.83160783  0.66864749  1
  I  I90  1  0.50005639  0.16745735  -0.00341105  1
  I  I91  1  0.49983900  0.16762743  0.33317779  1
  I  I92  1  0.50010269  0.16846891  0.66961369  1
  I  I93  1  0.49961122  0.50330638  0.00029907  1
  I  I94  1  0.49966646  0.50727845  0.33424299  1
  I  I95  1  0.49981951  0.50176630  0.66542549  1
  I  I96  1  0.50204747  0.83088262  0.00225623  1
  I  I97  1  0.50225146  0.82593197  0.33341085  1
  I  I98  1  0.50247740  0.83015440  0.66415806  1
  I  I99  1  0.83047532  0.16411173  -0.00020544  1
  I  I100  1  0.83181997  0.16454931  0.33339376  1
  I  I101  1  0.83197892  0.16320082  0.66675375  1
  I  I102  1  0.82979938  0.50309821  0.00007561  1
  I  I103  1  0.83108209  0.50769872  0.33724250  1
  I  I104  1  0.82981292  0.50779086  0.66306100  1
  I  I105  1  0.83140010  0.83508528  0.00029048  1
  I  I106  1  0.83212921  0.82899515  0.33380046  1
  I  I107  1  0.83133379  0.82935463  0.66587009  1
  I  I108  1  0.00002981  0.16612019  0.16659687  1
  I  I109  1  -0.00008043  0.16251566  0.50131682  1
  I  I110  1  0.00001597  0.16644528  0.83270182  1
  I  I111  1  -0.00008848  0.50263545  0.16994815  1
  I  I112  1  -0.00082168  0.50890583  0.50003294  1
  I  I113  1  -0.00011789  0.50054563  0.83047311  1
  I  I114  1  -0.00040746  0.83457152  0.16668294  1
  I  I115  1  -0.00277670  0.82867740  0.49801058  1
  I  I116  1  -0.00057344  0.83308525  0.83556868  1
  I  I117  1  0.33373530  0.16333155  0.16657715  1
  I  I118  1  0.33360180  0.16330760  0.50118444  1
  I  I119  1  0.33685048  0.16791172  0.83255604  1
  I  I120  1  0.33733448  0.50722857  0.16858932  1
  I  I121  1  0.33537699  0.50596426  0.50094816  1
  I  I122  1  0.33721472  0.50064879  0.83021616  1
  I  I123  1  0.33433909  0.82924890  0.16520430  1
  I  I124  1  0.33617586  0.82866195  0.49891368  1
  I  I125  1  0.33175794  0.83329240  0.83603625  1
  I  I126  1  0.66627064  0.16342012  0.16650522  1
  I  I127  1  0.66646552  0.16851525  0.50101704  1
  I  I128  1  0.66321627  0.16808762  0.83233310  1
  I  I129  1  0.66261513  0.50718802  0.16760143  1
  I  I130  1  0.66540946  0.50606397  0.50106019  1
  I  I131  1  0.66271341  0.50051703  0.83072591  1
  I  I132  1  0.66608138  0.82980363  0.16611924  1
  I  I133  1  0.66626830  0.82632156  0.49897720  1
  I  I134  1  0.66861753  0.83334201  0.83475338  1
