# generated using pymatgen
data_Cs27Sn14Pb13I81
_symmetry_space_group_name_H-M   'P 1'
_cell_length_a   18.97584234
_cell_length_b   18.96390532
_cell_length_c   18.98461944
_cell_angle_alpha   89.99874710
_cell_angle_beta   90.00036361
_cell_angle_gamma   90.00029594
_symmetry_Int_Tables_number   1
_chemical_formula_structural   Cs27Sn14Pb13I81
_chemical_formula_sum   'Cs27 Sn14 Pb13 I81'
_cell_volume   6831.73068374
_cell_formula_units_Z   1
loop_
 _symmetry_equiv_pos_site_id
 _symmetry_equiv_pos_as_xyz
  1  'x, y, z'
loop_
 _atom_site_type_symbol
 _atom_site_label
 _atom_site_symmetry_multiplicity
 _atom_site_fract_x
 _atom_site_fract_y
 _atom_site_fract_z
 _atom_site_occupancy
  Cs  Cs0  1  -0.00308555  -0.00123726  -0.00250243  1
  Cs  Cs1  1  0.00118347  0.00219796  0.33426046  1
  Cs  Cs2  1  0.00129739  0.00121006  0.66741219  1
  Cs  Cs3  1  0.00795648  0.32704722  0.00036167  1
  Cs  Cs4  1  0.00137405  0.32598131  0.33655605  1
  Cs  Cs5  1  -0.00106391  0.32086381  0.66262214  1
  Cs  Cs6  1  -0.00113684  0.66828227  0.00206071  1
  Cs  Cs7  1  -0.00092002  0.66584923  0.33275139  1
  Cs  Cs8  1  -0.00247917  0.66856814  0.66468234  1
  Cs  Cs9  1  0.33707152  0.00029928  0.00259367  1
  Cs  Cs10  1  0.33858044  0.00132233  0.33232423  1
  Cs  Cs11  1  0.33477268  -0.00050190  0.66517007  1
  Cs  Cs12  1  0.32518641  0.33848417  0.00029016  1
  Cs  Cs13  1  0.33179061  0.33352233  0.33236939  1
  Cs  Cs14  1  0.33514650  0.33386940  0.66840013  1
  Cs  Cs15  1  0.33019517  0.66238825  -0.00183852  1
  Cs  Cs16  1  0.33349492  0.66753087  0.33495146  1
  Cs  Cs17  1  0.33388945  0.66603134  0.66625655  1
  Cs  Cs18  1  0.66621936  0.00211041  0.00132751  1
  Cs  Cs19  1  0.66009280  -0.00021643  0.32698972  1
  Cs  Cs20  1  0.66399560  -0.00105395  0.66864099  1
  Cs  Cs21  1  0.66633171  0.33418082  0.00076594  1
  Cs  Cs22  1  0.66838955  0.33528958  0.33418515  1
  Cs  Cs23  1  0.66575594  0.33441513  0.66498417  1
  Cs  Cs24  1  0.66990970  0.66493505  -0.00067492  1
  Cs  Cs25  1  0.66698974  0.66573217  0.33320238  1
  Cs  Cs26  1  0.66796608  0.66608523  0.66733358  1
  Sn  Sn27  1  0.16685593  0.50067983  0.50051475  1
  Sn  Sn28  1  0.83403205  0.83265294  0.16682125  1
  Sn  Sn29  1  0.50044607  0.50055070  0.16728205  1
  Sn  Sn30  1  0.83410720  0.50010170  0.83408008  1
  Sn  Sn31  1  0.49927292  0.49944900  0.49929346  1
  Sn  Sn32  1  0.83369824  0.83325596  0.49975977  1
  Sn  Sn33  1  0.83325566  0.83257684  0.83324405  1
  Sn  Sn34  1  0.50006891  0.16643360  0.83302953  1
  Sn  Sn35  1  0.50006773  0.83364189  0.83339961  1
  Sn  Sn36  1  0.16600383  0.83288529  0.16694055  1
  Sn  Sn37  1  0.83321452  0.50029997  0.16562629  1
  Sn  Sn38  1  0.50022847  0.16782082  0.50061385  1
  Sn  Sn39  1  0.16597649  0.83246765  0.49977674  1
  Sn  Sn40  1  0.16670447  0.83291988  0.83329102  1
  Pb  Pb41  1  0.16286513  0.50197824  0.83033478  1
  Pb  Pb42  1  0.83114022  0.16665988  0.83341966  1
  Pb  Pb43  1  0.50014842  0.83079716  0.16372891  1
  Pb  Pb44  1  0.50003302  0.17022266  0.16601637  1
  Pb  Pb45  1  0.16669230  0.16303877  0.16670932  1
  Pb  Pb46  1  0.83368765  0.50134204  0.49986337  1
  Pb  Pb47  1  0.16556123  0.50189848  0.16888575  1
  Pb  Pb48  1  0.83009667  0.16266503  0.49986678  1
  Pb  Pb49  1  0.16969345  0.16366981  0.83329730  1
  Pb  Pb50  1  0.49996581  0.83276460  0.50160567  1
  Pb  Pb51  1  0.16927716  0.16597080  0.50004940  1
  Pb  Pb52  1  0.83331012  0.16694166  0.16654366  1
  Pb  Pb53  1  0.50140537  0.50004478  0.83326689  1
  I  I54  1  0.16130284  -0.00578887  0.16923171  1
  I  I55  1  0.16334379  -0.00399698  0.50072844  1
  I  I56  1  0.16039174  -0.00523898  0.83017035  1
  I  I57  1  0.16701597  0.33378818  0.16829789  1
  I  I58  1  0.16836452  0.33613307  0.49917957  1
  I  I59  1  0.16677484  0.33362342  0.83215776  1
  I  I60  1  0.16550548  0.67032842  0.16455926  1
  I  I61  1  0.17017686  0.66817851  0.50015166  1
  I  I62  1  0.17290953  0.67071365  0.83484587  1
  I  I63  1  0.49958295  -0.00035264  0.16909201  1
  I  I64  1  0.50074739  0.00148348  0.50352003  1
  I  I65  1  0.50118679  -0.00131427  0.82720468  1
  I  I66  1  0.50687004  0.33803576  0.16659688  1
  I  I67  1  0.49507442  0.33455225  0.50277766  1
  I  I68  1  0.50403447  0.33132221  0.83109129  1
  I  I69  1  0.50194113  0.66335861  0.17284426  1
  I  I70  1  0.49902024  0.66410997  0.49797974  1
  I  I71  1  0.49909459  0.66940694  0.83249293  1
  I  I72  1  0.83724181  -0.00415738  0.16554176  1
  I  I73  1  0.83970842  -0.00563046  0.50186082  1
  I  I74  1  0.83540566  -0.00402117  0.83371662  1
  I  I75  1  0.82701629  0.33730303  0.16234302  1
  I  I76  1  0.83610143  0.33330698  0.50039007  1
  I  I77  1  0.82938599  0.33651410  0.83745459  1
  I  I78  1  0.83254813  0.66783355  0.16540486  1
  I  I79  1  0.83179859  0.66986297  0.50100240  1
  I  I80  1  0.82972436  0.66873093  0.83384694  1
  I  I81  1  0.17003532  0.16751922  -0.00019449  1
  I  I82  1  0.16928915  0.16446805  0.33367990  1
  I  I83  1  0.16514055  0.16451304  0.66661106  1
  I  I84  1  0.17095143  0.50134829  -0.00010569  1
  I  I85  1  0.16761777  0.50744562  0.33660088  1
  I  I86  1  0.17395099  0.50762774  0.66286923  1
  I  I87  1  0.16409363  0.83427763  -0.00025748  1
  I  I88  1  0.15961886  0.82912367  0.33391212  1
  I  I89  1  0.16426145  0.82984524  0.66647178  1
  I  I90  1  0.50152178  0.16040075  -0.00291555  1
  I  I91  1  0.49960911  0.16693445  0.33599382  1
  I  I92  1  0.50018727  0.16762769  0.66652929  1
  I  I93  1  0.50323180  0.50189669  0.00200959  1
  I  I94  1  0.50254830  0.49588585  0.33425711  1
  I  I95  1  0.49816183  0.49979415  0.66422259  1
  I  I96  1  0.50027493  0.83812012  -0.00417605  1
  I  I97  1  0.50025751  0.83617896  0.33314479  1
  I  I98  1  0.50091491  0.83234790  0.66964269  1
  I  I99  1  0.82943483  0.16186998  -0.00011452  1
  I  I100  1  0.83071085  0.16690471  0.33344209  1
  I  I101  1  0.83387997  0.16774246  0.66654897  1
  I  I102  1  0.82463839  0.51053684  0.00045282  1
  I  I103  1  0.83068076  0.50630298  0.33086523  1
  I  I104  1  0.83146014  0.50690472  0.66875078  1
  I  I105  1  0.83565367  0.82968148  -0.00025493  1
  I  I106  1  0.83979524  0.82887173  0.33286153  1
  I  I107  1  0.83484451  0.82920852  0.66738948  1
  I  I108  1  -0.00002978  0.17183291  0.16730567  1
  I  I109  1  0.00000642  0.16982926  0.49939143  1
  I  I110  1  0.00007612  0.16663966  0.83356500  1
  I  I111  1  -0.00327547  0.50477503  0.16353404  1
  I  I112  1  0.00231599  0.50569667  0.50037006  1
  I  I113  1  -0.00471378  0.50813238  0.83917792  1
  I  I114  1  -0.00095918  0.82753907  0.16305099  1
  I  I115  1  0.00046468  0.82684670  0.50394858  1
  I  I116  1  -0.00054798  0.82791480  0.83324820  1
  I  I117  1  0.33373683  0.16529334  0.16688465  1
  I  I118  1  0.33706576  0.16496168  0.50438684  1
  I  I119  1  0.33764671  0.16176620  0.82842170  1
  I  I120  1  0.33526806  0.50121559  0.16886025  1
  I  I121  1  0.33422988  0.50304761  0.49516162  1
  I  I122  1  0.33299561  0.50098464  0.83544045  1
  I  I123  1  0.33087151  0.83227298  0.16754640  1
  I  I124  1  0.33079147  0.83280319  0.50051224  1
  I  I125  1  0.33320106  0.83829350  0.83198662  1
  I  I126  1  0.66637743  0.16015171  0.16728665  1
  I  I127  1  0.66246457  0.17257432  0.50453488  1
  I  I128  1  0.66331504  0.15936988  0.82886208  1
  I  I129  1  0.66725019  0.50615206  0.16891380  1
  I  I130  1  0.66431749  0.49824437  0.49945507  1
  I  I131  1  0.66921297  0.50702699  0.83215096  1
  I  I132  1  0.66961139  0.83169186  0.16761862  1
  I  I133  1  0.66910493  0.83300619  0.50089522  1
  I  I134  1  0.66745574  0.83355687  0.83203288  1
