# generated using pymatgen
data_Cs27Sn13Pb14I81
_symmetry_space_group_name_H-M   'P 1'
_cell_length_a   18.97866190
_cell_length_b   18.97291898
_cell_length_c   18.97995820
_cell_angle_alpha   90.00007906
_cell_angle_beta   90.00015323
_cell_angle_gamma   90.00030684
_symmetry_Int_Tables_number   1
_chemical_formula_structural   Cs27Sn13Pb14I81
_chemical_formula_sum   'Cs27 Sn13 Pb14 I81'
_cell_volume   6834.31500919
_cell_formula_units_Z   1
loop_
 _symmetry_equiv_pos_site_id
 _symmetry_equiv_pos_as_xyz
  1  'x, y, z'
loop_
 _atom_site_type_symbol
 _atom_site_label
 _atom_site_symmetry_multiplicity
 _atom_site_fract_x
 _atom_site_fract_y
 _atom_site_fract_z
 _atom_site_occupancy
  Cs  Cs0  1  -0.00013826  -0.00012668  -0.00209397  1
  Cs  Cs1  1  0.00123377  0.00235649  0.33503451  1
  Cs  Cs2  1  -0.00534919  0.00684150  0.66771109  1
  Cs  Cs3  1  -0.00064273  0.33940014  -0.00307776  1
  Cs  Cs4  1  -0.00091012  0.33437718  0.33336700  1
  Cs  Cs5  1  -0.00043797  0.32388560  0.66939949  1
  Cs  Cs6  1  -0.00580524  0.66036945  0.00146519  1
  Cs  Cs7  1  0.00116999  0.66329020  0.33183791  1
  Cs  Cs8  1  -0.00058431  0.66847395  0.66579910  1
  Cs  Cs9  1  0.33404168  -0.00049070  0.00068654  1
  Cs  Cs10  1  0.33369180  -0.00065748  0.33165244  1
  Cs  Cs11  1  0.33229535  -0.00061531  0.66847840  1
  Cs  Cs12  1  0.33431835  0.33471289  -0.00037957  1
  Cs  Cs13  1  0.33467009  0.33257417  0.33353068  1
  Cs  Cs14  1  0.33428874  0.33345214  0.66752555  1
  Cs  Cs15  1  0.33169380  0.66682476  -0.00310259  1
  Cs  Cs16  1  0.33237757  0.66764813  0.33493192  1
  Cs  Cs17  1  0.33366675  0.66708691  0.66651866  1
  Cs  Cs18  1  0.66670717  -0.00083730  0.00171955  1
  Cs  Cs19  1  0.66632710  -0.00518354  0.33277447  1
  Cs  Cs20  1  0.67251609  -0.00188304  0.66597761  1
  Cs  Cs21  1  0.66427073  0.33387969  -0.00032354  1
  Cs  Cs22  1  0.66402817  0.33237394  0.33328459  1
  Cs  Cs23  1  0.66464160  0.33515799  0.66722007  1
  Cs  Cs24  1  0.67602620  0.66639217  -0.00069087  1
  Cs  Cs25  1  0.66749623  0.67216571  0.33384656  1
  Cs  Cs26  1  0.66934005  0.66665546  0.66664569  1
  Sn  Sn27  1  0.83330269  0.16678030  0.16670883  1
  Sn  Sn28  1  0.16719964  0.83330899  0.83337474  1
  Sn  Sn29  1  0.49989640  0.16701240  0.16694816  1
  Sn  Sn30  1  0.49960219  0.50017047  0.16740621  1
  Sn  Sn31  1  0.83322672  0.49961094  0.49994901  1
  Sn  Sn32  1  0.49962991  0.83395732  0.83349327  1
  Sn  Sn33  1  0.16700220  0.83319243  0.50031250  1
  Sn  Sn34  1  0.16655781  0.16641465  0.16654820  1
  Sn  Sn35  1  0.16695559  0.83367098  0.16626102  1
  Sn  Sn36  1  0.49967740  0.16665397  0.49987902  1
  Sn  Sn37  1  0.50002207  0.49969223  0.49881582  1
  Sn  Sn38  1  0.49962281  0.16540684  0.83332090  1
  Sn  Sn39  1  0.16663244  0.50008684  0.50021843  1
  Pb  Pb40  1  0.49833625  0.83318477  0.50199395  1
  Pb  Pb41  1  0.83038219  0.49775796  0.16877570  1
  Pb  Pb42  1  0.49998222  0.50044527  0.83324266  1
  Pb  Pb43  1  0.83028953  0.16676735  0.83605585  1
  Pb  Pb44  1  0.83372659  0.83348674  0.83336075  1
  Pb  Pb45  1  0.83033856  0.16867963  0.49787655  1
  Pb  Pb46  1  0.16670895  0.50241180  0.83024009  1
  Pb  Pb47  1  0.49836738  0.83286507  0.16456582  1
  Pb  Pb48  1  0.83669875  0.83118528  0.49974171  1
  Pb  Pb49  1  0.16861359  0.16667754  0.49827120  1
  Pb  Pb50  1  0.16870386  0.16478383  0.83610618  1
  Pb  Pb51  1  0.83677988  0.83575257  0.16686385  1
  Pb  Pb52  1  0.83339940  0.49959170  0.83029522  1
  Pb  Pb53  1  0.16870275  0.49987593  0.16840606  1
  I  I54  1  0.16972535  0.00019703  0.16933260  1
  I  I55  1  0.17020763  -0.00257366  0.50023130  1
  I  I56  1  0.16957695  -0.00346839  0.82835225  1
  I  I57  1  0.16710576  0.33043273  0.16969259  1
  I  I58  1  0.16672434  0.33601001  0.49652000  1
  I  I59  1  0.16799265  0.33311939  0.83330555  1
  I  I60  1  0.17016171  0.66928389  0.16604006  1
  I  I61  1  0.16949596  0.66664586  0.49794910  1
  I  I62  1  0.17509213  0.67097580  0.83832288  1
  I  I63  1  0.50090391  0.00327545  0.16916124  1
  I  I64  1  0.49714449  0.00275705  0.49640710  1
  I  I65  1  0.49500524  0.00084993  0.83425473  1
  I  I66  1  0.49771030  0.33162648  0.16583037  1
  I  I67  1  0.49755160  0.33364904  0.50050819  1
  I  I68  1  0.50097667  0.33037472  0.83393112  1
  I  I69  1  0.49683497  0.66403569  0.17167928  1
  I  I70  1  0.50074208  0.66349773  0.49659816  1
  I  I71  1  0.49449464  0.66961220  0.83253397  1
  I  I72  1  0.82592181  0.00377458  0.16772022  1
  I  I73  1  0.83334980  0.00035628  0.49986223  1
  I  I74  1  0.83460632  0.00024280  0.83185028  1
  I  I75  1  0.83734199  0.32990414  0.16794753  1
  I  I76  1  0.83829654  0.33657709  0.49851718  1
  I  I77  1  0.83184416  0.33296093  0.83365676  1
  I  I78  1  0.83292076  0.66633579  0.16677798  1
  I  I79  1  0.82640726  0.66304020  0.49894864  1
  I  I80  1  0.83025989  0.66669772  0.83446467  1
  I  I81  1  0.16968624  0.16152033  0.00437346  1
  I  I82  1  0.17028546  0.16132798  0.33015854  1
  I  I83  1  0.16869303  0.16639563  0.66665409  1
  I  I84  1  0.16908728  0.50060127  0.00022101  1
  I  I85  1  0.16650165  0.50572718  0.33655249  1
  I  I86  1  0.17118504  0.50472879  0.66170840  1
  I  I87  1  0.17244278  0.84040395  0.00015082  1
  I  I88  1  0.16694080  0.83316675  0.33333194  1
  I  I89  1  0.17222601  0.82635162  0.66654508  1
  I  I90  1  0.49972760  0.16696510  0.00116293  1
  I  I91  1  0.49923326  0.17235255  0.33259462  1
  I  I92  1  0.49831585  0.16827922  0.66623950  1
  I  I93  1  0.49849165  0.49532122  0.00283066  1
  I  I94  1  0.49904861  0.49151113  0.33431919  1
  I  I95  1  0.49965465  0.49653038  0.66309592  1
  I  I96  1  0.49290365  0.83785940  -0.00313008  1
  I  I97  1  0.49774492  0.83553087  0.33331266  1
  I  I98  1  0.49333423  0.83686767  0.66972330  1
  I  I99  1  0.83183950  0.16639326  0.00406963  1
  I  I100  1  0.83154226  0.16744465  0.33008297  1
  I  I101  1  0.83275551  0.16774844  0.66648025  1
  I  I102  1  0.83172963  0.50008465  0.00050622  1
  I  I103  1  0.83558724  0.49906886  0.33653693  1
  I  I104  1  0.82890837  0.50058151  0.66196964  1
  I  I105  1  0.83414239  0.83272598  0.00017469  1
  I  I106  1  0.83278093  0.83383512  0.33330016  1
  I  I107  1  0.83435866  0.83272252  0.66648709  1
  I  I108  1  0.00088145  0.16022399  0.16891082  1
  I  I109  1  0.00010225  0.16747071  0.49787575  1
  I  I110  1  0.00012071  0.16503999  0.83366577  1
  I  I111  1  0.00006545  0.49926556  0.16861951  1
  I  I112  1  0.00079263  0.50734521  0.49945165  1
  I  I113  1  0.00023671  0.50247747  0.83423250  1
  I  I114  1  0.00521950  0.83732681  0.16507151  1
  I  I115  1  0.00519893  0.82890031  0.50153343  1
  I  I116  1  0.00386561  0.83219248  0.83302443  1
  I  I117  1  0.33445343  0.16605507  0.16714647  1
  I  I118  1  0.33684201  0.17165704  0.49735202  1
  I  I119  1  0.33706119  0.16533766  0.83521411  1
  I  I120  1  0.33660415  0.49392654  0.17266921  1
  I  I121  1  0.33412365  0.50050611  0.49625034  1
  I  I122  1  0.33355433  0.49851432  0.83102768  1
  I  I123  1  0.33025224  0.83888568  0.16907066  1
  I  I124  1  0.33026366  0.82816806  0.49800158  1
  I  I125  1  0.33299243  0.83731668  0.83312780  1
  I  I126  1  0.66477214  0.17248860  0.16616344  1
  I  I127  1  0.66202099  0.17169579  0.49857203  1
  I  I128  1  0.66173452  0.16108405  0.83445835  1
  I  I129  1  0.66230942  0.49465576  0.17116805  1
  I  I130  1  0.66507067  0.49379738  0.49674647  1
  I  I131  1  0.66615962  0.50236129  0.83203584  1
  I  I132  1  0.66652652  0.83356144  0.16487092  1
  I  I133  1  0.66648556  0.83279206  0.50193843  1
  I  I134  1  0.66345690  0.83716919  0.83318273  1
