# generated using pymatgen
data_Cs27Sn14Pb13I81
_symmetry_space_group_name_H-M   'P 1'
_cell_length_a   18.97093853
_cell_length_b   18.97645369
_cell_length_c   18.97999041
_cell_angle_alpha   89.99934756
_cell_angle_beta   90.00016159
_cell_angle_gamma   90.00178613
_symmetry_Int_Tables_number   1
_chemical_formula_structural   Cs27Sn14Pb13I81
_chemical_formula_sum   'Cs27 Sn14 Pb13 I81'
_cell_volume   6832.81811836
_cell_formula_units_Z   1
loop_
 _symmetry_equiv_pos_site_id
 _symmetry_equiv_pos_as_xyz
  1  'x, y, z'
loop_
 _atom_site_type_symbol
 _atom_site_label
 _atom_site_symmetry_multiplicity
 _atom_site_fract_x
 _atom_site_fract_y
 _atom_site_fract_z
 _atom_site_occupancy
  Cs  Cs0  1  -0.00142499  0.00311123  0.00590593  1
  Cs  Cs1  1  -0.00159318  0.00142628  0.32489025  1
  Cs  Cs2  1  -0.00119513  -0.00121472  0.66693931  1
  Cs  Cs3  1  -0.00819835  0.33176995  0.00034412  1
  Cs  Cs4  1  0.00174413  0.33060562  0.33468180  1
  Cs  Cs5  1  -0.00042750  0.33337634  0.66602634  1
  Cs  Cs6  1  0.00285527  0.66623589  0.00277963  1
  Cs  Cs7  1  -0.00149521  0.66862520  0.33555197  1
  Cs  Cs8  1  0.00248625  0.66700624  0.66432734  1
  Cs  Cs9  1  0.33497394  -0.00117815  -0.00042458  1
  Cs  Cs10  1  0.33389914  0.00394166  0.33087238  1
  Cs  Cs11  1  0.33399020  -0.00020144  0.66831541  1
  Cs  Cs12  1  0.33364889  0.33378109  -0.00114862  1
  Cs  Cs13  1  0.33441477  0.33101593  0.33742949  1
  Cs  Cs14  1  0.33354642  0.33218464  0.66372392  1
  Cs  Cs15  1  0.33231436  0.66815097  -0.00118379  1
  Cs  Cs16  1  0.33271396  0.66536361  0.33281529  1
  Cs  Cs17  1  0.33112035  0.66746736  0.66813573  1
  Cs  Cs18  1  0.66170563  0.00233450  -0.00209286  1
  Cs  Cs19  1  0.66716842  -0.00321985  0.33340474  1
  Cs  Cs20  1  0.66694138  -0.00204429  0.66721872  1
  Cs  Cs21  1  0.67475088  0.33839958  0.00080360  1
  Cs  Cs22  1  0.66372529  0.33738770  0.33551856  1
  Cs  Cs23  1  0.66844889  0.33560527  0.66532092  1
  Cs  Cs24  1  0.66584108  0.65792089  0.00077314  1
  Cs  Cs25  1  0.66996124  0.66622816  0.33156813  1
  Cs  Cs26  1  0.66634120  0.66873851  0.66664474  1
  Sn  Sn27  1  0.16610581  0.50059381  0.49989254  1
  Sn  Sn28  1  0.16705938  0.16628964  0.83319372  1
  Sn  Sn29  1  0.49971191  0.83366769  0.16636244  1
  Sn  Sn30  1  0.50008660  0.16654783  0.16556104  1
  Sn  Sn31  1  0.16695551  0.49973658  0.16692113  1
  Sn  Sn32  1  0.16673845  0.49969187  0.83337038  1
  Sn  Sn33  1  0.50014620  0.83375528  0.83345531  1
  Sn  Sn34  1  0.16745567  0.83341405  0.50013647  1
  Sn  Sn35  1  0.83360482  0.83329626  0.83381994  1
  Sn  Sn36  1  0.49956074  0.16654834  0.83410978  1
  Sn  Sn37  1  0.49876958  0.83321026  0.49997142  1
  Sn  Sn38  1  0.83338459  0.16697674  0.50017522  1
  Sn  Sn39  1  0.16619637  0.83390692  0.83290782  1
  Sn  Sn40  1  0.83423507  0.49910468  0.50045931  1
  Pb  Pb41  1  0.83626751  0.50261959  0.83111157  1
  Pb  Pb42  1  0.16513288  0.16580085  0.50192091  1
  Pb  Pb43  1  0.16884818  0.16923229  0.16368407  1
  Pb  Pb44  1  0.49801735  0.49962614  0.83321181  1
  Pb  Pb45  1  0.83017232  0.83336450  0.16303324  1
  Pb  Pb46  1  0.49792638  0.49964366  0.16655096  1
  Pb  Pb47  1  0.82993076  0.16662266  0.16936225  1
  Pb  Pb48  1  0.83637573  0.50009064  0.16961374  1
  Pb  Pb49  1  0.49951176  0.50284105  0.50016869  1
  Pb  Pb50  1  0.83290415  0.16486566  0.83189463  1
  Pb  Pb51  1  0.50193249  0.16415956  0.50066435  1
  Pb  Pb52  1  0.16856187  0.83212324  0.16673111  1
  Pb  Pb53  1  0.83400213  0.83323365  0.50124587  1
  I  I54  1  0.16556324  0.00023042  0.16785508  1
  I  I55  1  0.16937274  -0.00332849  0.50615214  1
  I  I56  1  0.16839614  -0.00133132  0.82723184  1
  I  I57  1  0.16985021  0.33701444  0.16903185  1
  I  I58  1  0.16394308  0.33600862  0.50136804  1
  I  I59  1  0.17262110  0.33338686  0.83240245  1
  I  I60  1  0.16990832  0.66417729  0.16244925  1
  I  I61  1  0.16519601  0.66668850  0.50477533  1
  I  I62  1  0.16711554  0.66749041  0.83209776  1
  I  I63  1  0.49848651  -0.00094988  0.16543010  1
  I  I64  1  0.49605521  -0.00394222  0.50123548  1
  I  I65  1  0.49517684  -0.00137755  0.83358682  1
  I  I66  1  0.49802213  0.33021009  0.16176340  1
  I  I67  1  0.49857896  0.33318939  0.49914935  1
  I  I68  1  0.49484801  0.32987456  0.83783073  1
  I  I69  1  0.49864416  0.66977663  0.16545044  1
  I  I70  1  0.50074033  0.67116364  0.50154158  1
  I  I71  1  0.49936882  0.67037660  0.83353374  1
  I  I72  1  0.83830383  -0.00008681  0.17154493  1
  I  I73  1  0.83171288  0.00154534  0.50315120  1
  I  I74  1  0.83699019  -0.00298072  0.82816939  1
  I  I75  1  0.83071077  0.33340386  0.16309471  1
  I  I76  1  0.83907836  0.33422231  0.50142781  1
  I  I77  1  0.83308246  0.33355612  0.83328107  1
  I  I78  1  0.82995070  0.66674520  0.16915120  1
  I  I79  1  0.83547662  0.66453151  0.50173078  1
  I  I80  1  0.83036890  0.67047186  0.82999091  1
  I  I81  1  0.16773790  0.16394609  -0.00456597  1
  I  I82  1  0.16706088  0.16737600  0.33326596  1
  I  I83  1  0.17294962  0.16978329  0.67013587  1
  I  I84  1  0.17039285  0.50208301  -0.00126233  1
  I  I85  1  0.16319785  0.50624545  0.33479875  1
  I  I86  1  0.16309570  0.50230629  0.66658051  1
  I  I87  1  0.16771900  0.83161833  -0.00347699  1
  I  I88  1  0.17069756  0.82735776  0.33632898  1
  I  I89  1  0.17123960  0.82842411  0.66759649  1
  I  I90  1  0.49454547  0.15652207  -0.00129941  1
  I  I91  1  0.50218434  0.16196406  0.33129835  1
  I  I92  1  0.49687993  0.16196633  0.66983363  1
  I  I93  1  0.49678535  0.50540231  -0.00019916  1
  I  I94  1  0.49708482  0.50001242  0.33349627  1
  I  I95  1  0.49809565  0.49935724  0.66660999  1
  I  I96  1  0.49902254  0.83789498  -0.00133683  1
  I  I97  1  0.49498700  0.83679545  0.33366091  1
  I  I98  1  0.49915848  0.83652751  0.66776338  1
  I  I99  1  0.83541176  0.16502529  -0.00012603  1
  I  I100  1  0.83397511  0.16915577  0.33719730  1
  I  I101  1  0.83158548  0.16990377  0.66419552  1
  I  I102  1  0.83398456  0.50113186  -0.00022085  1
  I  I103  1  0.83818978  0.49841749  0.33757457  1
  I  I104  1  0.83911891  0.49699408  0.66343066  1
  I  I105  1  0.83743324  0.83466506  -0.00485034  1
  I  I106  1  0.83270655  0.83278484  0.33332984  1
  I  I107  1  0.82915666  0.83340975  0.66910345  1
  I  I108  1  0.00008590  0.16789211  0.16587033  1
  I  I109  1  -0.00251841  0.16618114  0.50381040  1
  I  I110  1  0.00284593  0.16607097  0.83004088  1
  I  I111  1  0.00437288  0.50131115  0.16233415  1
  I  I112  1  0.00182269  0.50298833  0.50090426  1
  I  I113  1  0.00470315  0.49949772  0.83498553  1
  I  I114  1  0.00015200  0.83147853  0.16749445  1
  I  I115  1  0.00310941  0.83085163  0.50674624  1
  I  I116  1  0.00184140  0.83232186  0.82557328  1
  I  I117  1  0.33663963  0.16183652  0.16670548  1
  I  I118  1  0.33346433  0.16940151  0.49848848  1
  I  I119  1  0.33337939  0.16186638  0.83530225  1
  I  I120  1  0.32997643  0.50137672  0.16910925  1
  I  I121  1  0.32954118  0.50244449  0.50073776  1
  I  I122  1  0.32926420  0.50500440  0.82984666  1
  I  I123  1  0.33667060  0.83577623  0.16250381  1
  I  I124  1  0.33261407  0.82794277  0.50548073  1
  I  I125  1  0.33312020  0.83312298  0.83245637  1
  I  I126  1  0.66209004  0.16182543  0.15872718  1
  I  I127  1  0.66956721  0.17142873  0.50206810  1
  I  I128  1  0.66343715  0.15951582  0.83518210  1
  I  I129  1  0.66669140  0.50048650  0.16834324  1
  I  I130  1  0.66925079  0.49747150  0.50001486  1
  I  I131  1  0.66703466  0.50076707  0.83201886  1
  I  I132  1  0.66180607  0.83677809  0.17005522  1
  I  I133  1  0.66425653  0.83401826  0.50186784  1
  I  I134  1  0.66497101  0.83942435  0.83137107  1
