# generated using pymatgen
data_Cs27Sn13Pb14I81
_symmetry_space_group_name_H-M   'P 1'
_cell_length_a   18.98270404
_cell_length_b   18.96929565
_cell_length_c   18.97875543
_cell_angle_alpha   89.99842955
_cell_angle_beta   89.99939648
_cell_angle_gamma   90.00062769
_symmetry_Int_Tables_number   1
_chemical_formula_structural   Cs27Sn13Pb14I81
_chemical_formula_sum   'Cs27 Sn13 Pb14 I81'
_cell_volume   6834.03204895
_cell_formula_units_Z   1
loop_
 _symmetry_equiv_pos_site_id
 _symmetry_equiv_pos_as_xyz
  1  'x, y, z'
loop_
 _atom_site_type_symbol
 _atom_site_label
 _atom_site_symmetry_multiplicity
 _atom_site_fract_x
 _atom_site_fract_y
 _atom_site_fract_z
 _atom_site_occupancy
  Cs  Cs0  1  0.00139581  -0.00045280  -0.00258636  1
  Cs  Cs1  1  -0.00204172  -0.00064434  0.33698176  1
  Cs  Cs2  1  0.00002432  0.00029732  0.66734030  1
  Cs  Cs3  1  0.00082297  0.33549425  0.00041155  1
  Cs  Cs4  1  -0.00668526  0.33322587  0.33222934  1
  Cs  Cs5  1  0.00205325  0.33276603  0.66669014  1
  Cs  Cs6  1  0.00308287  0.66418604  0.00468478  1
  Cs  Cs7  1  0.00191239  0.66643911  0.33017896  1
  Cs  Cs8  1  0.00030951  0.66678251  0.66553511  1
  Cs  Cs9  1  0.33207309  0.00043962  -0.00261019  1
  Cs  Cs10  1  0.33584743  0.00208444  0.33450967  1
  Cs  Cs11  1  0.33189206  0.00011775  0.66883112  1
  Cs  Cs12  1  0.33126043  0.33053124  0.00008351  1
  Cs  Cs13  1  0.33604142  0.33005523  0.33524475  1
  Cs  Cs14  1  0.33173692  0.33383178  0.66472715  1
  Cs  Cs15  1  0.33256089  0.66845544  0.00182745  1
  Cs  Cs16  1  0.33281936  0.66667979  0.33095047  1
  Cs  Cs17  1  0.33462072  0.66648252  0.66804728  1
  Cs  Cs18  1  0.66654644  0.00122228  0.00122188  1
  Cs  Cs19  1  0.66553748  0.00020724  0.33080162  1
  Cs  Cs20  1  0.66971304  -0.00227043  0.66868253  1
  Cs  Cs21  1  0.66926199  0.33276481  0.00133293  1
  Cs  Cs22  1  0.66982021  0.32878195  0.33691619  1
  Cs  Cs23  1  0.66547302  0.34457912  0.66291461  1
  Cs  Cs24  1  0.66472516  0.66474993  -0.00116510  1
  Cs  Cs25  1  0.66493484  0.66924964  0.33437947  1
  Cs  Cs26  1  0.66427892  0.66132945  0.66718628  1
  Sn  Sn27  1  0.16665685  0.50070372  0.50026484  1
  Sn  Sn28  1  0.50017777  0.49983135  0.16676319  1
  Sn  Sn29  1  0.16693724  0.83254138  0.50018351  1
  Sn  Sn30  1  0.16643872  0.16644833  0.16652008  1
  Sn  Sn31  1  0.83294676  0.16658442  0.83294245  1
  Sn  Sn32  1  0.50050806  0.83268448  0.16694194  1
  Sn  Sn33  1  0.83312493  0.83323633  0.50018217  1
  Sn  Sn34  1  0.16682257  0.49968108  0.83296926  1
  Sn  Sn35  1  0.16658774  0.16743859  0.83414708  1
  Sn  Sn36  1  0.49992656  0.83349497  0.49976840  1
  Sn  Sn37  1  0.83276819  0.83337904  0.16628846  1
  Sn  Sn38  1  0.50047211  0.16694102  0.83280337  1
  Sn  Sn39  1  0.83345645  0.83337138  0.83362377  1
  Pb  Pb40  1  0.83053171  0.50234535  0.16672560  1
  Pb  Pb41  1  0.49873188  0.16619148  0.16506183  1
  Pb  Pb42  1  0.83568765  0.50005781  0.83346159  1
  Pb  Pb43  1  0.83305658  0.16473152  0.50285113  1
  Pb  Pb44  1  0.16699084  0.83541350  0.16902803  1
  Pb  Pb45  1  0.49767323  0.50224659  0.49783165  1
  Pb  Pb46  1  0.83548370  0.16432208  0.16448609  1
  Pb  Pb47  1  0.50217280  0.83467352  0.83362233  1
  Pb  Pb48  1  0.16841774  0.49769457  0.16730338  1
  Pb  Pb49  1  0.50030654  0.16430669  0.50286809  1
  Pb  Pb50  1  0.16653711  0.16688954  0.50021072  1
  Pb  Pb51  1  0.16466953  0.83331333  0.83140980  1
  Pb  Pb52  1  0.83575691  0.50267194  0.49984803  1
  Pb  Pb53  1  0.49744187  0.49752957  0.83542495  1
  I  I54  1  0.16833319  0.00286361  0.15979242  1
  I  I55  1  0.16584783  -0.00311365  0.50012945  1
  I  I56  1  0.16763330  0.00278199  0.83540806  1
  I  I57  1  0.16970377  0.33006340  0.16510642  1
  I  I58  1  0.16828652  0.33600002  0.50229418  1
  I  I59  1  0.16505294  0.33223051  0.83141539  1
  I  I60  1  0.16521745  0.66686945  0.16418337  1
  I  I61  1  0.16596126  0.66756020  0.50553413  1
  I  I62  1  0.16493693  0.66440601  0.83070161  1
  I  I63  1  0.50298885  -0.00328592  0.16992459  1
  I  I64  1  0.49700279  -0.00455512  0.49316039  1
  I  I65  1  0.49409189  0.00266570  0.83492715  1
  I  I66  1  0.49470544  0.33529522  0.16307131  1
  I  I67  1  0.49709694  0.33364184  0.49868413  1
  I  I68  1  0.50388691  0.32946026  0.83629590  1
  I  I69  1  0.50214693  0.66859756  0.16979431  1
  I  I70  1  0.50256780  0.67084475  0.49998291  1
  I  I71  1  0.49986583  0.66667343  0.83193820  1
  I  I72  1  0.82717779  -0.00411390  0.16930777  1
  I  I73  1  0.83734599  -0.00448184  0.49829941  1
  I  I74  1  0.83620386  -0.00035524  0.83271063  1
  I  I75  1  0.83298583  0.33302135  0.16466213  1
  I  I76  1  0.83537866  0.33354283  0.50120290  1
  I  I77  1  0.83302413  0.33013660  0.83468997  1
  I  I78  1  0.83475011  0.67133951  0.16416477  1
  I  I79  1  0.83109277  0.67159241  0.50376266  1
  I  I80  1  0.83455009  0.67006432  0.83224700  1
  I  I81  1  0.16679898  0.17086937  -0.00203199  1
  I  I82  1  0.16876933  0.16489273  0.33108163  1
  I  I83  1  0.16609377  0.16690024  0.67002564  1
  I  I84  1  0.16731470  0.49672168  -0.00235631  1
  I  I85  1  0.16824201  0.50472396  0.33601285  1
  I  I86  1  0.16674498  0.49805323  0.66700781  1
  I  I87  1  0.16629082  0.83169741  -0.00001256  1
  I  I88  1  0.16241956  0.82939473  0.33695863  1
  I  I89  1  0.16709477  0.83456997  0.66331537  1
  I  I90  1  0.50015817  0.16341563  -0.00305727  1
  I  I91  1  0.49595891  0.16748647  0.33318866  1
  I  I92  1  0.49537139  0.16412404  0.67105299  1
  I  I93  1  0.49726588  0.50868141  0.00293171  1
  I  I94  1  0.49616292  0.50231715  0.33015934  1
  I  I95  1  0.50028968  0.50038485  0.66665326  1
  I  I96  1  0.50422225  0.83160626  0.00282935  1
  I  I97  1  0.50383108  0.83047900  0.33321135  1
  I  I98  1  0.49999681  0.83643883  0.66408111  1
  I  I99  1  0.83236233  0.15945719  -0.00370025  1
  I  I100  1  0.83631942  0.16524431  0.33316103  1
  I  I101  1  0.83813697  0.15916898  0.67123660  1
  I  I102  1  0.83639225  0.50362398  -0.00003048  1
  I  I103  1  0.83757062  0.50111711  0.33327642  1
  I  I104  1  0.83123915  0.50242842  0.66677590  1
  I  I105  1  0.82879312  0.83827084  -0.00003763  1
  I  I106  1  0.83315264  0.83181527  0.33355781  1
  I  I107  1  0.83491955  0.83883821  0.66657759  1
  I  I108  1  0.00335299  0.16578229  0.16120944  1
  I  I109  1  0.00011933  0.16311158  0.50161594  1
  I  I110  1  0.00052357  0.16524714  0.83673512  1
  I  I111  1  0.00026382  0.50065601  0.16613700  1
  I  I112  1  0.00399096  0.50514117  0.50351666  1
  I  I113  1  0.00376681  0.49510840  0.83051608  1
  I  I114  1  -0.00247781  0.83634991  0.16711258  1
  I  I115  1  -0.00020435  0.83038445  0.50057627  1
  I  I116  1  -0.00334463  0.83885504  0.83333562  1
  I  I117  1  0.33076621  0.16413831  0.15983230  1
  I  I118  1  0.33315929  0.16251145  0.50244954  1
  I  I119  1  0.33219312  0.16979789  0.83720990  1
  I  I120  1  0.33589355  0.50813984  0.16584518  1
  I  I121  1  0.32984980  0.50617675  0.50418862  1
  I  I122  1  0.32953245  0.49517354  0.82959067  1
  I  I123  1  0.33609920  0.83143347  0.17112341  1
  I  I124  1  0.33333842  0.83018766  0.49536791  1
  I  I125  1  0.33321432  0.83514483  0.83274696  1
  I  I126  1  0.66679619  0.16742145  0.16398766  1
  I  I127  1  0.66665028  0.16461044  0.49988510  1
  I  I128  1  0.66733699  0.15804342  0.83376680  1
  I  I129  1  0.66267508  0.50150957  0.16515923  1
  I  I130  1  0.66635243  0.50098049  0.50014718  1
  I  I131  1  0.66648138  0.49892998  0.83406140  1
  I  I132  1  0.66654393  0.83083810  0.17121550  1
  I  I133  1  0.66684332  0.83619973  0.49892545  1
  I  I134  1  0.67023594  0.83955114  0.82960377  1
