# generated using pymatgen
data_Cs27Sn13Pb14I81
_symmetry_space_group_name_H-M   'P 1'
_cell_length_a   18.98474405
_cell_length_b   18.97976602
_cell_length_c   18.97033053
_cell_angle_alpha   90.00191455
_cell_angle_beta   89.99949045
_cell_angle_gamma   89.99879709
_symmetry_Int_Tables_number   1
_chemical_formula_structural   Cs27Sn13Pb14I81
_chemical_formula_sum   'Cs27 Sn13 Pb14 I81'
_cell_volume   6835.50331198
_cell_formula_units_Z   1
loop_
 _symmetry_equiv_pos_site_id
 _symmetry_equiv_pos_as_xyz
  1  'x, y, z'
loop_
 _atom_site_type_symbol
 _atom_site_label
 _atom_site_symmetry_multiplicity
 _atom_site_fract_x
 _atom_site_fract_y
 _atom_site_fract_z
 _atom_site_occupancy
  Cs  Cs0  1  0.00813146  0.00035999  0.00049500  1
  Cs  Cs1  1  -0.00155548  0.00069886  0.33155807  1
  Cs  Cs2  1  0.00000808  0.00014443  0.66851260  1
  Cs  Cs3  1  -0.00048764  0.33429267  0.00330168  1
  Cs  Cs4  1  0.00072647  0.33385359  0.33277856  1
  Cs  Cs5  1  0.00156248  0.33242019  0.66538077  1
  Cs  Cs6  1  0.00030551  0.66644534  -0.00226857  1
  Cs  Cs7  1  -0.00109943  0.66507083  0.33443245  1
  Cs  Cs8  1  -0.00174628  0.66743266  0.66743317  1
  Cs  Cs9  1  0.33253942  -0.00031497  -0.00147746  1
  Cs  Cs10  1  0.33335092  -0.00252209  0.32744867  1
  Cs  Cs11  1  0.33062467  0.00354682  0.67178839  1
  Cs  Cs12  1  0.33506348  0.32967526  -0.00449380  1
  Cs  Cs13  1  0.33050871  0.33674754  0.33536174  1
  Cs  Cs14  1  0.33017724  0.33064776  0.66780279  1
  Cs  Cs15  1  0.33280129  0.67160660  0.00074561  1
  Cs  Cs16  1  0.33356134  0.66552193  0.33314252  1
  Cs  Cs17  1  0.33459703  0.66599975  0.66528231  1
  Cs  Cs18  1  0.65781941  0.00290207  0.00193266  1
  Cs  Cs19  1  0.66772599  -0.00013048  0.33501347  1
  Cs  Cs20  1  0.66864285  -0.00025244  0.66378231  1
  Cs  Cs21  1  0.66462746  0.33228387  -0.00132790  1
  Cs  Cs22  1  0.66811239  0.33387032  0.33294659  1
  Cs  Cs23  1  0.66712715  0.33305786  0.66752891  1
  Cs  Cs24  1  0.66658706  0.66587501  -0.00770571  1
  Cs  Cs25  1  0.66740449  0.66624885  0.33472072  1
  Cs  Cs26  1  0.66793477  0.66677108  0.66899586  1
  Sn  Sn27  1  0.83305461  0.83245552  0.16694537  1
  Sn  Sn28  1  0.49982398  0.83343300  0.49984051  1
  Sn  Sn29  1  0.83341995  0.83313042  0.49943382  1
  Sn  Sn30  1  0.50054543  0.16690561  0.49956716  1
  Sn  Sn31  1  0.83335882  0.16650963  0.83314491  1
  Sn  Sn32  1  0.83271178  0.16693455  0.50084554  1
  Sn  Sn33  1  0.50094976  0.49972403  0.49940219  1
  Sn  Sn34  1  0.16657497  0.83352918  0.49989287  1
  Sn  Sn35  1  0.83264764  0.49984017  0.49954819  1
  Sn  Sn36  1  0.83273865  0.50121960  0.16726311  1
  Sn  Sn37  1  0.16647744  0.50025789  0.83424971  1
  Sn  Sn38  1  0.16681676  0.50021504  0.16547903  1
  Sn  Sn39  1  0.50045029  0.50023057  0.16729177  1
  Pb  Pb40  1  0.16659155  0.50150302  0.49967288  1
  Pb  Pb41  1  0.16653534  0.83110645  0.83111705  1
  Pb  Pb42  1  0.83477219  0.49836308  0.83338518  1
  Pb  Pb43  1  0.83335389  0.16648290  0.16691797  1
  Pb  Pb44  1  0.16695182  0.16897580  0.16690877  1
  Pb  Pb45  1  0.16667478  0.16360833  0.49962234  1
  Pb  Pb46  1  0.49766105  0.50010376  0.83297397  1
  Pb  Pb47  1  0.50229468  0.16673404  0.83083130  1
  Pb  Pb48  1  0.50249846  0.83096959  0.16865288  1
  Pb  Pb49  1  0.50016052  0.83336949  0.83083578  1
  Pb  Pb50  1  0.83323445  0.83599655  0.83405429  1
  Pb  Pb51  1  0.49998243  0.16909697  0.16947096  1
  Pb  Pb52  1  0.16449260  0.83105343  0.16871386  1
  Pb  Pb53  1  0.16418284  0.16882615  0.83328498  1
  I  I54  1  0.16363467  -0.00080437  0.16857046  1
  I  I55  1  0.16511458  -0.00426579  0.50041209  1
  I  I56  1  0.16563363  0.00001872  0.83103705  1
  I  I57  1  0.16202137  0.33839734  0.16634742  1
  I  I58  1  0.16632401  0.33353175  0.50007417  1
  I  I59  1  0.16656857  0.33687775  0.83505221  1
  I  I60  1  0.16805059  0.66261969  0.16466093  1
  I  I61  1  0.16563682  0.66922163  0.49975667  1
  I  I62  1  0.16419162  0.66314870  0.83692752  1
  I  I63  1  0.50251218  -0.00034225  0.16845822  1
  I  I64  1  0.50494731  -0.00028201  0.50191803  1
  I  I65  1  0.50026010  0.00022870  0.83221051  1
  I  I66  1  0.50358770  0.33793185  0.17270570  1
  I  I67  1  0.50736212  0.33425426  0.49635105  1
  I  I68  1  0.49960643  0.33356878  0.83057305  1
  I  I69  1  0.49770347  0.66261628  0.17414739  1
  I  I70  1  0.50218344  0.66609089  0.49639196  1
  I  I71  1  0.50120160  0.66629488  0.82927272  1
  I  I72  1  0.83382833  -0.00292795  0.17238929  1
  I  I73  1  0.83072729  -0.00051716  0.49993591  1
  I  I74  1  0.83334563  0.00347373  0.82552194  1
  I  I75  1  0.83418082  0.33693319  0.17050887  1
  I  I76  1  0.82762670  0.33416593  0.49985581  1
  I  I77  1  0.83468045  0.33080968  0.82693440  1
  I  I78  1  0.83414268  0.66517740  0.17622203  1
  I  I79  1  0.83169041  0.66639245  0.49571357  1
  I  I80  1  0.83490646  0.66657121  0.83018644  1
  I  I81  1  0.16312146  0.16516744  -0.00009845  1
  I  I82  1  0.16304479  0.17050737  0.33379874  1
  I  I83  1  0.16806664  0.17054557  0.66624284  1
  I  I84  1  0.16422715  0.49954737  0.00138810  1
  I  I85  1  0.16619197  0.50166337  0.33093646  1
  I  I86  1  0.16584104  0.50178980  0.66807963  1
  I  I87  1  0.16358002  0.83342942  0.00038249  1
  I  I88  1  0.16800162  0.83007273  0.33693383  1
  I  I89  1  0.16365947  0.82993108  0.66255410  1
  I  I90  1  0.50226121  0.16938650  0.00007525  1
  I  I91  1  0.50880078  0.16461699  0.33801259  1
  I  I92  1  0.50189813  0.16991191  0.66195180  1
  I  I93  1  0.50407171  0.50008888  0.00329828  1
  I  I94  1  0.49877631  0.49980196  0.33475925  1
  I  I95  1  0.50338318  0.50073388  0.66257738  1
  I  I96  1  0.50230972  0.83091235  0.00070303  1
  I  I97  1  0.49882070  0.83489389  0.33772973  1
  I  I98  1  0.50418594  0.82888720  0.66096196  1
  I  I99  1  0.83567112  0.16931361  -0.00229117  1
  I  I100  1  0.82950309  0.16681167  0.33701790  1
  I  I101  1  0.82983594  0.16743586  0.66375383  1
  I  I102  1  0.83157350  0.50267554  0.00339823  1
  I  I103  1  0.83515106  0.49868020  0.33434154  1
  I  I104  1  0.83089046  0.50253858  0.66310983  1
  I  I105  1  0.83439320  0.82704405  0.00341570  1
  I  I106  1  0.83349542  0.83367227  0.33563258  1
  I  I107  1  0.83265644  0.83026524  0.66273066  1
  I  I108  1  -0.00045238  0.16973515  0.16969226  1
  I  I109  1  -0.00365189  0.16805804  0.50305547  1
  I  I110  1  -0.00356477  0.16720822  0.82421763  1
  I  I111  1  -0.00115843  0.50289899  0.16775864  1
  I  I112  1  -0.00307086  0.50005541  0.49753272  1
  I  I113  1  0.00248796  0.49876582  0.83596154  1
  I  I114  1  -0.00360540  0.82775295  0.17432329  1
  I  I115  1  -0.00171244  0.83175003  0.49695034  1
  I  I116  1  -0.00025154  0.83312030  0.82882436  1
  I  I117  1  0.33362190  0.16835086  0.16981069  1
  I  I118  1  0.33666243  0.16949996  0.49894679  1
  I  I119  1  0.33334614  0.16843803  0.83084068  1
  I  I120  1  0.33374051  0.49829852  0.16963473  1
  I  I121  1  0.33609780  0.50048601  0.49741500  1
  I  I122  1  0.32991748  0.49992211  0.83510541  1
  I  I123  1  0.33347799  0.83052938  0.17032820  1
  I  I124  1  0.33423443  0.83040054  0.50136951  1
  I  I125  1  0.33321803  0.83247614  0.83074598  1
  I  I126  1  0.66691301  0.16939926  0.16422814  1
  I  I127  1  0.66781920  0.16394211  0.50344188  1
  I  I128  1  0.67016905  0.16938051  0.83056029  1
  I  I129  1  0.66754773  0.50265617  0.17376436  1
  I  I130  1  0.66732794  0.50281472  0.49378845  1
  I  I131  1  0.66672023  0.49867483  0.83472208  1
  I  I132  1  0.67056203  0.82859281  0.17383479  1
  I  I133  1  0.66745571  0.83344666  0.49648925  1
  I  I134  1  0.66705961  0.83100840  0.83066815  1
