# generated using pymatgen
data_Cs27Sn14Pb13I81
_symmetry_space_group_name_H-M   'P 1'
_cell_length_a   18.98210469
_cell_length_b   18.97308483
_cell_length_c   18.97281282
_cell_angle_alpha   89.99772764
_cell_angle_beta   90.00098180
_cell_angle_gamma   89.99972490
_symmetry_Int_Tables_number   1
_chemical_formula_structural   Cs27Sn14Pb13I81
_chemical_formula_sum   'Cs27 Sn14 Pb13 I81'
_cell_volume   6833.04112066
_cell_formula_units_Z   1
loop_
 _symmetry_equiv_pos_site_id
 _symmetry_equiv_pos_as_xyz
  1  'x, y, z'
loop_
 _atom_site_type_symbol
 _atom_site_label
 _atom_site_symmetry_multiplicity
 _atom_site_fract_x
 _atom_site_fract_y
 _atom_site_fract_z
 _atom_site_occupancy
  Cs  Cs0  1  -0.00121954  0.00283706  0.00219572  1
  Cs  Cs1  1  0.00057295  -0.00175072  0.33538796  1
  Cs  Cs2  1  -0.00017032  0.00149772  0.66579843  1
  Cs  Cs3  1  0.00017624  0.33200859  -0.00085786  1
  Cs  Cs4  1  -0.00165759  0.33519502  0.33034903  1
  Cs  Cs5  1  -0.00298725  0.33140257  0.66933691  1
  Cs  Cs6  1  -0.00324873  0.66629288  -0.00067811  1
  Cs  Cs7  1  0.01110652  0.66766509  0.33665505  1
  Cs  Cs8  1  0.00226683  0.66636231  0.66536170  1
  Cs  Cs9  1  0.33382360  0.00145865  0.00195376  1
  Cs  Cs10  1  0.33088600  -0.00401602  0.33495770  1
  Cs  Cs11  1  0.33247433  0.00053619  0.66544334  1
  Cs  Cs12  1  0.33300903  0.33341665  -0.00091017  1
  Cs  Cs13  1  0.33751444  0.33633720  0.33140697  1
  Cs  Cs14  1  0.33971699  0.33183927  0.66912171  1
  Cs  Cs15  1  0.33797204  0.66533997  -0.00097745  1
  Cs  Cs16  1  0.32044600  0.66941308  0.33505865  1
  Cs  Cs17  1  0.32981163  0.66755436  0.66684448  1
  Cs  Cs18  1  0.66696810  -0.00509423  0.00094614  1
  Cs  Cs19  1  0.66687225  0.00185109  0.33352343  1
  Cs  Cs20  1  0.66664889  -0.00051103  0.66576411  1
  Cs  Cs21  1  0.66685629  0.33398430  0.00090363  1
  Cs  Cs22  1  0.66627058  0.33186775  0.33239126  1
  Cs  Cs23  1  0.66629876  0.33365801  0.66569045  1
  Cs  Cs24  1  0.66542701  0.66974504  -0.00052881  1
  Cs  Cs25  1  0.66726553  0.66570459  0.33218661  1
  Cs  Cs26  1  0.66721030  0.66642779  0.66770614  1
  Sn  Sn27  1  0.83236167  0.16723863  0.16635143  1
  Sn  Sn28  1  0.50108279  0.83288750  0.49989069  1
  Sn  Sn29  1  0.16654126  0.50070765  0.83341436  1
  Sn  Sn30  1  0.83303067  0.49935757  0.83407870  1
  Sn  Sn31  1  0.50093439  0.16717356  0.16570092  1
  Sn  Sn32  1  0.50052757  0.49932966  0.83391396  1
  Sn  Sn33  1  0.83257077  0.49956802  0.16591431  1
  Sn  Sn34  1  0.16642933  0.83314916  0.83393029  1
  Sn  Sn35  1  0.50093897  0.49951970  0.16612580  1
  Sn  Sn36  1  0.83418801  0.16613772  0.49994294  1
  Sn  Sn37  1  0.83221432  0.83358960  0.50002095  1
  Sn  Sn38  1  0.50131190  0.16694860  0.83425882  1
  Sn  Sn39  1  0.83210176  0.16705863  0.83360440  1
  Sn  Sn40  1  0.16598196  0.16773319  0.49990192  1
  Pb  Pb41  1  0.83340453  0.83274671  0.16933390  1
  Pb  Pb42  1  0.50011091  0.83291250  0.16915385  1
  Pb  Pb43  1  0.83493545  0.83336675  0.83152548  1
  Pb  Pb44  1  0.50002624  0.50274868  0.49939523  1
  Pb  Pb45  1  0.16612796  0.83527103  0.50188516  1
  Pb  Pb46  1  0.50061226  0.16552540  0.49969090  1
  Pb  Pb47  1  0.16657882  0.49976774  0.16396790  1
  Pb  Pb48  1  0.16668904  0.49646937  0.50289018  1
  Pb  Pb49  1  0.49851221  0.83355641  0.83177872  1
  Pb  Pb50  1  0.16683511  0.16707649  0.83214547  1
  Pb  Pb51  1  0.16689667  0.16688925  0.16922601  1
  Pb  Pb52  1  0.83325113  0.49969191  0.49952284  1
  Pb  Pb53  1  0.16654632  0.83347329  0.16303559  1
  I  I54  1  0.16727492  0.00047857  0.16425589  1
  I  I55  1  0.16518185  0.00278649  0.50412296  1
  I  I56  1  0.16697549  -0.00145082  0.82912730  1
  I  I57  1  0.16638908  0.33329259  0.16576099  1
  I  I58  1  0.15937874  0.32902114  0.50183481  1
  I  I59  1  0.16650310  0.33606948  0.83142561  1
  I  I60  1  0.16646936  0.66632924  0.17153265  1
  I  I61  1  0.16642413  0.66665234  0.49903113  1
  I  I62  1  0.16691642  0.66531939  0.83162407  1
  I  I63  1  0.50451570  0.00339176  0.16282947  1
  I  I64  1  0.50084564  -0.00210959  0.50139480  1
  I  I65  1  0.50280059  0.00331069  0.83562092  1
  I  I66  1  0.50378037  0.33301641  0.16355754  1
  I  I67  1  0.49931629  0.33336507  0.50109544  1
  I  I68  1  0.49754517  0.33337675  0.83495200  1
  I  I69  1  0.50527235  0.66294005  0.16131573  1
  I  I70  1  0.50655368  0.67042083  0.50195120  1
  I  I71  1  0.50211388  0.66336681  0.83632727  1
  I  I72  1  0.82921180  0.00359964  0.16368762  1
  I  I73  1  0.83363858  0.00179365  0.50089502  1
  I  I74  1  0.83094680  0.00346454  0.83495948  1
  I  I75  1  0.82988529  0.33249393  0.16832669  1
  I  I76  1  0.83739934  0.32992218  0.50112936  1
  I  I77  1  0.83537938  0.33294804  0.83105078  1
  I  I78  1  0.82813590  0.66290469  0.16122561  1
  I  I79  1  0.82898759  0.66913790  0.50164878  1
  I  I80  1  0.83120490  0.66336434  0.83622548  1
  I  I81  1  0.16442145  0.16572409  -0.00013752  1
  I  I82  1  0.16255521  0.16334788  0.33711773  1
  I  I83  1  0.16210499  0.16617066  0.66437410  1
  I  I84  1  0.16652376  0.50191322  -0.00420198  1
  I  I85  1  0.16685031  0.50078746  0.33319227  1
  I  I86  1  0.16605532  0.50444229  0.67116833  1
  I  I87  1  0.16724115  0.83066629  -0.00482039  1
  I  I88  1  0.16724719  0.83407173  0.33377469  1
  I  I89  1  0.16697782  0.82886773  0.66932032  1
  I  I90  1  0.50580792  0.16953970  -0.00065733  1
  I  I91  1  0.50289153  0.17021974  0.33049334  1
  I  I92  1  0.50196550  0.17003578  0.66940426  1
  I  I93  1  0.49966117  0.49653030  -0.00110328  1
  I  I94  1  0.50677841  0.49431588  0.32962057  1
  I  I95  1  0.50063630  0.49561701  0.67020952  1
  I  I96  1  0.49704172  0.83396096  -0.00001117  1
  I  I97  1  0.50406154  0.83591542  0.33691034  1
  I  I98  1  0.50317071  0.83512009  0.66405776  1
  I  I99  1  0.83013602  0.17135275  -0.00043087  1
  I  I100  1  0.83296861  0.16674538  0.33290833  1
  I  I101  1  0.83386659  0.16695973  0.66736504  1
  I  I102  1  0.83420030  0.49242050  -0.00102014  1
  I  I103  1  0.82673061  0.49602510  0.32995299  1
  I  I104  1  0.83284824  0.49680082  0.66997675  1
  I  I105  1  0.83609075  0.83614482  -0.00011342  1
  I  I106  1  0.82969867  0.83874986  0.33731569  1
  I  I107  1  0.83072361  0.83842154  0.66366184  1
  I  I108  1  -0.00380142  0.17050420  0.16346645  1
  I  I109  1  -0.00243766  0.16030736  0.50179308  1
  I  I110  1  -0.00309866  0.16926676  0.83450260  1
  I  I111  1  -0.00344329  0.49498680  0.16307796  1
  I  I112  1  -0.00018320  0.50528037  0.49967114  1
  I  I113  1  -0.00132569  0.49930057  0.83604948  1
  I  I114  1  -0.00032771  0.83366209  0.17040474  1
  I  I115  1  -0.00267851  0.83642390  0.50114359  1
  I  I116  1  0.00262113  0.82935602  0.82918263  1
  I  I117  1  0.33700727  0.17075397  0.16269337  1
  I  I118  1  0.33200354  0.16383330  0.50244426  1
  I  I119  1  0.33623041  0.16936130  0.83481686  1
  I  I120  1  0.33671106  0.49510471  0.16302927  1
  I  I121  1  0.33339284  0.50046955  0.49999035  1
  I  I122  1  0.33450773  0.49951216  0.83607335  1
  I  I123  1  0.33361442  0.83418825  0.17184390  1
  I  I124  1  0.33497612  0.83537993  0.50114126  1
  I  I125  1  0.33077803  0.82977636  0.82874380  1
  I  I126  1  0.66742350  0.17098443  0.16891136  1
  I  I127  1  0.66973295  0.16396586  0.50063989  1
  I  I128  1  0.66732089  0.17361932  0.83031613  1
  I  I129  1  0.66687557  0.49542036  0.15861763  1
  I  I130  1  0.66671146  0.49722173  0.50568837  1
  I  I131  1  0.66679878  0.49516488  0.83623422  1
  I  I132  1  0.66677126  0.83331747  0.16455936  1
  I  I133  1  0.66768111  0.84046368  0.50189854  1
  I  I134  1  0.66678342  0.83138394  0.83219850  1
