# generated using pymatgen
data_Cs27Sn13Pb14I81
_symmetry_space_group_name_H-M   'P 1'
_cell_length_a   18.97422092
_cell_length_b   18.98001666
_cell_length_c   18.97588715
_cell_angle_alpha   89.99860750
_cell_angle_beta   90.00042869
_cell_angle_gamma   89.99983415
_symmetry_Int_Tables_number   1
_chemical_formula_structural   Cs27Sn13Pb14I81
_chemical_formula_sum   'Cs27 Sn13 Pb14 I81'
_cell_volume   6833.80576903
_cell_formula_units_Z   1
loop_
 _symmetry_equiv_pos_site_id
 _symmetry_equiv_pos_as_xyz
  1  'x, y, z'
loop_
 _atom_site_type_symbol
 _atom_site_label
 _atom_site_symmetry_multiplicity
 _atom_site_fract_x
 _atom_site_fract_y
 _atom_site_fract_z
 _atom_site_occupancy
  Cs  Cs0  1  -0.00272319  -0.00083505  -0.00250432  1
  Cs  Cs1  1  0.00024098  0.00142212  0.33544435  1
  Cs  Cs2  1  0.00129403  -0.00017935  0.66608654  1
  Cs  Cs3  1  -0.00086398  0.33419965  -0.00008558  1
  Cs  Cs4  1  -0.00189231  0.33227577  0.33391543  1
  Cs  Cs5  1  -0.00033920  0.33292144  0.66476260  1
  Cs  Cs6  1  0.00080215  0.66588724  0.00196503  1
  Cs  Cs7  1  0.00073246  0.66812562  0.33498748  1
  Cs  Cs8  1  0.00061198  0.66719482  0.66305940  1
  Cs  Cs9  1  0.33298752  -0.00149762  0.00104536  1
  Cs  Cs10  1  0.33381172  0.00028409  0.33421873  1
  Cs  Cs11  1  0.33277671  0.00043766  0.66442819  1
  Cs  Cs12  1  0.33316745  0.33698851  0.00111892  1
  Cs  Cs13  1  0.33366001  0.33027554  0.33108276  1
  Cs  Cs14  1  0.33764142  0.33451423  0.66938687  1
  Cs  Cs15  1  0.33202694  0.66319436  0.00064148  1
  Cs  Cs16  1  0.33216014  0.67192412  0.33035745  1
  Cs  Cs17  1  0.33719422  0.66538955  0.66962744  1
  Cs  Cs18  1  0.66955712  -0.00679263  -0.00722512  1
  Cs  Cs19  1  0.66515787  -0.00038923  0.33249239  1
  Cs  Cs20  1  0.66112631  -0.00015152  0.67541738  1
  Cs  Cs21  1  0.66838515  0.33175532  0.00219480  1
  Cs  Cs22  1  0.66864946  0.33469577  0.33194122  1
  Cs  Cs23  1  0.65936934  0.33548935  0.66844557  1
  Cs  Cs24  1  0.66859753  0.67406159  -0.00059844  1
  Cs  Cs25  1  0.66536872  0.66515035  0.33466546  1
  Cs  Cs26  1  0.65852410  0.66319363  0.66572988  1
  Sn  Sn27  1  0.16602257  0.16694546  0.50029835  1
  Sn  Sn28  1  0.50108869  0.49943079  0.16689723  1
  Sn  Sn29  1  0.83269257  0.49950654  0.16577381  1
  Sn  Sn30  1  0.16630467  0.16626120  0.83312729  1
  Sn  Sn31  1  0.83345863  0.83471626  0.50019038  1
  Sn  Sn32  1  0.50067105  0.16699667  0.16663077  1
  Sn  Sn33  1  0.16695439  0.49966074  0.49981104  1
  Sn  Sn34  1  0.16612379  0.83373405  0.83264900  1
  Sn  Sn35  1  0.16589026  0.83346951  0.50099511  1
  Sn  Sn36  1  0.16630814  0.16675619  0.16638677  1
  Sn  Sn37  1  0.83369930  0.49982422  0.83371645  1
  Sn  Sn38  1  0.83345593  0.16569794  0.49992207  1
  Sn  Sn39  1  0.83306124  0.16696207  0.16711492  1
  Pb  Pb40  1  0.83556956  0.83068261  0.83005820  1
  Pb  Pb41  1  0.83440400  0.49955790  0.49967341  1
  Pb  Pb42  1  0.50300151  0.49985458  0.83651956  1
  Pb  Pb43  1  0.50019001  0.83347955  0.16669547  1
  Pb  Pb44  1  0.49664152  0.49979376  0.49700225  1
  Pb  Pb45  1  0.83347788  0.83358077  0.16898707  1
  Pb  Pb46  1  0.16636249  0.83621481  0.16679154  1
  Pb  Pb47  1  0.16503930  0.49992507  0.83124470  1
  Pb  Pb48  1  0.49654131  0.83328604  0.83333352  1
  Pb  Pb49  1  0.83513219  0.16806148  0.83278982  1
  Pb  Pb50  1  0.50056859  0.16662605  0.49813694  1
  Pb  Pb51  1  0.49998696  0.83366582  0.49998893  1
  Pb  Pb52  1  0.16605802  0.49789736  0.16871059  1
  Pb  Pb53  1  0.49691337  0.16674261  0.83665158  1
  I  I54  1  0.16684002  0.00481919  0.17104473  1
  I  I55  1  0.16287718  0.00092243  0.49999346  1
  I  I56  1  0.16567831  0.00094556  0.82934278  1
  I  I57  1  0.16659615  0.32943359  0.16690776  1
  I  I58  1  0.16186186  0.33160703  0.49894619  1
  I  I59  1  0.16504107  0.33038566  0.83282482  1
  I  I60  1  0.16794045  0.66651873  0.16749684  1
  I  I61  1  0.16179597  0.66762438  0.50361552  1
  I  I62  1  0.16485610  0.66915794  0.82764645  1
  I  I63  1  0.49820747  0.00374217  0.16846399  1
  I  I64  1  0.49542574  0.00026571  0.49558650  1
  I  I65  1  0.50348416  0.00021793  0.83658129  1
  I  I66  1  0.49987756  0.33239591  0.16760654  1
  I  I67  1  0.49931113  0.33323578  0.50133507  1
  I  I68  1  0.49637374  0.33331466  0.83054543  1
  I  I69  1  0.50447829  0.66326670  0.16752976  1
  I  I70  1  0.50053111  0.66659337  0.49665703  1
  I  I71  1  0.49755198  0.66639921  0.83567784  1
  I  I72  1  0.83423612  0.00377354  0.16932813  1
  I  I73  1  0.84353417  0.00138990  0.49266136  1
  I  I74  1  0.83293659  -0.00011715  0.83638638  1
  I  I75  1  0.83360684  0.33219918  0.16922446  1
  I  I76  1  0.84002082  0.33038259  0.49730891  1
  I  I77  1  0.83766257  0.33574077  0.83346025  1
  I  I78  1  0.82856454  0.66346882  0.16457482  1
  I  I79  1  0.83991135  0.66858874  0.49951534  1
  I  I80  1  0.83678817  0.66325155  0.83990204  1
  I  I81  1  0.16684182  0.16273112  0.00049292  1
  I  I82  1  0.16637985  0.16721663  0.33374087  1
  I  I83  1  0.16082639  0.16573018  0.66539536  1
  I  I84  1  0.16835910  0.50019866  0.00022703  1
  I  I85  1  0.16444748  0.50062731  0.33664238  1
  I  I86  1  0.16221328  0.49568244  0.66335251  1
  I  I87  1  0.16768933  0.83786149  -0.00282029  1
  I  I88  1  0.16380249  0.83323263  0.33686958  1
  I  I89  1  0.16230755  0.83848750  0.66532119  1
  I  I90  1  0.50024096  0.17162347  0.00493804  1
  I  I91  1  0.49485525  0.17059156  0.32974838  1
  I  I92  1  0.49998829  0.16606530  0.66692822  1
  I  I93  1  0.49765269  0.49408178  0.00438489  1
  I  I94  1  0.50758649  0.49496827  0.32933953  1
  I  I95  1  0.50116916  0.50109723  0.66675633  1
  I  I96  1  0.49843829  0.83389337  0.00006864  1
  I  I97  1  0.49597983  0.83284405  0.33331844  1
  I  I98  1  0.50226169  0.83271972  0.66661066  1
  I  I99  1  0.83518788  0.17034791  0.00302368  1
  I  I100  1  0.83857755  0.16903106  0.33277726  1
  I  I101  1  0.84071234  0.16512127  0.66345343  1
  I  I102  1  0.83179237  0.49345020  0.00170673  1
  I  I103  1  0.83101723  0.49807007  0.33048513  1
  I  I104  1  0.83903806  0.50017303  0.66818782  1
  I  I105  1  0.83432279  0.83494024  -0.00038108  1
  I  I106  1  0.84164199  0.83258067  0.33688486  1
  I  I107  1  0.83794804  0.83862166  0.66231413  1
  I  I108  1  -0.00020420  0.17077119  0.16864918  1
  I  I109  1  0.00122468  0.16628932  0.49482675  1
  I  I110  1  0.00353921  0.16433447  0.83725769  1
  I  I111  1  -0.00297670  0.49548086  0.16461259  1
  I  I112  1  0.00257636  0.49947867  0.49751810  1
  I  I113  1  -0.00247555  0.49901438  0.84097546  1
  I  I114  1  0.00004725  0.83120870  0.16529681  1
  I  I115  1  0.00138531  0.83433216  0.50241010  1
  I  I116  1  0.00351491  0.83806389  0.83119021  1
  I  I117  1  0.33251494  0.17028392  0.16703884  1
  I  I118  1  0.32958428  0.16543820  0.49872804  1
  I  I119  1  0.32828329  0.16393413  0.83075780  1
  I  I120  1  0.33515236  0.49523027  0.16977177  1
  I  I121  1  0.32847161  0.49925346  0.49999355  1
  I  I122  1  0.33318710  0.50081794  0.83349121  1
  I  I123  1  0.33300764  0.83306030  0.16858647  1
  I  I124  1  0.32921188  0.83462598  0.50290265  1
  I  I125  1  0.32823291  0.83698937  0.82625613  1
  I  I126  1  0.66798907  0.17245033  0.17358954  1
  I  I127  1  0.67048122  0.16318658  0.49437253  1
  I  I128  1  0.66679255  0.16831146  0.83240746  1
  I  I129  1  0.66777172  0.49073537  0.16436973  1
  I  I130  1  0.66670614  0.50059365  0.50218436  1
  I  I131  1  0.67087564  0.49859450  0.83157145  1
  I  I132  1  0.66698009  0.83733605  0.16909500  1
  I  I133  1  0.67014428  0.83734261  0.49702108  1
  I  I134  1  0.66707180  0.83246413  0.83249711  1
