# generated using pymatgen
data_Cs27Sn13Pb14I81
_symmetry_space_group_name_H-M   'P 1'
_cell_length_a   18.98273587
_cell_length_b   18.97824643
_cell_length_c   18.97170448
_cell_angle_alpha   90.00105372
_cell_angle_beta   89.99696193
_cell_angle_gamma   90.00056479
_symmetry_Int_Tables_number   1
_chemical_formula_structural   Cs27Sn13Pb14I81
_chemical_formula_sum   'Cs27 Sn13 Pb14 I81'
_cell_volume   6834.72801434
_cell_formula_units_Z   1
loop_
 _symmetry_equiv_pos_site_id
 _symmetry_equiv_pos_as_xyz
  1  'x, y, z'
loop_
 _atom_site_type_symbol
 _atom_site_label
 _atom_site_symmetry_multiplicity
 _atom_site_fract_x
 _atom_site_fract_y
 _atom_site_fract_z
 _atom_site_occupancy
  Cs  Cs0  1  0.00190144  -0.00084743  0.00153112  1
  Cs  Cs1  1  -0.00039714  0.00098699  0.33528147  1
  Cs  Cs2  1  -0.00107652  0.00249726  0.66488760  1
  Cs  Cs3  1  0.00027783  0.33915831  -0.00257953  1
  Cs  Cs4  1  0.00046056  0.33106303  0.33377219  1
  Cs  Cs5  1  0.00165682  0.32991777  0.66940526  1
  Cs  Cs6  1  0.00036670  0.66262484  -0.00333826  1
  Cs  Cs7  1  0.00153040  0.66772739  0.33161774  1
  Cs  Cs8  1  -0.00444861  0.66755371  0.67308165  1
  Cs  Cs9  1  0.33622514  0.00126132  -0.00571653  1
  Cs  Cs10  1  0.33195654  -0.00271505  0.33240614  1
  Cs  Cs11  1  0.33211498  0.00269008  0.67278107  1
  Cs  Cs12  1  0.33166392  0.33216604  -0.00191499  1
  Cs  Cs13  1  0.33340659  0.33557992  0.33525759  1
  Cs  Cs14  1  0.33332902  0.32862757  0.66357413  1
  Cs  Cs15  1  0.33055927  0.66722261  0.00139214  1
  Cs  Cs16  1  0.33380580  0.66683751  0.33287269  1
  Cs  Cs17  1  0.33598445  0.66862151  0.66216726  1
  Cs  Cs18  1  0.66189342  0.00579077  0.00058557  1
  Cs  Cs19  1  0.66943944  0.00105575  0.33189041  1
  Cs  Cs20  1  0.66919036  -0.00315864  0.66814829  1
  Cs  Cs21  1  0.66698583  0.32991203  0.00029366  1
  Cs  Cs22  1  0.66646903  0.33347646  0.33226120  1
  Cs  Cs23  1  0.66557412  0.33827224  0.66720371  1
  Cs  Cs24  1  0.66759314  0.66648902  -0.00007556  1
  Cs  Cs25  1  0.66516536  0.66634410  0.33391659  1
  Cs  Cs26  1  0.66944577  0.66611546  0.66849037  1
  Sn  Sn27  1  0.50059083  0.50057843  0.16557741  1
  Sn  Sn28  1  0.50012707  0.83265756  0.16746724  1
  Sn  Sn29  1  0.49950332  0.50043920  0.83475897  1
  Sn  Sn30  1  0.83326312  0.16644870  0.83340893  1
  Sn  Sn31  1  0.16685604  0.83434901  0.16731906  1
  Sn  Sn32  1  0.16689844  0.16583965  0.16689118  1
  Sn  Sn33  1  0.50039468  0.16495235  0.49940534  1
  Sn  Sn34  1  0.83494307  0.50020313  0.49912650  1
  Sn  Sn35  1  0.16711690  0.83242428  0.49944840  1
  Sn  Sn36  1  0.49944289  0.83469521  0.49915963  1
  Sn  Sn37  1  0.83317765  0.83267559  0.16688660  1
  Sn  Sn38  1  0.16505081  0.50106456  0.49985265  1
  Sn  Sn39  1  0.83254695  0.50078787  0.16772396  1
  Pb  Pb40  1  0.83539906  0.16706276  0.16546704  1
  Pb  Pb41  1  0.49998625  0.83126350  0.83339089  1
  Pb  Pb42  1  0.16677753  0.50061994  0.16809897  1
  Pb  Pb43  1  0.16665495  0.83315700  0.83295923  1
  Pb  Pb44  1  0.16965396  0.50026671  0.82955345  1
  Pb  Pb45  1  0.49807655  0.16670379  0.16820585  1
  Pb  Pb46  1  0.16450758  0.16663467  0.83619845  1
  Pb  Pb47  1  0.83340917  0.83141557  0.49814675  1
  Pb  Pb48  1  0.83313254  0.83579798  0.83684185  1
  Pb  Pb49  1  0.83106022  0.16921200  0.50155841  1
  Pb  Pb50  1  0.50004438  0.50094888  0.49926082  1
  Pb  Pb51  1  0.16830465  0.16593667  0.49840193  1
  Pb  Pb52  1  0.50157885  0.16891379  0.83063805  1
  Pb  Pb53  1  0.83172838  0.49877443  0.83387454  1
  I  I54  1  0.16557983  -0.00216763  0.17276045  1
  I  I55  1  0.16934762  -0.00340205  0.49656699  1
  I  I56  1  0.16669072  0.00003400  0.82992583  1
  I  I57  1  0.16658496  0.33202261  0.16885655  1
  I  I58  1  0.16620593  0.33558333  0.49755077  1
  I  I59  1  0.16694657  0.33352938  0.83441522  1
  I  I60  1  0.16747348  0.66972887  0.16978362  1
  I  I61  1  0.17077443  0.66757582  0.49289198  1
  I  I62  1  0.16507581  0.66647326  0.83864949  1
  I  I63  1  0.50274222  -0.00327124  0.16975221  1
  I  I64  1  0.49491962  -0.00186384  0.49421376  1
  I  I65  1  0.50116545  0.00005577  0.83526628  1
  I  I66  1  0.50323768  0.33629309  0.16608762  1
  I  I67  1  0.49996088  0.33231191  0.50045353  1
  I  I68  1  0.50162637  0.33670643  0.83738792  1
  I  I69  1  0.49885695  0.66714177  0.16933654  1
  I  I70  1  0.49814448  0.66939989  0.49826261  1
  I  I71  1  0.50237650  0.66340958  0.83205128  1
  I  I72  1  0.83084535  -0.00297255  0.16477975  1
  I  I73  1  0.83498308  -0.00017759  0.49987010  1
  I  I74  1  0.83247095  0.00321448  0.83345058  1
  I  I75  1  0.82985428  0.33661549  0.16888757  1
  I  I76  1  0.83604172  0.33738525  0.49352251  1
  I  I77  1  0.83146903  0.33128749  0.83522745  1
  I  I78  1  0.83366948  0.66625193  0.17043138  1
  I  I79  1  0.83113506  0.66332837  0.49867478  1
  I  I80  1  0.83211525  0.66655698  0.83162480  1
  I  I81  1  0.16841550  0.16086529  0.00427632  1
  I  I82  1  0.16575909  0.16524087  0.33058320  1
  I  I83  1  0.16729654  0.16743015  0.66646948  1
  I  I84  1  0.16440683  0.49955596  0.00013325  1
  I  I85  1  0.16860035  0.50123125  0.33601720  1
  I  I86  1  0.16252518  0.50509677  0.66141340  1
  I  I87  1  0.16788978  0.83725968  0.00408322  1
  I  I88  1  0.16831285  0.83280375  0.33266442  1
  I  I89  1  0.17250381  0.82893208  0.66258718  1
  I  I90  1  0.49955125  0.16526403  0.00012009  1
  I  I91  1  0.50012994  0.16895660  0.33598148  1
  I  I92  1  0.49886177  0.16397419  0.66279026  1
  I  I93  1  0.50594729  0.50451872  0.00237049  1
  I  I94  1  0.50123161  0.50131446  0.33057403  1
  I  I95  1  0.50021247  0.49873267  0.66782179  1
  I  I96  1  0.49941731  0.83103983  0.00386872  1
  I  I97  1  0.49870782  0.83013355  0.33244813  1
  I  I98  1  0.49457279  0.83479652  0.66311270  1
  I  I99  1  0.83280284  0.16876761  -0.00205012  1
  I  I100  1  0.83342329  0.16645320  0.33322203  1
  I  I101  1  0.83249532  0.16932880  0.66921636  1
  I  I102  1  0.83135325  0.50249025  0.00343504  1
  I  I103  1  0.82990791  0.50257847  0.33227651  1
  I  I104  1  0.83398332  0.49817923  0.66415646  1
  I  I105  1  0.83393032  0.82580433  0.00541812  1
  I  I106  1  0.83296305  0.83222597  0.32970254  1
  I  I107  1  0.83308171  0.83190216  0.66645630  1
  I  I108  1  0.00305042  0.16251433  0.16736633  1
  I  I109  1  -0.00000141  0.16560379  0.50075258  1
  I  I110  1  -0.00301160  0.16940527  0.83246728  1
  I  I111  1  -0.00255174  0.50224253  0.16913228  1
  I  I112  1  -0.00013627  0.50415020  0.49327721  1
  I  I113  1  -0.00006539  0.49826644  0.83535655  1
  I  I114  1  0.00041792  0.83393363  0.17059196  1
  I  I115  1  0.00285407  0.83094754  0.49470160  1
  I  I116  1  -0.00019376  0.83267398  0.83331789  1
  I  I117  1  0.33039251  0.16365308  0.16847610  1
  I  I118  1  0.33616694  0.16991171  0.49931610  1
  I  I119  1  0.33346761  0.16798627  0.83279623  1
  I  I120  1  0.33600836  0.50264025  0.16565611  1
  I  I121  1  0.33152457  0.50067787  0.49951029  1
  I  I122  1  0.33734265  0.49939331  0.84003880  1
  I  I123  1  0.33381249  0.83198635  0.17163476  1
  I  I124  1  0.33345561  0.82956117  0.49145084  1
  I  I125  1  0.33348222  0.83330140  0.83736003  1
  I  I126  1  0.66663715  0.16489928  0.16627875  1
  I  I127  1  0.66321165  0.16297434  0.49863138  1
  I  I128  1  0.66899538  0.16794993  0.83567058  1
  I  I129  1  0.66659502  0.50659743  0.16925323  1
  I  I130  1  0.66847425  0.49914750  0.49915344  1
  I  I131  1  0.66398200  0.49908678  0.83141926  1
  I  I132  1  0.66588320  0.82786573  0.17071104  1
  I  I133  1  0.66378587  0.83484460  0.49569080  1
  I  I134  1  0.66654392  0.83276426  0.83134326  1
