# generated using pymatgen
data_Cs27Sn13Pb14I81
_symmetry_space_group_name_H-M   'P 1'
_cell_length_a   18.98122753
_cell_length_b   18.97635850
_cell_length_c   18.97235996
_cell_angle_alpha   89.99893863
_cell_angle_beta   89.99793937
_cell_angle_gamma   89.99822274
_symmetry_Int_Tables_number   1
_chemical_formula_structural   Cs27Sn13Pb14I81
_chemical_formula_sum   'Cs27 Sn13 Pb14 I81'
_cell_volume   6833.74118800
_cell_formula_units_Z   1
loop_
 _symmetry_equiv_pos_site_id
 _symmetry_equiv_pos_as_xyz
  1  'x, y, z'
loop_
 _atom_site_type_symbol
 _atom_site_label
 _atom_site_symmetry_multiplicity
 _atom_site_fract_x
 _atom_site_fract_y
 _atom_site_fract_z
 _atom_site_occupancy
  Cs  Cs0  1  -0.00113413  0.00096490  -0.00131848  1
  Cs  Cs1  1  -0.00283321  -0.00081127  0.33275889  1
  Cs  Cs2  1  0.00127558  -0.00051504  0.66676093  1
  Cs  Cs3  1  0.00285115  0.33529829  0.00275009  1
  Cs  Cs4  1  0.00318021  0.33027748  0.32876718  1
  Cs  Cs5  1  -0.00113139  0.33213236  0.66792446  1
  Cs  Cs6  1  0.00375002  0.66371226  -0.00316414  1
  Cs  Cs7  1  -0.00172485  0.67162679  0.33761192  1
  Cs  Cs8  1  -0.00309076  0.66809924  0.66644932  1
  Cs  Cs9  1  0.33506037  -0.00342921  -0.00283984  1
  Cs  Cs10  1  0.33361766  0.00060753  0.33611849  1
  Cs  Cs11  1  0.33165004  0.00119114  0.66606960  1
  Cs  Cs12  1  0.33055490  0.33631304  0.00164006  1
  Cs  Cs13  1  0.33355891  0.33359750  0.33283578  1
  Cs  Cs14  1  0.33498465  0.33221390  0.66560244  1
  Cs  Cs15  1  0.33188451  0.66851185  -0.00076997  1
  Cs  Cs16  1  0.33335537  0.66768708  0.33395548  1
  Cs  Cs17  1  0.33474511  0.66406197  0.66601539  1
  Cs  Cs18  1  0.66576644  -0.00408546  -0.00008267  1
  Cs  Cs19  1  0.66685330  -0.00084923  0.33061717  1
  Cs  Cs20  1  0.66569278  0.00359279  0.66962850  1
  Cs  Cs21  1  0.66624359  0.33411744  0.00102694  1
  Cs  Cs22  1  0.66530027  0.33425576  0.33333598  1
  Cs  Cs23  1  0.66601149  0.33694868  0.66663770  1
  Cs  Cs24  1  0.66458185  0.66988140  0.00221193  1
  Cs  Cs25  1  0.66901398  0.66587256  0.33248016  1
  Cs  Cs26  1  0.66792615  0.65436331  0.66544389  1
  Sn  Sn27  1  0.83415179  0.16595271  0.83281789  1
  Sn  Sn28  1  0.16646650  0.83394994  0.16614589  1
  Sn  Sn29  1  0.50027879  0.16570962  0.49916519  1
  Sn  Sn30  1  0.16582434  0.83439706  0.83392619  1
  Sn  Sn31  1  0.50064507  0.83387671  0.50060522  1
  Sn  Sn32  1  0.83371414  0.83388209  0.83294650  1
  Sn  Sn33  1  0.16594276  0.16603716  0.83277729  1
  Sn  Sn34  1  0.49977519  0.16703751  0.16704145  1
  Sn  Sn35  1  0.16630627  0.49903925  0.50018964  1
  Sn  Sn36  1  0.16631543  0.16747468  0.50054332  1
  Sn  Sn37  1  0.50055165  0.49939904  0.16686285  1
  Sn  Sn38  1  0.83312610  0.49987672  0.16668282  1
  Sn  Sn39  1  0.83335670  0.16660051  0.50033570  1
  Pb  Pb40  1  0.49982787  0.49994519  0.83663376  1
  Pb  Pb41  1  0.83342820  0.49940425  0.83553363  1
  Pb  Pb42  1  0.83122119  0.16779741  0.16602441  1
  Pb  Pb43  1  0.83564722  0.83127310  0.16433780  1
  Pb  Pb44  1  0.49848998  0.49935272  0.49814331  1
  Pb  Pb45  1  0.50013107  0.83327474  0.83025743  1
  Pb  Pb46  1  0.83582891  0.49705296  0.49779975  1
  Pb  Pb47  1  0.49835584  0.83348457  0.16857205  1
  Pb  Pb48  1  0.16774088  0.83404756  0.50093174  1
  Pb  Pb49  1  0.16684149  0.50231926  0.16885017  1
  Pb  Pb50  1  0.16879866  0.16468938  0.16633557  1
  Pb  Pb51  1  0.83045661  0.83561581  0.50256078  1
  Pb  Pb52  1  0.16659693  0.49974008  0.83073514  1
  Pb  Pb53  1  0.49991697  0.16686079  0.83326495  1
  I  I54  1  0.16879493  -0.00284476  0.16750411  1
  I  I55  1  0.16670371  0.00332683  0.50116580  1
  I  I56  1  0.16325665  0.00068105  0.83113413  1
  I  I57  1  0.16633333  0.33316348  0.16485597  1
  I  I58  1  0.16939191  0.33087122  0.50386362  1
  I  I59  1  0.16273769  0.32972588  0.83135261  1
  I  I60  1  0.16901896  0.66989533  0.16233445  1
  I  I61  1  0.17062073  0.66523687  0.49817244  1
  I  I62  1  0.16339510  0.66987273  0.83588902  1
  I  I63  1  0.49798351  0.00262681  0.16977111  1
  I  I64  1  0.49670279  0.00235512  0.49437398  1
  I  I65  1  0.50000089  0.00015253  0.83808930  1
  I  I66  1  0.50234441  0.33268627  0.17277785  1
  I  I67  1  0.50050457  0.32984396  0.49799578  1
  I  I68  1  0.49999764  0.33290971  0.82887325  1
  I  I69  1  0.50228431  0.66429183  0.16854090  1
  I  I70  1  0.49553072  0.66849225  0.49932236  1
  I  I71  1  0.49944402  0.66698498  0.83180626  1
  I  I72  1  0.83254243  0.00005115  0.16832293  1
  I  I73  1  0.83902849  0.00402279  0.49972423  1
  I  I74  1  0.83804573  0.00110079  0.83015077  1
  I  I75  1  0.83229881  0.33567187  0.16564722  1
  I  I76  1  0.82790797  0.32888786  0.50673892  1
  I  I77  1  0.83726992  0.32958951  0.83013231  1
  I  I78  1  0.82618064  0.66354567  0.16606732  1
  I  I79  1  0.83336632  0.66655477  0.50069647  1
  I  I80  1  0.83818963  0.66943697  0.83537014  1
  I  I81  1  0.16319396  0.16430709  -0.00296346  1
  I  I82  1  0.16537159  0.16861221  0.33626833  1
  I  I83  1  0.16841133  0.16459474  0.66613237  1
  I  I84  1  0.16744702  0.49837228  0.00013403  1
  I  I85  1  0.16769238  0.49443654  0.33641710  1
  I  I86  1  0.16776446  0.49995137  0.66291084  1
  I  I87  1  0.16501168  0.83763490  -0.00129539  1
  I  I88  1  0.17042221  0.83211892  0.33205627  1
  I  I89  1  0.16444498  0.83505641  0.66963957  1
  I  I90  1  0.49975920  0.17136648  0.00278059  1
  I  I91  1  0.49925616  0.16681132  0.33469137  1
  I  I92  1  0.49885810  0.16203589  0.66337690  1
  I  I93  1  0.50238073  0.49369716  0.00495145  1
  I  I94  1  0.50231227  0.49801293  0.33040827  1
  I  I95  1  0.49863546  0.50052515  0.66611882  1
  I  I96  1  0.50030152  0.83312791  -0.00012430  1
  I  I97  1  0.49592087  0.83599811  0.33630125  1
  I  I98  1  0.49604458  0.84181046  0.66268106  1
  I  I99  1  0.83705319  0.16471684  -0.00319192  1
  I  I100  1  0.83567337  0.16929123  0.33605464  1
  I  I101  1  0.83260666  0.16319134  0.66648629  1
  I  I102  1  0.82961577  0.49775125  0.00323722  1
  I  I103  1  0.82911833  0.49886110  0.33030406  1
  I  I104  1  0.83450965  0.50201899  0.66648643  1
  I  I105  1  0.83363800  0.84085783  -0.00355908  1
  I  I106  1  0.83486040  0.83358755  0.33349635  1
  I  I107  1  0.84169196  0.83472667  0.67031100  1
  I  I108  1  0.00009945  0.16809934  0.16955887  1
  I  I109  1  0.00057789  0.17138269  0.50451721  1
  I  I110  1  0.00045737  0.16245622  0.82540398  1
  I  I111  1  -0.00194651  0.50061424  0.16725688  1
  I  I112  1  0.00347552  0.49659531  0.49735690  1
  I  I113  1  0.00009084  0.49994820  0.83712705  1
  I  I114  1  0.00344521  0.83220773  0.16755812  1
  I  I115  1  -0.00021470  0.83291387  0.49752522  1
  I  I116  1  0.00094578  0.83788787  0.83687125  1
  I  I117  1  0.33660566  0.17232643  0.17138590  1
  I  I118  1  0.33304804  0.16657582  0.50006283  1
  I  I119  1  0.33009158  0.16209270  0.82988696  1
  I  I120  1  0.33579696  0.49673323  0.16895002  1
  I  I121  1  0.33072678  0.49511764  0.49772501  1
  I  I122  1  0.33287426  0.50026437  0.83512035  1
  I  I123  1  0.33057956  0.83154567  0.16072749  1
  I  I124  1  0.33545020  0.83893367  0.50046768  1
  I  I125  1  0.33006687  0.83791450  0.83608552  1
  I  I126  1  0.66329230  0.16790817  0.17105818  1
  I  I127  1  0.66637422  0.16152087  0.50009848  1
  I  I128  1  0.66977799  0.16248614  0.83059400  1
  I  I129  1  0.66578091  0.49578069  0.16745286  1
  I  I130  1  0.66682347  0.50012070  0.50064215  1
  I  I131  1  0.66690504  0.49984139  0.82980178  1
  I  I132  1  0.66669153  0.83401817  0.16567905  1
  I  I133  1  0.66293430  0.83889527  0.49893320  1
  I  I134  1  0.66969730  0.83948502  0.83288202  1
