# generated using pymatgen
data_Cs27Sn13Pb14I81
_symmetry_space_group_name_H-M   'P 1'
_cell_length_a   18.97343208
_cell_length_b   18.98205557
_cell_length_c   18.97473109
_cell_angle_alpha   90.00004521
_cell_angle_beta   89.99812075
_cell_angle_gamma   90.00069177
_symmetry_Int_Tables_number   1
_chemical_formula_structural   Cs27Sn13Pb14I81
_chemical_formula_sum   'Cs27 Sn13 Pb14 I81'
_cell_volume   6833.83937654
_cell_formula_units_Z   1
loop_
 _symmetry_equiv_pos_site_id
 _symmetry_equiv_pos_as_xyz
  1  'x, y, z'
loop_
 _atom_site_type_symbol
 _atom_site_label
 _atom_site_symmetry_multiplicity
 _atom_site_fract_x
 _atom_site_fract_y
 _atom_site_fract_z
 _atom_site_occupancy
  Cs  Cs0  1  -0.00062296  -0.00157036  -0.00178363  1
  Cs  Cs1  1  0.00033934  0.00434445  0.33273256  1
  Cs  Cs2  1  0.00110887  0.00036732  0.67052363  1
  Cs  Cs3  1  -0.00060259  0.33383371  -0.00007907  1
  Cs  Cs4  1  -0.00017004  0.33270827  0.33350964  1
  Cs  Cs5  1  0.00122754  0.33392059  0.66632138  1
  Cs  Cs6  1  0.00218820  0.66715487  0.00192883  1
  Cs  Cs7  1  -0.00225256  0.66533360  0.33151910  1
  Cs  Cs8  1  -0.00179743  0.66535922  0.66674240  1
  Cs  Cs9  1  0.33896830  -0.00717248  0.00086525  1
  Cs  Cs10  1  0.33549884  0.00076370  0.33468174  1
  Cs  Cs11  1  0.33080081  -0.00252584  0.66451478  1
  Cs  Cs12  1  0.34066720  0.33616515  0.00017957  1
  Cs  Cs13  1  0.33208158  0.33268407  0.33483799  1
  Cs  Cs14  1  0.33071072  0.33379693  0.66458354  1
  Cs  Cs15  1  0.33846538  0.67096027  0.00638513  1
  Cs  Cs16  1  0.33354561  0.66793162  0.32780925  1
  Cs  Cs17  1  0.33402241  0.66640938  0.66799459  1
  Cs  Cs18  1  0.66365738  0.00220251  -0.00683664  1
  Cs  Cs19  1  0.66513497  -0.00128712  0.33272412  1
  Cs  Cs20  1  0.66733392  -0.00677296  0.67335527  1
  Cs  Cs21  1  0.66115642  0.33311728  -0.00282396  1
  Cs  Cs22  1  0.66878566  0.33266760  0.33361687  1
  Cs  Cs23  1  0.66550856  0.33396690  0.66863844  1
  Cs  Cs24  1  0.66031771  0.66285343  -0.00133116  1
  Cs  Cs25  1  0.67034440  0.67209070  0.33719719  1
  Cs  Cs26  1  0.66650719  0.67339980  0.66443130  1
  Sn  Sn27  1  0.16592925  0.83288671  0.49966715  1
  Sn  Sn28  1  0.16735369  0.50024806  0.50038813  1
  Sn  Sn29  1  0.16632531  0.16682204  0.49998111  1
  Sn  Sn30  1  0.49924219  0.49927691  0.49975696  1
  Sn  Sn31  1  0.50042104  0.16745492  0.50016999  1
  Sn  Sn32  1  0.83299868  0.16671474  0.50009672  1
  Sn  Sn33  1  0.83355107  0.49957919  0.16550537  1
  Sn  Sn34  1  0.16641271  0.16706723  0.16592336  1
  Sn  Sn35  1  0.16673170  0.16757376  0.83403470  1
  Sn  Sn36  1  0.16613414  0.49925042  0.83327108  1
  Sn  Sn37  1  0.83420072  0.49961950  0.83411089  1
  Sn  Sn38  1  0.83354276  0.83400113  0.16623819  1
  Sn  Sn39  1  0.83404958  0.16653558  0.16689171  1
  Pb  Pb40  1  0.50023152  0.16680818  0.16871394  1
  Pb  Pb41  1  0.49753305  0.83340537  0.49987592  1
  Pb  Pb42  1  0.50324598  0.83359188  0.16709967  1
  Pb  Pb43  1  0.50333609  0.49976693  0.17009623  1
  Pb  Pb44  1  0.83584414  0.83668726  0.49849421  1
  Pb  Pb45  1  0.49634319  0.16677728  0.83015472  1
  Pb  Pb46  1  0.83344011  0.49832385  0.50018660  1
  Pb  Pb47  1  0.16488733  0.83621689  0.16891974  1
  Pb  Pb48  1  0.16655172  0.83259601  0.83159914  1
  Pb  Pb49  1  0.16533353  0.49802274  0.16648668  1
  Pb  Pb50  1  0.83378812  0.82999236  0.83632681  1
  Pb  Pb51  1  0.49974031  0.83318282  0.83309669  1
  Pb  Pb52  1  0.83505804  0.16846542  0.83363333  1
  Pb  Pb53  1  0.49927360  0.49997123  0.83066606  1
  I  I54  1  0.16051730  0.00457787  0.16785058  1
  I  I55  1  0.16647109  0.00225922  0.49965791  1
  I  I56  1  0.16597479  0.00321678  0.83071685  1
  I  I57  1  0.15987745  0.32985600  0.17289311  1
  I  I58  1  0.16714455  0.33240866  0.50063568  1
  I  I59  1  0.16173731  0.33340721  0.82654133  1
  I  I60  1  0.16392714  0.66657898  0.16811044  1
  I  I61  1  0.17067124  0.66517955  0.50505801  1
  I  I62  1  0.16215525  0.66271194  0.82685591  1
  I  I63  1  0.50021442  0.00038632  0.17026993  1
  I  I64  1  0.49813784  0.00335141  0.49868070  1
  I  I65  1  0.49969426  0.00049097  0.83093994  1
  I  I66  1  0.50239081  0.33330727  0.16607073  1
  I  I67  1  0.49453038  0.33257794  0.49944016  1
  I  I68  1  0.50263060  0.33333698  0.83491256  1
  I  I69  1  0.49992572  0.66647264  0.16905874  1
  I  I70  1  0.49639832  0.66348221  0.50062285  1
  I  I71  1  0.49927849  0.66602450  0.83001892  1
  I  I72  1  0.83850586  0.00159292  0.17434598  1
  I  I73  1  0.83385847  0.00494540  0.49452492  1
  I  I74  1  0.83450179  0.00015287  0.83293875  1
  I  I75  1  0.83794986  0.33243696  0.16868737  1
  I  I76  1  0.83806700  0.33028650  0.49457802  1
  I  I77  1  0.83633427  0.33631949  0.83739682  1
  I  I78  1  0.83375088  0.66590590  0.16334341  1
  I  I79  1  0.83330992  0.66660405  0.49857671  1
  I  I80  1  0.84036686  0.66190045  0.83552956  1
  I  I81  1  0.15838156  0.17190785  0.00017390  1
  I  I82  1  0.16539937  0.16681965  0.33487639  1
  I  I83  1  0.16641090  0.16735885  0.66499960  1
  I  I84  1  0.16209498  0.49422095  -0.00277290  1
  I  I85  1  0.16826921  0.49818394  0.33652737  1
  I  I86  1  0.16409306  0.49509143  0.66552188  1
  I  I87  1  0.16559923  0.83387056  0.00038889  1
  I  I88  1  0.16592350  0.83290889  0.33702834  1
  I  I89  1  0.16622303  0.83891305  0.66312938  1
  I  I90  1  0.50048753  0.16574583  -0.00022825  1
  I  I91  1  0.49513644  0.17034313  0.33720694  1
  I  I92  1  0.50091937  0.17171817  0.66178965  1
  I  I93  1  0.49826411  0.50133391  0.00006978  1
  I  I94  1  0.49358769  0.49500221  0.33783396  1
  I  I95  1  0.50004489  0.49456326  0.66271352  1
  I  I96  1  0.49843571  0.83294778  0.00031477  1
  I  I97  1  0.49974223  0.83318850  0.33379567  1
  I  I98  1  0.50154244  0.83342351  0.66585435  1
  I  I99  1  0.83935520  0.16504830  0.00324788  1
  I  I100  1  0.83853716  0.16944614  0.33327122  1
  I  I101  1  0.83541811  0.16983538  0.66392697  1
  I  I102  1  0.84030159  0.49845689  0.00030565  1
  I  I103  1  0.83342082  0.50039891  0.33103164  1
  I  I104  1  0.83538667  0.49646661  0.66864713  1
  I  I105  1  0.83572189  0.84057814  0.00422000  1
  I  I106  1  0.83476596  0.82763867  0.33060854  1
  I  I107  1  0.83301787  0.83320135  0.66669857  1
  I  I108  1  -0.00044980  0.16749680  0.17320021  1
  I  I109  1  0.00133946  0.16740388  0.49826343  1
  I  I110  1  0.00328579  0.16879052  0.82742325  1
  I  I111  1  -0.00309755  0.50030880  0.16897555  1
  I  I112  1  0.00298436  0.49813469  0.50070627  1
  I  I113  1  0.00106201  0.49598767  0.82999962  1
  I  I114  1  -0.00305679  0.83152668  0.16843157  1
  I  I115  1  0.00369749  0.83238477  0.49962001  1
  I  I116  1  0.00009879  0.83527251  0.83201444  1
  I  I117  1  0.33003138  0.16768052  0.16908488  1
  I  I118  1  0.33153377  0.16734669  0.49991623  1
  I  I119  1  0.32797595  0.17398613  0.83329672  1
  I  I120  1  0.33332030  0.49839437  0.16476899  1
  I  I121  1  0.33131503  0.49446950  0.50546883  1
  I  I122  1  0.32954604  0.49474217  0.82877230  1
  I  I123  1  0.33305476  0.83433100  0.16721800  1
  I  I124  1  0.32946539  0.83881025  0.49997317  1
  I  I125  1  0.33267429  0.83260192  0.83277405  1
  I  I126  1  0.67055064  0.16675719  0.17269543  1
  I  I127  1  0.66714158  0.17318645  0.49301071  1
  I  I128  1  0.66663984  0.16773719  0.83302007  1
  I  I129  1  0.67173508  0.49629244  0.16164028  1
  I  I130  1  0.66479045  0.49396054  0.49877148  1
  I  I131  1  0.66939769  0.49965214  0.83720959  1
  I  I132  1  0.67152082  0.83560624  0.17008328  1
  I  I133  1  0.66699363  0.83255937  0.49854975  1
  I  I134  1  0.66722220  0.83265574  0.83205195  1
