# generated using pymatgen
data_Cs27Sn13Pb14I81
_symmetry_space_group_name_H-M   'P 1'
_cell_length_a   18.97563492
_cell_length_b   18.99929898
_cell_length_c   18.99920515
_cell_angle_alpha   89.99976730
_cell_angle_beta   90.00145433
_cell_angle_gamma   89.99898262
_symmetry_Int_Tables_number   1
_chemical_formula_structural   Cs27Sn13Pb14I81
_chemical_formula_sum   'Cs27 Sn13 Pb14 I81'
_cell_volume   6849.66489600
_cell_formula_units_Z   1
loop_
 _symmetry_equiv_pos_site_id
 _symmetry_equiv_pos_as_xyz
  1  'x, y, z'
loop_
 _atom_site_type_symbol
 _atom_site_label
 _atom_site_symmetry_multiplicity
 _atom_site_fract_x
 _atom_site_fract_y
 _atom_site_fract_z
 _atom_site_occupancy
  Cs  Cs0  1  -0.00140472  0.00044346  0.00049997  1
  Cs  Cs1  1  0.00217660  -0.00040122  0.33234117  1
  Cs  Cs2  1  -0.00019499  0.00065182  0.66709818  1
  Cs  Cs3  1  -0.00195056  0.33507472  0.00054856  1
  Cs  Cs4  1  0.00055468  0.33467910  0.33324377  1
  Cs  Cs5  1  0.00095719  0.33366357  0.66570546  1
  Cs  Cs6  1  0.00069862  0.66395601  0.00389224  1
  Cs  Cs7  1  -0.00018593  0.66617088  0.33183116  1
  Cs  Cs8  1  -0.00203033  0.66574517  0.66457389  1
  Cs  Cs9  1  0.33179140  -0.00104363  -0.00136178  1
  Cs  Cs10  1  0.33304057  0.00061503  0.33437788  1
  Cs  Cs11  1  0.33165992  0.00314726  0.66662941  1
  Cs  Cs12  1  0.33326196  0.33652543  -0.00428914  1
  Cs  Cs13  1  0.33576588  0.33190732  0.33393374  1
  Cs  Cs14  1  0.33359382  0.33277112  0.66998772  1
  Cs  Cs15  1  0.33874165  0.66439266  -0.00271880  1
  Cs  Cs16  1  0.33362073  0.66805484  0.32982903  1
  Cs  Cs17  1  0.33641755  0.66402843  0.67399123  1
  Cs  Cs18  1  0.66949437  0.00094842  -0.00210753  1
  Cs  Cs19  1  0.65389554  0.00288637  0.33272831  1
  Cs  Cs20  1  0.66794186  -0.00932747  0.66923109  1
  Cs  Cs21  1  0.67211086  0.33068241  0.00371366  1
  Cs  Cs22  1  0.65705917  0.33209058  0.33511312  1
  Cs  Cs23  1  0.66669977  0.33550093  0.66103806  1
  Cs  Cs24  1  0.65988972  0.66764675  -0.00123393  1
  Cs  Cs25  1  0.66342882  0.66552858  0.34098980  1
  Cs  Cs26  1  0.66454953  0.67405418  0.65996135  1
  Sn  Sn27  1  0.83409884  0.16628708  0.49954513  1
  Sn  Sn28  1  0.50007176  0.16692583  0.83338922  1
  Sn  Sn29  1  0.83393586  0.50123608  0.16617789  1
  Sn  Sn30  1  0.16629649  0.49995310  0.16753457  1
  Sn  Sn31  1  0.16562364  0.16688325  0.49986161  1
  Sn  Sn32  1  0.16582588  0.83375951  0.83360663  1
  Sn  Sn33  1  0.83391238  0.83259563  0.16719301  1
  Sn  Sn34  1  0.83327888  0.50034205  0.83359843  1
  Sn  Sn35  1  0.16681410  0.16598916  0.83359839  1
  Sn  Sn36  1  0.16633568  0.50002886  0.49916974  1
  Sn  Sn37  1  0.16622730  0.83298202  0.50017236  1
  Sn  Sn38  1  0.16606097  0.83315679  0.16633938  1
  Sn  Sn39  1  0.16623603  0.16694276  0.16644883  1
  Pb  Pb40  1  0.49751504  0.83569006  0.83349806  1
  Pb  Pb41  1  0.83553999  0.83588647  0.49683453  1
  Pb  Pb42  1  0.50045172  0.49999326  0.16657271  1
  Pb  Pb43  1  0.50417478  0.49739586  0.83341505  1
  Pb  Pb44  1  0.83513730  0.16666795  0.16912580  1
  Pb  Pb45  1  0.16534607  0.50000486  0.83356151  1
  Pb  Pb46  1  0.83387789  0.16815315  0.83126812  1
  Pb  Pb47  1  0.50016677  0.83331214  0.16658364  1
  Pb  Pb48  1  0.49946187  0.16648371  0.50264819  1
  Pb  Pb49  1  0.83594963  0.83089558  0.83557252  1
  Pb  Pb50  1  0.49647553  0.83345412  0.50004773  1
  Pb  Pb51  1  0.49628840  0.50001776  0.50014243  1
  Pb  Pb52  1  0.49674203  0.16671652  0.16374361  1
  Pb  Pb53  1  0.83510900  0.49840559  0.49896670  1
  I  I54  1  0.16350837  -0.00023721  0.16840320  1
  I  I55  1  0.16358786  0.00052107  0.49794204  1
  I  I56  1  0.17014544  0.00075675  0.83343730  1
  I  I57  1  0.16291350  0.33352310  0.16910998  1
  I  I58  1  0.16276849  0.33265147  0.49778810  1
  I  I59  1  0.16898265  0.33055214  0.83287679  1
  I  I60  1  0.16264567  0.66670261  0.17007720  1
  I  I61  1  0.16667575  0.66679316  0.49681107  1
  I  I62  1  0.16351227  0.66914664  0.83262044  1
  I  I63  1  0.50035488  0.00014935  0.16703328  1
  I  I64  1  0.49816508  0.00024910  0.49948226  1
  I  I65  1  0.49740338  0.00344052  0.83280514  1
  I  I66  1  0.49988084  0.33321421  0.16676295  1
  I  I67  1  0.49813378  0.33298697  0.50010452  1
  I  I68  1  0.48817309  0.33008205  0.83276508  1
  I  I69  1  0.49308863  0.66663924  0.16455937  1
  I  I70  1  0.50109755  0.66671950  0.50119243  1
  I  I71  1  0.49768780  0.66665913  0.83393321  1
  I  I72  1  0.84024432  -0.00246392  0.16781913  1
  I  I73  1  0.84199670  0.00331660  0.50114530  1
  I  I74  1  0.83129440  -0.00006545  0.83386757  1
  I  I75  1  0.83946257  0.33608943  0.16290444  1
  I  I76  1  0.84188897  0.33075093  0.49988966  1
  I  I77  1  0.83710657  0.33570330  0.84048388  1
  I  I78  1  0.84561226  0.66616141  0.16197354  1
  I  I79  1  0.83481254  0.66681468  0.50259378  1
  I  I80  1  0.83840613  0.66327658  0.83414802  1
  I  I81  1  0.17119035  0.16391729  -0.00000021  1
  I  I82  1  0.16139924  0.16490279  0.33350737  1
  I  I83  1  0.16717104  0.16438271  0.66652741  1
  I  I84  1  0.16437483  0.49919407  0.00293038  1
  I  I85  1  0.16104836  0.49922295  0.33240109  1
  I  I86  1  0.16435237  0.49914175  0.66442136  1
  I  I87  1  0.16327856  0.83750884  0.00067935  1
  I  I88  1  0.16329149  0.83583361  0.33282257  1
  I  I89  1  0.16790793  0.83738661  0.66653926  1
  I  I90  1  0.49387138  0.16664232  -0.00367812  1
  I  I91  1  0.50002245  0.16695804  0.33344962  1
  I  I92  1  0.49068897  0.16768499  0.66974430  1
  I  I93  1  0.49293896  0.49941651  -0.00011770  1
  I  I94  1  0.50391393  0.49821968  0.33331415  1
  I  I95  1  0.49870750  0.49826981  0.66692061  1
  I  I96  1  0.49604402  0.83429997  -0.00004766  1
  I  I97  1  0.49742340  0.83477471  0.33326434  1
  I  I98  1  0.49951065  0.83375956  0.66685393  1
  I  I99  1  0.83374031  0.16586001  0.00029321  1
  I  I100  1  0.84262049  0.16837042  0.33647189  1
  I  I101  1  0.84146241  0.16996615  0.66379236  1
  I  I102  1  0.84156143  0.50049613  0.00145849  1
  I  I103  1  0.83819065  0.50319134  0.32991471  1
  I  I104  1  0.83698878  0.49506567  0.66815081  1
  I  I105  1  0.84149239  0.83439214  0.00339735  1
  I  I106  1  0.84278524  0.82545778  0.32936708  1
  I  I107  1  0.83464225  0.83262024  0.66634534  1
  I  I108  1  0.00417565  0.16653692  0.16168121  1
  I  I109  1  0.00339339  0.16707935  0.50278832  1
  I  I110  1  0.00378558  0.16382635  0.83446093  1
  I  I111  1  0.00170969  0.50043875  0.16628338  1
  I  I112  1  0.00382668  0.50064764  0.49865046  1
  I  I113  1  -0.00189234  0.49659949  0.83547818  1
  I  I114  1  0.00262846  0.83258022  0.16646195  1
  I  I115  1  0.00438210  0.83230448  0.50187486  1
  I  I116  1  0.00432976  0.84195500  0.83125570  1
  I  I117  1  0.32760793  0.16569447  0.17344289  1
  I  I118  1  0.32894976  0.16604656  0.49755127  1
  I  I119  1  0.33013958  0.16353686  0.83151003  1
  I  I120  1  0.32919033  0.50047882  0.17107546  1
  I  I121  1  0.32737129  0.49646752  0.49439979  1
  I  I122  1  0.33314438  0.50202438  0.83273984  1
  I  I123  1  0.32859056  0.83334754  0.16763627  1
  I  I124  1  0.32731568  0.83767759  0.49586386  1
  I  I125  1  0.32838835  0.83281897  0.83570149  1
  I  I126  1  0.66681399  0.16675605  0.16765914  1
  I  I127  1  0.66931423  0.16919429  0.50030284  1
  I  I128  1  0.66460061  0.17077443  0.83133910  1
  I  I129  1  0.67055226  0.50424490  0.16103188  1
  I  I130  1  0.66699425  0.49591143  0.49937907  1
  I  I131  1  0.67166757  0.49662912  0.84185082  1
  I  I132  1  0.67020389  0.82816493  0.16605515  1
  I  I133  1  0.66710148  0.83567561  0.49870631  1
  I  I134  1  0.66700851  0.83496702  0.83540346  1
