# generated using pymatgen
data_Cs27Sn13Pb14I81
_symmetry_space_group_name_H-M   'P 1'
_cell_length_a   18.97770903
_cell_length_b   18.97247113
_cell_length_c   18.97673074
_cell_angle_alpha   90.00207199
_cell_angle_beta   90.00199708
_cell_angle_gamma   89.99796840
_symmetry_Int_Tables_number   1
_chemical_formula_structural   Cs27Sn13Pb14I81
_chemical_formula_sum   'Cs27 Sn13 Pb14 I81'
_cell_volume   6832.64849242
_cell_formula_units_Z   1
loop_
 _symmetry_equiv_pos_site_id
 _symmetry_equiv_pos_as_xyz
  1  'x, y, z'
loop_
 _atom_site_type_symbol
 _atom_site_label
 _atom_site_symmetry_multiplicity
 _atom_site_fract_x
 _atom_site_fract_y
 _atom_site_fract_z
 _atom_site_occupancy
  Cs  Cs0  1  -0.01294885  -0.00104202  -0.00327416  1
  Cs  Cs1  1  -0.00041433  0.00272064  0.33504576  1
  Cs  Cs2  1  0.00168456  -0.00161869  0.66784589  1
  Cs  Cs3  1  0.00152665  0.33335761  0.00021635  1
  Cs  Cs4  1  0.00480765  0.33548143  0.33178096  1
  Cs  Cs5  1  -0.00147522  0.33543706  0.66795405  1
  Cs  Cs6  1  -0.00018505  0.66677542  0.00045167  1
  Cs  Cs7  1  -0.00033016  0.66442370  0.33304352  1
  Cs  Cs8  1  0.00252964  0.66683692  0.66641901  1
  Cs  Cs9  1  0.33560003  -0.00144909  -0.00162103  1
  Cs  Cs10  1  0.33301020  0.00504063  0.33593380  1
  Cs  Cs11  1  0.33010267  -0.00083230  0.66606563  1
  Cs  Cs12  1  0.33111409  0.33404205  -0.00058742  1
  Cs  Cs13  1  0.33008837  0.32245480  0.33187532  1
  Cs  Cs14  1  0.33549305  0.33252581  0.66861004  1
  Cs  Cs15  1  0.33494900  0.66634934  0.00193691  1
  Cs  Cs16  1  0.33231630  0.66895703  0.32716845  1
  Cs  Cs17  1  0.33305954  0.66774090  0.66825362  1
  Cs  Cs18  1  0.67276670  0.00151236  0.00071492  1
  Cs  Cs19  1  0.66631375  -0.00026178  0.33168052  1
  Cs  Cs20  1  0.66847296  0.00016842  0.66726647  1
  Cs  Cs21  1  0.66739986  0.33186585  -0.00117663  1
  Cs  Cs22  1  0.66433588  0.33216127  0.33839507  1
  Cs  Cs23  1  0.66591857  0.33772145  0.66428244  1
  Cs  Cs24  1  0.66451654  0.66734342  0.00160113  1
  Cs  Cs25  1  0.66803607  0.66767568  0.33433680  1
  Cs  Cs26  1  0.66426734  0.66219943  0.66252633  1
  Sn  Sn27  1  0.16678585  0.83402457  0.16627047  1
  Sn  Sn28  1  0.83298732  0.83409207  0.50015609  1
  Sn  Sn29  1  0.83339324  0.16600211  0.50011669  1
  Sn  Sn30  1  0.16612535  0.49962787  0.83250761  1
  Sn  Sn31  1  0.49918555  0.83296133  0.16677592  1
  Sn  Sn32  1  0.50072124  0.49991583  0.16705674  1
  Sn  Sn33  1  0.16760246  0.50017172  0.50058651  1
  Sn  Sn34  1  0.49954113  0.16575604  0.83340311  1
  Sn  Sn35  1  0.83208106  0.50008148  0.16595415  1
  Sn  Sn36  1  0.83389104  0.50035434  0.83419463  1
  Sn  Sn37  1  0.16696736  0.16684208  0.83362714  1
  Sn  Sn38  1  0.50011949  0.83419352  0.83334083  1
  Sn  Sn39  1  0.50035174  0.83312002  0.49987647  1
  Pb  Pb40  1  0.16467456  0.16884502  0.50248970  1
  Pb  Pb41  1  0.83324694  0.16996820  0.16938825  1
  Pb  Pb42  1  0.16828111  0.83318276  0.83547891  1
  Pb  Pb43  1  0.50004271  0.16610551  0.16434085  1
  Pb  Pb44  1  0.49964862  0.50010728  0.83491638  1
  Pb  Pb45  1  0.16639009  0.16291057  0.16333876  1
  Pb  Pb46  1  0.16694473  0.83187264  0.49810102  1
  Pb  Pb47  1  0.49685748  0.50186219  0.49676344  1
  Pb  Pb48  1  0.83464660  0.50029274  0.49976495  1
  Pb  Pb49  1  0.83316621  0.16892876  0.83157784  1
  Pb  Pb50  1  0.50161214  0.16412738  0.50264489  1
  Pb  Pb51  1  0.83285485  0.83166050  0.16870288  1
  Pb  Pb52  1  0.16704347  0.50097143  0.16607778  1
  Pb  Pb53  1  0.83045054  0.83045321  0.83087995  1
  I  I54  1  0.17534919  -0.00464610  0.16864143  1
  I  I55  1  0.16729687  -0.00002439  0.50016400  1
  I  I56  1  0.17025584  0.00227528  0.83466914  1
  I  I57  1  0.16679870  0.33324801  0.16889077  1
  I  I58  1  0.16358603  0.33684730  0.49956328  1
  I  I59  1  0.16903365  0.33433866  0.82994231  1
  I  I60  1  0.16916966  0.66882142  0.16502745  1
  I  I61  1  0.16366253  0.66400616  0.50620947  1
  I  I62  1  0.16424377  0.66383587  0.83114995  1
  I  I63  1  0.49537265  -0.00376388  0.16873838  1
  I  I64  1  0.50051916  -0.00425532  0.49471706  1
  I  I65  1  0.49413332  -0.00066949  0.83426166  1
  I  I66  1  0.50384692  0.33611427  0.16411544  1
  I  I67  1  0.50214379  0.33334384  0.50053781  1
  I  I68  1  0.49917102  0.33144173  0.83537714  1
  I  I69  1  0.49977138  0.66772163  0.16377963  1
  I  I70  1  0.50695866  0.67020007  0.50536744  1
  I  I71  1  0.50027085  0.66928960  0.83257394  1
  I  I72  1  0.83346473  -0.00013866  0.16565286  1
  I  I73  1  0.82948578  -0.00102305  0.50044801  1
  I  I74  1  0.83565512  -0.00021201  0.83356357  1
  I  I75  1  0.82879514  0.33812296  0.16436493  1
  I  I76  1  0.83572334  0.33177031  0.50092684  1
  I  I77  1  0.83246260  0.33682029  0.83374765  1
  I  I78  1  0.83233575  0.66366821  0.16558900  1
  I  I79  1  0.82999387  0.66894054  0.49961519  1
  I  I80  1  0.83863787  0.66271795  0.83504342  1
  I  I81  1  0.17058629  0.17555866  -0.00437692  1
  I  I82  1  0.16562234  0.16902637  0.33342234  1
  I  I83  1  0.17057139  0.16759633  0.67033885  1
  I  I84  1  0.16554623  0.49758326  -0.00284823  1
  I  I85  1  0.16473866  0.50392872  0.33479563  1
  I  I86  1  0.16022270  0.49837261  0.66817835  1
  I  I87  1  0.17336042  0.82983783  0.00306248  1
  I  I88  1  0.17198131  0.82812427  0.33039850  1
  I  I89  1  0.16778108  0.83342553  0.66691821  1
  I  I90  1  0.49723319  0.16213559  -0.00376336  1
  I  I91  1  0.50115338  0.16715297  0.33358405  1
  I  I92  1  0.49656632  0.16295655  0.67051624  1
  I  I93  1  0.49959008  0.50634357  0.00269355  1
  I  I94  1  0.50582078  0.50672769  0.32914572  1
  I  I95  1  0.50244349  0.50128917  0.66658842  1
  I  I96  1  0.49414014  0.83180078  0.00038018  1
  I  I97  1  0.50071953  0.82661268  0.33289341  1
  I  I98  1  0.50434398  0.83712398  0.66678089  1
  I  I99  1  0.83368705  0.16616643  -0.00036257  1
  I  I100  1  0.83268323  0.16369319  0.33709967  1
  I  I101  1  0.83307058  0.16493787  0.66400706  1
  I  I102  1  0.83559663  0.50044904  -0.00027747  1
  I  I103  1  0.83162901  0.50129297  0.33107856  1
  I  I104  1  0.83587504  0.49987855  0.66880507  1
  I  I105  1  0.83316830  0.83346158  -0.00012812  1
  I  I106  1  0.82821412  0.83341093  0.33647296  1
  I  I107  1  0.82931573  0.83420723  0.66312361  1
  I  I108  1  -0.00007188  0.16656182  0.16480957  1
  I  I109  1  -0.00303612  0.15998189  0.50227251  1
  I  I110  1  0.00235407  0.17021376  0.83186584  1
  I  I111  1  -0.00191431  0.50235448  0.16637467  1
  I  I112  1  0.00232747  0.50224944  0.49969981  1
  I  I113  1  0.00063163  0.49470526  0.83494846  1
  I  I114  1  0.00183673  0.83009850  0.16825057  1
  I  I115  1  -0.00235192  0.83453000  0.49773804  1
  I  I116  1  -0.00025315  0.83524156  0.83392774  1
  I  I117  1  0.33324260  0.17203345  0.16900305  1
  I  I118  1  0.33328591  0.16683023  0.49928245  1
  I  I119  1  0.33332676  0.16944713  0.83295896  1
  I  I120  1  0.33580007  0.50494739  0.16573451  1
  I  I121  1  0.32962056  0.50243259  0.50696346  1
  I  I122  1  0.33084246  0.49934922  0.83144296  1
  I  I123  1  0.33532844  0.82548637  0.16750524  1
  I  I124  1  0.33635655  0.82996981  0.50138391  1
  I  I125  1  0.33669608  0.83191617  0.82951645  1
  I  I126  1  0.66663545  0.16327337  0.16329277  1
  I  I127  1  0.66944923  0.16753097  0.50254641  1
  I  I128  1  0.66416313  0.16362263  0.83261819  1
  I  I129  1  0.66653964  0.50648852  0.16125809  1
  I  I130  1  0.66640725  0.49893492  0.50217242  1
  I  I131  1  0.66857302  0.50033075  0.83526056  1
  I  I132  1  0.66346529  0.83017309  0.16539051  1
  I  I133  1  0.66594167  0.83527581  0.49836087  1
  I  I134  1  0.66243556  0.83811678  0.83913974  1
