# generated using pymatgen
data_Cs27Sn13Pb14I81
_symmetry_space_group_name_H-M   'P 1'
_cell_length_a   18.97548932
_cell_length_b   18.97864113
_cell_length_c   18.97548932
_cell_angle_alpha   89.99838227
_cell_angle_beta   89.99878190
_cell_angle_gamma   89.99838214
_symmetry_Int_Tables_number   1
_chemical_formula_structural   Cs27Sn13Pb14I81
_chemical_formula_sum   'Cs27 Sn13 Pb14 I81'
_cell_volume   6833.62402349
_cell_formula_units_Z   1
loop_
 _symmetry_equiv_pos_site_id
 _symmetry_equiv_pos_as_xyz
  1  'x, y, z'
loop_
 _atom_site_type_symbol
 _atom_site_label
 _atom_site_symmetry_multiplicity
 _atom_site_fract_x
 _atom_site_fract_y
 _atom_site_fract_z
 _atom_site_occupancy
  Cs  Cs0  1  -0.00206300  0.00212116  -0.00334896  1
  Cs  Cs1  1  0.00268621  0.00105472  0.33601953  1
  Cs  Cs2  1  -0.00022221  -0.00168732  0.66777263  1
  Cs  Cs3  1  -0.00188264  0.33290525  0.00056989  1
  Cs  Cs4  1  0.00035139  0.33159901  0.33368463  1
  Cs  Cs5  1  0.00326158  0.33172285  0.66393360  1
  Cs  Cs6  1  0.00067417  0.66370716  0.00194728  1
  Cs  Cs7  1  0.00452998  0.66921864  0.33786335  1
  Cs  Cs8  1  -0.00260750  0.66952980  0.65730195  1
  Cs  Cs9  1  0.33529907  -0.00052088  -0.00039960  1
  Cs  Cs10  1  0.33443925  -0.00168712  0.33311117  1
  Cs  Cs11  1  0.33437413  0.00079604  0.66770754  1
  Cs  Cs12  1  0.33207393  0.33407938  -0.00218465  1
  Cs  Cs13  1  0.33060029  0.33172294  0.33659487  1
  Cs  Cs14  1  0.33376709  0.33763363  0.66710045  1
  Cs  Cs15  1  0.32858256  0.66665297  -0.00111291  1
  Cs  Cs16  1  0.32396867  0.66952977  0.33072583  1
  Cs  Cs17  1  0.33727685  0.65953001  0.67061025  1
  Cs  Cs18  1  0.66578803  0.00013667  -0.00087862  1
  Cs  Cs19  1  0.66331759  0.00212127  0.33127028  1
  Cs  Cs20  1  0.66626710  -0.00052081  0.66863240  1
  Cs  Cs21  1  0.66890683  0.33376822  0.00224016  1
  Cs  Cs22  1  0.66723658  0.33290521  0.33145071  1
  Cs  Cs23  1  0.66448208  0.33407928  0.66540727  1
  Cs  Cs24  1  0.66809633  0.66431982  0.00142973  1
  Cs  Cs25  1  0.66861376  0.66370732  0.33400767  1
  Cs  Cs26  1  0.66555376  0.66665314  0.66191586  1
  Sn  Sn27  1  0.50005631  0.83389937  0.50038647  1
  Sn  Sn28  1  0.16604144  0.16644235  0.16565546  1
  Sn  Sn29  1  0.49994616  0.50006558  0.16673079  1
  Sn  Sn30  1  0.16757995  0.16584589  0.83424056  1
  Sn  Sn31  1  0.83272860  0.50032856  0.16606196  1
  Sn  Sn32  1  0.83232214  0.16644236  0.49937478  1
  Sn  Sn33  1  0.49947370  0.16636183  0.83280705  1
  Sn  Sn34  1  0.83339744  0.50006557  0.83327951  1
  Sn  Sn35  1  0.83323664  0.83351842  0.16656999  1
  Sn  Sn36  1  0.16705314  0.83389936  0.83338972  1
  Sn  Sn37  1  0.83403594  0.16622777  0.16736927  1
  Sn  Sn38  1  0.49955715  0.83386631  0.83289048  1
  Sn  Sn39  1  0.50090721  0.16584594  0.50091334  1
  Pb  Pb40  1  0.83097676  0.83613462  0.49742354  1
  Pb  Pb41  1  0.50190598  0.50001889  0.83523934  1
  Pb  Pb42  1  0.16994680  0.83373428  0.50328007  1
  Pb  Pb43  1  0.49985717  0.16807652  0.16643932  1
  Pb  Pb44  1  0.49993838  0.50007614  0.49694674  1
  Pb  Pb45  1  0.83328714  0.49751409  0.49923148  1
  Pb  Pb46  1  0.16589812  0.49751409  0.16662050  1
  Pb  Pb47  1  0.50146551  0.83094464  0.16635114  1
  Pb  Pb48  1  0.16409025  0.83613459  0.16431005  1
  Pb  Pb49  1  0.16675301  0.50020782  0.50008634  1
  Pb  Pb50  1  0.83310603  0.16807649  0.83319052  1
  Pb  Pb51  1  0.16361342  0.50007622  0.83327173  1
  Pb  Pb52  1  0.16736474  0.16647351  0.50069806  1
  Pb  Pb53  1  0.83301783  0.83094466  0.83479885  1
  I  I54  1  0.16221124  0.00406887  0.16493273  1
  I  I55  1  0.16356129  0.00025851  0.49689467  1
  I  I56  1  0.16997186  0.00119674  0.83787547  1
  I  I57  1  0.16174034  0.32938141  0.16071299  1
  I  I58  1  0.16820434  0.33249267  0.50153760  1
  I  I59  1  0.16992398  0.32989076  0.83676151  1
  I  I60  1  0.16622329  0.66695775  0.16554077  1
  I  I61  1  0.16708890  0.66741589  0.50042235  1
  I  I62  1  0.17190807  0.66970097  0.83343452  1
  I  I63  1  0.50180650  0.00002529  0.16663004  1
  I  I64  1  0.50454240  0.00119670  0.50330493  1
  I  I65  1  0.49739249  0.00067314  0.83072584  1
  I  I66  1  0.50657587  0.33556614  0.16577887  1
  I  I67  1  0.50342808  0.32989074  0.50325754  1
  I  I68  1  0.49698043  0.33029061  0.83031372  1
  I  I69  1  0.50778062  0.66343808  0.16607413  1
  I  I70  1  0.50010105  0.66970100  0.50524156  1
  I  I71  1  0.49707627  0.66963549  0.83040968  1
  I  I72  1  0.83688015  0.00131796  0.17021343  1
  I  I73  1  0.83159929  0.00406886  0.49554484  1
  I  I74  1  0.83329649  0.00002530  0.83513975  1
  I  I75  1  0.83295073  0.33275727  0.16628418  1
  I  I76  1  0.82737959  0.32938143  0.49507361  1
  I  I77  1  0.83244558  0.33556614  0.83990918  1
  I  I78  1  0.82683593  0.66590534  0.16016910  1
  I  I79  1  0.83220768  0.66695780  0.49955661  1
  I  I80  1  0.83274093  0.66343806  0.84111409  1
  I  I81  1  0.16593057  0.16404116  -0.00062360  1
  I  I82  1  0.16477162  0.16918327  0.33081503  1
  I  I83  1  0.16626610  0.16334643  0.67011889  1
  I  I84  1  0.16808038  0.50064276  -0.00005368  1
  I  I85  1  0.16599787  0.49781333  0.33277096  1
  I  I86  1  0.16518074  0.49605673  0.66734242  1
  I  I87  1  0.17422417  0.83550822  -0.00338937  1
  I  I88  1  0.16725901  0.83329722  0.33327241  1
  I  I89  1  0.16458466  0.84173722  0.67113926  1
  I  I90  1  0.49968817  0.16349676  -0.00273100  1
  I  I91  1  0.50141583  0.16434566  0.33562645  1
  I  I92  1  0.50103280  0.16367859  0.66717351  1
  I  I93  1  0.50436029  0.49853221  0.00286724  1
  I  I94  1  0.50871089  0.49809647  0.32942893  1
  I  I95  1  0.50186586  0.49964498  0.66675193  1
  I  I96  1  0.49808882  0.83778386  -0.00314121  1
  I  I97  1  0.50401784  0.83803528  0.33567564  1
  I  I98  1  0.49750641  0.83778742  0.66767973  1
  I  I99  1  0.83395583  0.16665537  0.00275360  1
  I  I100  1  0.83291712  0.16895582  0.33190289  1
  I  I101  1  0.83217136  0.16923999  0.66449790  1
  I  I102  1  0.82946137  0.49680175  0.00184628  1
  I  I103  1  0.82857325  0.50007715  0.32958827  1
  I  I104  1  0.83364187  0.49824746  0.66897691  1
  I  I105  1  0.83073893  0.83852936  0.00284234  1
  I  I106  1  0.83117971  0.82849235  0.32942059  1
  I  I107  1  0.83546254  0.83246683  0.66658126  1
  I  I108  1  -0.00143044  0.16895594  0.16625038  1
  I  I109  1  -0.00251829  0.16918333  0.49810500  1
  I  I110  1  0.00229321  0.16434546  0.83474915  1
  I  I111  1  -0.00374503  0.50007705  0.16190673  1
  I  I112  1  -0.00056236  0.49781317  0.49933087  1
  I  I113  1  -0.00390435  0.49809642  0.84204427  1
  I  I114  1  -0.00391276  0.82849226  0.16451275  1
  I  I115  1  -0.00006099  0.83329735  0.50059269  1
  I  I116  1  0.00234232  0.83803567  0.83735092  1
  I  I117  1  0.33116456  0.16923981  0.16550475  1
  I  I118  1  0.33678556  0.16334621  0.49959925  1
  I  I119  1  0.33384022  0.16367880  0.83436627  1
  I  I120  1  0.33564361  0.49824745  0.16697531  1
  I  I121  1  0.33400907  0.49605677  0.49851423  1
  I  I122  1  0.33341861  0.49964494  0.83519889  1
  I  I123  1  0.33324793  0.83246698  0.16879601  1
  I  I124  1  0.33780594  0.84173736  0.49791763  1
  I  I125  1  0.33434638  0.83778729  0.83083995  1
  I  I126  1  0.66942025  0.16665533  0.16728934  1
  I  I127  1  0.66604304  0.16404124  0.49926389  1
  I  I128  1  0.66393563  0.16349683  0.83302132  1
  I  I129  1  0.66851293  0.49680187  0.16279443  1
  I  I130  1  0.66661296  0.50064282  0.50141346  1
  I  I131  1  0.66953396  0.49853219  0.83769401  1
  I  I132  1  0.66950900  0.83852924  0.16407236  1
  I  I133  1  0.66327733  0.83550792  0.50755749  1
  I  I134  1  0.66352546  0.83778370  0.83142198  1
