# generated using pymatgen
data_Cs27Sn14Pb13I81
_symmetry_space_group_name_H-M   'P 1'
_cell_length_a   18.96201413
_cell_length_b   18.95900683
_cell_length_c   18.96190726
_cell_angle_alpha   90.00052189
_cell_angle_beta   89.99979138
_cell_angle_gamma   90.00147457
_symmetry_Int_Tables_number   1
_chemical_formula_structural   Cs27Sn14Pb13I81
_chemical_formula_sum   'Cs27 Sn14 Pb13 I81'
_cell_volume   6816.82377377
_cell_formula_units_Z   1
loop_
 _symmetry_equiv_pos_site_id
 _symmetry_equiv_pos_as_xyz
  1  'x, y, z'
loop_
 _atom_site_type_symbol
 _atom_site_label
 _atom_site_symmetry_multiplicity
 _atom_site_fract_x
 _atom_site_fract_y
 _atom_site_fract_z
 _atom_site_occupancy
  Cs  Cs0  1  0.00007514  -0.00009829  0.00019401  1
  Cs  Cs1  1  -0.00046936  -0.00266522  0.33263864  1
  Cs  Cs2  1  -0.00149591  -0.00030019  0.66679503  1
  Cs  Cs3  1  -0.00274292  0.33612119  -0.00078553  1
  Cs  Cs4  1  -0.00078705  0.33372864  0.33130638  1
  Cs  Cs5  1  -0.00127684  0.33161462  0.66888137  1
  Cs  Cs6  1  -0.00104369  0.66643619  0.00138349  1
  Cs  Cs7  1  0.00591448  0.66827388  0.33600601  1
  Cs  Cs8  1  0.00222210  0.67062280  0.66323482  1
  Cs  Cs9  1  0.33378138  -0.00023729  0.00069435  1
  Cs  Cs10  1  0.33578191  0.00140303  0.33071277  1
  Cs  Cs11  1  0.33533484  0.00218386  0.66814277  1
  Cs  Cs12  1  0.33120368  0.33174219  0.00224790  1
  Cs  Cs13  1  0.33280194  0.33652525  0.33408248  1
  Cs  Cs14  1  0.33243652  0.33134707  0.66471513  1
  Cs  Cs15  1  0.33586909  0.66633706  -0.00306752  1
  Cs  Cs16  1  0.32696836  0.65880421  0.33490485  1
  Cs  Cs17  1  0.33441464  0.66181124  0.66858760  1
  Cs  Cs18  1  0.66616796  -0.00039818  0.00205364  1
  Cs  Cs19  1  0.66652545  0.00009009  0.33319496  1
  Cs  Cs20  1  0.66598932  0.00095923  0.66503961  1
  Cs  Cs21  1  0.67190329  0.33875524  0.00052689  1
  Cs  Cs22  1  0.66649022  0.33285469  0.33379114  1
  Cs  Cs23  1  0.66935524  0.33286533  0.66642344  1
  Cs  Cs24  1  0.66561466  0.66315457  -0.00010158  1
  Cs  Cs25  1  0.66764222  0.66685670  0.33160815  1
  Cs  Cs26  1  0.66298856  0.66750227  0.66812057  1
  Sn  Sn27  1  0.49991525  0.16594006  0.49976895  1
  Sn  Sn28  1  0.83260284  0.83427689  0.16587046  1
  Sn  Sn29  1  0.83314194  0.49953084  0.49995428  1
  Sn  Sn30  1  0.50060302  0.83383549  0.16797488  1
  Sn  Sn31  1  0.83250798  0.16573823  0.16744299  1
  Sn  Sn32  1  0.16652258  0.16604472  0.50031702  1
  Sn  Sn33  1  0.49978227  0.16660485  0.83365521  1
  Sn  Sn34  1  0.50112946  0.16623099  0.16659074  1
  Sn  Sn35  1  0.83349392  0.16730809  0.49905644  1
  Sn  Sn36  1  0.83366819  0.83384603  0.83407793  1
  Sn  Sn37  1  0.16650147  0.49968043  0.83333668  1
  Sn  Sn38  1  0.49963859  0.83377647  0.49874563  1
  Sn  Sn39  1  0.16719801  0.16651081  0.83275799  1
  Sn  Sn40  1  0.16597025  0.83355388  0.83340783  1
  Pb  Pb41  1  0.50008505  0.83506262  0.83363879  1
  Pb  Pb42  1  0.83332950  0.16521821  0.83360690  1
  Pb  Pb43  1  0.17004089  0.83573735  0.50222840  1
  Pb  Pb44  1  0.83533771  0.50336606  0.83092998  1
  Pb  Pb45  1  0.83337673  0.50052451  0.16893090  1
  Pb  Pb46  1  0.50008210  0.49997157  0.16671958  1
  Pb  Pb47  1  0.16432995  0.49719269  0.50195635  1
  Pb  Pb48  1  0.16651390  0.50001492  0.16402736  1
  Pb  Pb49  1  0.16720777  0.83339704  0.16461298  1
  Pb  Pb50  1  0.49796562  0.49619150  0.83324260  1
  Pb  Pb51  1  0.83170266  0.83386482  0.49956617  1
  Pb  Pb52  1  0.16644600  0.16664262  0.16661238  1
  Pb  Pb53  1  0.50190834  0.49962453  0.49995776  1
  I  I54  1  0.16594722  0.00021911  0.16342961  1
  I  I55  1  0.16155549  0.00404513  0.50620608  1
  I  I56  1  0.16698095  0.00096386  0.82987399  1
  I  I57  1  0.16693211  0.33270088  0.16438849  1
  I  I58  1  0.17190160  0.32884758  0.50561490  1
  I  I59  1  0.17200062  0.33175593  0.82892018  1
  I  I60  1  0.16617844  0.66704923  0.16570460  1
  I  I61  1  0.16594507  0.66676899  0.50162027  1
  I  I62  1  0.16117612  0.66744607  0.83491500  1
  I  I63  1  0.50402850  0.00108016  0.16743442  1
  I  I64  1  0.50245140  0.00187436  0.50022194  1
  I  I65  1  0.49462684  0.00329751  0.83248280  1
  I  I66  1  0.50342040  0.32900659  0.16733064  1
  I  I67  1  0.49786792  0.32918969  0.49976836  1
  I  I68  1  0.49599826  0.32773499  0.83200238  1
  I  I69  1  0.50467635  0.67057422  0.16972771  1
  I  I70  1  0.50314832  0.66970942  0.49666975  1
  I  I71  1  0.49891499  0.66689393  0.83296651  1
  I  I72  1  0.82954864  0.00054773  0.16841267  1
  I  I73  1  0.83439276  0.00322436  0.49986298  1
  I  I74  1  0.83852625  -0.00258224  0.83224383  1
  I  I75  1  0.82926271  0.32997780  0.16829238  1
  I  I76  1  0.83162973  0.33035468  0.49613802  1
  I  I77  1  0.83392450  0.33314440  0.83534187  1
  I  I78  1  0.82871705  0.67034132  0.16294350  1
  I  I79  1  0.83123747  0.66518040  0.50169153  1
  I  I80  1  0.83701039  0.67128577  0.83733277  1
  I  I81  1  0.17021203  0.16634623  -0.00345573  1
  I  I82  1  0.16852434  0.16667667  0.33637274  1
  I  I83  1  0.16967598  0.16646269  0.66726631  1
  I  I84  1  0.16592280  0.49601013  -0.00448515  1
  I  I85  1  0.16617768  0.49895867  0.33390878  1
  I  I86  1  0.16609561  0.50182897  0.66991458  1
  I  I87  1  0.16727352  0.83727611  -0.00401460  1
  I  I88  1  0.16366291  0.83480723  0.33365401  1
  I  I89  1  0.16095877  0.83292617  0.67049110  1
  I  I90  1  0.49846241  0.16182902  0.00048790  1
  I  I91  1  0.50080934  0.16242741  0.33370326  1
  I  I92  1  0.49925959  0.16277886  0.66581528  1
  I  I93  1  0.49945831  0.50063517  -0.00013096  1
  I  I94  1  0.49954771  0.49652340  0.33344416  1
  I  I95  1  0.50104011  0.50209052  0.66660450  1
  I  I96  1  0.50048851  0.83873648  0.00256673  1
  I  I97  1  0.50728233  0.84303421  0.33280057  1
  I  I98  1  0.50087243  0.83856486  0.66469908  1
  I  I99  1  0.83060960  0.16356419  0.00262195  1
  I  I100  1  0.83088463  0.16514647  0.33367997  1
  I  I101  1  0.83125553  0.16807572  0.66414654  1
  I  I102  1  0.83523214  0.49744680  -0.00016779  1
  I  I103  1  0.83305002  0.49834622  0.33671926  1
  I  I104  1  0.83327762  0.49249573  0.66344898  1
  I  I105  1  0.83224426  0.83942086  0.00074665  1
  I  I106  1  0.82999581  0.83499755  0.33061792  1
  I  I107  1  0.83600470  0.83400283  0.66854676  1
  I  I108  1  -0.00338402  0.16284148  0.16957160  1
  I  I109  1  -0.00054119  0.17109315  0.50155982  1
  I  I110  1  0.00271522  0.16721213  0.82995852  1
  I  I111  1  -0.00043703  0.49866934  0.16704659  1
  I  I112  1  -0.00339315  0.49568672  0.50063617  1
  I  I113  1  0.00320372  0.49279522  0.83249209  1
  I  I114  1  -0.00318829  0.83792352  0.16416331  1
  I  I115  1  0.00013921  0.83391794  0.49880105  1
  I  I116  1  0.00006540  0.83622596  0.83762443  1
  I  I117  1  0.33665374  0.16222748  0.16758799  1
  I  I118  1  0.33411270  0.16185346  0.50186536  1
  I  I119  1  0.33292061  0.16453848  0.83027032  1
  I  I120  1  0.33346472  0.49948005  0.16738625  1
  I  I121  1  0.33299868  0.49993456  0.50116726  1
  I  I122  1  0.32976324  0.50617436  0.83199332  1
  I  I123  1  0.33698105  0.83973990  0.16809040  1
  I  I124  1  0.33790369  0.83958188  0.49589865  1
  I  I125  1  0.33091595  0.83290074  0.83276897  1
  I  I126  1  0.66649128  0.16242154  0.16952976  1
  I  I127  1  0.66632710  0.16667914  0.50043964  1
  I  I128  1  0.66425427  0.16265776  0.83028244  1
  I  I129  1  0.66684268  0.49943453  0.16518105  1
  I  I130  1  0.66969269  0.49341725  0.50078153  1
  I  I131  1  0.66696162  0.50029465  0.83289024  1
  I  I132  1  0.66688943  0.83847310  0.16445720  1
  I  I133  1  0.66386418  0.83932451  0.50221306  1
  I  I134  1  0.66883651  0.83648370  0.83348438  1
