# generated using pymatgen
data_Cs27Sn14Pb13I81
_symmetry_space_group_name_H-M   'P 1'
_cell_length_a   18.97693246
_cell_length_b   18.98027980
_cell_length_c   18.97056908
_cell_angle_alpha   89.99891855
_cell_angle_beta   89.99906201
_cell_angle_gamma   90.00021380
_symmetry_Int_Tables_number   1
_chemical_formula_structural   Cs27Sn14Pb13I81
_chemical_formula_sum   'Cs27 Sn14 Pb13 I81'
_cell_volume   6832.96161928
_cell_formula_units_Z   1
loop_
 _symmetry_equiv_pos_site_id
 _symmetry_equiv_pos_as_xyz
  1  'x, y, z'
loop_
 _atom_site_type_symbol
 _atom_site_label
 _atom_site_symmetry_multiplicity
 _atom_site_fract_x
 _atom_site_fract_y
 _atom_site_fract_z
 _atom_site_occupancy
  Cs  Cs0  1  -0.00221883  0.00285855  -0.00203196  1
  Cs  Cs1  1  0.00055677  -0.00169895  0.33643330  1
  Cs  Cs2  1  -0.00084185  -0.00066441  0.66439896  1
  Cs  Cs3  1  -0.00117492  0.33405050  0.00024905  1
  Cs  Cs4  1  0.00013909  0.33093634  0.33581223  1
  Cs  Cs5  1  0.00144135  0.33269558  0.66544455  1
  Cs  Cs6  1  -0.00709453  0.66381846  0.00852101  1
  Cs  Cs7  1  0.00081043  0.67504929  0.32807810  1
  Cs  Cs8  1  -0.00031732  0.66855952  0.66510533  1
  Cs  Cs9  1  0.33589195  0.00067819  -0.00302287  1
  Cs  Cs10  1  0.33285334  -0.00020074  0.33172876  1
  Cs  Cs11  1  0.33382752  -0.00021389  0.66814744  1
  Cs  Cs12  1  0.33156841  0.33182783  -0.00170767  1
  Cs  Cs13  1  0.33524119  0.33398456  0.33453626  1
  Cs  Cs14  1  0.33257202  0.33395087  0.66662766  1
  Cs  Cs15  1  0.33139070  0.66771725  -0.00163025  1
  Cs  Cs16  1  0.33266529  0.66548958  0.32417509  1
  Cs  Cs17  1  0.33497734  0.66607080  0.66857168  1
  Cs  Cs18  1  0.66509928  -0.00108635  0.00033877  1
  Cs  Cs19  1  0.66603640  0.00087407  0.33184665  1
  Cs  Cs20  1  0.66537752  -0.00058048  0.66757038  1
  Cs  Cs21  1  0.67149312  0.33373896  0.00149368  1
  Cs  Cs22  1  0.66393302  0.33345687  0.33610243  1
  Cs  Cs23  1  0.66709871  0.33382196  0.66493964  1
  Cs  Cs24  1  0.67748084  0.66676749  0.00651006  1
  Cs  Cs25  1  0.66582706  0.66421153  0.32569412  1
  Cs  Cs26  1  0.66391395  0.66777360  0.66674128  1
  Sn  Sn27  1  0.83337457  0.16721154  0.49941645  1
  Sn  Sn28  1  0.49962602  0.16568013  0.50105762  1
  Sn  Sn29  1  0.49946494  0.16721916  0.83230377  1
  Sn  Sn30  1  0.83417517  0.16684249  0.16784754  1
  Sn  Sn31  1  0.16709597  0.50030003  0.83249325  1
  Sn  Sn32  1  0.83463905  0.49979787  0.50051272  1
  Sn  Sn33  1  0.49947779  0.83367701  0.50026113  1
  Sn  Sn34  1  0.49973565  0.49992808  0.83325045  1
  Sn  Sn35  1  0.16602067  0.16686101  0.16678190  1
  Sn  Sn36  1  0.16669099  0.83302503  0.83302930  1
  Sn  Sn37  1  0.16729928  0.16668518  0.83314784  1
  Sn  Sn38  1  0.16691462  0.16706126  0.50005553  1
  Sn  Sn39  1  0.49937027  0.83298051  0.83257247  1
  Sn  Sn40  1  0.16583446  0.49990134  0.50055188  1
  Pb  Pb41  1  0.49932095  0.50022216  0.50125332  1
  Pb  Pb42  1  0.83404494  0.49991511  0.83084935  1
  Pb  Pb43  1  0.49974276  0.83349154  0.16599173  1
  Pb  Pb44  1  0.83328041  0.16666129  0.83260980  1
  Pb  Pb45  1  0.49969879  0.49965171  0.16237731  1
  Pb  Pb46  1  0.16899503  0.83285471  0.50165785  1
  Pb  Pb47  1  0.83374237  0.49699662  0.17047510  1
  Pb  Pb48  1  0.83326264  0.83320240  0.83303349  1
  Pb  Pb49  1  0.16685161  0.83652749  0.16312171  1
  Pb  Pb50  1  0.49980062  0.16687922  0.16655579  1
  Pb  Pb51  1  0.83043211  0.83320710  0.50012325  1
  Pb  Pb52  1  0.16678458  0.49752689  0.16676058  1
  Pb  Pb53  1  0.83349504  0.83695850  0.16701645  1
  I  I54  1  0.16315727  0.00487272  0.16900987  1
  I  I55  1  0.16386126  0.00342411  0.50054773  1
  I  I56  1  0.17239871  0.00143581  0.83403955  1
  I  I57  1  0.16320034  0.32918522  0.16167834  1
  I  I58  1  0.16765350  0.33158272  0.50434498  1
  I  I59  1  0.17258773  0.33245588  0.83271962  1
  I  I60  1  0.16717229  0.66670798  0.16749575  1
  I  I61  1  0.16318157  0.66359542  0.50620114  1
  I  I62  1  0.17491363  0.66587800  0.82620168  1
  I  I63  1  0.50095101  0.00045741  0.16237500  1
  I  I64  1  0.50038576  0.00212823  0.50772108  1
  I  I65  1  0.49390912  0.00084817  0.82953321  1
  I  I66  1  0.50039511  0.33280639  0.16799930  1
  I  I67  1  0.50059424  0.33021530  0.50354401  1
  I  I68  1  0.49372835  0.33233496  0.82900796  1
  I  I69  1  0.50055073  0.66669663  0.17022007  1
  I  I70  1  0.50052699  0.66888449  0.50652975  1
  I  I71  1  0.49200241  0.66695481  0.82697850  1
  I  I72  1  0.83721722  0.00486909  0.17327437  1
  I  I73  1  0.83626938  0.00368174  0.49644720  1
  I  I74  1  0.83388622  0.00034285  0.83254648  1
  I  I75  1  0.83750175  0.32931940  0.16647411  1
  I  I76  1  0.83173715  0.33152627  0.49696619  1
  I  I77  1  0.83115481  0.33307728  0.83601207  1
  I  I78  1  0.83196932  0.66642583  0.16666131  1
  I  I79  1  0.83729413  0.66356188  0.50392874  1
  I  I80  1  0.83230600  0.66646284  0.83068676  1
  I  I81  1  0.16707229  0.16624784  -0.00155700  1
  I  I82  1  0.16670238  0.17148494  0.33490970  1
  I  I83  1  0.16718756  0.16743918  0.66672021  1
  I  I84  1  0.17272330  0.49882644  -0.00368191  1
  I  I85  1  0.16329400  0.49449328  0.33698103  1
  I  I86  1  0.16685216  0.49375024  0.66715844  1
  I  I87  1  0.17497783  0.83305553  -0.00526577  1
  I  I88  1  0.16804966  0.83307600  0.33334476  1
  I  I89  1  0.16918565  0.83858559  0.66998848  1
  I  I90  1  0.49681117  0.16563997  -0.00365133  1
  I  I91  1  0.49799259  0.16250642  0.33685730  1
  I  I92  1  0.49764450  0.16589509  0.66672910  1
  I  I93  1  0.49227519  0.49798334  -0.00613068  1
  I  I94  1  0.50040026  0.49999880  0.33362077  1
  I  I95  1  0.49851505  0.49911381  0.66963419  1
  I  I96  1  0.49523957  0.83621609  -0.00441197  1
  I  I97  1  0.50119052  0.84002821  0.33642252  1
  I  I98  1  0.49695628  0.83578185  0.66783276  1
  I  I99  1  0.83643436  0.16539821  0.00213119  1
  I  I100  1  0.83617917  0.17037805  0.33493928  1
  I  I101  1  0.83503144  0.17000966  0.66310950  1
  I  I102  1  0.83169938  0.49977319  0.00028482  1
  I  I103  1  0.83807893  0.49744095  0.33837447  1
  I  I104  1  0.83447279  0.49052455  0.66316606  1
  I  I105  1  0.83093168  0.83448204  0.00006506  1
  I  I106  1  0.83161331  0.83103185  0.33379520  1
  I  I107  1  0.83460306  0.83772226  0.66634834  1
  I  I108  1  0.00083436  0.16702635  0.16877049  1
  I  I109  1  0.00089664  0.17101913  0.50010458  1
  I  I110  1  0.00363091  0.16687724  0.83180301  1
  I  I111  1  0.00014852  0.50058503  0.15947669  1
  I  I112  1  0.00130057  0.48933863  0.50727754  1
  I  I113  1  0.00387076  0.49772110  0.83157378  1
  I  I114  1  0.00033713  0.83173318  0.16500230  1
  I  I115  1  0.00031079  0.83607795  0.50195241  1
  I  I116  1  0.00359982  0.83578106  0.83289334  1
  I  I117  1  0.33026815  0.16671348  0.16800785  1
  I  I118  1  0.33275880  0.16730595  0.50069696  1
  I  I119  1  0.33267831  0.16647855  0.83134379  1
  I  I120  1  0.33306119  0.49677314  0.17355011  1
  I  I121  1  0.33030130  0.49494909  0.50305599  1
  I  I122  1  0.33244668  0.49871479  0.82708834  1
  I  I123  1  0.33318842  0.83618123  0.16952910  1
  I  I124  1  0.33686342  0.83906312  0.50378077  1
  I  I125  1  0.33368440  0.83476595  0.82938902  1
  I  I126  1  0.66928510  0.16698919  0.16995695  1
  I  I127  1  0.66633354  0.16730343  0.49987213  1
  I  I128  1  0.66323033  0.16574369  0.83071230  1
  I  I129  1  0.66692478  0.49752437  0.16684782  1
  I  I130  1  0.66833900  0.49524573  0.50184775  1
  I  I131  1  0.66369400  0.49898778  0.83118199  1
  I  I132  1  0.66656782  0.83549105  0.16403868  1
  I  I133  1  0.66244620  0.83840284  0.50838356  1
  I  I134  1  0.66265986  0.83543977  0.82922219  1
