# generated using pymatgen
data_Cs27Sn14Pb13I81
_symmetry_space_group_name_H-M   'P 1'
_cell_length_a   18.97232376
_cell_length_b   18.97725946
_cell_length_c   18.97890646
_cell_angle_alpha   89.99987469
_cell_angle_beta   90.00068717
_cell_angle_gamma   90.00101823
_symmetry_Int_Tables_number   1
_chemical_formula_structural   Cs27Sn14Pb13I81
_chemical_formula_sum   'Cs27 Sn14 Pb13 I81'
_cell_volume   6833.21692289
_cell_formula_units_Z   1
loop_
 _symmetry_equiv_pos_site_id
 _symmetry_equiv_pos_as_xyz
  1  'x, y, z'
loop_
 _atom_site_type_symbol
 _atom_site_label
 _atom_site_symmetry_multiplicity
 _atom_site_fract_x
 _atom_site_fract_y
 _atom_site_fract_z
 _atom_site_occupancy
  Cs  Cs0  1  -0.00010660  0.00039841  0.00103600  1
  Cs  Cs1  1  0.00292566  -0.00266055  0.32913764  1
  Cs  Cs2  1  -0.00133973  0.00186723  0.66881073  1
  Cs  Cs3  1  0.00480904  0.32874143  -0.00409272  1
  Cs  Cs4  1  0.00506394  0.33350815  0.34473133  1
  Cs  Cs5  1  0.00728553  0.32757814  0.65970693  1
  Cs  Cs6  1  -0.00318579  0.66954396  -0.00052869  1
  Cs  Cs7  1  -0.00079040  0.66775738  0.33568124  1
  Cs  Cs8  1  0.00006881  0.66659268  0.66577293  1
  Cs  Cs9  1  0.33462042  -0.00041374  0.00076094  1
  Cs  Cs10  1  0.33323510  0.00211202  0.33543544  1
  Cs  Cs11  1  0.33765972  -0.00211468  0.66275327  1
  Cs  Cs12  1  0.33088033  0.33663871  0.00066436  1
  Cs  Cs13  1  0.32517752  0.33555361  0.33301031  1
  Cs  Cs14  1  0.32730830  0.33373165  0.66621417  1
  Cs  Cs15  1  0.33386194  0.66461290  0.00038936  1
  Cs  Cs16  1  0.33333071  0.66445920  0.32865931  1
  Cs  Cs17  1  0.33505412  0.66826448  0.66848858  1
  Cs  Cs18  1  0.66705423  0.00024735  0.00003837  1
  Cs  Cs19  1  0.66488655  0.00022393  0.33234585  1
  Cs  Cs20  1  0.66460654  0.00134604  0.66599347  1
  Cs  Cs21  1  0.66504903  0.33342576  0.00125062  1
  Cs  Cs22  1  0.66791424  0.33426687  0.33204799  1
  Cs  Cs23  1  0.66847401  0.33309416  0.66532724  1
  Cs  Cs24  1  0.66686462  0.66610709  -0.00049631  1
  Cs  Cs25  1  0.66785038  0.66593874  0.33213346  1
  Cs  Cs26  1  0.66544293  0.66718790  0.66832071  1
  Sn  Sn27  1  0.83299143  0.49990686  0.83372957  1
  Sn  Sn28  1  0.16602792  0.83295702  0.50089627  1
  Sn  Sn29  1  0.50040338  0.16689157  0.83404547  1
  Sn  Sn30  1  0.83325134  0.83287917  0.83304972  1
  Sn  Sn31  1  0.83216567  0.83326882  0.16663335  1
  Sn  Sn32  1  0.50012842  0.83340304  0.83428143  1
  Sn  Sn33  1  0.50108215  0.49974310  0.83223680  1
  Sn  Sn34  1  0.50043526  0.50006592  0.50086777  1
  Sn  Sn35  1  0.50088521  0.83403165  0.16581310  1
  Sn  Sn36  1  0.83373895  0.83343089  0.50033021  1
  Sn  Sn37  1  0.50073083  0.16616108  0.16583263  1
  Sn  Sn38  1  0.16661697  0.83312952  0.83264495  1
  Sn  Sn39  1  0.83278566  0.16709376  0.16654421  1
  Sn  Sn40  1  0.83335676  0.49942672  0.16576513  1
  Pb  Pb41  1  0.16679662  0.16313325  0.50017135  1
  Pb  Pb42  1  0.83189728  0.50191444  0.50087998  1
  Pb  Pb43  1  0.50020850  0.83185754  0.49944650  1
  Pb  Pb44  1  0.17005420  0.16343692  0.83350827  1
  Pb  Pb45  1  0.16694957  0.16657786  0.16644099  1
  Pb  Pb46  1  0.16588828  0.50229748  0.83349692  1
  Pb  Pb47  1  0.16950860  0.50316684  0.50034281  1
  Pb  Pb48  1  0.16692152  0.83315680  0.16631621  1
  Pb  Pb49  1  0.83293078  0.16358769  0.49701091  1
  Pb  Pb50  1  0.50132745  0.49977788  0.16605690  1
  Pb  Pb51  1  0.16197104  0.50022168  0.16625883  1
  Pb  Pb52  1  0.83157978  0.16711138  0.83491022  1
  Pb  Pb53  1  0.50015052  0.16976268  0.49944250  1
  I  I54  1  0.16250187  -0.00045081  0.16732668  1
  I  I55  1  0.16471391  -0.00483648  0.50355729  1
  I  I56  1  0.16418028  -0.00492292  0.83011506  1
  I  I57  1  0.16999183  0.33331845  0.16670141  1
  I  I58  1  0.16734575  0.33357924  0.49871964  1
  I  I59  1  0.16625975  0.33321531  0.83392921  1
  I  I60  1  0.17020336  0.66715831  0.16729316  1
  I  I61  1  0.16165401  0.67074771  0.50409414  1
  I  I62  1  0.17122230  0.67072839  0.82998312  1
  I  I63  1  0.50774463  -0.00121702  0.15933882  1
  I  I64  1  0.49899399  -0.00025504  0.50188616  1
  I  I65  1  0.49965435  -0.00156163  0.83784841  1
  I  I66  1  0.50551840  0.33080625  0.16354227  1
  I  I67  1  0.50256526  0.33745693  0.50399702  1
  I  I68  1  0.50633547  0.33399712  0.83389666  1
  I  I69  1  0.50338491  0.66939779  0.16457082  1
  I  I70  1  0.50055380  0.66438040  0.50434281  1
  I  I71  1  0.50028672  0.66779058  0.83314490  1
  I  I72  1  0.82954310  -0.00155803  0.16711005  1
  I  I73  1  0.83532318  -0.00505753  0.50222686  1
  I  I74  1  0.83307095  -0.00353370  0.83368384  1
  I  I75  1  0.82619270  0.33352948  0.16065834  1
  I  I76  1  0.83169414  0.33348280  0.49930205  1
  I  I77  1  0.82644680  0.33645209  0.83948449  1
  I  I78  1  0.82902791  0.66818382  0.16606743  1
  I  I79  1  0.83588716  0.67029931  0.49524531  1
  I  I80  1  0.82889637  0.66829011  0.83787394  1
  I  I81  1  0.16436959  0.16331741  -0.00016287  1
  I  I82  1  0.16901235  0.16439014  0.33324423  1
  I  I83  1  0.16759506  0.16830740  0.66702566  1
  I  I84  1  0.17338202  0.50299725  -0.00029036  1
  I  I85  1  0.16928545  0.50279465  0.33348107  1
  I  I86  1  0.16294005  0.49941998  0.66687442  1
  I  I87  1  0.16496388  0.83329461  -0.00308273  1
  I  I88  1  0.16294491  0.83309120  0.33572504  1
  I  I89  1  0.16429982  0.83254283  0.66764078  1
  I  I90  1  0.50441606  0.16575183  0.00005906  1
  I  I91  1  0.50441630  0.16077980  0.32955374  1
  I  I92  1  0.49974043  0.16168379  0.66982620  1
  I  I93  1  0.50201430  0.50143820  -0.00312818  1
  I  I94  1  0.50214758  0.50268120  0.33459425  1
  I  I95  1  0.50579442  0.50263751  0.66918081  1
  I  I96  1  0.50223255  0.83185212  -0.00102392  1
  I  I97  1  0.50307226  0.83567078  0.33033206  1
  I  I98  1  0.50198873  0.83510714  0.66976974  1
  I  I99  1  0.83062539  0.16112935  0.00316963  1
  I  I100  1  0.82524050  0.16727914  0.32845457  1
  I  I101  1  0.83162698  0.16602809  0.66679785  1
  I  I102  1  0.82600698  0.50731224  -0.00059121  1
  I  I103  1  0.83010494  0.50227037  0.33079727  1
  I  I104  1  0.82923785  0.50748848  0.67016812  1
  I  I105  1  0.83289553  0.83246930  -0.00010257  1
  I  I106  1  0.83328207  0.83303567  0.33199282  1
  I  I107  1  0.83315192  0.82776980  0.66819043  1
  I  I108  1  -0.00356024  0.16354202  0.16633885  1
  I  I109  1  -0.00028339  0.17046658  0.49863939  1
  I  I110  1  -0.00008444  0.16636869  0.83535619  1
  I  I111  1  -0.00623547  0.50390134  0.16040769  1
  I  I112  1  -0.00005914  0.49952458  0.49847910  1
  I  I113  1  -0.00394923  0.50678028  0.83965163  1
  I  I114  1  -0.00365339  0.83358049  0.16468182  1
  I  I115  1  -0.00114247  0.83222588  0.50196538  1
  I  I116  1  -0.00166646  0.82816633  0.83351028  1
  I  I117  1  0.33736276  0.15990816  0.16320425  1
  I  I118  1  0.33374490  0.16410011  0.49767016  1
  I  I119  1  0.33851108  0.16808044  0.84027618  1
  I  I120  1  0.33357222  0.50064331  0.16764125  1
  I  I121  1  0.33741856  0.50205950  0.50561488  1
  I  I122  1  0.33674770  0.50121049  0.82959962  1
  I  I123  1  0.33689904  0.83780255  0.16437514  1
  I  I124  1  0.33148462  0.83146506  0.50403650  1
  I  I125  1  0.33492526  0.83355125  0.83273371  1
  I  I126  1  0.66634160  0.16389943  0.16275770  1
  I  I127  1  0.66646521  0.16257248  0.50169205  1
  I  I128  1  0.66325418  0.16126661  0.83547183  1
  I  I129  1  0.66951184  0.50216765  0.16572739  1
  I  I130  1  0.66414441  0.50428841  0.50193801  1
  I  I131  1  0.66617931  0.50655227  0.83364288  1
  I  I132  1  0.66747043  0.83382508  0.16443268  1
  I  I133  1  0.66929151  0.83140146  0.50114124  1
  I  I134  1  0.66654357  0.83228796  0.83403291  1
