# generated using pymatgen
data_Cs27Sn13Pb14I81
_symmetry_space_group_name_H-M   'P 1'
_cell_length_a   18.97258647
_cell_length_b   18.97812285
_cell_length_c   18.97874290
_cell_angle_alpha   89.99931059
_cell_angle_beta   89.99967243
_cell_angle_gamma   90.00120765
_symmetry_Int_Tables_number   1
_chemical_formula_structural   Cs27Sn13Pb14I81
_chemical_formula_sum   'Cs27 Sn13 Pb14 I81'
_cell_volume   6833.56354009
_cell_formula_units_Z   1
loop_
 _symmetry_equiv_pos_site_id
 _symmetry_equiv_pos_as_xyz
  1  'x, y, z'
loop_
 _atom_site_type_symbol
 _atom_site_label
 _atom_site_symmetry_multiplicity
 _atom_site_fract_x
 _atom_site_fract_y
 _atom_site_fract_z
 _atom_site_occupancy
  Cs  Cs0  1  -0.00152816  0.00273946  -0.00060534  1
  Cs  Cs1  1  0.00718481  0.00025813  0.33273484  1
  Cs  Cs2  1  -0.00250349  -0.00211373  0.66662114  1
  Cs  Cs3  1  -0.00250006  0.33255569  0.00346049  1
  Cs  Cs4  1  0.00008982  0.32941797  0.32749357  1
  Cs  Cs5  1  0.00331845  0.33444195  0.66765171  1
  Cs  Cs6  1  0.00277413  0.66479641  -0.00325809  1
  Cs  Cs7  1  -0.00546156  0.66908532  0.33355822  1
  Cs  Cs8  1  0.00596450  0.66606434  0.66960182  1
  Cs  Cs9  1  0.33543720  -0.00533515  0.00305033  1
  Cs  Cs10  1  0.32710832  -0.00057623  0.33044241  1
  Cs  Cs11  1  0.33313071  0.00225959  0.66645760  1
  Cs  Cs12  1  0.33493960  0.33401118  -0.00226877  1
  Cs  Cs13  1  0.33424785  0.33344398  0.33446489  1
  Cs  Cs14  1  0.33337331  0.33491556  0.66816441  1
  Cs  Cs15  1  0.33209617  0.67131639  0.00013744  1
  Cs  Cs16  1  0.33136959  0.66662497  0.33308952  1
  Cs  Cs17  1  0.32306532  0.66223739  0.66799108  1
  Cs  Cs18  1  0.66567145  -0.00120584  -0.00496145  1
  Cs  Cs19  1  0.66610348  -0.00279565  0.33699022  1
  Cs  Cs20  1  0.66826259  0.00017399  0.66583600  1
  Cs  Cs21  1  0.66707206  0.33359329  0.00021553  1
  Cs  Cs22  1  0.66554135  0.33503969  0.33277774  1
  Cs  Cs23  1  0.66487565  0.33270951  0.66641581  1
  Cs  Cs24  1  0.66518221  0.66758261  0.00071098  1
  Cs  Cs25  1  0.66849682  0.66724625  0.33504641  1
  Cs  Cs26  1  0.66699997  0.66681535  0.66398116  1
  Sn  Sn27  1  0.83250880  0.83354531  0.49916576  1
  Sn  Sn28  1  0.83279958  0.16686137  0.49978349  1
  Sn  Sn29  1  0.83221909  0.49987099  0.83239005  1
  Sn  Sn30  1  0.50064992  0.16576352  0.49970908  1
  Sn  Sn31  1  0.49916063  0.49961933  0.16599795  1
  Sn  Sn32  1  0.50088026  0.49971352  0.83392280  1
  Sn  Sn33  1  0.16759289  0.16659622  0.83341691  1
  Sn  Sn34  1  0.50051256  0.16699327  0.16675424  1
  Sn  Sn35  1  0.49999278  0.83386930  0.50040997  1
  Sn  Sn36  1  0.49918870  0.16727408  0.83345231  1
  Sn  Sn37  1  0.83308407  0.49961134  0.50091588  1
  Sn  Sn38  1  0.83289370  0.83372759  0.16686237  1
  Sn  Sn39  1  0.16781897  0.49987801  0.16686859  1
  Pb  Pb40  1  0.16705066  0.49826665  0.83537221  1
  Pb  Pb41  1  0.83246660  0.50129226  0.16655818  1
  Pb  Pb42  1  0.16370012  0.83091724  0.16665560  1
  Pb  Pb43  1  0.16718364  0.16684498  0.50183870  1
  Pb  Pb44  1  0.50114538  0.50000951  0.50009913  1
  Pb  Pb45  1  0.83263493  0.16876471  0.83125915  1
  Pb  Pb46  1  0.16308604  0.49961740  0.49710443  1
  Pb  Pb47  1  0.83311796  0.83056205  0.83264583  1
  Pb  Pb48  1  0.83070248  0.16406630  0.16910066  1
  Pb  Pb49  1  0.16662304  0.83337313  0.50003952  1
  Pb  Pb50  1  0.16684526  0.83682321  0.83348544  1
  Pb  Pb51  1  0.16943799  0.16840392  0.16426506  1
  Pb  Pb52  1  0.50155501  0.83307567  0.16882501  1
  Pb  Pb53  1  0.49991125  0.83288815  0.83022187  1
  I  I54  1  0.16678923  0.00022915  0.16572853  1
  I  I55  1  0.16255647  0.00021643  0.50067757  1
  I  I56  1  0.17295828  0.00483138  0.83283418  1
  I  I57  1  0.16535637  0.33626720  0.16662344  1
  I  I58  1  0.16643263  0.33329475  0.50027845  1
  I  I59  1  0.16920620  0.33069895  0.83285966  1
  I  I60  1  0.17415644  0.66299350  0.16509467  1
  I  I61  1  0.16820105  0.66639492  0.50113346  1
  I  I62  1  0.16619521  0.66621825  0.83374606  1
  I  I63  1  0.50280897  0.00287209  0.16391177  1
  I  I64  1  0.50868522  0.00144743  0.50086762  1
  I  I65  1  0.49633402  0.00344826  0.83600137  1
  I  I66  1  0.49782946  0.33347722  0.16829414  1
  I  I67  1  0.50465962  0.33047816  0.49996371  1
  I  I68  1  0.50033293  0.33297054  0.83170931  1
  I  I69  1  0.49838393  0.66360991  0.16334845  1
  I  I70  1  0.50648611  0.66865965  0.49863035  1
  I  I71  1  0.50508803  0.66310828  0.83737597  1
  I  I72  1  0.83154894  -0.00343193  0.17187856  1
  I  I73  1  0.82809540  0.00007801  0.49637219  1
  I  I74  1  0.83383254  0.00022476  0.83282065  1
  I  I75  1  0.83527742  0.33322877  0.16822389  1
  I  I76  1  0.82842027  0.33320331  0.50464036  1
  I  I77  1  0.83144521  0.33670005  0.82901011  1
  I  I78  1  0.83129013  0.66883454  0.17348191  1
  I  I79  1  0.82835905  0.66689596  0.49859540  1
  I  I80  1  0.82797699  0.66240258  0.82897523  1
  I  I81  1  0.17045313  0.16863339  -0.00345977  1
  I  I82  1  0.16651854  0.16744156  0.33298498  1
  I  I83  1  0.17274120  0.16926387  0.66960368  1
  I  I84  1  0.16500715  0.49856588  0.00284722  1
  I  I85  1  0.17346823  0.49915582  0.32956101  1
  I  I86  1  0.16818287  0.49986990  0.66695075  1
  I  I87  1  0.16480433  0.83240047  0.00025218  1
  I  I88  1  0.16786149  0.83379018  0.33327399  1
  I  I89  1  0.16439792  0.83092364  0.66665159  1
  I  I90  1  0.49576105  0.17223369  -0.00035230  1
  I  I91  1  0.50593149  0.16825461  0.33373973  1
  I  I92  1  0.50031034  0.16703872  0.66660110  1
  I  I93  1  0.50297429  0.49212204  -0.00026145  1
  I  I94  1  0.49872933  0.49673521  0.33092422  1
  I  I95  1  0.50361018  0.49658149  0.66922882  1
  I  I96  1  0.50216384  0.83575640  0.00007275  1
  I  I97  1  0.50408711  0.83647982  0.33676473  1
  I  I98  1  0.50881941  0.83774348  0.66235733  1
  I  I99  1  0.83340294  0.16660614  -0.00000503  1
  I  I100  1  0.82801023  0.17268919  0.33736768  1
  I  I101  1  0.82784989  0.16224584  0.66307392  1
  I  I102  1  0.83246032  0.50144249  -0.00227017  1
  I  I103  1  0.83281615  0.49956116  0.33600441  1
  I  I104  1  0.82694152  0.50122804  0.66636734  1
  I  I105  1  0.83338405  0.83046714  0.00234688  1
  I  I106  1  0.82882377  0.82938523  0.33517454  1
  I  I107  1  0.82895893  0.83572765  0.66286537  1
  I  I108  1  -0.00013807  0.16791906  0.16635041  1
  I  I109  1  -0.00322802  0.16599534  0.50219181  1
  I  I110  1  0.00159453  0.16862935  0.83092187  1
  I  I111  1  0.00131870  0.50270702  0.16708435  1
  I  I112  1  -0.00536912  0.50117991  0.50548767  1
  I  I113  1  -0.00242807  0.49932511  0.83060738  1
  I  I114  1  -0.00417929  0.83143478  0.17474449  1
  I  I115  1  -0.00399848  0.83392054  0.49612952  1
  I  I116  1  -0.00029481  0.83250135  0.83145606  1
  I  I117  1  0.33780156  0.16752939  0.17248102  1
  I  I118  1  0.33736786  0.16219551  0.49834992  1
  I  I119  1  0.33598347  0.17340493  0.83028362  1
  I  I120  1  0.33546267  0.49616597  0.16140703  1
  I  I121  1  0.33341654  0.50047599  0.50255697  1
  I  I122  1  0.33660944  0.49738895  0.83457515  1
  I  I123  1  0.33356065  0.83471160  0.16849623  1
  I  I124  1  0.33670394  0.83908838  0.50005884  1
  I  I125  1  0.33373488  0.82787897  0.83145088  1
  I  I126  1  0.66258760  0.17449713  0.16187651  1
  I  I127  1  0.66581582  0.16593004  0.50233462  1
  I  I128  1  0.66320287  0.16906701  0.83439112  1
  I  I129  1  0.66370656  0.49700508  0.16566419  1
  I  I130  1  0.66945994  0.50020167  0.49879488  1
  I  I131  1  0.66560304  0.49421923  0.83549612  1
  I  I132  1  0.66927410  0.82991757  0.17049994  1
  I  I133  1  0.66763039  0.83424368  0.49653383  1
  I  I134  1  0.66655102  0.83723986  0.83511322  1
