# generated using pymatgen
data_Cs27Sn14Pb13I81
_symmetry_space_group_name_H-M   'P 1'
_cell_length_a   18.97059318
_cell_length_b   18.97483653
_cell_length_c   18.98279914
_cell_angle_alpha   90.00032676
_cell_angle_beta   90.00233880
_cell_angle_gamma   90.00300854
_symmetry_Int_Tables_number   1
_chemical_formula_structural   Cs27Sn14Pb13I81
_chemical_formula_sum   'Cs27 Sn14 Pb13 I81'
_cell_volume   6833.12248273
_cell_formula_units_Z   1
loop_
 _symmetry_equiv_pos_site_id
 _symmetry_equiv_pos_as_xyz
  1  'x, y, z'
loop_
 _atom_site_type_symbol
 _atom_site_label
 _atom_site_symmetry_multiplicity
 _atom_site_fract_x
 _atom_site_fract_y
 _atom_site_fract_z
 _atom_site_occupancy
  Cs  Cs0  1  0.00070550  0.00033274  -0.00005626  1
  Cs  Cs1  1  -0.00144378  0.00456024  0.33257824  1
  Cs  Cs2  1  0.00053453  -0.00190285  0.66887309  1
  Cs  Cs3  1  0.00252303  0.33196101  -0.00119942  1
  Cs  Cs4  1  0.00048853  0.32997155  0.33486821  1
  Cs  Cs5  1  0.00084266  0.33241322  0.66795860  1
  Cs  Cs6  1  0.00165913  0.66815893  -0.00235881  1
  Cs  Cs7  1  0.00118739  0.66597218  0.33616687  1
  Cs  Cs8  1  -0.00265731  0.66791499  0.66874604  1
  Cs  Cs9  1  0.33182768  0.00184035  -0.00044717  1
  Cs  Cs10  1  0.33258322  -0.00250828  0.33945708  1
  Cs  Cs11  1  0.34056103  -0.00004688  0.66056727  1
  Cs  Cs12  1  0.33186853  0.33281183  0.00212065  1
  Cs  Cs13  1  0.33131657  0.33397246  0.32913642  1
  Cs  Cs14  1  0.33423896  0.33228348  0.66446390  1
  Cs  Cs15  1  0.33108789  0.66698826  0.00058005  1
  Cs  Cs16  1  0.33176141  0.66879351  0.33633328  1
  Cs  Cs17  1  0.33113023  0.66823222  0.66192265  1
  Cs  Cs18  1  0.66489223  -0.00377888  0.00192924  1
  Cs  Cs19  1  0.66875316  0.00033128  0.33007579  1
  Cs  Cs20  1  0.65910933  0.00197314  0.66757205  1
  Cs  Cs21  1  0.66548713  0.33476559  -0.00015373  1
  Cs  Cs22  1  0.66793346  0.33452437  0.33292923  1
  Cs  Cs23  1  0.66649523  0.33505837  0.66690996  1
  Cs  Cs24  1  0.66658107  0.66629932  0.00066432  1
  Cs  Cs25  1  0.66653829  0.66514638  0.33195968  1
  Cs  Cs26  1  0.67046085  0.66371897  0.66745341  1
  Sn  Sn27  1  0.83347290  0.16645326  0.83357161  1
  Sn  Sn28  1  0.16639547  0.83463349  0.83403459  1
  Sn  Sn29  1  0.50062291  0.49946292  0.16653435  1
  Sn  Sn30  1  0.83277049  0.49982752  0.83368239  1
  Sn  Sn31  1  0.83319106  0.49989205  0.16634056  1
  Sn  Sn32  1  0.16633661  0.16541391  0.83368767  1
  Sn  Sn33  1  0.16761646  0.16544345  0.16585538  1
  Sn  Sn34  1  0.83322925  0.83309924  0.50071154  1
  Sn  Sn35  1  0.16636828  0.83424863  0.16596553  1
  Sn  Sn36  1  0.50073147  0.49987239  0.49976222  1
  Sn  Sn37  1  0.50026555  0.50024559  0.83354471  1
  Sn  Sn38  1  0.83358152  0.83366460  0.83269284  1
  Sn  Sn39  1  0.83286460  0.50058990  0.50012888  1
  Sn  Sn40  1  0.49949783  0.16698263  0.16645582  1
  Pb  Pb41  1  0.16669353  0.49991838  0.16666095  1
  Pb  Pb42  1  0.16669071  0.49998988  0.83317331  1
  Pb  Pb43  1  0.16662245  0.16647161  0.50053582  1
  Pb  Pb44  1  0.49731155  0.83304770  0.16656190  1
  Pb  Pb45  1  0.50356322  0.83081128  0.49994242  1
  Pb  Pb46  1  0.16603826  0.49989398  0.50013965  1
  Pb  Pb47  1  0.50032888  0.16940825  0.49658129  1
  Pb  Pb48  1  0.49980139  0.83073160  0.83342224  1
  Pb  Pb49  1  0.83546237  0.83100454  0.16643548  1
  Pb  Pb50  1  0.83324649  0.16672646  0.50307341  1
  Pb  Pb51  1  0.49965975  0.16877810  0.83519381  1
  Pb  Pb52  1  0.16398933  0.83350848  0.50064118  1
  Pb  Pb53  1  0.83344257  0.16888115  0.16425457  1
  I  I54  1  0.17108479  0.00079444  0.16164462  1
  I  I55  1  0.16425854  -0.00017357  0.49855559  1
  I  I56  1  0.15615257  -0.00006003  0.83917449  1
  I  I57  1  0.16778199  0.33048162  0.16155252  1
  I  I58  1  0.16398617  0.33325255  0.49988992  1
  I  I59  1  0.16282423  0.33043332  0.83885354  1
  I  I60  1  0.16550426  0.66913633  0.16177065  1
  I  I61  1  0.16960988  0.66681956  0.49877360  1
  I  I62  1  0.16312795  0.66958905  0.83788949  1
  I  I63  1  0.49847480  0.00291171  0.16428670  1
  I  I64  1  0.50011905  0.00002659  0.49897777  1
  I  I65  1  0.50365745  0.00012576  0.83614817  1
  I  I66  1  0.49725254  0.33476087  0.16640169  1
  I  I67  1  0.50806070  0.33776884  0.50342688  1
  I  I68  1  0.50473736  0.33706452  0.83169050  1
  I  I69  1  0.50332673  0.66289188  0.16683298  1
  I  I70  1  0.50068304  0.66229872  0.49713127  1
  I  I71  1  0.50455732  0.66222629  0.83644544  1
  I  I72  1  0.83029715  0.00008215  0.16772007  1
  I  I73  1  0.83686937  -0.00305287  0.50375517  1
  I  I74  1  0.83942130  -0.00056470  0.82921567  1
  I  I75  1  0.83390843  0.33717396  0.16716184  1
  I  I76  1  0.82913216  0.33696743  0.50031435  1
  I  I77  1  0.83393293  0.33431833  0.83382017  1
  I  I78  1  0.82864024  0.66284279  0.16257021  1
  I  I79  1  0.83047122  0.66526746  0.50492745  1
  I  I80  1  0.83389485  0.66611611  0.83244867  1
  I  I81  1  0.16625424  0.16317411  -0.00017708  1
  I  I82  1  0.17069199  0.16409066  0.32969792  1
  I  I83  1  0.16100713  0.16425769  0.67067524  1
  I  I84  1  0.16634016  0.50082991  -0.00008587  1
  I  I85  1  0.16554305  0.50009573  0.33307290  1
  I  I86  1  0.16802410  0.49965182  0.66697984  1
  I  I87  1  0.16054667  0.83598898  -0.00105561  1
  I  I88  1  0.16664561  0.83611963  0.33062526  1
  I  I89  1  0.16398521  0.83590423  0.67027561  1
  I  I90  1  0.49860676  0.17487468  0.00289574  1
  I  I91  1  0.49396640  0.17259058  0.32858193  1
  I  I92  1  0.49901584  0.16836916  0.66679027  1
  I  I93  1  0.50678134  0.49653485  0.00037662  1
  I  I94  1  0.50677684  0.49610560  0.33277991  1
  I  I95  1  0.50665946  0.50105773  0.66687801  1
  I  I96  1  0.50547096  0.82864114  -0.00000523  1
  I  I97  1  0.49908444  0.83103404  0.33320534  1
  I  I98  1  0.49386036  0.83285361  0.66676569  1
  I  I99  1  0.83507690  0.16709584  -0.00374370  1
  I  I100  1  0.83411111  0.16748422  0.33302699  1
  I  I101  1  0.83987179  0.17222391  0.67131533  1
  I  I102  1  0.82741281  0.50011677  -0.00091161  1
  I  I103  1  0.82780811  0.50483037  0.33349671  1
  I  I104  1  0.82790009  0.50086519  0.66750157  1
  I  I105  1  0.83551061  0.83148942  -0.00321980  1
  I  I106  1  0.83430244  0.82650153  0.33553638  1
  I  I107  1  0.84005301  0.82646783  0.66833740  1
  I  I108  1  0.00275290  0.16477339  0.16447451  1
  I  I109  1  -0.00031534  0.17109246  0.49407924  1
  I  I110  1  -0.00011900  0.16918247  0.83884728  1
  I  I111  1  -0.00296106  0.50051697  0.16580978  1
  I  I112  1  -0.00425095  0.50389068  0.50031856  1
  I  I113  1  -0.00350396  0.50019244  0.83340606  1
  I  I114  1  0.00322947  0.83778834  0.16469105  1
  I  I115  1  -0.00366680  0.82388703  0.50189507  1
  I  I116  1  -0.00097063  0.83063682  0.83355658  1
  I  I117  1  0.33266443  0.17089828  0.16014203  1
  I  I118  1  0.33358375  0.16931627  0.50519750  1
  I  I119  1  0.33038114  0.16431090  0.83634021  1
  I  I120  1  0.33644085  0.49876862  0.16627906  1
  I  I121  1  0.33679365  0.49852177  0.49974388  1
  I  I122  1  0.33632491  0.49955718  0.83463294  1
  I  I123  1  0.32929906  0.83121129  0.15944355  1
  I  I124  1  0.33336189  0.83114521  0.50010655  1
  I  I125  1  0.32999913  0.83589026  0.83891448  1
  I  I126  1  0.66440461  0.17126335  0.16568667  1
  I  I127  1  0.66684006  0.16393908  0.50020189  1
  I  I128  1  0.66944272  0.16557612  0.83391270  1
  I  I129  1  0.66645610  0.49501565  0.16642920  1
  I  I130  1  0.66764219  0.50402209  0.50019069  1
  I  I131  1  0.66824095  0.49967889  0.83340169  1
  I  I132  1  0.66693000  0.83550523  0.16664782  1
  I  I133  1  0.67142892  0.83083207  0.50696794  1
  I  I134  1  0.67023574  0.83505033  0.82905313  1
