# generated using pymatgen
data_Cs27Sn13Pb14I81
_symmetry_space_group_name_H-M   'P 1'
_cell_length_a   18.97576415
_cell_length_b   18.98013746
_cell_length_c   18.97392865
_cell_angle_alpha   90.00068492
_cell_angle_beta   89.99799927
_cell_angle_gamma   90.00230454
_symmetry_Int_Tables_number   1
_chemical_formula_structural   Cs27Sn13Pb14I81
_chemical_formula_sum   'Cs27 Sn13 Pb14 I81'
_cell_volume   6833.69969323
_cell_formula_units_Z   1
loop_
 _symmetry_equiv_pos_site_id
 _symmetry_equiv_pos_as_xyz
  1  'x, y, z'
loop_
 _atom_site_type_symbol
 _atom_site_label
 _atom_site_symmetry_multiplicity
 _atom_site_fract_x
 _atom_site_fract_y
 _atom_site_fract_z
 _atom_site_occupancy
  Cs  Cs0  1  0.00117799  0.00167739  0.00335791  1
  Cs  Cs1  1  -0.00154744  -0.00073367  0.33258508  1
  Cs  Cs2  1  0.00040440  0.00187924  0.66766258  1
  Cs  Cs3  1  -0.00161175  0.33273184  -0.00050621  1
  Cs  Cs4  1  -0.00086797  0.33338326  0.33372111  1
  Cs  Cs5  1  0.00216921  0.32882269  0.66807047  1
  Cs  Cs6  1  0.00280897  0.66538353  0.00117003  1
  Cs  Cs7  1  -0.00100185  0.66704461  0.33205265  1
  Cs  Cs8  1  -0.00219111  0.66926220  0.66973522  1
  Cs  Cs9  1  0.33456014  -0.00005198  -0.00023224  1
  Cs  Cs10  1  0.33473097  -0.00084104  0.33356955  1
  Cs  Cs11  1  0.33130020  0.00172759  0.66618402  1
  Cs  Cs12  1  0.34266813  0.33242407  0.00245121  1
  Cs  Cs13  1  0.33528636  0.34215915  0.33539904  1
  Cs  Cs14  1  0.32989321  0.33283147  0.66213444  1
  Cs  Cs15  1  0.33041660  0.66675495  0.00026976  1
  Cs  Cs16  1  0.33343684  0.66394145  0.33367350  1
  Cs  Cs17  1  0.33480544  0.66551066  0.66615958  1
  Cs  Cs18  1  0.66196633  0.00185378  -0.00311324  1
  Cs  Cs19  1  0.66690227  0.00082598  0.33367509  1
  Cs  Cs20  1  0.66771716  -0.00306775  0.66762649  1
  Cs  Cs21  1  0.66080649  0.33280989  -0.00552449  1
  Cs  Cs22  1  0.66710600  0.33117759  0.33320513  1
  Cs  Cs23  1  0.66694674  0.33703597  0.67015359  1
  Cs  Cs24  1  0.66638544  0.66607029  -0.00883812  1
  Cs  Cs25  1  0.66897248  0.66743052  0.33469260  1
  Cs  Cs26  1  0.66712522  0.66635678  0.67418812  1
  Sn  Sn27  1  0.83241823  0.16743381  0.49929175  1
  Sn  Sn28  1  0.16654138  0.83280003  0.83339554  1
  Sn  Sn29  1  0.83277050  0.83335366  0.16669172  1
  Sn  Sn30  1  0.83320468  0.49974037  0.16711087  1
  Sn  Sn31  1  0.16663310  0.16647841  0.16728478  1
  Sn  Sn32  1  0.16720928  0.83340921  0.49970331  1
  Sn  Sn33  1  0.16692615  0.83398186  0.16711641  1
  Sn  Sn34  1  0.49948116  0.83408851  0.49904819  1
  Sn  Sn35  1  0.16668217  0.50006038  0.83358636  1
  Sn  Sn36  1  0.83352231  0.49926049  0.49952769  1
  Sn  Sn37  1  0.50087001  0.16597051  0.49947255  1
  Sn  Sn38  1  0.83371657  0.16684962  0.16724787  1
  Sn  Sn39  1  0.50002462  0.83306918  0.16751298  1
  Pb  Pb40  1  0.83329945  0.16656927  0.83344014  1
  Pb  Pb41  1  0.83537132  0.49985922  0.83340597  1
  Pb  Pb42  1  0.83304398  0.83357065  0.49866690  1
  Pb  Pb43  1  0.49977363  0.16634080  0.82926969  1
  Pb  Pb44  1  0.16645780  0.16481888  0.49736685  1
  Pb  Pb45  1  0.50019283  0.16486530  0.16865646  1
  Pb  Pb46  1  0.50340633  0.50322666  0.16679437  1
  Pb  Pb47  1  0.16495527  0.49966909  0.16530712  1
  Pb  Pb48  1  0.16679447  0.16664719  0.83650136  1
  Pb  Pb49  1  0.50271951  0.50063522  0.49991329  1
  Pb  Pb50  1  0.83600126  0.83372926  0.83703230  1
  Pb  Pb51  1  0.49652519  0.50003822  0.83310308  1
  Pb  Pb52  1  0.49724552  0.83345218  0.83291023  1
  Pb  Pb53  1  0.16387007  0.50278292  0.50186198  1
  I  I54  1  0.16143781  -0.00194626  0.16513611  1
  I  I55  1  0.16540473  -0.00358283  0.50347316  1
  I  I56  1  0.16678217  -0.00332192  0.83242799  1
  I  I57  1  0.16071926  0.33058139  0.16495138  1
  I  I58  1  0.16934758  0.33325602  0.50091085  1
  I  I59  1  0.16416246  0.33586879  0.83403313  1
  I  I60  1  0.16536100  0.67013535  0.16757942  1
  I  I61  1  0.17051314  0.67105944  0.49431698  1
  I  I62  1  0.16548900  0.66847324  0.83610138  1
  I  I63  1  0.50283979  -0.00351544  0.16888799  1
  I  I64  1  0.50209756  -0.00103074  0.49544902  1
  I  I65  1  0.49766902  -0.00040531  0.83625008  1
  I  I66  1  0.49817867  0.33320796  0.16770465  1
  I  I67  1  0.50192465  0.33052295  0.49983023  1
  I  I68  1  0.49805065  0.33321945  0.83399241  1
  I  I69  1  0.49690257  0.67167287  0.17321950  1
  I  I70  1  0.49619624  0.67030497  0.49594845  1
  I  I71  1  0.50263815  0.66707342  0.83125527  1
  I  I72  1  0.83611100  -0.00003751  0.17108671  1
  I  I73  1  0.83288816  0.00253050  0.49522839  1
  I  I74  1  0.83629355  -0.00007295  0.83153000  1
  I  I75  1  0.84056574  0.33249905  0.17156500  1
  I  I76  1  0.82903200  0.33237438  0.49161480  1
  I  I77  1  0.83736140  0.33336166  0.83707377  1
  I  I78  1  0.83476008  0.66724553  0.17154376  1
  I  I79  1  0.83516523  0.66492878  0.49476399  1
  I  I80  1  0.83243752  0.66685797  0.83211537  1
  I  I81  1  0.15901114  0.15987514  0.00453228  1
  I  I82  1  0.16351722  0.15978627  0.32952559  1
  I  I83  1  0.16627074  0.16509077  0.66632121  1
  I  I84  1  0.16254279  0.50767990  -0.00231303  1
  I  I85  1  0.16713502  0.50119704  0.33334239  1
  I  I86  1  0.16430400  0.50583478  0.66963744  1
  I  I87  1  0.16528534  0.83272347  0.00149033  1
  I  I88  1  0.16664729  0.83785758  0.33225875  1
  I  I89  1  0.17119502  0.82888359  0.66608796  1
  I  I90  1  0.50004307  0.16556038  0.00038390  1
  I  I91  1  0.50229263  0.16268959  0.33644729  1
  I  I92  1  0.50550535  0.15902874  0.66114304  1
  I  I93  1  0.50300017  0.50107777  0.00021917  1
  I  I94  1  0.49559354  0.49963803  0.33330846  1
  I  I95  1  0.50359187  0.50239966  0.66627988  1
  I  I96  1  0.50048229  0.83309648  0.00319617  1
  I  I97  1  0.49520395  0.83679911  0.33325372  1
  I  I98  1  0.49601961  0.83707448  0.66307725  1
  I  I99  1  0.83908730  0.16618866  0.00411477  1
  I  I100  1  0.83378756  0.16679664  0.33255569  1
  I  I101  1  0.83000418  0.17133492  0.66279844  1
  I  I102  1  0.83570065  0.50130946  0.00332931  1
  I  I103  1  0.83484157  0.49994927  0.33251369  1
  I  I104  1  0.83431148  0.49567323  0.66363644  1
  I  I105  1  0.83257865  0.83279185  0.00568988  1
  I  I106  1  0.83840733  0.83318375  0.33019470  1
  I  I107  1  0.83372179  0.83261746  0.66664226  1
  I  I108  1  -0.00105943  0.16112557  0.17123940  1
  I  I109  1  -0.00286936  0.16878534  0.49761673  1
  I  I110  1  0.00025953  0.16568567  0.82875018  1
  I  I111  1  -0.00325987  0.50485135  0.16974666  1
  I  I112  1  -0.00381000  0.49555357  0.49526645  1
  I  I113  1  0.00284507  0.50656779  0.83402616  1
  I  I114  1  0.00034270  0.83386265  0.16678199  1
  I  I115  1  0.00245538  0.83285261  0.49890918  1
  I  I116  1  0.00423010  0.82966996  0.83136542  1
  I  I117  1  0.33091951  0.16026560  0.16602720  1
  I  I118  1  0.33547971  0.16251851  0.49950837  1
  I  I119  1  0.33298551  0.16671290  0.83453255  1
  I  I120  1  0.33336284  0.49947464  0.16436258  1
  I  I121  1  0.33312951  0.49749872  0.50228478  1
  I  I122  1  0.32875045  0.50674510  0.83424177  1
  I  I123  1  0.33218668  0.83856239  0.16646877  1
  I  I124  1  0.33321447  0.83848516  0.49576951  1
  I  I125  1  0.32923179  0.82943727  0.83839398  1
  I  I126  1  0.66988336  0.16525242  0.16946569  1
  I  I127  1  0.66769091  0.16407656  0.49319160  1
  I  I128  1  0.66658941  0.16701566  0.83923656  1
  I  I129  1  0.67170267  0.49849956  0.17119592  1
  I  I130  1  0.67070149  0.50110417  0.49522664  1
  I  I131  1  0.66684467  0.50014621  0.83326707  1
  I  I132  1  0.66699648  0.83337600  0.17387787  1
  I  I133  1  0.66421708  0.83450920  0.49381990  1
  I  I134  1  0.66654538  0.83286529  0.83302765  1
