# generated using pymatgen
data_Cs27Sn14Pb13I81
_symmetry_space_group_name_H-M   'P 1'
_cell_length_a   18.97283628
_cell_length_b   18.97738016
_cell_length_c   18.97748746
_cell_angle_alpha   89.99914253
_cell_angle_beta   89.99895597
_cell_angle_gamma   89.99750799
_symmetry_Int_Tables_number   1
_chemical_formula_structural   Cs27Sn14Pb13I81
_chemical_formula_sum   'Cs27 Sn14 Pb13 I81'
_cell_volume   6832.93405199
_cell_formula_units_Z   1
loop_
 _symmetry_equiv_pos_site_id
 _symmetry_equiv_pos_as_xyz
  1  'x, y, z'
loop_
 _atom_site_type_symbol
 _atom_site_label
 _atom_site_symmetry_multiplicity
 _atom_site_fract_x
 _atom_site_fract_y
 _atom_site_fract_z
 _atom_site_occupancy
  Cs  Cs0  1  -0.00206269  0.00241401  0.00564221  1
  Cs  Cs1  1  -0.00066562  -0.00250956  0.32867025  1
  Cs  Cs2  1  -0.00160367  0.00003833  0.66546726  1
  Cs  Cs3  1  0.00250426  0.33137634  -0.00191857  1
  Cs  Cs4  1  -0.00185331  0.33343810  0.33438447  1
  Cs  Cs5  1  0.00124688  0.33448468  0.66802218  1
  Cs  Cs6  1  0.00153984  0.66834944  0.00116502  1
  Cs  Cs7  1  0.00044401  0.67070683  0.33065661  1
  Cs  Cs8  1  0.00164424  0.66663077  0.66733184  1
  Cs  Cs9  1  0.33668785  0.00160435  0.00072701  1
  Cs  Cs10  1  0.33269768  -0.00027971  0.33271921  1
  Cs  Cs11  1  0.33531040  -0.00158653  0.66576173  1
  Cs  Cs12  1  0.33206463  0.33182639  0.00105302  1
  Cs  Cs13  1  0.33426294  0.33435825  0.33273664  1
  Cs  Cs14  1  0.33186516  0.33228110  0.66542161  1
  Cs  Cs15  1  0.33352675  0.66735336  -0.00363570  1
  Cs  Cs16  1  0.33358695  0.66570827  0.33315409  1
  Cs  Cs17  1  0.32949887  0.67128166  0.67096630  1
  Cs  Cs18  1  0.66457268  -0.00040355  -0.00114026  1
  Cs  Cs19  1  0.66698676  0.00112083  0.33524527  1
  Cs  Cs20  1  0.66618139  -0.00183100  0.66656632  1
  Cs  Cs21  1  0.66548927  0.33479311  0.00008212  1
  Cs  Cs22  1  0.67177101  0.34233885  0.34122311  1
  Cs  Cs23  1  0.66668296  0.33377849  0.66287720  1
  Cs  Cs24  1  0.66596463  0.66506082  0.00073161  1
  Cs  Cs25  1  0.66576737  0.65926785  0.33266148  1
  Cs  Cs26  1  0.66764739  0.66959313  0.66707242  1
  Sn  Sn27  1  0.16664510  0.16722970  0.49965364  1
  Sn  Sn28  1  0.83282718  0.16672143  0.83326827  1
  Sn  Sn29  1  0.50017140  0.16768088  0.83370854  1
  Sn  Sn30  1  0.50077900  0.83343143  0.49868522  1
  Sn  Sn31  1  0.83340690  0.83349637  0.83294368  1
  Sn  Sn32  1  0.83245042  0.83346855  0.50033935  1
  Sn  Sn33  1  0.50016650  0.16670259  0.16686799  1
  Sn  Sn34  1  0.50057115  0.49877898  0.83307917  1
  Sn  Sn35  1  0.16681212  0.49936898  0.49901554  1
  Sn  Sn36  1  0.50014292  0.83396453  0.16791917  1
  Sn  Sn37  1  0.16681753  0.49908588  0.16751524  1
  Sn  Sn38  1  0.16697172  0.16642115  0.83325366  1
  Sn  Sn39  1  0.16759285  0.16760874  0.16704079  1
  Sn  Sn40  1  0.83249822  0.49981807  0.83332705  1
  Pb  Pb41  1  0.16646931  0.83347310  0.49994019  1
  Pb  Pb42  1  0.49757611  0.50260632  0.50292925  1
  Pb  Pb43  1  0.49817221  0.49909411  0.16481515  1
  Pb  Pb44  1  0.49835598  0.16538649  0.49967495  1
  Pb  Pb45  1  0.83632444  0.49979915  0.16413902  1
  Pb  Pb46  1  0.16675002  0.49824191  0.83348508  1
  Pb  Pb47  1  0.50173960  0.83369257  0.83346499  1
  Pb  Pb48  1  0.83590630  0.50242900  0.50236180  1
  Pb  Pb49  1  0.83584848  0.16478258  0.50221221  1
  Pb  Pb50  1  0.16931726  0.83370377  0.16651437  1
  Pb  Pb51  1  0.83015593  0.83337419  0.16682702  1
  Pb  Pb52  1  0.83240444  0.16699830  0.16502671  1
  Pb  Pb53  1  0.16350081  0.83696215  0.83361070  1
  I  I54  1  0.16764904  0.00365809  0.16633286  1
  I  I55  1  0.16669430  0.00303557  0.50093372  1
  I  I56  1  0.16948179  0.00535537  0.83278229  1
  I  I57  1  0.17258751  0.33160942  0.16590041  1
  I  I58  1  0.16723972  0.33230270  0.50080698  1
  I  I59  1  0.16246868  0.32999088  0.83345548  1
  I  I60  1  0.16679341  0.66390781  0.17152994  1
  I  I61  1  0.16661035  0.66408546  0.49602873  1
  I  I62  1  0.16745353  0.66658994  0.83269307  1
  I  I63  1  0.49379667  0.00128456  0.16304450  1
  I  I64  1  0.50055512  -0.00270844  0.50231577  1
  I  I65  1  0.49946209  0.00296784  0.83426823  1
  I  I66  1  0.49555543  0.33004616  0.16107408  1
  I  I67  1  0.50022715  0.33350442  0.49851983  1
  I  I68  1  0.50362172  0.33168973  0.83899409  1
  I  I69  1  0.49889486  0.66872793  0.16803425  1
  I  I70  1  0.50187312  0.67046788  0.49562951  1
  I  I71  1  0.50372381  0.66473345  0.83327215  1
  I  I72  1  0.83949121  0.00012717  0.16339139  1
  I  I73  1  0.83182562  -0.00308714  0.50725418  1
  I  I74  1  0.83416389  0.00054598  0.82924990  1
  I  I75  1  0.82920445  0.33332979  0.16460817  1
  I  I76  1  0.83272829  0.33346361  0.50127311  1
  I  I77  1  0.83415746  0.33266441  0.83544530  1
  I  I78  1  0.83456606  0.66672440  0.16270980  1
  I  I79  1  0.83175895  0.67018499  0.50728517  1
  I  I80  1  0.82802061  0.66664080  0.82931709  1
  I  I81  1  0.16670720  0.17054726  -0.00003070  1
  I  I82  1  0.17252120  0.17003107  0.33257701  1
  I  I83  1  0.16600006  0.17049323  0.66722148  1
  I  I84  1  0.16649371  0.49571214  0.00200924  1
  I  I85  1  0.16787303  0.49177531  0.33322699  1
  I  I86  1  0.16628621  0.49612343  0.66492864  1
  I  I87  1  0.16685107  0.83043627  -0.00004599  1
  I  I88  1  0.16172840  0.83749962  0.33335171  1
  I  I89  1  0.17214130  0.83250373  0.66673821  1
  I  I90  1  0.49510528  0.16365056  -0.00087860  1
  I  I91  1  0.49253323  0.16180389  0.33044823  1
  I  I92  1  0.49887321  0.16796920  0.66982483  1
  I  I93  1  0.50110198  0.50151132  -0.00327833  1
  I  I94  1  0.49994260  0.49886554  0.33349193  1
  I  I95  1  0.50156394  0.49457874  0.67078154  1
  I  I96  1  0.49992461  0.83504799  0.00188040  1
  I  I97  1  0.50421522  0.83993444  0.33326838  1
  I  I98  1  0.50154729  0.83332903  0.66487939  1
  I  I99  1  0.83873433  0.16348913  -0.00423172  1
  I  I100  1  0.83456806  0.16311083  0.33363257  1
  I  I101  1  0.83302498  0.16818225  0.67102023  1
  I  I102  1  0.83169190  0.50276662  -0.00453279  1
  I  I103  1  0.83242761  0.50208955  0.33367208  1
  I  I104  1  0.83265573  0.49713605  0.67058557  1
  I  I105  1  0.83317970  0.83400038  -0.00322523  1
  I  I106  1  0.83338315  0.83416757  0.33624225  1
  I  I107  1  0.82708744  0.83431616  0.66754237  1
  I  I108  1  0.00324110  0.16999679  0.16484262  1
  I  I109  1  0.00424118  0.16800929  0.50043988  1
  I  I110  1  0.00023763  0.16646494  0.83277999  1
  I  I111  1  0.00450463  0.49374735  0.16805034  1
  I  I112  1  0.00372294  0.49727157  0.49950702  1
  I  I113  1  -0.00233572  0.49969252  0.83292033  1
  I  I114  1  -0.00004885  0.83357641  0.16665301  1
  I  I115  1  -0.00251702  0.83334294  0.50697016  1
  I  I116  1  -0.00462821  0.83064075  0.82600668  1
  I  I117  1  0.33280312  0.16566204  0.16047231  1
  I  I118  1  0.33000986  0.16704187  0.50562466  1
  I  I119  1  0.33366537  0.17204341  0.83442492  1
  I  I120  1  0.33018259  0.49843049  0.16707938  1
  I  I121  1  0.32982666  0.49761329  0.49926313  1
  I  I122  1  0.33554148  0.49605770  0.83359800  1
  I  I123  1  0.33705994  0.83546883  0.17201119  1
  I  I124  1  0.33583203  0.83380904  0.49655118  1
  I  I125  1  0.33356513  0.83169622  0.83214002  1
  I  I126  1  0.66288041  0.15999114  0.15924190  1
  I  I127  1  0.66671428  0.16588207  0.50043889  1
  I  I128  1  0.66615748  0.16615853  0.83875036  1
  I  I129  1  0.66641757  0.50036246  0.16627626  1
  I  I130  1  0.66665237  0.49947522  0.49937090  1
  I  I131  1  0.66679566  0.49544814  0.83398850  1
  I  I132  1  0.66243909  0.84066391  0.16599238  1
  I  I133  1  0.66652637  0.83503353  0.50208715  1
  I  I134  1  0.66961309  0.83798992  0.83200605  1
