# generated using pymatgen
data_Cs27Sn14Pb13I81
_symmetry_space_group_name_H-M   'P 1'
_cell_length_a   18.97691300
_cell_length_b   18.96463919
_cell_length_c   18.98867502
_cell_angle_alpha   89.99967180
_cell_angle_beta   89.99985180
_cell_angle_gamma   90.00063993
_symmetry_Int_Tables_number   1
_chemical_formula_structural   Cs27Sn14Pb13I81
_chemical_formula_sum   'Cs27 Sn14 Pb13 I81'
_cell_volume   6833.84009818
_cell_formula_units_Z   1
loop_
 _symmetry_equiv_pos_site_id
 _symmetry_equiv_pos_as_xyz
  1  'x, y, z'
loop_
 _atom_site_type_symbol
 _atom_site_label
 _atom_site_symmetry_multiplicity
 _atom_site_fract_x
 _atom_site_fract_y
 _atom_site_fract_z
 _atom_site_occupancy
  Cs  Cs0  1  -0.00200482  -0.00059849  -0.00126004  1
  Cs  Cs1  1  -0.00319333  0.00062854  0.33271592  1
  Cs  Cs2  1  -0.00326267  0.00120191  0.66792858  1
  Cs  Cs3  1  0.00075574  0.33813160  0.00298777  1
  Cs  Cs4  1  0.00107735  0.33774994  0.33126431  1
  Cs  Cs5  1  -0.00154853  0.33293010  0.66589305  1
  Cs  Cs6  1  0.00767468  0.66076757  -0.00070831  1
  Cs  Cs7  1  0.00549929  0.65706985  0.33326994  1
  Cs  Cs8  1  0.00820266  0.65925607  0.66745988  1
  Cs  Cs9  1  0.33451559  0.00033471  0.00048004  1
  Cs  Cs10  1  0.33271167  -0.00058570  0.33307235  1
  Cs  Cs11  1  0.33324939  0.00024308  0.66648864  1
  Cs  Cs12  1  0.33565003  0.33264493  0.00101014  1
  Cs  Cs13  1  0.33224506  0.33069165  0.33046031  1
  Cs  Cs14  1  0.33527335  0.33378024  0.66786673  1
  Cs  Cs15  1  0.32861913  0.66785050  -0.00305330  1
  Cs  Cs16  1  0.32896543  0.66910231  0.34321804  1
  Cs  Cs17  1  0.32645210  0.65985479  0.65889932  1
  Cs  Cs18  1  0.66689717  -0.00109983  -0.00026538  1
  Cs  Cs19  1  0.66736511  -0.00065903  0.33258147  1
  Cs  Cs20  1  0.66916865  0.00041839  0.66811494  1
  Cs  Cs21  1  0.66502863  0.33367377  0.00020490  1
  Cs  Cs22  1  0.66698895  0.33251559  0.33178997  1
  Cs  Cs23  1  0.66607625  0.33455366  0.66788459  1
  Cs  Cs24  1  0.66680565  0.67050753  0.00154750  1
  Cs  Cs25  1  0.66589088  0.66816100  0.33275126  1
  Cs  Cs26  1  0.66437777  0.66134360  0.66542620  1
  Sn  Sn27  1  0.83261706  0.83341634  0.83315203  1
  Sn  Sn28  1  0.83322611  0.16619298  0.49987525  1
  Sn  Sn29  1  0.50014925  0.50109893  0.16662704  1
  Sn  Sn30  1  0.50031447  0.16612157  0.50010598  1
  Sn  Sn31  1  0.50115094  0.16604286  0.16660507  1
  Sn  Sn32  1  0.50046912  0.83395896  0.83319057  1
  Sn  Sn33  1  0.16648260  0.16600698  0.83279769  1
  Sn  Sn34  1  0.50028740  0.83332990  0.16613301  1
  Sn  Sn35  1  0.83340531  0.83355073  0.50025044  1
  Sn  Sn36  1  0.50019409  0.16570647  0.83331694  1
  Sn  Sn37  1  0.16629926  0.16584527  0.50081051  1
  Sn  Sn38  1  0.83332342  0.83391796  0.16657265  1
  Sn  Sn39  1  0.83332936  0.16649756  0.83369558  1
  Sn  Sn40  1  0.83240188  0.16589399  0.16642410  1
  Pb  Pb41  1  0.16700704  0.49630901  0.83344408  1
  Pb  Pb42  1  0.50181873  0.83536718  0.50065898  1
  Pb  Pb43  1  0.16298514  0.83627254  0.50010239  1
  Pb  Pb44  1  0.83289587  0.50093810  0.83354102  1
  Pb  Pb45  1  0.83296279  0.50016905  0.49997200  1
  Pb  Pb46  1  0.50041336  0.49702973  0.49726732  1
  Pb  Pb47  1  0.16634017  0.83379967  0.16669672  1
  Pb  Pb48  1  0.83130325  0.50065787  0.16647368  1
  Pb  Pb49  1  0.17051887  0.50000622  0.16662462  1
  Pb  Pb50  1  0.16679477  0.83562329  0.83323885  1
  Pb  Pb51  1  0.16618414  0.16629761  0.16642019  1
  Pb  Pb52  1  0.50023144  0.50099043  0.83534150  1
  Pb  Pb53  1  0.16671260  0.49618830  0.49999767  1
  I  I54  1  0.17218218  0.00045736  0.16722893  1
  I  I55  1  0.16973898  0.00439504  0.50352887  1
  I  I56  1  0.16673061  0.00402058  0.82967257  1
  I  I57  1  0.16592141  0.33276952  0.16688325  1
  I  I58  1  0.16392313  0.32797112  0.50391701  1
  I  I59  1  0.16692057  0.32772031  0.82918099  1
  I  I60  1  0.16442135  0.66674193  0.16628595  1
  I  I61  1  0.16593814  0.66672328  0.49937195  1
  I  I62  1  0.16621778  0.66682782  0.83419601  1
  I  I63  1  0.50380722  0.00093900  0.16567991  1
  I  I64  1  0.49805848  0.00425773  0.49552208  1
  I  I65  1  0.50086018  0.00174123  0.83830871  1
  I  I66  1  0.50318533  0.33086097  0.16717427  1
  I  I67  1  0.50256490  0.32772839  0.50160191  1
  I  I68  1  0.50004375  0.32937189  0.83358792  1
  I  I69  1  0.50611598  0.66839539  0.16047793  1
  I  I70  1  0.50203235  0.66699252  0.49982979  1
  I  I71  1  0.50742206  0.67080561  0.83943078  1
  I  I72  1  0.82621873  0.00111639  0.16693222  1
  I  I73  1  0.83316197  0.00187874  0.49959548  1
  I  I74  1  0.83262338  0.00154096  0.83348988  1
  I  I75  1  0.83006800  0.32973455  0.16720502  1
  I  I76  1  0.83401178  0.32861067  0.49985725  1
  I  I77  1  0.83291785  0.32881832  0.83267324  1
  I  I78  1  0.82812763  0.67064204  0.16680857  1
  I  I79  1  0.83082301  0.67036526  0.49915623  1
  I  I80  1  0.82646857  0.67117441  0.83392877  1
  I  I81  1  0.16730349  0.16638970  -0.00304022  1
  I  I82  1  0.16732881  0.16707954  0.33614028  1
  I  I83  1  0.16670192  0.16592587  0.66683974  1
  I  I84  1  0.16528122  0.49757784  0.00006670  1
  I  I85  1  0.16602272  0.49722871  0.33336046  1
  I  I86  1  0.16791023  0.50236495  0.66662668  1
  I  I87  1  0.16296600  0.83618001  -0.00014850  1
  I  I88  1  0.16855922  0.83640834  0.33348766  1
  I  I89  1  0.16851531  0.83289741  0.66667892  1
  I  I90  1  0.50137116  0.16738954  0.00018800  1
  I  I91  1  0.50199331  0.16760668  0.33258257  1
  I  I92  1  0.50162197  0.16254296  0.66741719  1
  I  I93  1  0.50155241  0.49257807  0.00311112  1
  I  I94  1  0.50181508  0.49980891  0.32927432  1
  I  I95  1  0.49896070  0.49931785  0.66657081  1
  I  I96  1  0.50777610  0.83896402  0.00038108  1
  I  I97  1  0.50420110  0.83470289  0.33043916  1
  I  I98  1  0.50495259  0.84069673  0.66980490  1
  I  I99  1  0.83096059  0.16197983  -0.00008368  1
  I  I100  1  0.83050139  0.16157187  0.33312083  1
  I  I101  1  0.83173214  0.16198657  0.66689226  1
  I  I102  1  0.83297544  0.49656001  0.00008305  1
  I  I103  1  0.83244415  0.49806957  0.33320103  1
  I  I104  1  0.83295436  0.49801966  0.66670584  1
  I  I105  1  0.82776201  0.84160146  0.00001989  1
  I  I106  1  0.82812299  0.84212608  0.33262523  1
  I  I107  1  0.82854860  0.84320735  0.66746166  1
  I  I108  1  -0.00382941  0.16167481  0.16679916  1
  I  I109  1  -0.00123706  0.16266744  0.50316932  1
  I  I110  1  -0.00139235  0.16284496  0.83026613  1
  I  I111  1  0.00003597  0.49894042  0.16721986  1
  I  I112  1  -0.00006617  0.49874275  0.49857197  1
  I  I113  1  0.00001186  0.50041908  0.83433559  1
  I  I114  1  -0.00435814  0.84135433  0.16576568  1
  I  I115  1  -0.00531124  0.84112708  0.49979254  1
  I  I116  1  -0.00372333  0.83906312  0.83430293  1
  I  I117  1  0.33686883  0.16695993  0.16697009  1
  I  I118  1  0.33409131  0.16843121  0.50205038  1
  I  I119  1  0.33475300  0.16381280  0.83121580  1
  I  I120  1  0.33847519  0.49516693  0.16537082  1
  I  I121  1  0.33353613  0.49980461  0.49855281  1
  I  I122  1  0.33365133  0.49928156  0.83569286  1
  I  I123  1  0.33754482  0.83553559  0.16107475  1
  I  I124  1  0.33338941  0.83474110  0.49868273  1
  I  I125  1  0.33699589  0.83933762  0.84124486  1
  I  I126  1  0.66608905  0.16679229  0.16720970  1
  I  I127  1  0.66715222  0.16392151  0.50102351  1
  I  I128  1  0.66664072  0.16407376  0.83180464  1
  I  I129  1  0.66354950  0.49696653  0.16639364  1
  I  I130  1  0.66655724  0.49571103  0.50060530  1
  I  I131  1  0.66649540  0.49280217  0.83265120  1
  I  I132  1  0.66654608  0.83514115  0.16585741  1
  I  I133  1  0.66996480  0.84101800  0.49899350  1
  I  I134  1  0.66692893  0.84258695  0.83568569  1
