# generated using pymatgen
data_Cs27Sn14Pb13I81
_symmetry_space_group_name_H-M   'P 1'
_cell_length_a   18.96081287
_cell_length_b   18.96081294
_cell_length_c   18.96085910
_cell_angle_alpha   90.00047534
_cell_angle_beta   90.00047536
_cell_angle_gamma   90.00083644
_symmetry_Int_Tables_number   1
_chemical_formula_structural   Cs27Sn14Pb13I81
_chemical_formula_sum   'Cs27 Sn14 Pb13 I81'
_cell_volume   6816.66445591
_cell_formula_units_Z   1
loop_
 _symmetry_equiv_pos_site_id
 _symmetry_equiv_pos_as_xyz
  1  'x, y, z'
loop_
 _atom_site_type_symbol
 _atom_site_label
 _atom_site_symmetry_multiplicity
 _atom_site_fract_x
 _atom_site_fract_y
 _atom_site_fract_z
 _atom_site_occupancy
  Cs  Cs0  1  0.00221028  0.00221034  0.00087085  1
  Cs  Cs1  1  -0.00203049  -0.00203043  0.33394994  1
  Cs  Cs2  1  -0.00125103  -0.00125103  0.66349899  1
  Cs  Cs3  1  -0.00343635  0.32847001  -0.00463186  1
  Cs  Cs4  1  0.00318041  0.33489456  0.33586129  1
  Cs  Cs5  1  0.00152188  0.33404633  0.66896865  1
  Cs  Cs6  1  0.00117218  0.66775721  0.00210717  1
  Cs  Cs7  1  0.00004768  0.66709132  0.33316454  1
  Cs  Cs8  1  -0.00328896  0.66536197  0.66437108  1
  Cs  Cs9  1  0.32846999  -0.00343651  -0.00463169  1
  Cs  Cs10  1  0.33489426  0.00318038  0.33586107  1
  Cs  Cs11  1  0.33404628  0.00152179  0.66896849  1
  Cs  Cs12  1  0.33418411  0.33418397  0.00032488  1
  Cs  Cs13  1  0.33365728  0.33365735  0.33373478  1
  Cs  Cs14  1  0.33198090  0.33198081  0.66512822  1
  Cs  Cs15  1  0.33126176  0.66899350  0.00132900  1
  Cs  Cs16  1  0.33195542  0.66378796  0.33043828  1
  Cs  Cs17  1  0.33619383  0.66714829  0.66894046  1
  Cs  Cs18  1  0.66775743  0.00117209  0.00210730  1
  Cs  Cs19  1  0.66709134  0.00004768  0.33316442  1
  Cs  Cs20  1  0.66536218  -0.00328882  0.66437095  1
  Cs  Cs21  1  0.66899344  0.33126183  0.00132903  1
  Cs  Cs22  1  0.66378798  0.33195560  0.33043813  1
  Cs  Cs23  1  0.66714823  0.33619376  0.66894049  1
  Cs  Cs24  1  0.66628221  0.66628219  0.00070087  1
  Cs  Cs25  1  0.66769101  0.66769101  0.33433297  1
  Cs  Cs26  1  0.66601445  0.66601468  0.66495631  1
  Sn  Sn27  1  0.16751516  0.49970007  0.83333028  1
  Sn  Sn28  1  0.83335231  0.83335228  0.83461097  1
  Sn  Sn29  1  0.83298332  0.16832992  0.50001817  1
  Sn  Sn30  1  0.83248065  0.49863859  0.49895226  1
  Sn  Sn31  1  0.83259697  0.83259693  0.16546527  1
  Sn  Sn32  1  0.16759580  0.16759577  0.83396400  1
  Sn  Sn33  1  0.49970005  0.16751511  0.83333029  1
  Sn  Sn34  1  0.50058116  0.50058120  0.50038843  1
  Sn  Sn35  1  0.50035006  0.83331829  0.16742740  1
  Sn  Sn36  1  0.83331828  0.50035009  0.16742738  1
  Sn  Sn37  1  0.16832988  0.83298335  0.50001819  1
  Sn  Sn38  1  0.16698673  0.16698675  0.16655167  1
  Sn  Sn39  1  0.49912510  0.49912511  0.83291246  1
  Sn  Sn40  1  0.49863857  0.83248064  0.49895225  1
  Pb  Pb41  1  0.16393521  0.49771443  0.16396964  1
  Pb  Pb42  1  0.83326638  0.16430987  0.83136343  1
  Pb  Pb43  1  0.16709217  0.50184370  0.50185119  1
  Pb  Pb44  1  0.16430982  0.83326642  0.83136340  1
  Pb  Pb45  1  0.50164720  0.83298718  0.83336456  1
  Pb  Pb46  1  0.16666639  0.83493336  0.16884169  1
  Pb  Pb47  1  0.49771445  0.16393519  0.16396965  1
  Pb  Pb48  1  0.83256881  0.83256882  0.49925839  1
  Pb  Pb49  1  0.50164929  0.50164933  0.16648012  1
  Pb  Pb50  1  0.50184370  0.16709219  0.50185116  1
  Pb  Pb51  1  0.83493340  0.16666642  0.16884171  1
  Pb  Pb52  1  0.16496273  0.16496270  0.50058511  1
  Pb  Pb53  1  0.83298705  0.50164718  0.83336456  1
  I  I54  1  0.16457689  0.00261962  0.15997781  1
  I  I55  1  0.16870471  -0.00302686  0.50196722  1
  I  I56  1  0.16949591  0.00270370  0.83519544  1
  I  I57  1  0.16496757  0.33000786  0.16632055  1
  I  I58  1  0.16705931  0.33345119  0.49893415  1
  I  I59  1  0.16880583  0.33288093  0.83565485  1
  I  I60  1  0.16691956  0.66658387  0.16567817  1
  I  I61  1  0.16440602  0.66966566  0.50158119  1
  I  I62  1  0.16984059  0.66424399  0.83060716  1
  I  I63  1  0.50729895  -0.00401775  0.17197638  1
  I  I64  1  0.49949955  -0.00268909  0.49872994  1
  I  I65  1  0.49704257  0.00194914  0.83307991  1
  I  I66  1  0.50113956  0.33327926  0.16874530  1
  I  I67  1  0.50312602  0.33642101  0.50301926  1
  I  I68  1  0.49690576  0.33430035  0.82721980  1
  I  I69  1  0.50185643  0.66987443  0.16602856  1
  I  I70  1  0.50322794  0.66637561  0.50340446  1
  I  I71  1  0.49781775  0.66393352  0.83143646  1
  I  I72  1  0.83125237  -0.00285995  0.16527351  1
  I  I73  1  0.83457480  0.00110952  0.50148410  1
  I  I74  1  0.83300136  -0.00336397  0.83574081  1
  I  I75  1  0.83479129  0.33591166  0.16872854  1
  I  I76  1  0.82932589  0.33507562  0.49608861  1
  I  I77  1  0.83365055  0.33336559  0.83467191  1
  I  I78  1  0.83052060  0.66742371  0.16870936  1
  I  I79  1  0.83240419  0.66408858  0.50011390  1
  I  I80  1  0.83308551  0.66936332  0.83160424  1
  I  I81  1  0.16825632  0.16825595  -0.00156104  1
  I  I82  1  0.16282786  0.16282817  0.33157528  1
  I  I83  1  0.16877018  0.16877031  0.66977764  1
  I  I84  1  0.17148550  0.50063692  -0.00405744  1
  I  I85  1  0.16777020  0.49909408  0.33329065  1
  I  I86  1  0.16492371  0.49442497  0.66984120  1
  I  I87  1  0.16764125  0.83270037  -0.00008343  1
  I  I88  1  0.16457290  0.83526080  0.33657502  1
  I  I89  1  0.16954516  0.83532024  0.66367494  1
  I  I90  1  0.50063666  0.17148574  -0.00405744  1
  I  I91  1  0.49909432  0.16777008  0.33329063  1
  I  I92  1  0.49442490  0.16492377  0.66984119  1
  I  I93  1  0.49835287  0.49835280  -0.00296939  1
  I  I94  1  0.50338195  0.50338177  0.33617120  1
  I  I95  1  0.50298469  0.50298491  0.66625119  1
  I  I96  1  0.50389878  0.83371247  0.00214272  1
  I  I97  1  0.50286596  0.82870004  0.33432718  1
  I  I98  1  0.49949695  0.83252848  0.66417749  1
  I  I99  1  0.83270025  0.16764116  -0.00008346  1
  I  I100  1  0.83526069  0.16457258  0.33657507  1
  I  I101  1  0.83532037  0.16954528  0.66367498  1
  I  I102  1  0.83371255  0.50389885  0.00214270  1
  I  I103  1  0.82869977  0.50286568  0.33432715  1
  I  I104  1  0.83252878  0.49949711  0.66417743  1
  I  I105  1  0.82838629  0.82838647  0.00136451  1
  I  I106  1  0.83275713  0.83275735  0.33082942  1
  I  I107  1  0.83370755  0.83370722  0.66779350  1
  I  I108  1  0.00261964  0.16457627  0.15997745  1
  I  I109  1  -0.00302683  0.16870464  0.50196713  1
  I  I110  1  0.00270369  0.16949536  0.83519571  1
  I  I111  1  -0.00401775  0.50729912  0.17197661  1
  I  I112  1  -0.00268907  0.49949958  0.49872964  1
  I  I113  1  0.00194916  0.49704284  0.83307985  1
  I  I114  1  -0.00285995  0.83125250  0.16527362  1
  I  I115  1  0.00110953  0.83457486  0.50148376  1
  I  I116  1  -0.00336398  0.83300172  0.83574097  1
  I  I117  1  0.33000788  0.16496802  0.16632093  1
  I  I118  1  0.33345119  0.16705935  0.49893401  1
  I  I119  1  0.33288093  0.16880654  0.83565466  1
  I  I120  1  0.33327931  0.50113947  0.16874530  1
  I  I121  1  0.33642097  0.50312591  0.50301907  1
  I  I122  1  0.33430032  0.49690551  0.82721993  1
  I  I123  1  0.33591163  0.83479114  0.16872854  1
  I  I124  1  0.33507564  0.82932592  0.49608867  1
  I  I125  1  0.33336562  0.83365029  0.83467188  1
  I  I126  1  0.66658388  0.16691953  0.16567804  1
  I  I127  1  0.66966568  0.16440598  0.50158141  1
  I  I128  1  0.66424400  0.16984055  0.83060716  1
  I  I129  1  0.66987439  0.50185621  0.16602845  1
  I  I130  1  0.66637560  0.50322803  0.50340472  1
  I  I131  1  0.66393355  0.49781767  0.83143630  1
  I  I132  1  0.66742366  0.83052076  0.16870921  1
  I  I133  1  0.66408861  0.83240412  0.50011426  1
  I  I134  1  0.66936333  0.83308530  0.83160397  1
