# generated using pymatgen
data_Cs27Sn14Pb13I81
_symmetry_space_group_name_H-M   'P 1'
_cell_length_a   18.97203462
_cell_length_b   18.97726449
_cell_length_c   18.97557901
_cell_angle_alpha   89.99923460
_cell_angle_beta   89.99750765
_cell_angle_gamma   89.99947849
_symmetry_Int_Tables_number   1
_chemical_formula_structural   Cs27Sn14Pb13I81
_chemical_formula_sum   'Cs27 Sn14 Pb13 I81'
_cell_volume   6831.91658689
_cell_formula_units_Z   1
loop_
 _symmetry_equiv_pos_site_id
 _symmetry_equiv_pos_as_xyz
  1  'x, y, z'
loop_
 _atom_site_type_symbol
 _atom_site_label
 _atom_site_symmetry_multiplicity
 _atom_site_fract_x
 _atom_site_fract_y
 _atom_site_fract_z
 _atom_site_occupancy
  Cs  Cs0  1  -0.00233439  -0.00119026  -0.00295917  1
  Cs  Cs1  1  -0.00072269  0.00038246  0.33554267  1
  Cs  Cs2  1  0.00117910  0.00394908  0.66209035  1
  Cs  Cs3  1  0.00293589  0.33291870  -0.00763208  1
  Cs  Cs4  1  -0.00039306  0.33338922  0.33268463  1
  Cs  Cs5  1  0.00008602  0.33614398  0.67850923  1
  Cs  Cs6  1  0.00065765  0.66787825  -0.00010520  1
  Cs  Cs7  1  0.00052004  0.66696605  0.33186985  1
  Cs  Cs8  1  -0.00019162  0.65968496  0.66852664  1
  Cs  Cs9  1  0.33451659  -0.00098344  0.00155234  1
  Cs  Cs10  1  0.32982888  0.00012265  0.33483459  1
  Cs  Cs11  1  0.33256840  -0.00605464  0.66117053  1
  Cs  Cs12  1  0.33442294  0.33388932  0.00123370  1
  Cs  Cs13  1  0.33371255  0.33300315  0.33109727  1
  Cs  Cs14  1  0.33285711  0.33262062  0.67124880  1
  Cs  Cs15  1  0.33227833  0.66555961  0.00076264  1
  Cs  Cs16  1  0.33190651  0.66622152  0.33393933  1
  Cs  Cs17  1  0.33485279  0.67221070  0.66383622  1
  Cs  Cs18  1  0.66750661  -0.00200490  -0.00104953  1
  Cs  Cs19  1  0.67015298  0.00371722  0.33190239  1
  Cs  Cs20  1  0.66599594  -0.00035537  0.66918704  1
  Cs  Cs21  1  0.66189708  0.33164676  0.00263231  1
  Cs  Cs22  1  0.66650040  0.33290524  0.33367791  1
  Cs  Cs23  1  0.66865607  0.33374496  0.66355990  1
  Cs  Cs24  1  0.66653478  0.67266877  0.00158306  1
  Cs  Cs25  1  0.66811909  0.66364922  0.33378913  1
  Cs  Cs26  1  0.66644784  0.66674344  0.66399976  1
  Sn  Sn27  1  0.50058404  0.16629103  0.16691920  1
  Sn  Sn28  1  0.16723100  0.83289851  0.16591022  1
  Sn  Sn29  1  0.50009166  0.50037054  0.16607768  1
  Sn  Sn30  1  0.16649197  0.83351387  0.83412426  1
  Sn  Sn31  1  0.49927900  0.83340292  0.16716968  1
  Sn  Sn32  1  0.49991346  0.16710249  0.83338746  1
  Sn  Sn33  1  0.50021400  0.49988704  0.83389772  1
  Sn  Sn34  1  0.83267874  0.16619114  0.49930434  1
  Sn  Sn35  1  0.83313967  0.83357878  0.49989928  1
  Sn  Sn36  1  0.83344471  0.49891206  0.16646591  1
  Sn  Sn37  1  0.16686312  0.49923315  0.49933653  1
  Sn  Sn38  1  0.83293918  0.16774008  0.16703968  1
  Sn  Sn39  1  0.50032690  0.16676610  0.49974083  1
  Sn  Sn40  1  0.16648734  0.50050252  0.16746706  1
  Pb  Pb41  1  0.16445451  0.83132790  0.49929130  1
  Pb  Pb42  1  0.49868935  0.83325709  0.83530901  1
  Pb  Pb43  1  0.16930143  0.50174513  0.83411213  1
  Pb  Pb44  1  0.82984317  0.50011340  0.83692675  1
  Pb  Pb45  1  0.16986790  0.16372427  0.83339039  1
  Pb  Pb46  1  0.50220333  0.83576040  0.49690766  1
  Pb  Pb47  1  0.83370263  0.83366175  0.16781963  1
  Pb  Pb48  1  0.83604593  0.83337818  0.83008103  1
  Pb  Pb49  1  0.83084637  0.16669862  0.83357354  1
  Pb  Pb50  1  0.16599327  0.16959670  0.49994998  1
  Pb  Pb51  1  0.83534024  0.49887097  0.49813754  1
  Pb  Pb52  1  0.16614490  0.16663484  0.16655655  1
  Pb  Pb53  1  0.49829747  0.49784857  0.49972387  1
  I  I54  1  0.17078586  -0.00296173  0.16311633  1
  I  I55  1  0.16814008  0.00005468  0.50031588  1
  I  I56  1  0.16831377  -0.00389365  0.84048279  1
  I  I57  1  0.16957438  0.33654297  0.17115111  1
  I  I58  1  0.16663808  0.33713613  0.49119776  1
  I  I59  1  0.16553714  0.33353163  0.83279645  1
  I  I60  1  0.16991297  0.66604914  0.16700722  1
  I  I61  1  0.16566819  0.66368888  0.49726171  1
  I  I62  1  0.16988777  0.66926121  0.83539434  1
  I  I63  1  0.50015921  0.00098627  0.16631818  1
  I  I64  1  0.49970576  0.00397697  0.50085645  1
  I  I65  1  0.49886470  0.00282151  0.83489734  1
  I  I66  1  0.50022679  0.33323776  0.16615790  1
  I  I67  1  0.50589635  0.32977988  0.49522775  1
  I  I68  1  0.49895769  0.33298952  0.83944372  1
  I  I69  1  0.49984955  0.66564811  0.16121974  1
  I  I70  1  0.50073997  0.66669611  0.50083172  1
  I  I71  1  0.49796176  0.66411173  0.83933705  1
  I  I72  1  0.82922261  0.00280762  0.16909073  1
  I  I73  1  0.83109649  0.00155460  0.49295458  1
  I  I74  1  0.83090783  0.00009624  0.83918103  1
  I  I75  1  0.82921696  0.33290669  0.17332021  1
  I  I76  1  0.82881984  0.33005622  0.49618400  1
  I  I77  1  0.83791955  0.33346208  0.82797031  1
  I  I78  1  0.83057721  0.66426100  0.16885057  1
  I  I79  1  0.83633220  0.66811033  0.49752876  1
  I  I80  1  0.83033260  0.66659964  0.83256394  1
  I  I81  1  0.16605370  0.17097149  0.00021330  1
  I  I82  1  0.17176668  0.16264749  0.33313692  1
  I  I83  1  0.16696770  0.16713440  0.66657722  1
  I  I84  1  0.16565873  0.50216898  0.00356224  1
  I  I85  1  0.16916798  0.50576393  0.33065511  1
  I  I86  1  0.16758204  0.50113491  0.66490841  1
  I  I87  1  0.17060116  0.82730596  0.00216465  1
  I  I88  1  0.16994976  0.83061113  0.33018895  1
  I  I89  1  0.16628091  0.83200361  0.66843939  1
  I  I90  1  0.50295297  0.16764398  0.00162162  1
  I  I91  1  0.50420514  0.16713229  0.33202325  1
  I  I92  1  0.50349043  0.17229871  0.66651782  1
  I  I93  1  0.49777641  0.49454692  0.00231410  1
  I  I94  1  0.50124447  0.49941228  0.32963439  1
  I  I95  1  0.49645665  0.49508320  0.66897607  1
  I  I96  1  0.49966921  0.83704247  0.00382455  1
  I  I97  1  0.49296402  0.83096709  0.32870407  1
  I  I98  1  0.49815342  0.83331679  0.66642354  1
  I  I99  1  0.82949957  0.17049685  0.00350510  1
  I  I100  1  0.82472350  0.16656309  0.33261490  1
  I  I101  1  0.82931083  0.16151918  0.66354324  1
  I  I102  1  0.83953264  0.49453200  0.00529096  1
  I  I103  1  0.82795505  0.49909867  0.32968349  1
  I  I104  1  0.83522509  0.50041131  0.66667837  1
  I  I105  1  0.83194430  0.83353317  0.00032180  1
  I  I106  1  0.83504597  0.83553492  0.33534304  1
  I  I107  1  0.83397312  0.84035857  0.66226748  1
  I  I108  1  -0.00336299  0.16874701  0.17345535  1
  I  I109  1  -0.00350043  0.16227942  0.49266286  1
  I  I110  1  0.00000964  0.16587396  0.83285538  1
  I  I111  1  0.00044688  0.50131915  0.17329867  1
  I  I112  1  0.00310832  0.50030597  0.49313875  1
  I  I113  1  0.00022973  0.50128225  0.83302421  1
  I  I114  1  0.00263982  0.82936172  0.16486156  1
  I  I115  1  -0.00296096  0.84072902  0.49685108  1
  I  I116  1  0.00382577  0.83173321  0.84284754  1
  I  I117  1  0.33679922  0.16885838  0.16702628  1
  I  I118  1  0.33636577  0.16850047  0.49817398  1
  I  I119  1  0.33806228  0.17192362  0.83569025  1
  I  I120  1  0.33404506  0.50017421  0.16655204  1
  I  I121  1  0.33063058  0.49982221  0.49314015  1
  I  I122  1  0.33680690  0.49535606  0.84005863  1
  I  I123  1  0.33354607  0.83072297  0.16352819  1
  I  I124  1  0.33334723  0.83426965  0.50155904  1
  I  I125  1  0.33076956  0.83326559  0.83486739  1
  I  I126  1  0.66533326  0.16943973  0.16757679  1
  I  I127  1  0.66639430  0.16384140  0.49791347  1
  I  I128  1  0.66259472  0.16942819  0.83470888  1
  I  I129  1  0.66572439  0.49950068  0.16274505  1
  I  I130  1  0.66672756  0.50210415  0.49996956  1
  I  I131  1  0.66189982  0.49610283  0.83719472  1
  I  I132  1  0.66406708  0.83110358  0.16825358  1
  I  I133  1  0.66976651  0.83329216  0.49765122  1
  I  I134  1  0.66638003  0.83348219  0.83460028  1
