# generated using pymatgen
data_Cs27Sn14Pb13I81
_symmetry_space_group_name_H-M   'P 1'
_cell_length_a   18.97566847
_cell_length_b   18.97051429
_cell_length_c   18.98105290
_cell_angle_alpha   89.99861751
_cell_angle_beta   89.99930128
_cell_angle_gamma   89.99963431
_symmetry_Int_Tables_number   1
_chemical_formula_structural   Cs27Sn14Pb13I81
_chemical_formula_sum   'Cs27 Sn14 Pb13 I81'
_cell_volume   6832.76505994
_cell_formula_units_Z   1
loop_
 _symmetry_equiv_pos_site_id
 _symmetry_equiv_pos_as_xyz
  1  'x, y, z'
loop_
 _atom_site_type_symbol
 _atom_site_label
 _atom_site_symmetry_multiplicity
 _atom_site_fract_x
 _atom_site_fract_y
 _atom_site_fract_z
 _atom_site_occupancy
  Cs  Cs0  1  -0.00209749  -0.00408340  0.00253375  1
  Cs  Cs1  1  -0.00009713  -0.00002428  0.33162253  1
  Cs  Cs2  1  -0.00049273  -0.00232578  0.66609202  1
  Cs  Cs3  1  0.00315457  0.33228164  0.00269227  1
  Cs  Cs4  1  -0.00102724  0.32996433  0.33329545  1
  Cs  Cs5  1  -0.00058328  0.33501751  0.66601701  1
  Cs  Cs6  1  0.00079528  0.66809726  -0.00081251  1
  Cs  Cs7  1  -0.00032804  0.66786535  0.33542804  1
  Cs  Cs8  1  -0.00077163  0.66685636  0.66666551  1
  Cs  Cs9  1  0.33760258  0.00243146  -0.00237850  1
  Cs  Cs10  1  0.34166783  0.00516043  0.33652754  1
  Cs  Cs11  1  0.33425425  0.00921284  0.66630472  1
  Cs  Cs12  1  0.32501661  0.32791665  0.00622936  1
  Cs  Cs13  1  0.33235101  0.32838034  0.32820088  1
  Cs  Cs14  1  0.33252959  0.32613333  0.66732293  1
  Cs  Cs15  1  0.33230735  0.66605406  0.00251497  1
  Cs  Cs16  1  0.33513265  0.66612801  0.33013310  1
  Cs  Cs17  1  0.33229111  0.66531646  0.66820005  1
  Cs  Cs18  1  0.66747676  0.00256846  -0.00015239  1
  Cs  Cs19  1  0.65846985  -0.00096450  0.33374413  1
  Cs  Cs20  1  0.66564758  -0.00060270  0.66595145  1
  Cs  Cs21  1  0.66809036  0.33133209  0.00081180  1
  Cs  Cs22  1  0.66924212  0.33501854  0.32989649  1
  Cs  Cs23  1  0.66817035  0.33714669  0.66706110  1
  Cs  Cs24  1  0.66687812  0.66643067  -0.00240942  1
  Cs  Cs25  1  0.66392179  0.66713304  0.33493318  1
  Cs  Cs26  1  0.66773062  0.66568462  0.66664520  1
  Sn  Sn27  1  0.83365897  0.83214359  0.16630219  1
  Sn  Sn28  1  0.83317405  0.83333926  0.83385594  1
  Sn  Sn29  1  0.49991451  0.50033523  0.83294431  1
  Sn  Sn30  1  0.16709608  0.50062368  0.50027544  1
  Sn  Sn31  1  0.83336150  0.16705064  0.50076861  1
  Sn  Sn32  1  0.83339814  0.49947373  0.49984828  1
  Sn  Sn33  1  0.16632572  0.83319160  0.16706792  1
  Sn  Sn34  1  0.83302997  0.49983827  0.83373093  1
  Sn  Sn35  1  0.50013682  0.83227311  0.83286263  1
  Sn  Sn36  1  0.16705995  0.83298908  0.83312088  1
  Sn  Sn37  1  0.16691331  0.83271709  0.49984671  1
  Sn  Sn38  1  0.83354429  0.50141885  0.16644711  1
  Sn  Sn39  1  0.49956254  0.50015693  0.50081866  1
  Sn  Sn40  1  0.83364298  0.16683824  0.83224526  1
  Pb  Pb41  1  0.50025382  0.83308753  0.16396153  1
  Pb  Pb42  1  0.16695163  0.50144171  0.83169644  1
  Pb  Pb43  1  0.83436247  0.83325436  0.49973545  1
  Pb  Pb44  1  0.83329893  0.16608206  0.16677657  1
  Pb  Pb45  1  0.16349969  0.16364060  0.83334666  1
  Pb  Pb46  1  0.16422200  0.16678755  0.50007740  1
  Pb  Pb47  1  0.50252447  0.16791150  0.83334475  1
  Pb  Pb48  1  0.16408391  0.50212654  0.16945690  1
  Pb  Pb49  1  0.50217477  0.50007117  0.16576217  1
  Pb  Pb50  1  0.50329418  0.17041169  0.50030747  1
  Pb  Pb51  1  0.50028399  0.16691069  0.16641650  1
  Pb  Pb52  1  0.49671831  0.83106784  0.50278185  1
  Pb  Pb53  1  0.16626425  0.16281608  0.16682939  1
  I  I54  1  0.15652012  -0.00559618  0.16782347  1
  I  I55  1  0.16293804  -0.00335041  0.50061501  1
  I  I56  1  0.16717319  -0.00532073  0.83046890  1
  I  I57  1  0.16584915  0.33358187  0.16806262  1
  I  I58  1  0.16705206  0.33678724  0.50141445  1
  I  I59  1  0.16684021  0.33334310  0.83068418  1
  I  I60  1  0.16379618  0.67027990  0.16353415  1
  I  I61  1  0.16209047  0.66664916  0.50100399  1
  I  I62  1  0.16086480  0.67015052  0.83437345  1
  I  I63  1  0.50281210  -0.00063515  0.16570709  1
  I  I64  1  0.49997276  0.00003791  0.49993691  1
  I  I65  1  0.50013835  -0.00288374  0.83523642  1
  I  I66  1  0.50316246  0.33400333  0.16498677  1
  I  I67  1  0.49541597  0.33844015  0.50828777  1
  I  I68  1  0.50719408  0.33735927  0.82771054  1
  I  I69  1  0.49904554  0.66665053  0.16921212  1
  I  I70  1  0.50779450  0.66313135  0.50170616  1
  I  I71  1  0.50641640  0.66652949  0.82961484  1
  I  I72  1  0.83839577  -0.00357923  0.16245241  1
  I  I73  1  0.83732378  0.00188470  0.50380776  1
  I  I74  1  0.83438782  -0.00145223  0.83354778  1
  I  I75  1  0.83140203  0.33638381  0.16508594  1
  I  I76  1  0.83514200  0.33551953  0.50315419  1
  I  I77  1  0.82766147  0.33486079  0.83230321  1
  I  I78  1  0.83690424  0.66693830  0.16345996  1
  I  I79  1  0.83243802  0.66343929  0.50229865  1
  I  I80  1  0.83321118  0.66674712  0.83333024  1
  I  I81  1  0.16426897  0.16802362  -0.00007516  1
  I  I82  1  0.16268448  0.16534258  0.33362725  1
  I  I83  1  0.16716918  0.16304860  0.66669273  1
  I  I84  1  0.16673733  0.50130364  0.00011149  1
  I  I85  1  0.16613458  0.50661967  0.33759265  1
  I  I86  1  0.16031646  0.50705519  0.66360185  1
  I  I87  1  0.16373012  0.83376972  -0.00063139  1
  I  I88  1  0.15804543  0.82791281  0.33343207  1
  I  I89  1  0.16386540  0.82871746  0.66706981  1
  I  I90  1  0.50352246  0.16719461  -0.00068079  1
  I  I91  1  0.50306374  0.16631913  0.33391041  1
  I  I92  1  0.49845324  0.16279161  0.66675778  1
  I  I93  1  0.50664131  0.50553467  -0.00396542  1
  I  I94  1  0.50202033  0.49975869  0.33627898  1
  I  I95  1  0.50698174  0.50524450  0.66710174  1
  I  I96  1  0.49707943  0.82653592  -0.00426062  1
  I  I97  1  0.50080089  0.83301021  0.33360409  1
  I  I98  1  0.50432218  0.83098975  0.67074540  1
  I  I99  1  0.83249565  0.16809191  -0.00310804  1
  I  I100  1  0.83446939  0.17141290  0.33614634  1
  I  I101  1  0.83380882  0.16951375  0.66729892  1
  I  I102  1  0.82820310  0.50094949  -0.00128036  1
  I  I103  1  0.83376636  0.49947039  0.33427225  1
  I  I104  1  0.83299262  0.50000577  0.66685674  1
  I  I105  1  0.83779165  0.83086276  -0.00147098  1
  I  I106  1  0.83958020  0.83023757  0.33086218  1
  I  I107  1  0.83442427  0.83134103  0.66973940  1
  I  I108  1  -0.00063855  0.16892117  0.16677726  1
  I  I109  1  -0.00367290  0.17297669  0.50421724  1
  I  I110  1  -0.00477198  0.16868687  0.82924714  1
  I  I111  1  -0.00431513  0.50199902  0.16456529  1
  I  I112  1  -0.00131383  0.50041702  0.50058180  1
  I  I113  1  -0.00354002  0.50116177  0.83210402  1
  I  I114  1  -0.00098690  0.82943241  0.16107948  1
  I  I115  1  0.00233300  0.82811496  0.50467314  1
  I  I116  1  -0.00099207  0.83340249  0.83396678  1
  I  I117  1  0.33300545  0.16624389  0.16675250  1
  I  I118  1  0.33348913  0.16626784  0.49902348  1
  I  I119  1  0.33331657  0.16593221  0.83392836  1
  I  I120  1  0.33300019  0.50127881  0.16702764  1
  I  I121  1  0.33328746  0.50827173  0.50607226  1
  I  I122  1  0.33620576  0.50750816  0.82683491  1
  I  I123  1  0.33025638  0.83323586  0.16590799  1
  I  I124  1  0.32860566  0.82732699  0.49847704  1
  I  I125  1  0.33319825  0.82671303  0.83336709  1
  I  I126  1  0.66768187  0.16387793  0.16694687  1
  I  I127  1  0.67123704  0.16980470  0.50446369  1
  I  I128  1  0.67085804  0.16163843  0.82975997  1
  I  I129  1  0.67099053  0.50619628  0.17122992  1
  I  I130  1  0.66800164  0.49541359  0.50097172  1
  I  I131  1  0.66853943  0.50519590  0.82859320  1
  I  I132  1  0.67020367  0.83031672  0.16251107  1
  I  I133  1  0.66645770  0.83382691  0.49919789  1
  I  I134  1  0.66816747  0.83275291  0.83797529  1
