# generated using pymatgen
data_Cs27Sn14Pb13I81
_symmetry_space_group_name_H-M   'P 1'
_cell_length_a   18.97195437
_cell_length_b   18.97946187
_cell_length_c   18.97510235
_cell_angle_alpha   90.00018521
_cell_angle_beta   89.99896094
_cell_angle_gamma   90.00260156
_symmetry_Int_Tables_number   1
_chemical_formula_structural   Cs27Sn14Pb13I81
_chemical_formula_sum   'Cs27 Sn14 Pb13 I81'
_cell_volume   6832.50711510
_cell_formula_units_Z   1
loop_
 _symmetry_equiv_pos_site_id
 _symmetry_equiv_pos_as_xyz
  1  'x, y, z'
loop_
 _atom_site_type_symbol
 _atom_site_label
 _atom_site_symmetry_multiplicity
 _atom_site_fract_x
 _atom_site_fract_y
 _atom_site_fract_z
 _atom_site_occupancy
  Cs  Cs0  1  -0.00083712  -0.00106786  -0.00167890  1
  Cs  Cs1  1  -0.00251330  -0.00353990  0.33653158  1
  Cs  Cs2  1  0.00060169  0.00062535  0.66712681  1
  Cs  Cs3  1  0.00102880  0.33407192  -0.00032463  1
  Cs  Cs4  1  -0.00005681  0.33506486  0.33292418  1
  Cs  Cs5  1  -0.00115152  0.33261521  0.66751482  1
  Cs  Cs6  1  -0.00065498  0.66773596  0.00044913  1
  Cs  Cs7  1  -0.00082446  0.66663750  0.33413007  1
  Cs  Cs8  1  0.00020510  0.66727935  0.66564382  1
  Cs  Cs9  1  0.33537325  0.00270481  -0.00032042  1
  Cs  Cs10  1  0.34214057  -0.00104447  0.33362516  1
  Cs  Cs11  1  0.32998438  -0.00467971  0.66777921  1
  Cs  Cs12  1  0.32898965  0.32957479  0.00479173  1
  Cs  Cs13  1  0.33517408  0.33282248  0.32712865  1
  Cs  Cs14  1  0.33198846  0.33460488  0.66727207  1
  Cs  Cs15  1  0.33230957  0.66728935  -0.00129196  1
  Cs  Cs16  1  0.33298153  0.66677157  0.34030748  1
  Cs  Cs17  1  0.33806755  0.66857904  0.66381318  1
  Cs  Cs18  1  0.66712130  -0.00362639  0.00222503  1
  Cs  Cs19  1  0.66155004  0.00313437  0.32973955  1
  Cs  Cs20  1  0.66810413  0.00452094  0.66577299  1
  Cs  Cs21  1  0.66936413  0.33619226  -0.00192993  1
  Cs  Cs22  1  0.66636135  0.33251909  0.33672617  1
  Cs  Cs23  1  0.66486971  0.33503444  0.66425010  1
  Cs  Cs24  1  0.66460666  0.66738483  0.00020349  1
  Cs  Cs25  1  0.66810564  0.66646579  0.32902145  1
  Cs  Cs26  1  0.66032492  0.66167768  0.66961163  1
  Sn  Sn27  1  0.83322294  0.16601057  0.83419169  1
  Sn  Sn28  1  0.83414652  0.16734313  0.16602394  1
  Sn  Sn29  1  0.16663235  0.83364123  0.16623729  1
  Sn  Sn30  1  0.50011876  0.16685449  0.83317765  1
  Sn  Sn31  1  0.16655575  0.16670947  0.83260919  1
  Sn  Sn32  1  0.50082727  0.50007169  0.16644238  1
  Sn  Sn33  1  0.16570601  0.83325878  0.83445123  1
  Sn  Sn34  1  0.16636782  0.50021748  0.83250665  1
  Sn  Sn35  1  0.16564773  0.49869972  0.50095319  1
  Sn  Sn36  1  0.83393019  0.83372587  0.83209458  1
  Sn  Sn37  1  0.83275707  0.49917471  0.16722839  1
  Sn  Sn38  1  0.83412505  0.50101595  0.49953284  1
  Sn  Sn39  1  0.83328547  0.83230524  0.50131557  1
  Sn  Sn40  1  0.16645594  0.16746209  0.50013757  1
  Pb  Pb41  1  0.50031185  0.83554295  0.83326332  1
  Pb  Pb42  1  0.49636948  0.16687351  0.50262713  1
  Pb  Pb43  1  0.50453209  0.83333347  0.50028329  1
  Pb  Pb44  1  0.16601263  0.50167308  0.16712706  1
  Pb  Pb45  1  0.16547063  0.83330561  0.50054025  1
  Pb  Pb46  1  0.50304213  0.16858930  0.16424731  1
  Pb  Pb47  1  0.49646822  0.49756302  0.83557208  1
  Pb  Pb48  1  0.49991961  0.49982589  0.49797778  1
  Pb  Pb49  1  0.49677377  0.83081097  0.16640249  1
  Pb  Pb50  1  0.16454855  0.16428598  0.16702227  1
  Pb  Pb51  1  0.83449742  0.83318162  0.16640484  1
  Pb  Pb52  1  0.83484187  0.50021640  0.83315065  1
  Pb  Pb53  1  0.83488681  0.16693885  0.50022644  1
  I  I54  1  0.16237804  -0.00314941  0.16186751  1
  I  I55  1  0.16367199  0.00215805  0.50410030  1
  I  I56  1  0.16565435  0.00057563  0.83295892  1
  I  I57  1  0.16789579  0.33332260  0.16426902  1
  I  I58  1  0.16015753  0.33414853  0.50839317  1
  I  I59  1  0.16589888  0.33263759  0.82908711  1
  I  I60  1  0.16391030  0.66922494  0.16145168  1
  I  I61  1  0.16419044  0.66398587  0.50189516  1
  I  I62  1  0.16053708  0.66710844  0.83475891  1
  I  I63  1  0.50072522  0.00023022  0.16653021  1
  I  I64  1  0.49899993  0.00024890  0.49842490  1
  I  I65  1  0.49516891  0.00346252  0.83448366  1
  I  I66  1  0.49888428  0.33631280  0.16603460  1
  I  I67  1  0.50534064  0.33333493  0.50046788  1
  I  I68  1  0.50205732  0.32988054  0.83377152  1
  I  I69  1  0.50859747  0.66315896  0.16558962  1
  I  I70  1  0.49341920  0.66638080  0.50068560  1
  I  I71  1  0.49992397  0.66635416  0.83435287  1
  I  I72  1  0.83711455  0.00213816  0.16512944  1
  I  I73  1  0.83721292  -0.00193040  0.50128978  1
  I  I74  1  0.83853042  0.00064343  0.83352143  1
  I  I75  1  0.83143375  0.33385767  0.16602786  1
  I  I76  1  0.83605770  0.33597616  0.49861833  1
  I  I77  1  0.83548384  0.33061241  0.83472257  1
  I  I78  1  0.83183037  0.66399583  0.16777085  1
  I  I79  1  0.84113321  0.66557571  0.49854971  1
  I  I80  1  0.83987119  0.66910641  0.83324562  1
  I  I81  1  0.16763600  0.16943797  -0.00337459  1
  I  I82  1  0.16246076  0.17100976  0.33589429  1
  I  I83  1  0.16390350  0.16551922  0.66859374  1
  I  I84  1  0.16632407  0.49740338  -0.00258226  1
  I  I85  1  0.16545444  0.49741878  0.33616227  1
  I  I86  1  0.16037089  0.49999373  0.66670931  1
  I  I87  1  0.16006769  0.83234714  -0.00242490  1
  I  I88  1  0.16316223  0.83168157  0.33186309  1
  I  I89  1  0.16389655  0.83461629  0.66987805  1
  I  I90  1  0.49280285  0.16758797  -0.00341092  1
  I  I91  1  0.49982881  0.16681007  0.33307948  1
  I  I92  1  0.50681421  0.16780135  0.67065435  1
  I  I93  1  0.50689003  0.49987707  0.00297641  1
  I  I94  1  0.49884577  0.49907894  0.33016056  1
  I  I95  1  0.50232780  0.49903620  0.66690201  1
  I  I96  1  0.50437105  0.83261745  -0.00014341  1
  I  I97  1  0.49764979  0.83440492  0.33317928  1
  I  I98  1  0.49381537  0.83223831  0.66696957  1
  I  I99  1  0.83617142  0.16689259  -0.00156171  1
  I  I100  1  0.83669239  0.16736208  0.33132508  1
  I  I101  1  0.83317039  0.16540006  0.66989212  1
  I  I102  1  0.83221931  0.49884733  0.00219684  1
  I  I103  1  0.83623438  0.50027495  0.33357453  1
  I  I104  1  0.83739880  0.50052412  0.66424550  1
  I  I105  1  0.83656292  0.83491905  -0.00287571  1
  I  I106  1  0.83770934  0.83205227  0.33531541  1
  I  I107  1  0.84135802  0.83484947  0.66793585  1
  I  I108  1  -0.00324738  0.17374893  0.16041166  1
  I  I109  1  0.00273578  0.16801303  0.50656342  1
  I  I110  1  0.00034593  0.16556635  0.83331511  1
  I  I111  1  -0.00271317  0.49751570  0.16790697  1
  I  I112  1  -0.00001427  0.49997820  0.49737006  1
  I  I113  1  0.00305624  0.49571168  0.83484355  1
  I  I114  1  0.00221399  0.83065252  0.16395926  1
  I  I115  1  -0.00252187  0.83186453  0.50127583  1
  I  I116  1  0.00049556  0.83840154  0.83364410  1
  I  I117  1  0.33316940  0.16769210  0.16613057  1
  I  I118  1  0.32800540  0.17226158  0.50419807  1
  I  I119  1  0.33146421  0.16730682  0.82878609  1
  I  I120  1  0.33462321  0.50220904  0.16497125  1
  I  I121  1  0.32977100  0.49655067  0.50258208  1
  I  I122  1  0.32816444  0.50137524  0.82913189  1
  I  I123  1  0.32874398  0.83275972  0.15996443  1
  I  I124  1  0.33307533  0.83304781  0.49931602  1
  I  I125  1  0.32975174  0.83406440  0.83744924  1
  I  I126  1  0.67118475  0.16606538  0.16262473  1
  I  I127  1  0.66686113  0.16622821  0.50073257  1
  I  I128  1  0.66834893  0.16139297  0.83895542  1
  I  I129  1  0.66885114  0.49633148  0.17194718  1
  I  I130  1  0.67012329  0.50417450  0.49804860  1
  I  I131  1  0.66670215  0.49963148  0.83140338  1
  I  I132  1  0.66683836  0.83507427  0.16705861  1
  I  I133  1  0.67269100  0.82732351  0.50574225  1
  I  I134  1  0.67039344  0.83772566  0.82974563  1
