# generated using pymatgen
data_Cs27Sn14Pb13I81
_symmetry_space_group_name_H-M   'P 1'
_cell_length_a   18.98274909
_cell_length_b   18.97211726
_cell_length_c   18.97229722
_cell_angle_alpha   90.00064707
_cell_angle_beta   90.00028541
_cell_angle_gamma   90.00014995
_symmetry_Int_Tables_number   1
_chemical_formula_structural   Cs27Sn14Pb13I81
_chemical_formula_sum   'Cs27 Sn14 Pb13 I81'
_cell_volume   6832.73892776
_cell_formula_units_Z   1
loop_
 _symmetry_equiv_pos_site_id
 _symmetry_equiv_pos_as_xyz
  1  'x, y, z'
loop_
 _atom_site_type_symbol
 _atom_site_label
 _atom_site_symmetry_multiplicity
 _atom_site_fract_x
 _atom_site_fract_y
 _atom_site_fract_z
 _atom_site_occupancy
  Cs  Cs0  1  0.00086364  -0.00044283  -0.00029521  1
  Cs  Cs1  1  0.00483471  0.00087434  0.33474832  1
  Cs  Cs2  1  0.00186849  0.00175485  0.66706243  1
  Cs  Cs3  1  -0.00049480  0.33000621  -0.00029228  1
  Cs  Cs4  1  -0.00181632  0.33460182  0.33212145  1
  Cs  Cs5  1  -0.00368918  0.33289791  0.67037464  1
  Cs  Cs6  1  0.00170927  0.66871789  0.00006777  1
  Cs  Cs7  1  0.00028698  0.66607630  0.33606832  1
  Cs  Cs8  1  -0.00140923  0.66605047  0.66528516  1
  Cs  Cs9  1  0.33014598  -0.00292173  0.00068148  1
  Cs  Cs10  1  0.32730257  0.00201881  0.34101734  1
  Cs  Cs11  1  0.33565668  0.00819012  0.65756360  1
  Cs  Cs12  1  0.33422663  0.33364897  -0.00105324  1
  Cs  Cs13  1  0.33324470  0.33666955  0.33361188  1
  Cs  Cs14  1  0.33556371  0.32844118  0.66626308  1
  Cs  Cs15  1  0.33400872  0.66717141  -0.00029151  1
  Cs  Cs16  1  0.33267603  0.66410281  0.33339375  1
  Cs  Cs17  1  0.33256448  0.66623844  0.66857000  1
  Cs  Cs18  1  0.66804367  -0.00343327  0.00177838  1
  Cs  Cs19  1  0.66680778  0.00238642  0.33292824  1
  Cs  Cs20  1  0.66278281  0.00035648  0.66264310  1
  Cs  Cs21  1  0.66667647  0.33282352  -0.00099238  1
  Cs  Cs22  1  0.66766081  0.33250040  0.33130266  1
  Cs  Cs23  1  0.66795734  0.33266373  0.67650566  1
  Cs  Cs24  1  0.66480407  0.66887595  0.00062061  1
  Cs  Cs25  1  0.66686242  0.66639664  0.33302025  1
  Cs  Cs26  1  0.67027014  0.66649594  0.66583344  1
  Sn  Sn27  1  0.83318535  0.83324983  0.83388718  1
  Sn  Sn28  1  0.83300386  0.83338079  0.16639146  1
  Sn  Sn29  1  0.16684983  0.50047798  0.83338408  1
  Sn  Sn30  1  0.83306067  0.16690057  0.49925428  1
  Sn  Sn31  1  0.49974464  0.83326212  0.83366570  1
  Sn  Sn32  1  0.50017865  0.16615588  0.16656568  1
  Sn  Sn33  1  0.16726458  0.50001847  0.50036538  1
  Sn  Sn34  1  0.16707170  0.83285646  0.83312467  1
  Sn  Sn35  1  0.50017505  0.50003083  0.16713362  1
  Sn  Sn36  1  0.83309667  0.50034020  0.16647780  1
  Sn  Sn37  1  0.83259163  0.16625870  0.16753212  1
  Sn  Sn38  1  0.16668705  0.50021865  0.16627945  1
  Sn  Sn39  1  0.50001506  0.50017356  0.49975530  1
  Sn  Sn40  1  0.50015471  0.83391152  0.16661020  1
  Pb  Pb41  1  0.83323136  0.83555861  0.49916779  1
  Pb  Pb42  1  0.16693166  0.16648278  0.83342036  1
  Pb  Pb43  1  0.49825255  0.50181543  0.83359084  1
  Pb  Pb44  1  0.83550077  0.50237660  0.83623366  1
  Pb  Pb45  1  0.83283169  0.49817483  0.49816051  1
  Pb  Pb46  1  0.50003079  0.16330181  0.83645534  1
  Pb  Pb47  1  0.16687187  0.83132229  0.16558091  1
  Pb  Pb48  1  0.50010204  0.83102658  0.49906151  1
  Pb  Pb49  1  0.16671555  0.83084524  0.50319256  1
  Pb  Pb50  1  0.50219992  0.16988686  0.49736118  1
  Pb  Pb51  1  0.16675541  0.16922427  0.16663752  1
  Pb  Pb52  1  0.16407381  0.17005164  0.49987080  1
  Pb  Pb53  1  0.83311728  0.16363912  0.83424404  1
  I  I54  1  0.16627853  -0.00016410  0.16349446  1
  I  I55  1  0.16611684  0.00028558  0.50159014  1
  I  I56  1  0.16478529  -0.00376395  0.83652413  1
  I  I57  1  0.16627117  0.33811352  0.16445425  1
  I  I58  1  0.17132437  0.33810347  0.50082521  1
  I  I59  1  0.16654295  0.33704658  0.83405406  1
  I  I60  1  0.16645779  0.66270599  0.16813471  1
  I  I61  1  0.16841992  0.66252872  0.49614126  1
  I  I62  1  0.16636653  0.66642131  0.83439195  1
  I  I63  1  0.50953720  -0.00078779  0.15984486  1
  I  I64  1  0.50090183  0.00035022  0.50065980  1
  I  I65  1  0.49840738  -0.00505475  0.83858027  1
  I  I66  1  0.50224492  0.33430572  0.17176315  1
  I  I67  1  0.49472998  0.33762015  0.49382738  1
  I  I68  1  0.49756053  0.33341908  0.83354555  1
  I  I69  1  0.50251914  0.66635506  0.16608889  1
  I  I70  1  0.49694182  0.66306592  0.49321181  1
  I  I71  1  0.50170515  0.66987787  0.83999968  1
  I  I72  1  0.82569441  -0.00050348  0.16579610  1
  I  I73  1  0.83244497  0.00325610  0.49383744  1
  I  I74  1  0.83654558  -0.00439619  0.83996116  1
  I  I75  1  0.83189007  0.33361468  0.17176628  1
  I  I76  1  0.83438294  0.33057297  0.49209987  1
  I  I77  1  0.83619154  0.33339039  0.83379620  1
  I  I78  1  0.83088700  0.66671342  0.16199537  1
  I  I79  1  0.83415087  0.66638253  0.49957490  1
  I  I80  1  0.83121666  0.67038107  0.83843066  1
  I  I81  1  0.16385775  0.17060871  0.00028837  1
  I  I82  1  0.16797623  0.16679812  0.33313467  1
  I  I83  1  0.16403097  0.16811098  0.66650871  1
  I  I84  1  0.16638341  0.50416985  0.00064074  1
  I  I85  1  0.16751287  0.49866403  0.33247574  1
  I  I86  1  0.17117502  0.50520559  0.66678953  1
  I  I87  1  0.16656045  0.82640386  -0.00268274  1
  I  I88  1  0.16610297  0.83189387  0.33342134  1
  I  I89  1  0.16497804  0.82671211  0.67162106  1
  I  I90  1  0.50716957  0.17417832  0.00465694  1
  I  I91  1  0.50252422  0.16191315  0.32911957  1
  I  I92  1  0.50122382  0.16685511  0.66642236  1
  I  I93  1  0.49973119  0.49863737  0.00366493  1
  I  I94  1  0.49505515  0.50205473  0.33096524  1
  I  I95  1  0.49483557  0.50227444  0.66438302  1
  I  I96  1  0.50112909  0.83048450  0.00139707  1
  I  I97  1  0.50677413  0.83372575  0.32923154  1
  I  I98  1  0.50087874  0.82996922  0.66957013  1
  I  I99  1  0.82995585  0.16931850  0.00394793  1
  I  I100  1  0.82944155  0.16573156  0.33066278  1
  I  I101  1  0.83567255  0.16682593  0.66445725  1
  I  I102  1  0.83156084  0.49492780  0.00474957  1
  I  I103  1  0.83747391  0.50474548  0.32936851  1
  I  I104  1  0.83373601  0.49907521  0.66689481  1
  I  I105  1  0.83293397  0.83420937  0.00141243  1
  I  I106  1  0.82755785  0.83061090  0.32924233  1
  I  I107  1  0.83352718  0.83421329  0.66968818  1
  I  I108  1  -0.00348320  0.16673261  0.16947726  1
  I  I109  1  -0.00349186  0.16739059  0.49186224  1
  I  I110  1  -0.00022436  0.16510486  0.83548512  1
  I  I111  1  -0.00015460  0.50008937  0.16646957  1
  I  I112  1  0.00258251  0.49882927  0.49884113  1
  I  I113  1  0.00361588  0.50574385  0.83231979  1
  I  I114  1  -0.00293799  0.83329979  0.16240793  1
  I  I115  1  -0.00008678  0.83094289  0.49931339  1
  I  I116  1  -0.00016913  0.82908146  0.83806430  1
  I  I117  1  0.33664479  0.16669976  0.16465617  1
  I  I118  1  0.33358052  0.16519550  0.49959627  1
  I  I119  1  0.33360213  0.16492101  0.83519683  1
  I  I120  1  0.33386278  0.50037339  0.16720356  1
  I  I121  1  0.33311267  0.50122722  0.49348814  1
  I  I122  1  0.33017305  0.50686482  0.83860108  1
  I  I123  1  0.33644479  0.83220719  0.16167820  1
  I  I124  1  0.33342436  0.83557576  0.49893880  1
  I  I125  1  0.33355392  0.82699916  0.83987829  1
  I  I126  1  0.66724671  0.17074110  0.16999643  1
  I  I127  1  0.66967763  0.16776229  0.49647574  1
  I  I128  1  0.66667650  0.16811806  0.83041846  1
  I  I129  1  0.66619636  0.50042732  0.17191607  1
  I  I130  1  0.66401936  0.50003872  0.49335243  1
  I  I131  1  0.66671037  0.50104814  0.83191870  1
  I  I132  1  0.66673984  0.82874846  0.15879394  1
  I  I133  1  0.66668992  0.82957226  0.50586818  1
  I  I134  1  0.66661677  0.83400340  0.83941952  1
