# generated using pymatgen
data_Cs27Sn14Pb13I81
_symmetry_space_group_name_H-M   'P 1'
_cell_length_a   18.99586486
_cell_length_b   18.99048782
_cell_length_c   18.98400330
_cell_angle_alpha   90.00324093
_cell_angle_beta   90.00098396
_cell_angle_gamma   89.99942545
_symmetry_Int_Tables_number   1
_chemical_formula_structural   Cs27Sn14Pb13I81
_chemical_formula_sum   'Cs27 Sn14 Pb13 I81'
_cell_volume   6848.30338925
_cell_formula_units_Z   1
loop_
 _symmetry_equiv_pos_site_id
 _symmetry_equiv_pos_as_xyz
  1  'x, y, z'
loop_
 _atom_site_type_symbol
 _atom_site_label
 _atom_site_symmetry_multiplicity
 _atom_site_fract_x
 _atom_site_fract_y
 _atom_site_fract_z
 _atom_site_occupancy
  Cs  Cs0  1  0.00289920  -0.00056340  0.00131417  1
  Cs  Cs1  1  0.00056909  0.00123277  0.33427974  1
  Cs  Cs2  1  -0.00381389  0.00008700  0.66419160  1
  Cs  Cs3  1  0.00169816  0.33746050  0.00148533  1
  Cs  Cs4  1  -0.00011949  0.33469957  0.33178093  1
  Cs  Cs5  1  -0.00255304  0.33164628  0.66579733  1
  Cs  Cs6  1  0.00229245  0.66358620  -0.00186719  1
  Cs  Cs7  1  -0.00006636  0.66442208  0.33411667  1
  Cs  Cs8  1  -0.00183529  0.66836546  0.66655078  1
  Cs  Cs9  1  0.33211524  -0.00270482  -0.00007367  1
  Cs  Cs10  1  0.33186221  -0.00207958  0.33320498  1
  Cs  Cs11  1  0.33109570  -0.00160611  0.66862838  1
  Cs  Cs12  1  0.33035864  0.33495196  -0.00130642  1
  Cs  Cs13  1  0.33456984  0.33374243  0.33586848  1
  Cs  Cs14  1  0.34609273  0.33228759  0.66400548  1
  Cs  Cs15  1  0.32963259  0.66991313  -0.00162257  1
  Cs  Cs16  1  0.33351959  0.66822558  0.33477146  1
  Cs  Cs17  1  0.33380384  0.66736757  0.66481084  1
  Cs  Cs18  1  0.66550240  0.00180579  0.00253169  1
  Cs  Cs19  1  0.67009763  -0.00103979  0.32930775  1
  Cs  Cs20  1  0.67654770  0.00548706  0.66905797  1
  Cs  Cs21  1  0.66679125  0.33146044  -0.00264926  1
  Cs  Cs22  1  0.66571395  0.33727105  0.33265457  1
  Cs  Cs23  1  0.65427872  0.32709907  0.67592422  1
  Cs  Cs24  1  0.66860650  0.66727471  0.00165223  1
  Cs  Cs25  1  0.66654918  0.66507057  0.33231275  1
  Cs  Cs26  1  0.66853088  0.66580494  0.66777561  1
  Sn  Sn27  1  0.16717394  0.83409713  0.83306440  1
  Sn  Sn28  1  0.83380807  0.16705123  0.16686087  1
  Sn  Sn29  1  0.50025525  0.49937728  0.16646564  1
  Sn  Sn30  1  0.83353910  0.49940636  0.49983042  1
  Sn  Sn31  1  0.16664881  0.16634161  0.83388205  1
  Sn  Sn32  1  0.49979960  0.83344136  0.83168797  1
  Sn  Sn33  1  0.16561001  0.83375026  0.16687883  1
  Sn  Sn34  1  0.83248374  0.49996443  0.16717724  1
  Sn  Sn35  1  0.16697461  0.16599197  0.16605777  1
  Sn  Sn36  1  0.16599866  0.50031236  0.50027146  1
  Sn  Sn37  1  0.50011165  0.83392363  0.50147349  1
  Sn  Sn38  1  0.83490416  0.83289630  0.16675033  1
  Sn  Sn39  1  0.49922547  0.16788886  0.16699250  1
  Sn  Sn40  1  0.16712403  0.83261141  0.50003057  1
  Pb  Pb41  1  0.49975809  0.50298669  0.83655968  1
  Pb  Pb42  1  0.83342399  0.83176032  0.49772169  1
  Pb  Pb43  1  0.49963839  0.83330419  0.16667544  1
  Pb  Pb44  1  0.16669276  0.49963367  0.82955870  1
  Pb  Pb45  1  0.83385859  0.83328758  0.83603967  1
  Pb  Pb46  1  0.83643478  0.16669686  0.83606249  1
  Pb  Pb47  1  0.50003204  0.16299259  0.49752834  1
  Pb  Pb48  1  0.50044367  0.50208565  0.49825459  1
  Pb  Pb49  1  0.16675391  0.16655750  0.50015564  1
  Pb  Pb50  1  0.83309822  0.17026658  0.49782305  1
  Pb  Pb51  1  0.16674330  0.49986434  0.16817998  1
  Pb  Pb52  1  0.83334849  0.49976815  0.83295669  1
  Pb  Pb53  1  0.49738289  0.16376285  0.83607589  1
  I  I54  1  0.16437716  -0.00087856  0.16818871  1
  I  I55  1  0.17156033  -0.00338086  0.49825851  1
  I  I56  1  0.17151342  -0.00150928  0.83466435  1
  I  I57  1  0.16463761  0.33058128  0.16333124  1
  I  I58  1  0.16083634  0.33605548  0.49682211  1
  I  I59  1  0.16377246  0.33032315  0.84136535  1
  I  I60  1  0.16481167  0.66968088  0.16427596  1
  I  I61  1  0.16689799  0.66830322  0.49790741  1
  I  I62  1  0.17016834  0.67014363  0.83805792  1
  I  I63  1  0.50251849  0.00201078  0.16653142  1
  I  I64  1  0.49003778  -0.00485257  0.49990992  1
  I  I65  1  0.49652505  -0.00383266  0.83317742  1
  I  I66  1  0.50276808  0.33296324  0.16800568  1
  I  I67  1  0.49887632  0.33339929  0.49991088  1
  I  I68  1  0.49903363  0.33297514  0.83176471  1
  I  I69  1  0.50418730  0.66492861  0.16733979  1
  I  I70  1  0.49701428  0.66989370  0.49910627  1
  I  I71  1  0.49147164  0.67076915  0.83293014  1
  I  I72  1  0.83273847  -0.00004845  0.16568807  1
  I  I73  1  0.83377987  0.00005995  0.49797996  1
  I  I74  1  0.83027998  -0.00014263  0.83445245  1
  I  I75  1  0.83344325  0.33347075  0.17102488  1
  I  I76  1  0.84298695  0.33813434  0.49123946  1
  I  I77  1  0.83654499  0.33310497  0.83606533  1
  I  I78  1  0.83182189  0.66645415  0.17030060  1
  I  I79  1  0.83506790  0.66406264  0.49061610  1
  I  I80  1  0.83569156  0.66684469  0.83901702  1
  I  I81  1  0.16685219  0.15776676  0.00192429  1
  I  I82  1  0.16575588  0.16272368  0.32985492  1
  I  I83  1  0.16654912  0.16229071  0.66948426  1
  I  I84  1  0.16644302  0.50295667  -0.00002220  1
  I  I85  1  0.16592884  0.50528091  0.33578652  1
  I  I86  1  0.15942001  0.50571947  0.66180538  1
  I  I87  1  0.16770843  0.83785841  0.00064348  1
  I  I88  1  0.16768856  0.83356490  0.33284421  1
  I  I89  1  0.17282313  0.83293746  0.66657981  1
  I  I90  1  0.50339803  0.16753141  0.00426738  1
  I  I91  1  0.49636659  0.16793070  0.32881378  1
  I  I92  1  0.49796444  0.16960589  0.66704308  1
  I  I93  1  0.50671870  0.49804320  0.00472308  1
  I  I94  1  0.50147253  0.49940508  0.33017294  1
  I  I95  1  0.50032883  0.49879114  0.66658274  1
  I  I96  1  0.49609040  0.83343639  -0.00160812  1
  I  I97  1  0.49570188  0.83286211  0.33493554  1
  I  I98  1  0.48867074  0.83115604  0.66641132  1
  I  I99  1  0.83002383  0.16848312  0.00495539  1
  I  I100  1  0.83776912  0.16284565  0.32866151  1
  I  I101  1  0.83518805  0.16752404  0.66683070  1
  I  I102  1  0.82938162  0.50003758  0.00408359  1
  I  I103  1  0.83397066  0.50046999  0.33143794  1
  I  I104  1  0.84081807  0.50450735  0.66305936  1
  I  I105  1  0.83604950  0.83092654  0.00476381  1
  I  I106  1  0.83638287  0.83581428  0.32928206  1
  I  I107  1  0.83495852  0.83012074  0.66657735  1
  I  I108  1  0.00049712  0.16565778  0.16285728  1
  I  I109  1  0.00010550  0.16197016  0.49790751  1
  I  I110  1  0.00426766  0.15829059  0.83892997  1
  I  I111  1  -0.00242738  0.49832651  0.16904990  1
  I  I112  1  0.00025716  0.50692403  0.49174673  1
  I  I113  1  0.00037390  0.50267223  0.83954839  1
  I  I114  1  0.00128006  0.83613621  0.16694777  1
  I  I115  1  0.00324534  0.83150162  0.50170556  1
  I  I116  1  0.00379321  0.83721341  0.83114878  1
  I  I117  1  0.33243153  0.16514642  0.16315183  1
  I  I118  1  0.33317161  0.17305438  0.49544500  1
  I  I119  1  0.32978369  0.16440682  0.84084631  1
  I  I120  1  0.33539111  0.49778424  0.16868654  1
  I  I121  1  0.33104861  0.50283057  0.49761388  1
  I  I122  1  0.33310407  0.49801760  0.83520085  1
  I  I123  1  0.33038125  0.83600058  0.16680026  1
  I  I124  1  0.33147784  0.82714185  0.49676048  1
  I  I125  1  0.33166866  0.83663657  0.83667115  1
  I  I126  1  0.66698461  0.16532512  0.16933249  1
  I  I127  1  0.66658719  0.16504919  0.49736824  1
  I  I128  1  0.66638074  0.16581540  0.83409917  1
  I  I129  1  0.66786242  0.49913893  0.17302236  1
  I  I130  1  0.66927651  0.50330986  0.49325607  1
  I  I131  1  0.66640299  0.50270192  0.82942889  1
  I  I132  1  0.66864003  0.83535761  0.16720788  1
  I  I133  1  0.66422084  0.83130769  0.50091013  1
  I  I134  1  0.66400180  0.83088919  0.83101153  1
