# generated using pymatgen
data_Cs27Sn13Pb14I81
_symmetry_space_group_name_H-M   'P 1'
_cell_length_a   18.98240922
_cell_length_b   18.97481019
_cell_length_c   18.97532290
_cell_angle_alpha   89.99951904
_cell_angle_beta   89.99805494
_cell_angle_gamma   89.99990575
_symmetry_Int_Tables_number   1
_chemical_formula_structural   Cs27Sn13Pb14I81
_chemical_formula_sum   'Cs27 Sn13 Pb14 I81'
_cell_volume   6834.67623591
_cell_formula_units_Z   1
loop_
 _symmetry_equiv_pos_site_id
 _symmetry_equiv_pos_as_xyz
  1  'x, y, z'
loop_
 _atom_site_type_symbol
 _atom_site_label
 _atom_site_symmetry_multiplicity
 _atom_site_fract_x
 _atom_site_fract_y
 _atom_site_fract_z
 _atom_site_occupancy
  Cs  Cs0  1  -0.00444975  0.00026967  -0.00430074  1
  Cs  Cs1  1  0.00183105  -0.00017575  0.33576556  1
  Cs  Cs2  1  0.00611566  -0.00573760  0.67074280  1
  Cs  Cs3  1  -0.00099215  0.33557118  0.00178478  1
  Cs  Cs4  1  -0.00087445  0.33297597  0.33178918  1
  Cs  Cs5  1  -0.00006104  0.33147781  0.66813448  1
  Cs  Cs6  1  0.00149896  0.66476430  0.00157256  1
  Cs  Cs7  1  -0.00106800  0.66740721  0.33204218  1
  Cs  Cs8  1  0.00244727  0.67209945  0.66727643  1
  Cs  Cs9  1  0.34552102  -0.00071699  -0.00320942  1
  Cs  Cs10  1  0.33290157  0.00157947  0.33386109  1
  Cs  Cs11  1  0.32670953  -0.00070953  0.66955466  1
  Cs  Cs12  1  0.33300803  0.33279143  0.00013461  1
  Cs  Cs13  1  0.33369207  0.33338198  0.33320949  1
  Cs  Cs14  1  0.32965911  0.33235906  0.66607987  1
  Cs  Cs15  1  0.33158341  0.66643985  -0.00180359  1
  Cs  Cs16  1  0.33364451  0.66420202  0.33347381  1
  Cs  Cs17  1  0.33310297  0.66682776  0.66877865  1
  Cs  Cs18  1  0.65835485  -0.00595917  -0.00776680  1
  Cs  Cs19  1  0.66540047  -0.00093282  0.33226756  1
  Cs  Cs20  1  0.66804621  -0.00069403  0.67262110  1
  Cs  Cs21  1  0.66782035  0.33246446  -0.00030406  1
  Cs  Cs22  1  0.66756608  0.33411021  0.33539227  1
  Cs  Cs23  1  0.66768535  0.33458445  0.66360281  1
  Cs  Cs24  1  0.66646846  0.66936946  0.00059203  1
  Cs  Cs25  1  0.66750779  0.66689086  0.33480021  1
  Cs  Cs26  1  0.66593216  0.66542042  0.66392103  1
  Sn  Sn27  1  0.83294100  0.49945695  0.16683022  1
  Sn  Sn28  1  0.50091435  0.49940895  0.83429323  1
  Sn  Sn29  1  0.16525574  0.49982503  0.49917914  1
  Sn  Sn30  1  0.50035038  0.49984731  0.16581537  1
  Sn  Sn31  1  0.50075383  0.16531955  0.49984441  1
  Sn  Sn32  1  0.83290311  0.16699246  0.49940500  1
  Sn  Sn33  1  0.16600852  0.16626381  0.16662455  1
  Sn  Sn34  1  0.83345536  0.16695021  0.16729279  1
  Sn  Sn35  1  0.16667068  0.49970443  0.16770652  1
  Sn  Sn36  1  0.16660488  0.83405346  0.16668069  1
  Sn  Sn37  1  0.83249023  0.49974593  0.83327943  1
  Sn  Sn38  1  0.50012589  0.83495861  0.49965498  1
  Sn  Sn39  1  0.83472192  0.49937380  0.50008421  1
  Pb  Pb40  1  0.83333650  0.83020426  0.83341117  1
  Pb  Pb41  1  0.16683221  0.83332691  0.83693191  1
  Pb  Pb42  1  0.83507644  0.83424442  0.16682549  1
  Pb  Pb43  1  0.50084186  0.16864245  0.16820705  1
  Pb  Pb44  1  0.50016210  0.16959233  0.82993778  1
  Pb  Pb45  1  0.49795021  0.83063084  0.16855115  1
  Pb  Pb46  1  0.16876393  0.83069997  0.49800819  1
  Pb  Pb47  1  0.16622826  0.49980642  0.83355696  1
  Pb  Pb48  1  0.83173179  0.83405532  0.49978547  1
  Pb  Pb49  1  0.83333870  0.16863276  0.83342399  1
  Pb  Pb50  1  0.16654648  0.16685918  0.83731517  1
  Pb  Pb51  1  0.50003372  0.83040272  0.83034980  1
  Pb  Pb52  1  0.16584100  0.16850046  0.49840080  1
  Pb  Pb53  1  0.50003179  0.49944202  0.50000095  1
  I  I54  1  0.16071940  0.00092162  0.16835623  1
  I  I55  1  0.16556833  0.00007959  0.49760143  1
  I  I56  1  0.16614813  -0.00001732  0.83127152  1
  I  I57  1  0.16586822  0.33483618  0.17048709  1
  I  I58  1  0.16898643  0.33682193  0.49401763  1
  I  I59  1  0.16818689  0.33393330  0.83420504  1
  I  I60  1  0.16710120  0.66445543  0.17040576  1
  I  I61  1  0.16331231  0.66237077  0.49400410  1
  I  I62  1  0.16676781  0.66605039  0.83455665  1
  I  I63  1  0.49894284  0.00012392  0.16695727  1
  I  I64  1  0.50539239  0.00108288  0.49641810  1
  I  I65  1  0.49983047  -0.00001569  0.83534659  1
  I  I66  1  0.49560838  0.33718104  0.16655304  1
  I  I67  1  0.50147119  0.33150497  0.49943395  1
  I  I68  1  0.50359592  0.33757810  0.83593808  1
  I  I69  1  0.50061270  0.66200671  0.16673605  1
  I  I70  1  0.49895174  0.66762770  0.49970078  1
  I  I71  1  0.50369904  0.66238430  0.83508817  1
  I  I72  1  0.83932454  0.00399473  0.17377429  1
  I  I73  1  0.83037004  0.00384912  0.49266092  1
  I  I74  1  0.83371210  0.00030715  0.83380494  1
  I  I75  1  0.83777075  0.33506432  0.16755132  1
  I  I76  1  0.83009746  0.33476080  0.49838276  1
  I  I77  1  0.82966352  0.33738317  0.83378874  1
  I  I78  1  0.83401401  0.66284040  0.16743756  1
  I  I79  1  0.83443781  0.66293434  0.49876725  1
  I  I80  1  0.82963478  0.66114157  0.83379407  1
  I  I81  1  0.16034579  0.17282231  0.00591300  1
  I  I82  1  0.16597468  0.16742266  0.32999427  1
  I  I83  1  0.16736307  0.16983342  0.66635993  1
  I  I84  1  0.16487417  0.50017634  0.00381146  1
  I  I85  1  0.16540285  0.50011212  0.33177141  1
  I  I86  1  0.16567780  0.49969724  0.66366483  1
  I  I87  1  0.16655731  0.82666526  0.00504418  1
  I  I88  1  0.16707540  0.83252124  0.33008600  1
  I  I89  1  0.16786048  0.83051058  0.66643094  1
  I  I90  1  0.49918907  0.16639168  0.00010604  1
  I  I91  1  0.50099212  0.16790495  0.33617596  1
  I  I92  1  0.50657939  0.16662110  0.66181356  1
  I  I93  1  0.50193841  0.50006134  0.00125658  1
  I  I94  1  0.50064947  0.49999029  0.33093499  1
  I  I95  1  0.50329891  0.50053448  0.66844006  1
  I  I96  1  0.49857781  0.83383172  0.00000416  1
  I  I97  1  0.49995558  0.83274350  0.33621004  1
  I  I98  1  0.49989433  0.83350657  0.66268476  1
  I  I99  1  0.83999121  0.17298121  0.00367545  1
  I  I100  1  0.83327234  0.17622104  0.33313911  1
  I  I101  1  0.82746074  0.17337101  0.66320753  1
  I  I102  1  0.83355100  0.49661943  0.00154584  1
  I  I103  1  0.83359287  0.49678697  0.33289189  1
  I  I104  1  0.83135665  0.49615795  0.66559921  1
  I  I105  1  0.83404967  0.83277948  0.00028401  1
  I  I106  1  0.83247145  0.82642399  0.33330783  1
  I  I107  1  0.83302434  0.83187485  0.66645264  1
  I  I108  1  -0.00056102  0.17336324  0.17281691  1
  I  I109  1  -0.00323910  0.17190312  0.49667771  1
  I  I110  1  -0.00020802  0.16991357  0.82897246  1
  I  I111  1  -0.00012189  0.49994326  0.16699992  1
  I  I112  1  -0.00115636  0.49530487  0.49647115  1
  I  I113  1  -0.00316188  0.49911100  0.83595093  1
  I  I114  1  0.00313051  0.82628537  0.16859631  1
  I  I115  1  0.00032617  0.83366018  0.49948403  1
  I  I116  1  0.00016704  0.83099257  0.83164291  1
  I  I117  1  0.33103567  0.16983755  0.16912244  1
  I  I118  1  0.33521236  0.16684100  0.49781798  1
  I  I119  1  0.33352631  0.17042439  0.83284191  1
  I  I120  1  0.33243734  0.49999431  0.16813724  1
  I  I121  1  0.33148872  0.50014543  0.49588888  1
  I  I122  1  0.33585728  0.50083130  0.83584037  1
  I  I123  1  0.32996980  0.83200642  0.16879512  1
  I  I124  1  0.33650013  0.83579618  0.49803294  1
  I  I125  1  0.33361216  0.82908986  0.83295552  1
  I  I126  1  0.66990350  0.17461403  0.17042561  1
  I  I127  1  0.66786533  0.17121706  0.49361970  1
  I  I128  1  0.66673704  0.16670367  0.83823566  1
  I  I129  1  0.66774807  0.49549540  0.16742049  1
  I  I130  1  0.66931446  0.49952823  0.49750884  1
  I  I131  1  0.66727758  0.49951797  0.83579770  1
  I  I132  1  0.66637444  0.83156382  0.16744160  1
  I  I133  1  0.66384210  0.82929018  0.49834250  1
  I  I134  1  0.66639460  0.83386014  0.83490918  1
