# generated using pymatgen
data_Cs27Sn14Pb13I81
_symmetry_space_group_name_H-M   'P 1'
_cell_length_a   19.05150759
_cell_length_b   19.04352033
_cell_length_c   19.04883492
_cell_angle_alpha   90.00184994
_cell_angle_beta   90.00137447
_cell_angle_gamma   89.99974117
_symmetry_Int_Tables_number   1
_chemical_formula_structural   Cs27Sn14Pb13I81
_chemical_formula_sum   'Cs27 Sn14 Pb13 I81'
_cell_volume   6911.06535528
_cell_formula_units_Z   1
loop_
 _symmetry_equiv_pos_site_id
 _symmetry_equiv_pos_as_xyz
  1  'x, y, z'
loop_
 _atom_site_type_symbol
 _atom_site_label
 _atom_site_symmetry_multiplicity
 _atom_site_fract_x
 _atom_site_fract_y
 _atom_site_fract_z
 _atom_site_occupancy
  Cs  Cs0  1  -0.00074689  0.00580633  -0.00081900  1
  Cs  Cs1  1  0.00640150  -0.00706098  0.33558554  1
  Cs  Cs2  1  -0.00161571  -0.00056377  0.66599865  1
  Cs  Cs3  1  0.00275646  0.32973730  0.00175368  1
  Cs  Cs4  1  -0.00125356  0.33352074  0.33115394  1
  Cs  Cs5  1  0.00418899  0.33218278  0.66573729  1
  Cs  Cs6  1  -0.00768209  0.67040423  0.00250248  1
  Cs  Cs7  1  -0.00930481  0.67627842  0.32988117  1
  Cs  Cs8  1  -0.00315973  0.67326805  0.66687701  1
  Cs  Cs9  1  0.33487010  0.00104635  0.00036712  1
  Cs  Cs10  1  0.34131043  -0.01404595  0.33305326  1
  Cs  Cs11  1  0.33211381  -0.00242103  0.66887566  1
  Cs  Cs12  1  0.33235867  0.33391823  0.00108465  1
  Cs  Cs13  1  0.33182916  0.33485864  0.33167320  1
  Cs  Cs14  1  0.33038003  0.33722021  0.66716874  1
  Cs  Cs15  1  0.33368019  0.66149480  -0.00216787  1
  Cs  Cs16  1  0.33220206  0.67160995  0.33493105  1
  Cs  Cs17  1  0.33349965  0.66084156  0.66814288  1
  Cs  Cs18  1  0.66668817  -0.00010359  -0.00069170  1
  Cs  Cs19  1  0.64605100  -0.00370215  0.34777268  1
  Cs  Cs20  1  0.67077079  -0.00108669  0.66167721  1
  Cs  Cs21  1  0.66695882  0.33250129  -0.00032227  1
  Cs  Cs22  1  0.67048807  0.33429803  0.33988582  1
  Cs  Cs23  1  0.66727736  0.33266695  0.66510774  1
  Cs  Cs24  1  0.67291638  0.66756387  0.00014190  1
  Cs  Cs25  1  0.68141276  0.66741695  0.32964818  1
  Cs  Cs26  1  0.66912895  0.66688368  0.66938182  1
  Sn  Sn27  1  0.83274734  0.49778814  0.83329726  1
  Sn  Sn28  1  0.83324794  0.16648235  0.16682224  1
  Sn  Sn29  1  0.50140989  0.49954793  0.83366547  1
  Sn  Sn30  1  0.16691422  0.49942507  0.49772034  1
  Sn  Sn31  1  0.49858534  0.83311062  0.83370924  1
  Sn  Sn32  1  0.49987073  0.16714499  0.83324117  1
  Sn  Sn33  1  0.16782747  0.83441168  0.83414407  1
  Sn  Sn34  1  0.16726535  0.16750559  0.49895310  1
  Sn  Sn35  1  0.49909477  0.49997220  0.49938256  1
  Sn  Sn36  1  0.49935402  0.49961096  0.16703657  1
  Sn  Sn37  1  0.16722186  0.49969592  0.16842122  1
  Sn  Sn38  1  0.16644249  0.16717334  0.16748750  1
  Sn  Sn39  1  0.83332327  0.16838652  0.83412887  1
  Sn  Sn40  1  0.16705831  0.16593875  0.83331930  1
  Pb  Pb41  1  0.16679877  0.83319783  0.16363739  1
  Pb  Pb42  1  0.83453877  0.49948757  0.50252306  1
  Pb  Pb43  1  0.83302819  0.83394786  0.49979261  1
  Pb  Pb44  1  0.50008872  0.82968850  0.16364930  1
  Pb  Pb45  1  0.16600643  0.50004426  0.83380225  1
  Pb  Pb46  1  0.49968620  0.82905825  0.50328745  1
  Pb  Pb47  1  0.16709341  0.83251236  0.50268000  1
  Pb  Pb48  1  0.83621636  0.16685365  0.49918333  1
  Pb  Pb49  1  0.49997185  0.16880635  0.16507985  1
  Pb  Pb50  1  0.83399376  0.49755262  0.16441792  1
  Pb  Pb51  1  0.49666127  0.16942649  0.50268531  1
  Pb  Pb52  1  0.83309878  0.83448754  0.83375458  1
  Pb  Pb53  1  0.83290453  0.83905897  0.16627794  1
  I  I54  1  0.15825651  0.00333204  0.16914773  1
  I  I55  1  0.16205774  0.00292081  0.49777121  1
  I  I56  1  0.17002542  0.00225365  0.83267838  1
  I  I57  1  0.16710547  0.33298348  0.16208042  1
  I  I58  1  0.17130982  0.33345330  0.50557981  1
  I  I59  1  0.16881290  0.33013968  0.83313940  1
  I  I60  1  0.17410708  0.66352400  0.17006318  1
  I  I61  1  0.17313730  0.66310917  0.49786205  1
  I  I62  1  0.17106558  0.66857337  0.83217857  1
  I  I63  1  0.50092184  -0.00016681  0.16532189  1
  I  I64  1  0.50083892  -0.00033295  0.49973300  1
  I  I65  1  0.49852403  0.00081920  0.83484335  1
  I  I66  1  0.49745379  0.33653745  0.16030471  1
  I  I67  1  0.49930992  0.33685620  0.50538436  1
  I  I68  1  0.50020045  0.33386558  0.83331108  1
  I  I69  1  0.48960552  0.66155187  0.16333578  1
  I  I70  1  0.48849263  0.66169479  0.50409779  1
  I  I71  1  0.49848656  0.66530813  0.83239509  1
  I  I72  1  0.84579390  0.00578499  0.15120755  1
  I  I73  1  0.83625778  0.00075119  0.50590144  1
  I  I74  1  0.83111176  0.00370836  0.83813029  1
  I  I75  1  0.83641909  0.33043176  0.16159883  1
  I  I76  1  0.82814105  0.33325991  0.49981329  1
  I  I77  1  0.82910273  0.33238349  0.83667601  1
  I  I78  1  0.83354370  0.66669860  0.16569120  1
  I  I79  1  0.83687687  0.66603130  0.50413958  1
  I  I80  1  0.83014333  0.66445599  0.83152561  1
  I  I81  1  0.16578872  0.16714346  -0.00074777  1
  I  I82  1  0.15690860  0.17647101  0.33284776  1
  I  I83  1  0.16770632  0.16751987  0.66791286  1
  I  I84  1  0.17075688  0.49652922  0.00216216  1
  I  I85  1  0.17871499  0.48705569  0.33306834  1
  I  I86  1  0.17020401  0.49662971  0.66501822  1
  I  I87  1  0.17175685  0.83773044  -0.00379651  1
  I  I88  1  0.16496618  0.83713307  0.33319805  1
  I  I89  1  0.17067100  0.83779602  0.67043125  1
  I  I90  1  0.49323884  0.17012290  -0.00381116  1
  I  I91  1  0.50409308  0.16763201  0.33362187  1
  I  I92  1  0.50173552  0.16916002  0.67128582  1
  I  I93  1  0.49815159  0.50024016  -0.00131640  1
  I  I94  1  0.49125096  0.49641411  0.33326692  1
  I  I95  1  0.49860053  0.50041590  0.66806485  1
  I  I96  1  0.49477619  0.83169782  -0.00431548  1
  I  I97  1  0.50138388  0.83647632  0.33352036  1
  I  I98  1  0.49456108  0.83200510  0.67093810  1
  I  I99  1  0.84103523  0.17213621  -0.00217726  1
  I  I100  1  0.84146445  0.16951645  0.32983804  1
  I  I101  1  0.83285906  0.16970844  0.66999629  1
  I  I102  1  0.82807148  0.49974182  -0.00330748  1
  I  I103  1  0.82756669  0.49968876  0.33326710  1
  I  I104  1  0.82836512  0.49314310  0.67064337  1
  I  I105  1  0.83385239  0.82591068  -0.00054414  1
  I  I106  1  0.83589216  0.82946214  0.33268066  1
  I  I107  1  0.83467001  0.83424954  0.66765451  1
  I  I108  1  0.00175017  0.17584626  0.15725219  1
  I  I109  1  0.00414625  0.17617382  0.50960270  1
  I  I110  1  0.00080638  0.16677229  0.83322480  1
  I  I111  1  0.00319497  0.49795395  0.16986660  1
  I  I112  1  0.00367284  0.49374843  0.49735345  1
  I  I113  1  -0.00239051  0.49646381  0.83317777  1
  I  I114  1  0.00026040  0.82236387  0.16335575  1
  I  I115  1  0.00076831  0.82941884  0.50507492  1
  I  I116  1  0.00246027  0.83549693  0.83186846  1
  I  I117  1  0.33011837  0.16992298  0.16314202  1
  I  I118  1  0.32926900  0.16941485  0.50096759  1
  I  I119  1  0.33287200  0.16653261  0.83297560  1
  I  I120  1  0.33275356  0.49180859  0.16173734  1
  I  I121  1  0.33292111  0.49449925  0.50559326  1
  I  I122  1  0.33593336  0.49815896  0.83296214  1
  I  I123  1  0.33324955  0.84192806  0.16868856  1
  I  I124  1  0.33325808  0.83836680  0.49760205  1
  I  I125  1  0.33338776  0.83744739  0.83281845  1
  I  I126  1  0.66924408  0.16933022  0.15442854  1
  I  I127  1  0.66642542  0.16611030  0.49977547  1
  I  I128  1  0.66658097  0.16826348  0.84099868  1
  I  I129  1  0.66410253  0.49981525  0.16796850  1
  I  I130  1  0.66399156  0.50173064  0.49829623  1
  I  I131  1  0.66488888  0.49781397  0.83303655  1
  I  I132  1  0.66653674  0.83007126  0.16175452  1
  I  I133  1  0.66590059  0.83403517  0.50390670  1
  I  I134  1  0.66378329  0.83400304  0.83275847  1
