# generated using pymatgen
data_Cs27Sn13Pb14I81
_symmetry_space_group_name_H-M   'P 1'
_cell_length_a   18.98206082
_cell_length_b   18.97625190
_cell_length_c   18.97352235
_cell_angle_alpha   89.99994016
_cell_angle_beta   90.00005321
_cell_angle_gamma   90.00088402
_symmetry_Int_Tables_number   1
_chemical_formula_structural   Cs27Sn13Pb14I81
_chemical_formula_sum   'Cs27 Sn13 Pb14 I81'
_cell_volume   6834.42151189
_cell_formula_units_Z   1
loop_
 _symmetry_equiv_pos_site_id
 _symmetry_equiv_pos_as_xyz
  1  'x, y, z'
loop_
 _atom_site_type_symbol
 _atom_site_label
 _atom_site_symmetry_multiplicity
 _atom_site_fract_x
 _atom_site_fract_y
 _atom_site_fract_z
 _atom_site_occupancy
  Cs  Cs0  1  0.00036874  0.00061918  -0.00623460  1
  Cs  Cs1  1  -0.00018201  -0.00181951  0.33481891  1
  Cs  Cs2  1  -0.00659205  0.00723051  0.67309333  1
  Cs  Cs3  1  0.00093827  0.33495881  0.00154943  1
  Cs  Cs4  1  0.00783648  0.33189214  0.33946674  1
  Cs  Cs5  1  0.00055386  0.32774006  0.65801807  1
  Cs  Cs6  1  0.00046678  0.66569269  0.00136632  1
  Cs  Cs7  1  0.00155732  0.66733709  0.33362754  1
  Cs  Cs8  1  -0.00308718  0.66742296  0.66547374  1
  Cs  Cs9  1  0.33265610  0.00639215  -0.00662651  1
  Cs  Cs10  1  0.33467290  -0.00254526  0.33248907  1
  Cs  Cs11  1  0.33230901  -0.00085668  0.67245900  1
  Cs  Cs12  1  0.33169463  0.32924726  0.00211986  1
  Cs  Cs13  1  0.32869895  0.33036875  0.33307153  1
  Cs  Cs14  1  0.33243075  0.33312681  0.66470891  1
  Cs  Cs15  1  0.33289319  0.66620110  -0.00047061  1
  Cs  Cs16  1  0.33390613  0.66841575  0.33298224  1
  Cs  Cs17  1  0.33520471  0.66709700  0.66751118  1
  Cs  Cs18  1  0.66594092  0.00393486  -0.00243669  1
  Cs  Cs19  1  0.66542740  -0.00166439  0.33206245  1
  Cs  Cs20  1  0.67320377  0.00158234  0.67282110  1
  Cs  Cs21  1  0.66636617  0.33525513  0.00062502  1
  Cs  Cs22  1  0.66552716  0.33301883  0.33212426  1
  Cs  Cs23  1  0.66770948  0.33471285  0.66600694  1
  Cs  Cs24  1  0.66679972  0.66455282  0.00183524  1
  Cs  Cs25  1  0.66597261  0.66767633  0.33248268  1
  Cs  Cs26  1  0.66666280  0.66629477  0.66588383  1
  Sn  Sn27  1  0.49994060  0.49994704  0.49929350  1
  Sn  Sn28  1  0.83384697  0.50018058  0.83372995  1
  Sn  Sn29  1  0.16717677  0.83338286  0.50010541  1
  Sn  Sn30  1  0.49941360  0.83384392  0.49975346  1
  Sn  Sn31  1  0.49973310  0.50038240  0.83377453  1
  Sn  Sn32  1  0.16635227  0.50022238  0.83313236  1
  Sn  Sn33  1  0.16728307  0.83320630  0.16684925  1
  Sn  Sn34  1  0.49957493  0.83294833  0.16670628  1
  Sn  Sn35  1  0.50015760  0.50044119  0.16685571  1
  Sn  Sn36  1  0.83352235  0.16714592  0.16719416  1
  Sn  Sn37  1  0.83313538  0.49962219  0.16658430  1
  Sn  Sn38  1  0.83310626  0.83344886  0.16667094  1
  Sn  Sn39  1  0.50021795  0.16581491  0.49994802  1
  Pb  Pb40  1  0.83142760  0.50003230  0.49912157  1
  Pb  Pb41  1  0.16659160  0.17001179  0.83324832  1
  Pb  Pb42  1  0.50018753  0.16990676  0.83043751  1
  Pb  Pb43  1  0.50128094  0.16656932  0.16819085  1
  Pb  Pb44  1  0.83314415  0.17020284  0.83596459  1
  Pb  Pb45  1  0.16691703  0.50167773  0.16552164  1
  Pb  Pb46  1  0.83318712  0.83078393  0.83629994  1
  Pb  Pb47  1  0.16659488  0.83155955  0.83289645  1
  Pb  Pb48  1  0.16936313  0.50241424  0.50225458  1
  Pb  Pb49  1  0.50015056  0.83155369  0.83354781  1
  Pb  Pb50  1  0.83090984  0.16658696  0.49739343  1
  Pb  Pb51  1  0.83297491  0.83339660  0.49826098  1
  Pb  Pb52  1  0.16380783  0.16317415  0.16680645  1
  Pb  Pb53  1  0.16930499  0.16290195  0.49991982  1
  I  I54  1  0.16912960  -0.00521925  0.17081295  1
  I  I55  1  0.17287660  -0.00488563  0.49396043  1
  I  I56  1  0.16699743  -0.00014735  0.83374606  1
  I  I57  1  0.16679924  0.33338817  0.16448482  1
  I  I58  1  0.16772715  0.33338334  0.50176195  1
  I  I59  1  0.16843535  0.33839414  0.83511393  1
  I  I60  1  0.16330697  0.66981823  0.16944882  1
  I  I61  1  0.17252699  0.67002801  0.49535994  1
  I  I62  1  0.16790462  0.66338357  0.83443292  1
  I  I63  1  0.50163208  -0.00338440  0.17259196  1
  I  I64  1  0.49600481  -0.00152509  0.49164240  1
  I  I65  1  0.49930187  0.00016613  0.83391511  1
  I  I66  1  0.50519706  0.33675014  0.16661502  1
  I  I67  1  0.50288932  0.33465624  0.50098836  1
  I  I68  1  0.50074114  0.33867994  0.83541448  1
  I  I69  1  0.50423348  0.66631358  0.17027575  1
  I  I70  1  0.49679342  0.66664305  0.49908512  1
  I  I71  1  0.50060357  0.66264538  0.82994792  1
  I  I72  1  0.83241756  -0.00111651  0.17042292  1
  I  I73  1  0.83058122  -0.00017827  0.49721486  1
  I  I74  1  0.83387590  0.00025176  0.83405695  1
  I  I75  1  0.82586826  0.33498442  0.16133855  1
  I  I76  1  0.83093166  0.33355431  0.49801106  1
  I  I77  1  0.83086887  0.33823890  0.83983999  1
  I  I78  1  0.83151629  0.66633388  0.16265169  1
  I  I79  1  0.83103625  0.66662997  0.49876411  1
  I  I80  1  0.83178846  0.66246536  0.83875045  1
  I  I81  1  0.16823099  0.16388173  0.00021777  1
  I  I82  1  0.16563616  0.17164559  0.33334617  1
  I  I83  1  0.16677521  0.16509965  0.66642548  1
  I  I84  1  0.17093323  0.50359474  -0.00245794  1
  I  I85  1  0.16588515  0.49929373  0.33353536  1
  I  I86  1  0.16660798  0.50290404  0.67018103  1
  I  I87  1  0.16645525  0.83082189  0.00320228  1
  I  I88  1  0.16777681  0.83145498  0.33239694  1
  I  I89  1  0.17545430  0.83000585  0.66350771  1
  I  I90  1  0.50111575  0.16641315  0.00002382  1
  I  I91  1  0.50206229  0.17125280  0.33607574  1
  I  I92  1  0.49951698  0.16534977  0.66236316  1
  I  I93  1  0.50168007  0.50545886  0.00095358  1
  I  I94  1  0.50588602  0.50176714  0.33261166  1
  I  I95  1  0.49997086  0.50029830  0.66647980  1
  I  I96  1  0.50034842  0.82775380  0.00384677  1
  I  I97  1  0.50005010  0.82828466  0.33267146  1
  I  I98  1  0.49374259  0.83123249  0.66319298  1
  I  I99  1  0.83069842  0.16301976  0.00392667  1
  I  I100  1  0.83191647  0.16948610  0.32934423  1
  I  I101  1  0.83297989  0.16763970  0.66678537  1
  I  I102  1  0.82789071  0.50093287  0.00124269  1
  I  I103  1  0.82761578  0.50158746  0.32923719  1
  I  I104  1  0.83118248  0.50064695  0.66941448  1
  I  I105  1  0.83277939  0.83470943  0.00515417  1
  I  I106  1  0.83249704  0.82899143  0.32914891  1
  I  I107  1  0.83340732  0.83170323  0.66684206  1
  I  I108  1  -0.00429545  0.16993110  0.16624505  1
  I  I109  1  0.00013015  0.16639665  0.49972296  1
  I  I110  1  -0.00031018  0.16769767  0.83341482  1
  I  I111  1  -0.00294634  0.50190521  0.16034682  1
  I  I112  1  0.00031623  0.50146151  0.50064854  1
  I  I113  1  -0.00088636  0.50200179  0.84164707  1
  I  I114  1  -0.00029570  0.83184176  0.17062890  1
  I  I115  1  0.00273843  0.83089159  0.49425815  1
  I  I116  1  -0.00007780  0.82885073  0.83352936  1
  I  I117  1  0.33331883  0.16774497  0.16761566  1
  I  I118  1  0.33727627  0.17180036  0.49742406  1
  I  I119  1  0.33363816  0.16873859  0.83480134  1
  I  I120  1  0.33674799  0.50472993  0.16604678  1
  I  I121  1  0.33796663  0.49850440  0.49889241  1
  I  I122  1  0.33456891  0.50179805  0.83270747  1
  I  I123  1  0.33458637  0.82621457  0.17210283  1
  I  I124  1  0.33496131  0.83174333  0.49094553  1
  I  I125  1  0.33345406  0.82917015  0.83793246  1
  I  I126  1  0.66927582  0.16364420  0.16815687  1
  I  I127  1  0.66281161  0.16544154  0.49922644  1
  I  I128  1  0.66663965  0.16792624  0.83262898  1
  I  I129  1  0.66610870  0.50417795  0.16290067  1
  I  I130  1  0.66243806  0.50348732  0.50366616  1
  I  I131  1  0.66612240  0.50026516  0.83477805  1
  I  I132  1  0.66604720  0.83102118  0.17096658  1
  I  I133  1  0.66275102  0.83146278  0.49539987  1
  I  I134  1  0.66659361  0.83042612  0.83175732  1
