# generated using pymatgen
data_Cs27Sn13Pb14I81
_symmetry_space_group_name_H-M   'P 1'
_cell_length_a   18.98067359
_cell_length_b   18.97315051
_cell_length_c   18.97582633
_cell_angle_alpha   89.99953686
_cell_angle_beta   89.99826557
_cell_angle_gamma   89.99915964
_symmetry_Int_Tables_number   1
_chemical_formula_structural   Cs27Sn13Pb14I81
_chemical_formula_sum   'Cs27 Sn13 Pb14 I81'
_cell_volume   6833.63485711
_cell_formula_units_Z   1
loop_
 _symmetry_equiv_pos_site_id
 _symmetry_equiv_pos_as_xyz
  1  'x, y, z'
loop_
 _atom_site_type_symbol
 _atom_site_label
 _atom_site_symmetry_multiplicity
 _atom_site_fract_x
 _atom_site_fract_y
 _atom_site_fract_z
 _atom_site_occupancy
  Cs  Cs0  1  0.00452133  0.00189460  0.00010276  1
  Cs  Cs1  1  0.00259748  0.00005627  0.33373186  1
  Cs  Cs2  1  -0.00109955  -0.00074282  0.66584867  1
  Cs  Cs3  1  -0.00716182  0.32852781  -0.00714042  1
  Cs  Cs4  1  -0.00248712  0.33670749  0.33423362  1
  Cs  Cs5  1  0.00110817  0.33040648  0.67027859  1
  Cs  Cs6  1  -0.00280663  0.66716752  0.00164514  1
  Cs  Cs7  1  0.00159215  0.66669611  0.33415099  1
  Cs  Cs8  1  0.00169930  0.66871675  0.66372345  1
  Cs  Cs9  1  0.33393848  0.00109293  0.00174523  1
  Cs  Cs10  1  0.33346799  0.00307006  0.33063390  1
  Cs  Cs11  1  0.33424005  -0.00235885  0.66704085  1
  Cs  Cs12  1  0.33153635  0.33112414  -0.00233925  1
  Cs  Cs13  1  0.33533806  0.33432061  0.33333157  1
  Cs  Cs14  1  0.33209057  0.33988395  0.66911281  1
  Cs  Cs15  1  0.33430542  0.66710047  0.00161931  1
  Cs  Cs16  1  0.33219812  0.66605704  0.33338396  1
  Cs  Cs17  1  0.33460999  0.66519439  0.66579471  1
  Cs  Cs18  1  0.66307469  -0.00240535  -0.00131135  1
  Cs  Cs19  1  0.66398564  0.00619616  0.33477243  1
  Cs  Cs20  1  0.66648702  -0.00071307  0.66617281  1
  Cs  Cs21  1  0.67588285  0.33460565  0.00201837  1
  Cs  Cs22  1  0.66747981  0.32324630  0.33192992  1
  Cs  Cs23  1  0.66523539  0.33204003  0.66722199  1
  Cs  Cs24  1  0.66706974  0.66663265  0.00110635  1
  Cs  Cs25  1  0.66724177  0.66706147  0.33215404  1
  Cs  Cs26  1  0.66333459  0.66753555  0.66638807  1
  Sn  Sn27  1  0.16684490  0.49983926  0.16658464  1
  Sn  Sn28  1  0.83255602  0.83330714  0.16722744  1
  Sn  Sn29  1  0.83382374  0.83246578  0.49954593  1
  Sn  Sn30  1  0.16584280  0.49996240  0.49917634  1
  Sn  Sn31  1  0.83366797  0.50088891  0.50003565  1
  Sn  Sn32  1  0.83340783  0.83306007  0.83330085  1
  Sn  Sn33  1  0.16697787  0.16680597  0.49986534  1
  Sn  Sn34  1  0.50062771  0.83252925  0.16627672  1
  Sn  Sn35  1  0.16685198  0.83285738  0.83283919  1
  Sn  Sn36  1  0.49978651  0.83378828  0.83410293  1
  Sn  Sn37  1  0.49949160  0.50058095  0.16681221  1
  Sn  Sn38  1  0.16629689  0.83344901  0.50053772  1
  Sn  Sn39  1  0.49998170  0.16625121  0.83332287  1
  Pb  Pb40  1  0.83346323  0.50176777  0.16881375  1
  Pb  Pb41  1  0.16656519  0.17057887  0.16867112  1
  Pb  Pb42  1  0.16681587  0.83205141  0.16691751  1
  Pb  Pb43  1  0.50013985  0.50032547  0.83619664  1
  Pb  Pb44  1  0.50051172  0.49999521  0.49739796  1
  Pb  Pb45  1  0.83098179  0.16374469  0.83307579  1
  Pb  Pb46  1  0.50006225  0.83332685  0.49952351  1
  Pb  Pb47  1  0.83335982  0.50254125  0.83010986  1
  Pb  Pb48  1  0.16647456  0.50224532  0.83343589  1
  Pb  Pb49  1  0.83547947  0.16636942  0.50016488  1
  Pb  Pb50  1  0.83359110  0.16309905  0.16667870  1
  Pb  Pb51  1  0.49721933  0.16683164  0.50278900  1
  Pb  Pb52  1  0.16854117  0.16401921  0.83121345  1
  Pb  Pb53  1  0.49986746  0.16683656  0.16428896  1
  I  I54  1  0.16697491  -0.00021484  0.16772306  1
  I  I55  1  0.16298849  -0.00175391  0.50521811  1
  I  I56  1  0.16412136  -0.00461982  0.82876277  1
  I  I57  1  0.17434125  0.33864224  0.17278982  1
  I  I58  1  0.16372986  0.33464852  0.49442015  1
  I  I59  1  0.17033320  0.33324553  0.83202368  1
  I  I60  1  0.16826185  0.66436785  0.17277585  1
  I  I61  1  0.16246279  0.66716686  0.50007247  1
  I  I62  1  0.16947021  0.67099065  0.82724062  1
  I  I63  1  0.50401407  -0.00341006  0.16474545  1
  I  I64  1  0.49953077  -0.00030998  0.49578016  1
  I  I65  1  0.49987158  -0.00299133  0.83846473  1
  I  I66  1  0.49434672  0.33642538  0.16738557  1
  I  I67  1  0.50047414  0.33351086  0.50035218  1
  I  I68  1  0.49749751  0.33080448  0.83230793  1
  I  I69  1  0.49980184  0.66815729  0.16133308  1
  I  I70  1  0.49567549  0.66687579  0.50444856  1
  I  I71  1  0.50039104  0.67053217  0.83485571  1
  I  I72  1  0.82723007  -0.00583347  0.16971025  1
  I  I73  1  0.83719352  -0.00395922  0.50068386  1
  I  I74  1  0.83574993  -0.00513031  0.82996454  1
  I  I75  1  0.83194928  0.33375158  0.16916032  1
  I  I76  1  0.83732023  0.33643011  0.49831918  1
  I  I77  1  0.83126238  0.33327866  0.83247717  1
  I  I78  1  0.83178874  0.67034715  0.16457105  1
  I  I79  1  0.84182603  0.66837375  0.50008439  1
  I  I80  1  0.83042285  0.67141087  0.83565342  1
  I  I81  1  0.16802186  0.16573886  -0.00036180  1
  I  I82  1  0.16711576  0.15864579  0.33710015  1
  I  I83  1  0.16722183  0.17096175  0.66313877  1
  I  I84  1  0.17260314  0.50447042  0.00290746  1
  I  I85  1  0.16737516  0.50363037  0.33474227  1
  I  I86  1  0.16310912  0.49906967  0.66306644  1
  I  I87  1  0.16474095  0.83110826  -0.00235912  1
  I  I88  1  0.16362699  0.83388432  0.33639054  1
  I  I89  1  0.16435843  0.83183799  0.66574723  1
  I  I90  1  0.49762210  0.16160823  -0.00323562  1
  I  I91  1  0.49976331  0.16563591  0.33318024  1
  I  I92  1  0.50065994  0.15740314  0.67034003  1
  I  I93  1  0.49349583  0.50364573  0.00406112  1
  I  I94  1  0.49740534  0.50829377  0.32964069  1
  I  I95  1  0.49899691  0.50063986  0.66673485  1
  I  I96  1  0.50259495  0.83324021  -0.00033523  1
  I  I97  1  0.50237611  0.82877418  0.33014890  1
  I  I98  1  0.50171097  0.83732707  0.66956041  1
  I  I99  1  0.83433737  0.16753269  -0.00025730  1
  I  I100  1  0.83197545  0.16397089  0.33367872  1
  I  I101  1  0.83248056  0.16462183  0.66657653  1
  I  I102  1  0.83335000  0.50144836  0.00027775  1
  I  I103  1  0.83603418  0.50803360  0.33667202  1
  I  I104  1  0.84027363  0.50579845  0.66203988  1
  I  I105  1  0.83238434  0.83374536  -0.00018215  1
  I  I106  1  0.83434462  0.82857053  0.33405187  1
  I  I107  1  0.83423305  0.83014721  0.66636679  1
  I  I108  1  0.00021965  0.16531318  0.16603173  1
  I  I109  1  0.00344862  0.16527412  0.50113828  1
  I  I110  1  0.00011341  0.16586981  0.83263913  1
  I  I111  1  0.00254825  0.50345966  0.17128235  1
  I  I112  1  0.00142026  0.50253524  0.49365751  1
  I  I113  1  0.00001245  0.50138481  0.83878585  1
  I  I114  1  -0.00237665  0.83132029  0.16477312  1
  I  I115  1  0.00043515  0.83263682  0.50283222  1
  I  I116  1  -0.00008911  0.83124078  0.83203692  1
  I  I117  1  0.33326035  0.16119508  0.16749323  1
  I  I118  1  0.32918830  0.16498474  0.49963112  1
  I  I119  1  0.33623114  0.15879040  0.83285805  1
  I  I120  1  0.33318029  0.50727999  0.17262932  1
  I  I121  1  0.32990415  0.50164050  0.49857848  1
  I  I122  1  0.33328517  0.50372589  0.82863410  1
  I  I123  1  0.33579126  0.83113840  0.16334458  1
  I  I124  1  0.32995764  0.83183018  0.50345722  1
  I  I125  1  0.33354254  0.83663933  0.83290151  1
  I  I126  1  0.66649673  0.17132097  0.16790676  1
  I  I127  1  0.66669750  0.16664619  0.50000362  1
  I  I128  1  0.66317714  0.16001561  0.83321207  1
  I  I129  1  0.66429284  0.50400013  0.16653284  1
  I  I130  1  0.66990302  0.50798197  0.50037744  1
  I  I131  1  0.66667264  0.50228782  0.83263954  1
  I  I132  1  0.66622955  0.82738064  0.16318533  1
  I  I133  1  0.66992939  0.82805369  0.50252096  1
  I  I134  1  0.66657613  0.83689984  0.83364599  1
