# generated using pymatgen
data_Cs27Sn14Pb13I81
_symmetry_space_group_name_H-M   'P 1'
_cell_length_a   18.95635619
_cell_length_b   18.96485666
_cell_length_c   18.96132011
_cell_angle_alpha   89.99778390
_cell_angle_beta   89.99877943
_cell_angle_gamma   90.00167045
_symmetry_Int_Tables_number   1
_chemical_formula_structural   Cs27Sn14Pb13I81
_chemical_formula_sum   'Cs27 Sn14 Pb13 I81'
_cell_volume   6816.68137636
_cell_formula_units_Z   1
loop_
 _symmetry_equiv_pos_site_id
 _symmetry_equiv_pos_as_xyz
  1  'x, y, z'
loop_
 _atom_site_type_symbol
 _atom_site_label
 _atom_site_symmetry_multiplicity
 _atom_site_fract_x
 _atom_site_fract_y
 _atom_site_fract_z
 _atom_site_occupancy
  Cs  Cs0  1  0.00237676  -0.00010892  -0.00744286  1
  Cs  Cs1  1  -0.00387339  -0.00352313  0.33614532  1
  Cs  Cs2  1  -0.00367663  -0.00483764  0.67332232  1
  Cs  Cs3  1  0.00232725  0.33209114  0.00049834  1
  Cs  Cs4  1  0.00089286  0.33586993  0.33192517  1
  Cs  Cs5  1  -0.00079531  0.33071193  0.66785014  1
  Cs  Cs6  1  -0.00070243  0.66704546  0.00127012  1
  Cs  Cs7  1  0.00317017  0.66611004  0.33307298  1
  Cs  Cs8  1  0.00390515  0.67334106  0.66611419  1
  Cs  Cs9  1  0.33236694  0.00276528  0.00246870  1
  Cs  Cs10  1  0.33736036  0.00302167  0.33143403  1
  Cs  Cs11  1  0.33259569  0.00047510  0.66686861  1
  Cs  Cs12  1  0.32935188  0.33076165  -0.00061286  1
  Cs  Cs13  1  0.32929141  0.33134291  0.33424947  1
  Cs  Cs14  1  0.33668521  0.33311654  0.66498173  1
  Cs  Cs15  1  0.33507542  0.66646145  -0.00143092  1
  Cs  Cs16  1  0.33003331  0.66705928  0.33475457  1
  Cs  Cs17  1  0.33376090  0.66722690  0.66622276  1
  Cs  Cs18  1  0.66521800  -0.00141214  0.00310099  1
  Cs  Cs19  1  0.66506611  0.00030863  0.33274999  1
  Cs  Cs20  1  0.67006641  0.00120833  0.66558000  1
  Cs  Cs21  1  0.66753398  0.33780265  0.00007815  1
  Cs  Cs22  1  0.66801362  0.33377675  0.33432624  1
  Cs  Cs23  1  0.66475663  0.33354516  0.66588656  1
  Cs  Cs24  1  0.66691697  0.66415960  0.00116253  1
  Cs  Cs25  1  0.66717616  0.66598299  0.33144233  1
  Cs  Cs26  1  0.66431607  0.66497773  0.66778129  1
  Sn  Sn27  1  0.83486977  0.50015770  0.83293249  1
  Sn  Sn28  1  0.83447630  0.83335130  0.16657961  1
  Sn  Sn29  1  0.50052370  0.50011656  0.49857361  1
  Sn  Sn30  1  0.83303828  0.50019046  0.50016787  1
  Sn  Sn31  1  0.49937802  0.16665719  0.50076548  1
  Sn  Sn32  1  0.16635240  0.16631248  0.50026172  1
  Sn  Sn33  1  0.50024800  0.83327148  0.50081382  1
  Sn  Sn34  1  0.50034594  0.16551963  0.83293881  1
  Sn  Sn35  1  0.49993058  0.49968193  0.16790698  1
  Sn  Sn36  1  0.16594078  0.83350995  0.16675987  1
  Sn  Sn37  1  0.50029775  0.83477466  0.83259811  1
  Sn  Sn38  1  0.83279632  0.49989665  0.16695863  1
  Sn  Sn39  1  0.83335304  0.16675033  0.16646380  1
  Sn  Sn40  1  0.16555662  0.50004008  0.83299238  1
  Pb  Pb41  1  0.83092238  0.83107409  0.83543988  1
  Pb  Pb42  1  0.16899036  0.83599637  0.49827645  1
  Pb  Pb43  1  0.50149557  0.16946093  0.16692562  1
  Pb  Pb44  1  0.50030846  0.49974172  0.83310173  1
  Pb  Pb45  1  0.83303692  0.16842248  0.49862075  1
  Pb  Pb46  1  0.16645279  0.50120692  0.16502215  1
  Pb  Pb47  1  0.16374418  0.16405177  0.16874342  1
  Pb  Pb48  1  0.16663273  0.49866857  0.50213751  1
  Pb  Pb49  1  0.16878071  0.16841051  0.83108768  1
  Pb  Pb50  1  0.83091421  0.16876411  0.83548269  1
  Pb  Pb51  1  0.50023039  0.83132664  0.16689407  1
  Pb  Pb52  1  0.83108122  0.83077987  0.49808853  1
  Pb  Pb53  1  0.16916541  0.83156642  0.83523057  1
  I  I54  1  0.16433085  -0.00355460  0.16674235  1
  I  I55  1  0.17304762  0.00363394  0.49802371  1
  I  I56  1  0.16703823  -0.00001480  0.83403607  1
  I  I57  1  0.16676127  0.33314173  0.16607710  1
  I  I58  1  0.17335598  0.33097172  0.49981084  1
  I  I59  1  0.16563849  0.33638777  0.83534753  1
  I  I60  1  0.16268453  0.66898685  0.16678316  1
  I  I61  1  0.16780953  0.66682708  0.49995214  1
  I  I62  1  0.16566423  0.66360959  0.83314120  1
  I  I63  1  0.50189022  0.00005416  0.16832702  1
  I  I64  1  0.49519113  0.00042765  0.50354636  1
  I  I65  1  0.49969069  0.00002866  0.82687046  1
  I  I66  1  0.50603588  0.33748879  0.16877718  1
  I  I67  1  0.50054183  0.33369694  0.50090125  1
  I  I68  1  0.50047759  0.33153122  0.83034869  1
  I  I69  1  0.50541522  0.66340026  0.16847389  1
  I  I70  1  0.50491734  0.66578616  0.50023825  1
  I  I71  1  0.50014419  0.66820079  0.83143241  1
  I  I72  1  0.83587441  -0.00050510  0.16821413  1
  I  I73  1  0.83161841  -0.00014751  0.49586137  1
  I  I74  1  0.83333050  -0.00009566  0.83555295  1
  I  I75  1  0.82735812  0.33513386  0.16685798  1
  I  I76  1  0.82731671  0.33695366  0.49732721  1
  I  I77  1  0.83295675  0.33726029  0.83611238  1
  I  I78  1  0.83203795  0.66528353  0.16624740  1
  I  I79  1  0.82787022  0.66233228  0.49790231  1
  I  I80  1  0.83267968  0.66267228  0.83591197  1
  I  I81  1  0.16819356  0.16718938  -0.00004863  1
  I  I82  1  0.17559165  0.16890546  0.33632526  1
  I  I83  1  0.16941492  0.16859908  0.66327299  1
  I  I84  1  0.16530785  0.50052850  -0.00281604  1
  I  I85  1  0.16564971  0.50003256  0.33351948  1
  I  I86  1  0.16462555  0.49949458  0.66981120  1
  I  I87  1  0.16482539  0.83212268  0.00309367  1
  I  I88  1  0.16437282  0.83063477  0.33039816  1
  I  I89  1  0.16687171  0.83265299  0.66667233  1
  I  I90  1  0.50250282  0.16424864  -0.00218382  1
  I  I91  1  0.49821508  0.16477029  0.33636567  1
  I  I92  1  0.49712888  0.16957761  0.66541246  1
  I  I93  1  0.50375262  0.50130339  0.00182832  1
  I  I94  1  0.50777910  0.50064643  0.33425764  1
  I  I95  1  0.50306069  0.49968568  0.66390986  1
  I  I96  1  0.50033901  0.83463931  -0.00194075  1
  I  I97  1  0.50051908  0.83489928  0.33588839  1
  I  I98  1  0.49940417  0.83002420  0.66597966  1
  I  I99  1  0.83100471  0.16952484  0.00358035  1
  I  I100  1  0.83054586  0.16968841  0.33041646  1
  I  I101  1  0.83393913  0.16990202  0.66669809  1
  I  I102  1  0.83101956  0.50045494  0.00120733  1
  I  I103  1  0.82713349  0.49981231  0.33252626  1
  I  I104  1  0.83018799  0.49826701  0.66627237  1
  I  I105  1  0.83323483  0.83016020  0.00373482  1
  I  I106  1  0.83364706  0.83041909  0.32972370  1
  I  I107  1  0.83362843  0.83159566  0.66667598  1
  I  I108  1  -0.00403002  0.17434545  0.16882429  1
  I  I109  1  0.00188917  0.17100557  0.49562984  1
  I  I110  1  -0.00018906  0.16718856  0.83254811  1
  I  I111  1  -0.00355693  0.49902560  0.16891959  1
  I  I112  1  -0.00288897  0.49701729  0.49607749  1
  I  I113  1  -0.00137629  0.49943554  0.83521005  1
  I  I114  1  -0.00136594  0.82960420  0.16736497  1
  I  I115  1  -0.00016691  0.83327851  0.49935751  1
  I  I116  1  -0.00019349  0.83318414  0.83334515  1
  I  I117  1  0.33340308  0.16664879  0.16511455  1
  I  I118  1  0.33581002  0.16966825  0.50236895  1
  I  I119  1  0.33710681  0.16705347  0.83315860  1
  I  I120  1  0.33589694  0.50277271  0.16887159  1
  I  I121  1  0.33679208  0.50109563  0.49765888  1
  I  I122  1  0.33204909  0.50034057  0.83400154  1
  I  I123  1  0.33184829  0.83017851  0.16658869  1
  I  I124  1  0.33751170  0.82709269  0.50068801  1
  I  I125  1  0.33721411  0.83240342  0.83251316  1
  I  I126  1  0.66944907  0.16361700  0.16857364  1
  I  I127  1  0.66331610  0.16650400  0.50212556  1
  I  I128  1  0.66283484  0.16640227  0.82637767  1
  I  I129  1  0.66784905  0.50242812  0.16490348  1
  I  I130  1  0.66566966  0.49801497  0.50041558  1
  I  I131  1  0.66886175  0.50015530  0.83500161  1
  I  I132  1  0.66913447  0.83259874  0.16653785  1
  I  I133  1  0.66260019  0.83732439  0.50083506  1
  I  I134  1  0.66288559  0.83336429  0.83202596  1
