# generated using pymatgen
data_Cs27Sn13Pb14I81
_symmetry_space_group_name_H-M   'P 1'
_cell_length_a   18.99674471
_cell_length_b   18.98128740
_cell_length_c   18.99769948
_cell_angle_alpha   89.99968158
_cell_angle_beta   90.00022063
_cell_angle_gamma   89.99978565
_symmetry_Int_Tables_number   1
_chemical_formula_structural   Cs27Sn13Pb14I81
_chemical_formula_sum   'Cs27 Sn13 Pb14 I81'
_cell_volume   6850.24122020
_cell_formula_units_Z   1
loop_
 _symmetry_equiv_pos_site_id
 _symmetry_equiv_pos_as_xyz
  1  'x, y, z'
loop_
 _atom_site_type_symbol
 _atom_site_label
 _atom_site_symmetry_multiplicity
 _atom_site_fract_x
 _atom_site_fract_y
 _atom_site_fract_z
 _atom_site_occupancy
  Cs  Cs0  1  0.00115798  0.00171492  0.00088605  1
  Cs  Cs1  1  0.00436726  -0.00147247  0.33843082  1
  Cs  Cs2  1  0.00407786  -0.00130287  0.65967240  1
  Cs  Cs3  1  -0.00142623  0.33184504  -0.00046032  1
  Cs  Cs4  1  0.00163452  0.33457145  0.33272062  1
  Cs  Cs5  1  0.00045070  0.33597442  0.66814842  1
  Cs  Cs6  1  -0.00387982  0.66629867  -0.00028630  1
  Cs  Cs7  1  -0.00082105  0.66430394  0.33475250  1
  Cs  Cs8  1  -0.00118654  0.66304401  0.66577804  1
  Cs  Cs9  1  0.32634050  -0.00649301  0.00110075  1
  Cs  Cs10  1  0.32697616  -0.00721989  0.33809924  1
  Cs  Cs11  1  0.32780463  -0.00984877  0.66122223  1
  Cs  Cs12  1  0.33534896  0.33105812  -0.00149826  1
  Cs  Cs13  1  0.33313571  0.33240049  0.33446075  1
  Cs  Cs14  1  0.33485699  0.33471566  0.66682758  1
  Cs  Cs15  1  0.33608733  0.67377834  0.00172980  1
  Cs  Cs16  1  0.33524101  0.67053777  0.32826053  1
  Cs  Cs17  1  0.33450365  0.66566800  0.66892696  1
  Cs  Cs18  1  0.66866419  0.00406608  -0.00072545  1
  Cs  Cs19  1  0.66702554  0.00255474  0.34224065  1
  Cs  Cs20  1  0.66614161  0.00010659  0.66019836  1
  Cs  Cs21  1  0.66665019  0.33127818  0.00033897  1
  Cs  Cs22  1  0.66519771  0.33188746  0.32952186  1
  Cs  Cs23  1  0.66511854  0.33243065  0.66867117  1
  Cs  Cs24  1  0.66734997  0.66799327  0.00250370  1
  Cs  Cs25  1  0.66487935  0.66754297  0.32746798  1
  Cs  Cs26  1  0.66716869  0.66712267  0.66835397  1
  Sn  Sn27  1  0.83275651  0.16624033  0.83365717  1
  Sn  Sn28  1  0.83239843  0.49948787  0.50054651  1
  Sn  Sn29  1  0.83300952  0.83521401  0.16601771  1
  Sn  Sn30  1  0.50042295  0.49946905  0.83314564  1
  Sn  Sn31  1  0.16692104  0.49956298  0.16592320  1
  Sn  Sn32  1  0.83274907  0.16532547  0.16617995  1
  Sn  Sn33  1  0.83306855  0.83405871  0.83391307  1
  Sn  Sn34  1  0.16705556  0.49966814  0.83415783  1
  Sn  Sn35  1  0.83275544  0.49978394  0.83288416  1
  Sn  Sn36  1  0.50040905  0.49971977  0.50044445  1
  Sn  Sn37  1  0.50000945  0.16627660  0.16588835  1
  Sn  Sn38  1  0.50015015  0.16663538  0.83397401  1
  Sn  Sn39  1  0.16718044  0.49974711  0.49989201  1
  Pb  Pb40  1  0.83347012  0.16940614  0.50036476  1
  Pb  Pb41  1  0.49980982  0.16842098  0.50073006  1
  Pb  Pb42  1  0.16345959  0.83070854  0.16641662  1
  Pb  Pb43  1  0.50033482  0.83006083  0.50010670  1
  Pb  Pb44  1  0.16703796  0.16819721  0.83323687  1
  Pb  Pb45  1  0.16667632  0.16831156  0.16649503  1
  Pb  Pb46  1  0.83447670  0.49928713  0.16626246  1
  Pb  Pb47  1  0.16688887  0.16906652  0.50026087  1
  Pb  Pb48  1  0.50262206  0.83426384  0.83349503  1
  Pb  Pb49  1  0.83313742  0.83051173  0.50003243  1
  Pb  Pb50  1  0.16646465  0.82975663  0.50010607  1
  Pb  Pb51  1  0.49768436  0.49834815  0.16589359  1
  Pb  Pb52  1  0.50287842  0.83759385  0.16632234  1
  Pb  Pb53  1  0.16344196  0.83051725  0.83339749  1
  I  I54  1  0.16877066  -0.00013050  0.16660827  1
  I  I55  1  0.16652157  -0.00056111  0.49940483  1
  I  I56  1  0.16730661  -0.00022303  0.83422487  1
  I  I57  1  0.16235259  0.33687626  0.16752982  1
  I  I58  1  0.16554181  0.33851667  0.50045808  1
  I  I59  1  0.16089928  0.33769051  0.83217755  1
  I  I60  1  0.16547441  0.66229126  0.16745144  1
  I  I61  1  0.16464627  0.66110536  0.50106461  1
  I  I62  1  0.16726398  0.66132558  0.83185111  1
  I  I63  1  0.50095767  0.00532537  0.15759045  1
  I  I64  1  0.50071558  0.00022650  0.50042750  1
  I  I65  1  0.50668695  0.00392561  0.83896504  1
  I  I66  1  0.50812238  0.33083652  0.16536486  1
  I  I67  1  0.49974506  0.33739581  0.50190362  1
  I  I68  1  0.50487770  0.33485859  0.83320785  1
  I  I69  1  0.49975952  0.66678840  0.16822715  1
  I  I70  1  0.49980939  0.66100485  0.50674658  1
  I  I71  1  0.49974244  0.66325897  0.82789578  1
  I  I72  1  0.82949202  0.00092134  0.15607111  1
  I  I73  1  0.83343526  0.00004934  0.50254842  1
  I  I74  1  0.82706631  0.00097335  0.84033569  1
  I  I75  1  0.83142806  0.33066974  0.16379636  1
  I  I76  1  0.83463896  0.33776968  0.50385842  1
  I  I77  1  0.83360598  0.33422759  0.83366685  1
  I  I78  1  0.83710079  0.66805714  0.16410179  1
  I  I79  1  0.83503404  0.66205101  0.50415389  1
  I  I80  1  0.83476540  0.66507408  0.83331206  1
  I  I81  1  0.16572151  0.17319109  -0.00013833  1
  I  I82  1  0.16542478  0.17232845  0.33308665  1
  I  I83  1  0.16485142  0.17018125  0.66703883  1
  I  I84  1  0.16374763  0.49884920  -0.00114763  1
  I  I85  1  0.16419007  0.49903794  0.33399201  1
  I  I86  1  0.16517045  0.49960806  0.66708238  1
  I  I87  1  0.16843708  0.82833716  -0.00008445  1
  I  I88  1  0.16396664  0.83031120  0.33315065  1
  I  I89  1  0.16439867  0.83243862  0.66686226  1
  I  I90  1  0.50641522  0.17646263  -0.00117502  1
  I  I91  1  0.50639068  0.17040535  0.33057974  1
  I  I92  1  0.50730038  0.17208513  0.67052963  1
  I  I93  1  0.50149362  0.49803323  -0.00349224  1
  I  I94  1  0.50025479  0.49839937  0.33572179  1
  I  I95  1  0.49692205  0.49489164  0.66797951  1
  I  I96  1  0.49873421  0.82437595  -0.00005770  1
  I  I97  1  0.50325768  0.83133460  0.33305639  1
  I  I98  1  0.50293264  0.83710133  0.66693293  1
  I  I99  1  0.82990508  0.17008191  -0.00101519  1
  I  I100  1  0.82900042  0.16458128  0.33021406  1
  I  I101  1  0.82859842  0.16574997  0.67045892  1
  I  I102  1  0.83404192  0.50029993  -0.00331239  1
  I  I103  1  0.83512812  0.50043890  0.33554773  1
  I  I104  1  0.83789425  0.50028557  0.66839258  1
  I  I105  1  0.83345005  0.82894786  -0.00092965  1
  I  I106  1  0.83348996  0.83565742  0.33037179  1
  I  I107  1  0.83293127  0.83388707  0.66990022  1
  I  I108  1  -0.00352391  0.16548477  0.16115709  1
  I  I109  1  -0.00032080  0.17062293  0.49956018  1
  I  I110  1  -0.00363496  0.16931709  0.83850275  1
  I  I111  1  0.00235472  0.49892233  0.16706918  1
  I  I112  1  -0.00019627  0.50019273  0.50324338  1
  I  I113  1  -0.00093840  0.50037565  0.83057307  1
  I  I114  1  -0.00427471  0.83906986  0.16146382  1
  I  I115  1  -0.00042439  0.83018061  0.50011313  1
  I  I116  1  -0.00478788  0.83267699  0.83770021  1
  I  I117  1  0.33649127  0.17368173  0.16160440  1
  I  I118  1  0.33366707  0.17162458  0.49908399  1
  I  I119  1  0.33702610  0.17610683  0.83838767  1
  I  I120  1  0.32995797  0.49684871  0.16748882  1
  I  I121  1  0.33340913  0.49855354  0.50420029  1
  I  I122  1  0.33387208  0.49409048  0.82953913  1
  I  I123  1  0.33328088  0.83288356  0.16790050  1
  I  I124  1  0.33329271  0.83238719  0.49946757  1
  I  I125  1  0.33331563  0.83252273  0.83266712  1
  I  I126  1  0.66779403  0.16630735  0.16186219  1
  I  I127  1  0.66676313  0.17084808  0.49866128  1
  I  I128  1  0.66771432  0.17419392  0.83820548  1
  I  I129  1  0.66659070  0.50244453  0.16862322  1
  I  I130  1  0.66681046  0.49981617  0.50825411  1
  I  I131  1  0.66732902  0.49963188  0.82608489  1
  I  I132  1  0.67071134  0.82852340  0.16179022  1
  I  I133  1  0.66712071  0.82961205  0.49991908  1
  I  I134  1  0.67065570  0.82527713  0.83730035  1
