# generated using pymatgen
data_Cs27Sn13Pb14I81
_symmetry_space_group_name_H-M   'P 1'
_cell_length_a   18.97969439
_cell_length_b   18.97591456
_cell_length_c   18.97501084
_cell_angle_alpha   90.00041295
_cell_angle_beta   90.00025380
_cell_angle_gamma   89.99827171
_symmetry_Int_Tables_number   1
_chemical_formula_structural   Cs27Sn13Pb14I81
_chemical_formula_sum   'Cs27 Sn13 Pb14 I81'
_cell_volume   6833.98410083
_cell_formula_units_Z   1
loop_
 _symmetry_equiv_pos_site_id
 _symmetry_equiv_pos_as_xyz
  1  'x, y, z'
loop_
 _atom_site_type_symbol
 _atom_site_label
 _atom_site_symmetry_multiplicity
 _atom_site_fract_x
 _atom_site_fract_y
 _atom_site_fract_z
 _atom_site_occupancy
  Cs  Cs0  1  0.00009047  0.00020100  0.00136948  1
  Cs  Cs1  1  -0.00359484  0.00181217  0.33080829  1
  Cs  Cs2  1  -0.00207726  -0.00312194  0.66610303  1
  Cs  Cs3  1  0.00073919  0.33258893  -0.00109080  1
  Cs  Cs4  1  0.00159157  0.33203016  0.33913345  1
  Cs  Cs5  1  -0.00345554  0.33770967  0.66128964  1
  Cs  Cs6  1  -0.00189382  0.66725829  -0.00007209  1
  Cs  Cs7  1  0.00322203  0.66513573  0.33919039  1
  Cs  Cs8  1  0.00337467  0.66361295  0.65867812  1
  Cs  Cs9  1  0.33106536  0.00193425  -0.00488772  1
  Cs  Cs10  1  0.33455636  0.00300018  0.33201263  1
  Cs  Cs11  1  0.33398629  -0.00546596  0.67471038  1
  Cs  Cs12  1  0.33178916  0.33266402  -0.00149511  1
  Cs  Cs13  1  0.33457224  0.33242428  0.33415972  1
  Cs  Cs14  1  0.33498186  0.33322588  0.66654275  1
  Cs  Cs15  1  0.33260632  0.66531525  0.00053353  1
  Cs  Cs16  1  0.33254723  0.66586692  0.33391513  1
  Cs  Cs17  1  0.33183878  0.67109831  0.66575544  1
  Cs  Cs18  1  0.66794784  -0.00003057  -0.00022049  1
  Cs  Cs19  1  0.66712149  0.00045255  0.33371802  1
  Cs  Cs20  1  0.66566587  -0.00137556  0.66620023  1
  Cs  Cs21  1  0.66725802  0.33609018  -0.00019858  1
  Cs  Cs22  1  0.66385392  0.33261113  0.33252237  1
  Cs  Cs23  1  0.66645858  0.33225693  0.66745407  1
  Cs  Cs24  1  0.66998312  0.66397294  0.00322368  1
  Cs  Cs25  1  0.66550463  0.66806485  0.32897881  1
  Cs  Cs26  1  0.66585755  0.66911675  0.66594620  1
  Sn  Sn27  1  0.83324601  0.16605399  0.83413599  1
  Sn  Sn28  1  0.16663139  0.83269930  0.16643884  1
  Sn  Sn29  1  0.83355191  0.83408734  0.16597124  1
  Sn  Sn30  1  0.50054057  0.16587571  0.16672263  1
  Sn  Sn31  1  0.49998272  0.49953757  0.50096166  1
  Sn  Sn32  1  0.49975621  0.83448851  0.16632679  1
  Sn  Sn33  1  0.49926832  0.50000182  0.83249964  1
  Sn  Sn34  1  0.16802052  0.16594389  0.50046505  1
  Sn  Sn35  1  0.49869480  0.16700962  0.49980439  1
  Sn  Sn36  1  0.16731181  0.49990542  0.83395794  1
  Sn  Sn37  1  0.83354988  0.83385402  0.83402111  1
  Sn  Sn38  1  0.16655485  0.50033817  0.16605192  1
  Sn  Sn39  1  0.83243726  0.16643233  0.16571703  1
  Pb  Pb40  1  0.16418682  0.83107045  0.83549655  1
  Pb  Pb41  1  0.50209194  0.83063783  0.83632469  1
  Pb  Pb42  1  0.50176670  0.16815526  0.83355207  1
  Pb  Pb43  1  0.16905368  0.49838817  0.50004452  1
  Pb  Pb44  1  0.49815397  0.49954687  0.16658343  1
  Pb  Pb45  1  0.16387480  0.16880311  0.83049063  1
  Pb  Pb46  1  0.16659764  0.16659161  0.16753596  1
  Pb  Pb47  1  0.49987054  0.83394166  0.49779689  1
  Pb  Pb48  1  0.83329124  0.83334657  0.49943228  1
  Pb  Pb49  1  0.83240244  0.16655829  0.49974598  1
  Pb  Pb50  1  0.83637047  0.49964025  0.16695564  1
  Pb  Pb51  1  0.83356066  0.50043982  0.83335087  1
  Pb  Pb52  1  0.16697409  0.83650943  0.49737931  1
  Pb  Pb53  1  0.82951699  0.50004848  0.49968575  1
  I  I54  1  0.16587349  -0.00256014  0.16994811  1
  I  I55  1  0.17259172  0.00423328  0.49758269  1
  I  I56  1  0.16753091  -0.00002386  0.83360716  1
  I  I57  1  0.16759357  0.33550808  0.16486534  1
  I  I58  1  0.16765693  0.33070558  0.49620008  1
  I  I59  1  0.16846362  0.33665722  0.84095874  1
  I  I60  1  0.16723349  0.66709028  0.16308581  1
  I  I61  1  0.16681760  0.66659905  0.50073650  1
  I  I62  1  0.16882354  0.66308062  0.83476776  1
  I  I63  1  0.49989486  0.00071466  0.17286744  1
  I  I64  1  0.49805802  0.00353407  0.49593003  1
  I  I65  1  0.49974290  -0.00014315  0.83080958  1
  I  I66  1  0.50334672  0.33049131  0.16823307  1
  I  I67  1  0.49665015  0.33236796  0.49664137  1
  I  I68  1  0.49944326  0.33617525  0.83491447  1
  I  I69  1  0.50305948  0.66897580  0.16632759  1
  I  I70  1  0.50037830  0.66390622  0.50234060  1
  I  I71  1  0.49814617  0.66277089  0.82865489  1
  I  I72  1  0.83471427  0.00003954  0.16325099  1
  I  I73  1  0.83177184  0.00024400  0.50022627  1
  I  I74  1  0.83282970  0.00026463  0.83830905  1
  I  I75  1  0.82884700  0.32984099  0.16273049  1
  I  I76  1  0.83669791  0.33291160  0.50016735  1
  I  I77  1  0.83288394  0.33072080  0.83773247  1
  I  I78  1  0.82922506  0.67004568  0.16156124  1
  I  I79  1  0.83360125  0.66674000  0.50039637  1
  I  I80  1  0.83198294  0.66956601  0.84042717  1
  I  I81  1  0.16840602  0.16644354  -0.00011317  1
  I  I82  1  0.16625997  0.16916979  0.33532552  1
  I  I83  1  0.17210568  0.16977526  0.66297550  1
  I  I84  1  0.17274010  0.50247698  0.00023960  1
  I  I85  1  0.16717646  0.50321888  0.33089278  1
  I  I86  1  0.16717476  0.49723302  0.66909980  1
  I  I87  1  0.16852814  0.83309593  0.00397817  1
  I  I88  1  0.16368086  0.82570362  0.32870286  1
  I  I89  1  0.16428737  0.83193532  0.66691238  1
  I  I90  1  0.50246645  0.16471397  0.00310935  1
  I  I91  1  0.50210710  0.16927819  0.33252271  1
  I  I92  1  0.49870240  0.17107396  0.66412382  1
  I  I93  1  0.49811640  0.50022612  -0.00201651  1
  I  I94  1  0.49850966  0.49831764  0.33515733  1
  I  I95  1  0.49562044  0.49344310  0.66665121  1
  I  I96  1  0.49801294  0.83795141  0.00446146  1
  I  I97  1  0.50351524  0.83173000  0.32912763  1
  I  I98  1  0.50247410  0.83473908  0.66711253  1
  I  I99  1  0.82854453  0.16308315  0.00134886  1
  I  I100  1  0.83263180  0.16192274  0.33006711  1
  I  I101  1  0.83378718  0.16357154  0.66942774  1
  I  I102  1  0.82845934  0.49906154  0.00013598  1
  I  I103  1  0.83443397  0.49976689  0.33296141  1
  I  I104  1  0.83862788  0.49930393  0.66688682  1
  I  I105  1  0.83307468  0.83773689  0.00155192  1
  I  I106  1  0.83276502  0.83830974  0.32899845  1
  I  I107  1  0.83251269  0.83784141  0.66990820  1
  I  I108  1  -0.00259321  0.16386196  0.16516119  1
  I  I109  1  0.00190935  0.16753593  0.49853226  1
  I  I110  1  -0.00382988  0.16492842  0.83981080  1
  I  I111  1  0.00430051  0.50290103  0.16024945  1
  I  I112  1  0.00050524  0.49805823  0.50051428  1
  I  I113  1  0.00266394  0.49930426  0.83900498  1
  I  I114  1  -0.00071000  0.83412873  0.16248440  1
  I  I115  1  0.00020655  0.83461555  0.49786722  1
  I  I116  1  -0.00360795  0.83628461  0.84039321  1
  I  I117  1  0.33598875  0.16460052  0.17025965  1
  I  I118  1  0.33495582  0.17192252  0.49152624  1
  I  I119  1  0.33333844  0.16737614  0.83572117  1
  I  I120  1  0.33043405  0.50364834  0.16579916  1
  I  I121  1  0.33663673  0.49645200  0.49996432  1
  I  I122  1  0.33347626  0.49867402  0.83450821  1
  I  I123  1  0.33348341  0.83259370  0.16926782  1
  I  I124  1  0.33345662  0.83141946  0.49745571  1
  I  I125  1  0.33328605  0.83351907  0.83499721  1
  I  I126  1  0.66631666  0.16020893  0.16922525  1
  I  I127  1  0.66330725  0.17131483  0.49764121  1
  I  I128  1  0.66972795  0.16587534  0.83343117  1
  I  I129  1  0.66642916  0.50237097  0.16679051  1
  I  I130  1  0.66149900  0.49265474  0.50511718  1
  I  I131  1  0.66405548  0.49939138  0.82917867  1
  I  I132  1  0.66693147  0.83750847  0.16386956  1
  I  I133  1  0.66646479  0.83380934  0.49768935  1
  I  I134  1  0.66993848  0.83510675  0.83898838  1
