# generated using pymatgen
data_Cs27Sn14Pb13I81
_symmetry_space_group_name_H-M   'P 1'
_cell_length_a   18.96119629
_cell_length_b   18.96257085
_cell_length_c   18.96257085
_cell_angle_alpha   90.00179189
_cell_angle_beta   89.99956180
_cell_angle_gamma   90.00043831
_symmetry_Int_Tables_number   1
_chemical_formula_structural   Cs27Sn14Pb13I81
_chemical_formula_sum   'Cs27 Sn14 Pb13 I81'
_cell_volume   6818.04976546
_cell_formula_units_Z   1
loop_
 _symmetry_equiv_pos_site_id
 _symmetry_equiv_pos_as_xyz
  1  'x, y, z'
loop_
 _atom_site_type_symbol
 _atom_site_label
 _atom_site_symmetry_multiplicity
 _atom_site_fract_x
 _atom_site_fract_y
 _atom_site_fract_z
 _atom_site_occupancy
  Cs  Cs0  1  0.00356590  -0.00222446  0.00222441  1
  Cs  Cs1  1  0.00107745  0.00116984  0.33275812  1
  Cs  Cs2  1  -0.00094953  0.00283731  0.66519377  1
  Cs  Cs3  1  -0.00094958  0.33480634  -0.00283745  1
  Cs  Cs4  1  -0.00024223  0.33370993  0.33452300  1
  Cs  Cs5  1  -0.00003736  0.33446594  0.66553396  1
  Cs  Cs6  1  0.00107748  0.66724186  -0.00116965  1
  Cs  Cs7  1  -0.00067294  0.66549558  0.33450445  1
  Cs  Cs8  1  -0.00024221  0.66547690  0.66628994  1
  Cs  Cs9  1  0.33142655  -0.00279588  0.00279606  1
  Cs  Cs10  1  0.33135224  0.00297481  0.33020656  1
  Cs  Cs11  1  0.33244213  0.00469671  0.66746384  1
  Cs  Cs12  1  0.33244187  0.33253648  -0.00469671  1
  Cs  Cs13  1  0.33377715  0.33303800  0.33439076  1
  Cs  Cs14  1  0.33072815  0.33173282  0.66826737  1
  Cs  Cs15  1  0.33135219  0.66979333  -0.00297481  1
  Cs  Cs16  1  0.33531791  0.66436689  0.33563317  1
  Cs  Cs17  1  0.33377700  0.66560938  0.66696197  1
  Cs  Cs18  1  0.66605383  0.00013153  -0.00013157  1
  Cs  Cs19  1  0.66714647  -0.00097005  0.33350098  1
  Cs  Cs20  1  0.66727031  -0.00129139  0.66776882  1
  Cs  Cs21  1  0.66727036  0.33223126  0.00129132  1
  Cs  Cs22  1  0.66632468  0.33449181  0.33120730  1
  Cs  Cs23  1  0.66806687  0.33127832  0.66872155  1
  Cs  Cs24  1  0.66714650  0.66649894  0.00096997  1
  Cs  Cs25  1  0.66419920  0.66646752  0.33353252  1
  Cs  Cs26  1  0.66632478  0.66879269  0.66550814  1
  Sn  Sn27  1  0.16670803  0.83266908  0.49989985  1
  Sn  Sn28  1  0.16670797  0.50010016  0.16733098  1
  Sn  Sn29  1  0.83210043  0.16757452  0.49899520  1
  Sn  Sn30  1  0.83210049  0.50100481  0.83242548  1
  Sn  Sn31  1  0.83257319  0.83252936  0.83415326  1
  Sn  Sn32  1  0.50100499  0.16598850  0.16752484  1
  Sn  Sn33  1  0.16600230  0.50111366  0.49888633  1
  Sn  Sn34  1  0.50122111  0.16672057  0.49918938  1
  Sn  Sn35  1  0.83257318  0.16584675  0.16747063  1
  Sn  Sn36  1  0.50092016  0.83373488  0.16626511  1
  Sn  Sn37  1  0.83337160  0.49951765  0.50048233  1
  Sn  Sn38  1  0.50122112  0.50081064  0.83327944  1
  Sn  Sn39  1  0.83263077  0.83389101  0.16610893  1
  Sn  Sn40  1  0.50100499  0.83247519  0.83401156  1
  Pb  Pb41  1  0.16636141  0.16630611  0.83369393  1
  Pb  Pb42  1  0.83456238  0.50014497  0.16660027  1
  Pb  Pb43  1  0.50030332  0.49777215  0.50222790  1
  Pb  Pb44  1  0.16644421  0.83337251  0.83074984  1
  Pb  Pb45  1  0.83456240  0.83339976  0.49985496  1
  Pb  Pb46  1  0.16624579  0.50015911  0.83268373  1
  Pb  Pb47  1  0.16644422  0.16925019  0.16662750  1
  Pb  Pb48  1  0.49780681  0.83568628  0.49999793  1
  Pb  Pb49  1  0.83345113  0.16620263  0.83379737  1
  Pb  Pb50  1  0.16624585  0.16731629  0.49984092  1
  Pb  Pb51  1  0.16669460  0.83130279  0.16869725  1
  Pb  Pb52  1  0.50018702  0.16595355  0.83404643  1
  Pb  Pb53  1  0.49780686  0.50000216  0.16431366  1
  I  I54  1  0.16665118  -0.00019741  0.16822557  1
  I  I55  1  0.16640378  -0.00197276  0.50132263  1
  I  I56  1  0.16688232  -0.00075669  0.83031763  1
  I  I57  1  0.16606578  0.33695367  0.17315703  1
  I  I58  1  0.16512890  0.33648782  0.49724673  1
  I  I59  1  0.16781155  0.33402770  0.83185911  1
  I  I60  1  0.16578211  0.66366281  0.16922017  1
  I  I61  1  0.16110072  0.66508644  0.49671544  1
  I  I62  1  0.16725415  0.66663007  0.83455020  1
  I  I63  1  0.50286251  -0.00036283  0.16476791  1
  I  I64  1  0.50469262  0.00350485  0.50107319  1
  I  I65  1  0.50460783  -0.00333303  0.83345790  1
  I  I66  1  0.50316865  0.33053010  0.16915597  1
  I  I67  1  0.49932071  0.32987050  0.49536983  1
  I  I68  1  0.50272995  0.33578302  0.83280299  1
  I  I69  1  0.50342499  0.66964101  0.16440119  1
  I  I70  1  0.50102739  0.66665168  0.49811848  1
  I  I71  1  0.50338816  0.66748015  0.83810490  1
  I  I72  1  0.83033094  -0.00020488  0.16703760  1
  I  I73  1  0.83205449  0.00252685  0.49971504  1
  I  I74  1  0.82858540  -0.00328965  0.83300952  1
  I  I75  1  0.83070976  0.33087196  0.16772306  1
  I  I76  1  0.83599655  0.33366485  0.50052405  1
  I  I77  1  0.83060697  0.33629637  0.83244677  1
  I  I78  1  0.83075261  0.66940865  0.16596600  1
  I  I79  1  0.83716431  0.66413432  0.50122066  1
  I  I80  1  0.82991160  0.66659666  0.83312312  1
  I  I81  1  0.16688220  0.16968223  0.00075669  1
  I  I82  1  0.16725428  0.16544942  0.33336988  1
  I  I83  1  0.16781151  0.16814122  0.66597232  1
  I  I84  1  0.16640399  0.49867741  0.00197271  1
  I  I85  1  0.16110043  0.50328493  0.33491352  1
  I  I86  1  0.16512913  0.50275285  0.66351215  1
  I  I87  1  0.16665126  0.83177428  0.00019741  1
  I  I88  1  0.16578184  0.83077965  0.33633717  1
  I  I89  1  0.16606600  0.82684313  0.66304635  1
  I  I90  1  0.50460792  0.16654147  0.00333303  1
  I  I91  1  0.50338815  0.16189531  0.33251981  1
  I  I92  1  0.50272992  0.16719711  0.66421701  1
  I  I93  1  0.50469268  0.49892687  -0.00350482  1
  I  I94  1  0.50102732  0.50188142  0.33334832  1
  I  I95  1  0.49932064  0.50463015  0.67012953  1
  I  I96  1  0.50286258  0.83523252  0.00036283  1
  I  I97  1  0.50342494  0.83559872  0.33035902  1
  I  I98  1  0.50316863  0.83084374  0.66946985  1
  I  I99  1  0.82858546  0.16699032  0.00328965  1
  I  I100  1  0.82991159  0.16687682  0.33340338  1
  I  I101  1  0.83060700  0.16755353  0.66370362  1
  I  I102  1  0.83205436  0.50028507  -0.00252684  1
  I  I103  1  0.83716461  0.49877946  0.33586569  1
  I  I104  1  0.83599641  0.49947579  0.66633513  1
  I  I105  1  0.83033075  0.83296255  0.00020487  1
  I  I106  1  0.83075271  0.83403391  0.33059138  1
  I  I107  1  0.83070979  0.83227688  0.66912805  1
  I  I108  1  -0.00361807  0.16295668  0.17092886  1
  I  I109  1  -0.00335937  0.16756089  0.49653619  1
  I  I110  1  -0.00091603  0.16772145  0.83227853  1
  I  I111  1  0.00230636  0.50008944  0.16677320  1
  I  I112  1  -0.00088688  0.49775066  0.50224974  1
  I  I113  1  -0.00335938  0.50346372  0.83243914  1
  I  I114  1  -0.00308848  0.83666340  0.16333634  1
  I  I115  1  0.00230636  0.83322645  0.49991079  1
  I  I116  1  -0.00361811  0.82907139  0.83704344  1
  I  I117  1  0.33672774  0.16303277  0.17033300  1
  I  I118  1  0.33597319  0.16577433  0.49689612  1
  I  I119  1  0.33410459  0.16864132  0.83135878  1
  I  I120  1  0.33026047  0.50001103  0.17200989  1
  I  I121  1  0.33095648  0.50193297  0.49806681  1
  I  I122  1  0.33597318  0.50310381  0.83422573  1
  I  I123  1  0.33638959  0.83691640  0.16308369  1
  I  I124  1  0.33026050  0.82799012  0.49998867  1
  I  I125  1  0.33672774  0.82966686  0.83696715  1
  I  I126  1  0.66688181  0.16361967  0.17125820  1
  I  I127  1  0.66775119  0.17176449  0.49608662  1
  I  I128  1  0.66676116  0.16851678  0.83148328  1
  I  I129  1  0.66658997  0.49982051  0.16868763  1
  I  I130  1  0.66969065  0.49760289  0.50239696  1
  I  I131  1  0.66775118  0.50391347  0.82823555  1
  I  I132  1  0.66682887  0.83666743  0.16333277  1
  I  I133  1  0.66658996  0.83131251  0.50017942  1
  I  I134  1  0.66688177  0.82874185  0.83638030  1
