# generated using pymatgen
data_Cs27Sn14Pb13I81
_symmetry_space_group_name_H-M   'P 1'
_cell_length_a   18.97964741
_cell_length_b   18.96743542
_cell_length_c   18.97895803
_cell_angle_alpha   90.00093426
_cell_angle_beta   89.99880407
_cell_angle_gamma   89.99876805
_symmetry_Int_Tables_number   1
_chemical_formula_structural   Cs27Sn14Pb13I81
_chemical_formula_sum   'Cs27 Sn14 Pb13 I81'
_cell_volume   6832.33448332
_cell_formula_units_Z   1
loop_
 _symmetry_equiv_pos_site_id
 _symmetry_equiv_pos_as_xyz
  1  'x, y, z'
loop_
 _atom_site_type_symbol
 _atom_site_label
 _atom_site_symmetry_multiplicity
 _atom_site_fract_x
 _atom_site_fract_y
 _atom_site_fract_z
 _atom_site_occupancy
  Cs  Cs0  1  -0.00020384  -0.00168603  -0.00100772  1
  Cs  Cs1  1  -0.00533927  0.00490776  0.33710794  1
  Cs  Cs2  1  -0.00051366  -0.00076547  0.66361772  1
  Cs  Cs3  1  0.00076460  0.33299774  0.00309612  1
  Cs  Cs4  1  0.00671021  0.32624880  0.33259207  1
  Cs  Cs5  1  0.00068932  0.32995103  0.66707476  1
  Cs  Cs6  1  -0.00077350  0.66644044  -0.00110396  1
  Cs  Cs7  1  0.00022277  0.66753442  0.33103187  1
  Cs  Cs8  1  -0.00235228  0.67000698  0.67156820  1
  Cs  Cs9  1  0.33775838  0.00358018  -0.00096507  1
  Cs  Cs10  1  0.33853659  -0.00227152  0.33081616  1
  Cs  Cs11  1  0.33397581  -0.00022588  0.66879117  1
  Cs  Cs12  1  0.33175157  0.32536226  0.00023285  1
  Cs  Cs13  1  0.32123288  0.33914240  0.33748780  1
  Cs  Cs14  1  0.33341076  0.32991460  0.66347976  1
  Cs  Cs15  1  0.33273919  0.66878965  0.00035555  1
  Cs  Cs16  1  0.33336841  0.66452601  0.33378061  1
  Cs  Cs17  1  0.33466536  0.66772189  0.66618933  1
  Cs  Cs18  1  0.66356454  0.00194198  0.00246357  1
  Cs  Cs19  1  0.66858707  0.00366802  0.33259290  1
  Cs  Cs20  1  0.66645985  -0.00026783  0.66483514  1
  Cs  Cs21  1  0.66794777  0.33379600  -0.00078843  1
  Cs  Cs22  1  0.66818691  0.33504616  0.33315642  1
  Cs  Cs23  1  0.66432871  0.33841045  0.66869588  1
  Cs  Cs24  1  0.66768092  0.66594299  0.00021948  1
  Cs  Cs25  1  0.66611162  0.66604309  0.33218728  1
  Cs  Cs26  1  0.66672571  0.66537489  0.66710550  1
  Sn  Sn27  1  0.83287206  0.83453867  0.83422915  1
  Sn  Sn28  1  0.83395455  0.50027726  0.49864882  1
  Sn  Sn29  1  0.83307997  0.16528644  0.83343740  1
  Sn  Sn30  1  0.16702350  0.83265913  0.83361727  1
  Sn  Sn31  1  0.16820995  0.50067731  0.83335964  1
  Sn  Sn32  1  0.49840124  0.50074747  0.83456083  1
  Sn  Sn33  1  0.50018064  0.16615602  0.49968774  1
  Sn  Sn34  1  0.16737527  0.83296894  0.49985621  1
  Sn  Sn35  1  0.50010139  0.83256142  0.83269150  1
  Sn  Sn36  1  0.50013560  0.49996576  0.16564690  1
  Sn  Sn37  1  0.49964931  0.83409130  0.50062013  1
  Sn  Sn38  1  0.83290373  0.50077894  0.16799229  1
  Sn  Sn39  1  0.16576732  0.83308060  0.16664167  1
  Sn  Sn40  1  0.83388785  0.83261010  0.16595490  1
  Pb  Pb41  1  0.83292150  0.83207266  0.49976713  1
  Pb  Pb42  1  0.50095611  0.50060164  0.50008622  1
  Pb  Pb43  1  0.49994656  0.17088494  0.16989753  1
  Pb  Pb44  1  0.83343976  0.50052327  0.83404906  1
  Pb  Pb45  1  0.16925159  0.16328728  0.50020159  1
  Pb  Pb46  1  0.16644657  0.50189282  0.16435670  1
  Pb  Pb47  1  0.16374059  0.50270597  0.50282456  1
  Pb  Pb48  1  0.50183969  0.16673436  0.83203482  1
  Pb  Pb49  1  0.83316327  0.16665410  0.16460228  1
  Pb  Pb50  1  0.16672008  0.16267952  0.16663627  1
  Pb  Pb51  1  0.83126952  0.16966248  0.50232453  1
  Pb  Pb52  1  0.50035827  0.83190728  0.16666612  1
  Pb  Pb53  1  0.16438177  0.16602892  0.83331223  1
  I  I54  1  0.16083554  -0.00593290  0.16298712  1
  I  I55  1  0.16507165  -0.00503161  0.50416611  1
  I  I56  1  0.16911716  -0.00435471  0.83345877  1
  I  I57  1  0.16641562  0.33371489  0.16497473  1
  I  I58  1  0.16732904  0.33359836  0.50163492  1
  I  I59  1  0.16883722  0.33628311  0.83358315  1
  I  I60  1  0.16492820  0.67021959  0.16741840  1
  I  I61  1  0.17446569  0.67067039  0.49881673  1
  I  I62  1  0.16459675  0.66859961  0.83305692  1
  I  I63  1  0.49972515  -0.00012662  0.16449138  1
  I  I64  1  0.49671550  -0.00229906  0.50686291  1
  I  I65  1  0.49743864  -0.00350338  0.83130136  1
  I  I66  1  0.50839375  0.33872873  0.15981794  1
  I  I67  1  0.50550515  0.33191368  0.50124781  1
  I  I68  1  0.49909446  0.33657124  0.83465758  1
  I  I69  1  0.50234640  0.66407792  0.16704892  1
  I  I70  1  0.49740546  0.66959813  0.50227024  1
  I  I71  1  0.50216926  0.66778898  0.83040313  1
  I  I72  1  0.83789956  -0.00357016  0.16448440  1
  I  I73  1  0.83500259  -0.00018444  0.49835963  1
  I  I74  1  0.83356917  -0.00300727  0.83767575  1
  I  I75  1  0.82773625  0.33674617  0.16762983  1
  I  I76  1  0.82966514  0.33743289  0.49749368  1
  I  I77  1  0.83222801  0.33205008  0.83164760  1
  I  I78  1  0.83317881  0.66722155  0.16360654  1
  I  I79  1  0.83015356  0.66443866  0.50208097  1
  I  I80  1  0.83372338  0.66971027  0.83385486  1
  I  I81  1  0.16685274  0.16596346  -0.00034465  1
  I  I82  1  0.16600767  0.16801922  0.33363244  1
  I  I83  1  0.16521790  0.16590357  0.66679086  1
  I  I84  1  0.16465703  0.50748591  -0.00347783  1
  I  I85  1  0.16941322  0.50205955  0.33328452  1
  I  I86  1  0.17072409  0.50648446  0.67062211  1
  I  I87  1  0.16482042  0.82847312  -0.00104182  1
  I  I88  1  0.16711559  0.83315751  0.33329111  1
  I  I89  1  0.16673057  0.82956022  0.66784284  1
  I  I90  1  0.50098872  0.16441829  0.00003540  1
  I  I91  1  0.50240258  0.15727236  0.33733573  1
  I  I92  1  0.50176273  0.16666641  0.66428516  1
  I  I93  1  0.50381434  0.50719992  -0.00125270  1
  I  I94  1  0.50459594  0.50109399  0.33115963  1
  I  I95  1  0.49976706  0.50161465  0.66945553  1
  I  I96  1  0.49846552  0.83032965  -0.00298638  1
  I  I97  1  0.49699887  0.83459242  0.33578798  1
  I  I98  1  0.49793608  0.83105140  0.66791271  1
  I  I99  1  0.83196175  0.16700194  -0.00335958  1
  I  I100  1  0.83215364  0.16436146  0.33343769  1
  I  I101  1  0.83344397  0.16114654  0.66995202  1
  I  I102  1  0.83198214  0.50184973  0.00237036  1
  I  I103  1  0.82545595  0.50740107  0.33183886  1
  I  I104  1  0.83204490  0.50083839  0.66563247  1
  I  I105  1  0.83636171  0.83050450  -0.00078897  1
  I  I106  1  0.83621865  0.82944666  0.33065424  1
  I  I107  1  0.83546424  0.83392682  0.66953637  1
  I  I108  1  -0.00026923  0.17224854  0.16657274  1
  I  I109  1  -0.00003069  0.16665397  0.50082430  1
  I  I110  1  -0.00351366  0.16382819  0.83271965  1
  I  I111  1  -0.00283584  0.50330022  0.16759152  1
  I  I112  1  -0.00380261  0.50254470  0.49631394  1
  I  I113  1  0.00186774  0.50429339  0.83220344  1
  I  I114  1  -0.00080172  0.82672011  0.16247673  1
  I  I115  1  0.00215307  0.82919252  0.50340269  1
  I  I116  1  0.00015658  0.83209469  0.83328594  1
  I  I117  1  0.33361144  0.16578746  0.16466756  1
  I  I118  1  0.33702211  0.16771310  0.50276327  1
  I  I119  1  0.33347953  0.16519858  0.83213432  1
  I  I120  1  0.33570763  0.50246492  0.16515787  1
  I  I121  1  0.33304375  0.49773958  0.49750790  1
  I  I122  1  0.33443904  0.50924768  0.83748215  1
  I  I123  1  0.33114461  0.83137502  0.16483864  1
  I  I124  1  0.33377647  0.83623214  0.50363781  1
  I  I125  1  0.33346727  0.82800170  0.83235619  1
  I  I126  1  0.66653257  0.16110140  0.16633097  1
  I  I127  1  0.66384045  0.15804200  0.50133995  1
  I  I128  1  0.66953738  0.16299806  0.83212189  1
  I  I129  1  0.66741840  0.50679070  0.16448482  1
  I  I130  1  0.66878889  0.50310642  0.50223892  1
  I  I131  1  0.66442905  0.50320753  0.83290518  1
  I  I132  1  0.66938862  0.83031779  0.16309782  1
  I  I133  1  0.66393457  0.83438796  0.50424541  1
  I  I134  1  0.66639534  0.83206873  0.83234456  1
