# generated using pymatgen
data_Cs27Sn14Pb13I81
_symmetry_space_group_name_H-M   'P 1'
_cell_length_a   18.96925248
_cell_length_b   18.98048141
_cell_length_c   18.97685047
_cell_angle_alpha   89.99994339
_cell_angle_beta   90.00288795
_cell_angle_gamma   89.99763186
_symmetry_Int_Tables_number   1
_chemical_formula_structural   Cs27Sn14Pb13I81
_chemical_formula_sum   'Cs27 Sn14 Pb13 I81'
_cell_volume   6832.53043625
_cell_formula_units_Z   1
loop_
 _symmetry_equiv_pos_site_id
 _symmetry_equiv_pos_as_xyz
  1  'x, y, z'
loop_
 _atom_site_type_symbol
 _atom_site_label
 _atom_site_symmetry_multiplicity
 _atom_site_fract_x
 _atom_site_fract_y
 _atom_site_fract_z
 _atom_site_occupancy
  Cs  Cs0  1  -0.00176964  0.00021010  0.00091597  1
  Cs  Cs1  1  0.00145448  0.00018769  0.33390186  1
  Cs  Cs2  1  -0.00067599  0.00183605  0.66605209  1
  Cs  Cs3  1  -0.00127055  0.33322193  0.00101530  1
  Cs  Cs4  1  0.00196466  0.33437776  0.33045412  1
  Cs  Cs5  1  0.00139024  0.33139578  0.66792393  1
  Cs  Cs6  1  0.00071516  0.66561693  0.00069071  1
  Cs  Cs7  1  -0.00102807  0.66552918  0.33436542  1
  Cs  Cs8  1  -0.00236506  0.66555162  0.66534691  1
  Cs  Cs9  1  0.33379126  -0.01013516  0.00000253  1
  Cs  Cs10  1  0.33386953  -0.00193726  0.33462225  1
  Cs  Cs11  1  0.33426725  0.00119510  0.66453622  1
  Cs  Cs12  1  0.33228462  0.33780953  -0.00174764  1
  Cs  Cs13  1  0.33468637  0.33284193  0.33466674  1
  Cs  Cs14  1  0.33344164  0.33296494  0.66644181  1
  Cs  Cs15  1  0.34158472  0.67429294  -0.00603276  1
  Cs  Cs16  1  0.33290079  0.66923537  0.32969294  1
  Cs  Cs17  1  0.33426065  0.66775249  0.67517193  1
  Cs  Cs18  1  0.66852158  0.00088876  0.00115475  1
  Cs  Cs19  1  0.66383629  0.00335179  0.33111551  1
  Cs  Cs20  1  0.66815568  0.00011490  0.66745704  1
  Cs  Cs21  1  0.66919726  0.33243853  0.00355904  1
  Cs  Cs22  1  0.65567497  0.33306692  0.33202904  1
  Cs  Cs23  1  0.66475614  0.33356274  0.66516929  1
  Cs  Cs24  1  0.66372000  0.66693378  0.00002104  1
  Cs  Cs25  1  0.66839304  0.66231095  0.33722524  1
  Cs  Cs26  1  0.66888916  0.66503528  0.66278807  1
  Sn  Sn27  1  0.83330344  0.16691814  0.83252873  1
  Sn  Sn28  1  0.83405370  0.50073994  0.16611097  1
  Sn  Sn29  1  0.16742217  0.83304406  0.50035319  1
  Sn  Sn30  1  0.49998097  0.16676392  0.83379014  1
  Sn  Sn31  1  0.16691635  0.16642808  0.83380538  1
  Sn  Sn32  1  0.49923955  0.83321448  0.50009454  1
  Sn  Sn33  1  0.16647731  0.49996829  0.49957626  1
  Sn  Sn34  1  0.83376050  0.16711293  0.50002077  1
  Sn  Sn35  1  0.16655624  0.16707779  0.16660418  1
  Sn  Sn36  1  0.83386174  0.83235303  0.16624232  1
  Sn  Sn37  1  0.16640606  0.49977508  0.16683779  1
  Sn  Sn38  1  0.83374078  0.49971571  0.83395595  1
  Sn  Sn39  1  0.16582292  0.16701397  0.49962472  1
  Sn  Sn40  1  0.83378142  0.83327054  0.83412896  1
  Pb  Pb41  1  0.49606974  0.50279042  0.50014916  1
  Pb  Pb42  1  0.83472575  0.16724087  0.16696764  1
  Pb  Pb43  1  0.16426326  0.83569005  0.83088020  1
  Pb  Pb44  1  0.50332265  0.49753874  0.83330356  1
  Pb  Pb45  1  0.16484243  0.83269988  0.16843464  1
  Pb  Pb46  1  0.50346546  0.83329260  0.16915597  1
  Pb  Pb47  1  0.83508006  0.49683762  0.49932358  1
  Pb  Pb48  1  0.16496028  0.49836891  0.83387447  1
  Pb  Pb49  1  0.49930570  0.50005598  0.16655328  1
  Pb  Pb50  1  0.49953710  0.16537419  0.50157809  1
  Pb  Pb51  1  0.50308596  0.83547863  0.83122533  1
  Pb  Pb52  1  0.49575349  0.16657301  0.16343904  1
  Pb  Pb53  1  0.83370743  0.83538901  0.49962472  1
  I  I54  1  0.16416640  0.00254986  0.16734429  1
  I  I55  1  0.16619043  0.00130305  0.50052787  1
  I  I56  1  0.16359948  0.00434976  0.83372652  1
  I  I57  1  0.15951143  0.33317786  0.17133767  1
  I  I58  1  0.16058044  0.33207853  0.49987487  1
  I  I59  1  0.16378499  0.32963175  0.82870562  1
  I  I60  1  0.16222733  0.66368663  0.17378142  1
  I  I61  1  0.16967486  0.66647566  0.49385500  1
  I  I62  1  0.16441854  0.66681418  0.83188773  1
  I  I63  1  0.50121656  0.00004653  0.16702610  1
  I  I64  1  0.49491941  -0.00226493  0.50133307  1
  I  I65  1  0.50123120  0.00329406  0.83173313  1
  I  I66  1  0.50630903  0.33308456  0.16778791  1
  I  I67  1  0.50096843  0.33334218  0.50092506  1
  I  I68  1  0.50065189  0.32939534  0.83070934  1
  I  I69  1  0.49530102  0.66682821  0.16624256  1
  I  I70  1  0.49856653  0.67056500  0.50039215  1
  I  I71  1  0.50033580  0.66695746  0.83245370  1
  I  I72  1  0.83501419  -0.00150645  0.16407403  1
  I  I73  1  0.83919403  0.00316342  0.50457556  1
  I  I74  1  0.83374828  0.00118786  0.83289037  1
  I  I75  1  0.83711750  0.33591002  0.16275242  1
  I  I76  1  0.83935895  0.32906395  0.50538392  1
  I  I77  1  0.83427833  0.33222418  0.83346393  1
  I  I78  1  0.83939981  0.66590305  0.15962001  1
  I  I79  1  0.83395367  0.66650154  0.50318353  1
  I  I80  1  0.83446544  0.66661418  0.83706992  1
  I  I81  1  0.16430790  0.17247029  -0.00031963  1
  I  I82  1  0.16023697  0.16669304  0.33446736  1
  I  I83  1  0.16492670  0.16624467  0.66634003  1
  I  I84  1  0.16231544  0.49254314  0.00288532  1
  I  I85  1  0.15981045  0.49465918  0.33321925  1
  I  I86  1  0.16473450  0.49855508  0.66419584  1
  I  I87  1  0.16687608  0.83455438  -0.00019878  1
  I  I88  1  0.16672841  0.83911922  0.33659092  1
  I  I89  1  0.16737594  0.83343231  0.66269298  1
  I  I90  1  0.50530561  0.16633693  -0.00433111  1
  I  I91  1  0.50225557  0.16538736  0.33325717  1
  I  I92  1  0.49760583  0.16511607  0.66946291  1
  I  I93  1  0.49476938  0.50005934  -0.00020825  1
  I  I94  1  0.50665831  0.49880656  0.33351472  1
  I  I95  1  0.50069388  0.49989720  0.66666288  1
  I  I96  1  0.49855314  0.83419972  -0.00028360  1
  I  I97  1  0.49653318  0.83629719  0.33683284  1
  I  I98  1  0.49661511  0.83514715  0.66371833  1
  I  I99  1  0.83456756  0.16612098  -0.00298638  1
  I  I100  1  0.83951525  0.16418608  0.33572914  1
  I  I101  1  0.83817855  0.16552591  0.66808238  1
  I  I102  1  0.83941597  0.49798059  0.00000193  1
  I  I103  1  0.83663036  0.50513976  0.33050577  1
  I  I104  1  0.83480505  0.50189814  0.66904337  1
  I  I105  1  0.83425639  0.83650930  -0.00073003  1
  I  I106  1  0.83432728  0.83004592  0.33112141  1
  I  I107  1  0.83364063  0.83274878  0.66900397  1
  I  I108  1  0.00292561  0.16738227  0.16388081  1
  I  I109  1  0.00145708  0.16368268  0.50543485  1
  I  I110  1  -0.00048462  0.16657372  0.83119220  1
  I  I111  1  -0.00007524  0.49930726  0.16680096  1
  I  I112  1  0.00318096  0.50418869  0.49905906  1
  I  I113  1  -0.00340788  0.49698117  0.83396033  1
  I  I114  1  -0.00313673  0.83314473  0.16511130  1
  I  I115  1  0.00261026  0.83373686  0.50006860  1
  I  I116  1  -0.00383738  0.83665352  0.83411719  1
  I  I117  1  0.32763405  0.17278676  0.17047511  1
  I  I118  1  0.32950442  0.16807109  0.50120538  1
  I  I119  1  0.33202457  0.16740599  0.83139445  1
  I  I120  1  0.32918297  0.49323025  0.17293822  1
  I  I121  1  0.32791535  0.49191226  0.49414482  1
  I  I122  1  0.33312683  0.49770151  0.83298606  1
  I  I123  1  0.33314547  0.83374071  0.16621226  1
  I  I124  1  0.33154991  0.83727969  0.49921610  1
  I  I125  1  0.33320920  0.83485498  0.83400667  1
  I  I126  1  0.66666239  0.16654387  0.16788056  1
  I  I127  1  0.66924631  0.16364896  0.50503712  1
  I  I128  1  0.66869607  0.16600051  0.82724813  1
  I  I129  1  0.67023694  0.50355864  0.16210372  1
  I  I130  1  0.66682132  0.50018453  0.49995948  1
  I  I131  1  0.67188280  0.49795678  0.83857294  1
  I  I132  1  0.67159718  0.82923312  0.16425828  1
  I  I133  1  0.66529673  0.83724269  0.50093152  1
  I  I134  1  0.67112339  0.83656863  0.83415253  1
