# generated using pymatgen
data_Cs27Sn14Pb13I81
_symmetry_space_group_name_H-M   'P 1'
_cell_length_a   18.96091043
_cell_length_b   18.95947453
_cell_length_c   18.96125655
_cell_angle_alpha   89.99865348
_cell_angle_beta   90.00170183
_cell_angle_gamma   90.00016476
_symmetry_Int_Tables_number   1
_chemical_formula_structural   Cs27Sn14Pb13I81
_chemical_formula_sum   'Cs27 Sn14 Pb13 I81'
_cell_volume   6816.36122624
_cell_formula_units_Z   1
loop_
 _symmetry_equiv_pos_site_id
 _symmetry_equiv_pos_as_xyz
  1  'x, y, z'
loop_
 _atom_site_type_symbol
 _atom_site_label
 _atom_site_symmetry_multiplicity
 _atom_site_fract_x
 _atom_site_fract_y
 _atom_site_fract_z
 _atom_site_occupancy
  Cs  Cs0  1  -0.00026221  -0.00003213  0.00044712  1
  Cs  Cs1  1  -0.00014669  -0.00255030  0.33233525  1
  Cs  Cs2  1  0.00076026  -0.00024434  0.66627669  1
  Cs  Cs3  1  0.00114660  0.33529481  -0.00019779  1
  Cs  Cs4  1  0.00366955  0.33417790  0.33207826  1
  Cs  Cs5  1  -0.00194046  0.33338408  0.66784775  1
  Cs  Cs6  1  -0.00330756  0.66690560  0.00219500  1
  Cs  Cs7  1  -0.00303127  0.66818394  0.33585491  1
  Cs  Cs8  1  0.00228538  0.66720203  0.66391628  1
  Cs  Cs9  1  0.33418985  0.00089730  -0.00015361  1
  Cs  Cs10  1  0.33372006  -0.00108246  0.33202694  1
  Cs  Cs11  1  0.33151713  -0.00181933  0.66903660  1
  Cs  Cs12  1  0.33021839  0.33019774  0.00445415  1
  Cs  Cs13  1  0.33471102  0.33516673  0.33111302  1
  Cs  Cs14  1  0.33312921  0.33315645  0.66478743  1
  Cs  Cs15  1  0.33612042  0.66676571  -0.00279812  1
  Cs  Cs16  1  0.33408004  0.66700826  0.33420905  1
  Cs  Cs17  1  0.33235313  0.66803698  0.66776156  1
  Cs  Cs18  1  0.66413071  -0.00125078  0.00247618  1
  Cs  Cs19  1  0.66645932  0.00073578  0.33197126  1
  Cs  Cs20  1  0.66788168  0.00245632  0.66615702  1
  Cs  Cs21  1  0.66976956  0.33814076  -0.00243194  1
  Cs  Cs22  1  0.66046416  0.33103629  0.33832619  1
  Cs  Cs23  1  0.66981185  0.33273720  0.66378604  1
  Cs  Cs24  1  0.66802216  0.66080024  -0.00095885  1
  Cs  Cs25  1  0.66930534  0.66675912  0.33147344  1
  Cs  Cs26  1  0.66428075  0.66622900  0.66889966  1
  Sn  Sn27  1  0.16681098  0.49997126  0.83273027  1
  Sn  Sn28  1  0.16593884  0.49888096  0.50081006  1
  Sn  Sn29  1  0.50119959  0.16598191  0.16552596  1
  Sn  Sn30  1  0.49971811  0.16668284  0.83386807  1
  Sn  Sn31  1  0.83385750  0.83379075  0.83263898  1
  Sn  Sn32  1  0.16577305  0.83317911  0.83460015  1
  Sn  Sn33  1  0.16745256  0.83323774  0.16544546  1
  Sn  Sn34  1  0.16676474  0.16749272  0.50059935  1
  Sn  Sn35  1  0.83235321  0.16683947  0.16660146  1
  Sn  Sn36  1  0.16728330  0.16689340  0.83250201  1
  Sn  Sn37  1  0.83391951  0.50053890  0.49994284  1
  Sn  Sn38  1  0.49925915  0.83360430  0.16727553  1
  Sn  Sn39  1  0.50121762  0.83362791  0.49942832  1
  Sn  Sn40  1  0.83204034  0.83286081  0.50104186  1
  Pb  Pb41  1  0.16707051  0.16491731  0.16644555  1
  Pb  Pb42  1  0.50018312  0.83475422  0.83364142  1
  Pb  Pb43  1  0.83333757  0.49661160  0.16978768  1
  Pb  Pb44  1  0.50003032  0.49994086  0.16651804  1
  Pb  Pb45  1  0.83564816  0.50257792  0.83111913  1
  Pb  Pb46  1  0.49965642  0.50280886  0.50013807  1
  Pb  Pb47  1  0.49725665  0.49622771  0.83319957  1
  Pb  Pb48  1  0.16662699  0.83317748  0.50022043  1
  Pb  Pb49  1  0.16665583  0.50341989  0.16681768  1
  Pb  Pb50  1  0.49751929  0.16447691  0.50003586  1
  Pb  Pb51  1  0.83279693  0.83430117  0.16657328  1
  Pb  Pb52  1  0.83568197  0.16640808  0.49812781  1
  Pb  Pb53  1  0.83359503  0.16481960  0.83511318  1
  I  I54  1  0.16769826  -0.00307466  0.16429490  1
  I  I55  1  0.16694865  0.00169695  0.50279239  1
  I  I56  1  0.16707631  -0.00002474  0.83243674  1
  I  I57  1  0.16678413  0.33320825  0.16547483  1
  I  I58  1  0.16175450  0.33363482  0.50672649  1
  I  I59  1  0.17140088  0.33250637  0.82844714  1
  I  I60  1  0.17134578  0.67158612  0.16396927  1
  I  I61  1  0.16584903  0.66454819  0.50264145  1
  I  I62  1  0.16228257  0.66748006  0.83213489  1
  I  I63  1  0.49930902  -0.00024338  0.16694336  1
  I  I64  1  0.50344723  -0.00352422  0.49825365  1
  I  I65  1  0.49341046  0.00260028  0.83444857  1
  I  I66  1  0.50272533  0.32945342  0.16331380  1
  I  I67  1  0.50155545  0.33302784  0.49953385  1
  I  I68  1  0.49539446  0.32809621  0.83913322  1
  I  I69  1  0.49521096  0.67041236  0.17109287  1
  I  I70  1  0.49839873  0.67106984  0.49476362  1
  I  I71  1  0.49903154  0.66681250  0.83352488  1
  I  I72  1  0.83288338  0.00204462  0.16887514  1
  I  I73  1  0.83214437  -0.00292031  0.50187273  1
  I  I74  1  0.83979672  -0.00329496  0.82728894  1
  I  I75  1  0.82905981  0.32881007  0.16627643  1
  I  I76  1  0.83692100  0.33561704  0.49768025  1
  I  I77  1  0.83354975  0.33334612  0.83328860  1
  I  I78  1  0.83387819  0.66671352  0.16545607  1
  I  I79  1  0.83697203  0.66779067  0.50260176  1
  I  I80  1  0.83761350  0.67083919  0.83329334  1
  I  I81  1  0.16769926  0.16776766  -0.00289203  1
  I  I82  1  0.16592766  0.16857920  0.33549965  1
  I  I83  1  0.17111967  0.16406101  0.66791485  1
  I  I84  1  0.16766641  0.49673848  -0.00326011  1
  I  I85  1  0.16351180  0.49649022  0.33673018  1
  I  I86  1  0.16324526  0.50144784  0.66657158  1
  I  I87  1  0.16623896  0.83489289  -0.00132901  1
  I  I88  1  0.16734725  0.83499923  0.33163505  1
  I  I89  1  0.16630214  0.83417563  0.66918268  1
  I  I90  1  0.49668954  0.15946019  0.00049270  1
  I  I91  1  0.50213522  0.16369073  0.33070650  1
  I  I92  1  0.49606000  0.16404064  0.66906394  1
  I  I93  1  0.49872301  0.50541492  -0.00027856  1
  I  I94  1  0.49693083  0.49596068  0.33359503  1
  I  I95  1  0.50102044  0.50112472  0.66660607  1
  I  I96  1  0.49778240  0.83722570  0.00256042  1
  I  I97  1  0.49840550  0.83891536  0.33262138  1
  I  I98  1  0.49990520  0.83474389  0.66463474  1
  I  I99  1  0.83446605  0.16215536  0.00284293  1
  I  I100  1  0.82934792  0.16359528  0.33045105  1
  I  I101  1  0.83147407  0.16711255  0.66660075  1
  I  I102  1  0.83457779  0.50150142  -0.00019962  1
  I  I103  1  0.84132227  0.50863592  0.33763148  1
  I  I104  1  0.83591976  0.50057403  0.66304852  1
  I  I105  1  0.83607557  0.83673849  -0.00232041  1
  I  I106  1  0.83390748  0.83133660  0.33594351  1
  I  I107  1  0.83470510  0.83149076  0.66605730  1
  I  I108  1  -0.00135865  0.16355137  0.16770309  1
  I  I109  1  0.00369457  0.16475861  0.50418690  1
  I  I110  1  0.00337307  0.16704764  0.83124822  1
  I  I111  1  0.00016782  0.49937662  0.16538786  1
  I  I112  1  0.00094739  0.50291429  0.50348434  1
  I  I113  1  0.00404109  0.49499904  0.83133958  1
  I  I114  1  0.00206562  0.83605352  0.16612705  1
  I  I115  1  -0.00196231  0.83280324  0.50025993  1
  I  I116  1  0.00160643  0.83574056  0.83293635  1
  I  I117  1  0.33583397  0.16318664  0.16549160  1
  I  I118  1  0.32946111  0.16973109  0.49966128  1
  I  I119  1  0.33184112  0.16372693  0.83529128  1
  I  I120  1  0.33300205  0.49628611  0.16943853  1
  I  I121  1  0.32983029  0.49780195  0.50352474  1
  I  I122  1  0.32869995  0.50686994  0.82646910  1
  I  I123  1  0.33374954  0.83931066  0.16792050  1
  I  I124  1  0.33499969  0.83452758  0.49866863  1
  I  I125  1  0.33037929  0.83259531  0.83327808  1
  I  I126  1  0.66513414  0.15913344  0.16309164  1
  I  I127  1  0.66655737  0.16850212  0.50158868  1
  I  I128  1  0.66428474  0.16213811  0.83600768  1
  I  I129  1  0.66683122  0.50505382  0.16776297  1
  I  I130  1  0.66954547  0.50235027  0.49831351  1
  I  I131  1  0.66691593  0.50086103  0.83246801  1
  I  I132  1  0.66392487  0.83737098  0.16854471  1
  I  I133  1  0.66752184  0.82936149  0.49975290  1
  I  I134  1  0.66897810  0.83654944  0.83174559  1
