# generated using pymatgen
data_Cs27Sn13Pb14I81
_symmetry_space_group_name_H-M   'P 1'
_cell_length_a   18.97548566
_cell_length_b   18.98240547
_cell_length_c   18.97598510
_cell_angle_alpha   89.99882192
_cell_angle_beta   89.99775298
_cell_angle_gamma   89.99916665
_symmetry_Int_Tables_number   1
_chemical_formula_structural   Cs27Sn13Pb14I81
_chemical_formula_sum   'Cs27 Sn13 Pb14 I81'
_cell_volume   6835.15670728
_cell_formula_units_Z   1
loop_
 _symmetry_equiv_pos_site_id
 _symmetry_equiv_pos_as_xyz
  1  'x, y, z'
loop_
 _atom_site_type_symbol
 _atom_site_label
 _atom_site_symmetry_multiplicity
 _atom_site_fract_x
 _atom_site_fract_y
 _atom_site_fract_z
 _atom_site_occupancy
  Cs  Cs0  1  0.00132136  -0.00120107  0.00083945  1
  Cs  Cs1  1  -0.00045112  -0.00014356  0.33350556  1
  Cs  Cs2  1  0.00089794  -0.00148637  0.66613955  1
  Cs  Cs3  1  0.00077400  0.33348816  0.00016476  1
  Cs  Cs4  1  -0.00003766  0.33567595  0.33322524  1
  Cs  Cs5  1  -0.00384605  0.33494506  0.66690683  1
  Cs  Cs6  1  -0.00048694  0.66847836  -0.00129943  1
  Cs  Cs7  1  0.00005215  0.66663073  0.33323001  1
  Cs  Cs8  1  0.00169661  0.66880187  0.66775358  1
  Cs  Cs9  1  0.33447517  -0.00079570  0.00128179  1
  Cs  Cs10  1  0.33449504  0.00102184  0.33506922  1
  Cs  Cs11  1  0.33243408  0.00003215  0.66557025  1
  Cs  Cs12  1  0.33284174  0.33320554  0.00108568  1
  Cs  Cs13  1  0.33274481  0.33686479  0.33231485  1
  Cs  Cs14  1  0.33314929  0.33355437  0.66627441  1
  Cs  Cs15  1  0.34122922  0.66679708  0.00595243  1
  Cs  Cs16  1  0.33549649  0.65865493  0.32828518  1
  Cs  Cs17  1  0.33161682  0.66576089  0.66559889  1
  Cs  Cs18  1  0.66393924  0.00082711  -0.00092376  1
  Cs  Cs19  1  0.66691771  0.00169290  0.33507355  1
  Cs  Cs20  1  0.66535538  0.00220292  0.66576518  1
  Cs  Cs21  1  0.66685284  0.33256410  -0.00623045  1
  Cs  Cs22  1  0.66756509  0.33149823  0.33509520  1
  Cs  Cs23  1  0.67341283  0.33889156  0.67385693  1
  Cs  Cs24  1  0.66147213  0.66589661  0.00075631  1
  Cs  Cs25  1  0.66568476  0.66531531  0.33219824  1
  Cs  Cs26  1  0.66485688  0.66203470  0.66815913  1
  Sn  Sn27  1  0.83353876  0.49996852  0.16671367  1
  Sn  Sn28  1  0.16723104  0.83394115  0.50012460  1
  Sn  Sn29  1  0.83251704  0.16662648  0.16672917  1
  Sn  Sn30  1  0.16653340  0.16635349  0.83232507  1
  Sn  Sn31  1  0.16637793  0.83332173  0.83304196  1
  Sn  Sn32  1  0.83344668  0.83381407  0.83325572  1
  Sn  Sn33  1  0.16679318  0.50058473  0.83345897  1
  Sn  Sn34  1  0.16719195  0.16599530  0.50072640  1
  Sn  Sn35  1  0.50081767  0.16623707  0.16752812  1
  Sn  Sn36  1  0.83307018  0.83358104  0.50033763  1
  Sn  Sn37  1  0.83338113  0.83346976  0.16655271  1
  Sn  Sn38  1  0.49963259  0.16634624  0.49967478  1
  Sn  Sn39  1  0.49956285  0.83374504  0.49990386  1
  Pb  Pb40  1  0.49753784  0.16656735  0.83246622  1
  Pb  Pb41  1  0.83522433  0.50282297  0.83551172  1
  Pb  Pb42  1  0.50266590  0.83545505  0.16934955  1
  Pb  Pb43  1  0.16653360  0.49995555  0.50182469  1
  Pb  Pb44  1  0.16527348  0.83330445  0.16715359  1
  Pb  Pb45  1  0.50286102  0.49653645  0.16676324  1
  Pb  Pb46  1  0.83357849  0.16513480  0.49861684  1
  Pb  Pb47  1  0.83584112  0.16427979  0.83568497  1
  Pb  Pb48  1  0.83347161  0.50307153  0.49809478  1
  Pb  Pb49  1  0.16461153  0.50012787  0.16403189  1
  Pb  Pb50  1  0.16682163  0.16647980  0.16742448  1
  Pb  Pb51  1  0.50003605  0.49898612  0.50011374  1
  Pb  Pb52  1  0.49954660  0.83344891  0.83069387  1
  Pb  Pb53  1  0.49711075  0.50004900  0.83329251  1
  I  I54  1  0.16292619  0.00005558  0.16157225  1
  I  I55  1  0.16663264  -0.00065973  0.50716919  1
  I  I56  1  0.16233323  -0.00073180  0.82912493  1
  I  I57  1  0.16337150  0.33300595  0.16618817  1
  I  I58  1  0.17170366  0.32976175  0.50283884  1
  I  I59  1  0.16815920  0.33250155  0.83055828  1
  I  I60  1  0.16413938  0.66687774  0.16741809  1
  I  I61  1  0.16553940  0.67041880  0.50406812  1
  I  I62  1  0.16049545  0.66839041  0.82864559  1
  I  I63  1  0.50527961  0.00320050  0.16803851  1
  I  I64  1  0.49892035  -0.00009853  0.49601239  1
  I  I65  1  0.49878639  0.00000093  0.83663882  1
  I  I66  1  0.50380868  0.32876464  0.17360276  1
  I  I67  1  0.49300909  0.32905401  0.49454513  1
  I  I68  1  0.49876475  0.33300730  0.83203576  1
  I  I69  1  0.50051674  0.66672786  0.16752021  1
  I  I70  1  0.49986028  0.67012284  0.50128101  1
  I  I71  1  0.49880918  0.66709000  0.83220373  1
  I  I72  1  0.83070805  -0.00053976  0.16720184  1
  I  I73  1  0.83437373  -0.00354710  0.49728903  1
  I  I74  1  0.83938048  -0.00384685  0.83494345  1
  I  I75  1  0.83021947  0.33245778  0.16702707  1
  I  I76  1  0.83367514  0.33316521  0.49723398  1
  I  I77  1  0.83516666  0.33327760  0.83551685  1
  I  I78  1  0.83679038  0.66801947  0.16720962  1
  I  I79  1  0.83473044  0.67204206  0.49826482  1
  I  I80  1  0.83978714  0.67095458  0.83383794  1
  I  I81  1  0.16517037  0.16571450  -0.00278851  1
  I  I82  1  0.16684970  0.16014909  0.33670871  1
  I  I83  1  0.17214215  0.16483886  0.66602020  1
  I  I84  1  0.16485773  0.49941977  -0.00408041  1
  I  I85  1  0.16619129  0.49992893  0.33328980  1
  I  I86  1  0.16482428  0.50084080  0.66982635  1
  I  I87  1  0.16049189  0.83479334  -0.00338277  1
  I  I88  1  0.16458320  0.83987800  0.33716106  1
  I  I89  1  0.16136892  0.83409507  0.66647078  1
  I  I90  1  0.50348526  0.16769364  0.00258916  1
  I  I91  1  0.49840030  0.16156915  0.33415804  1
  I  I92  1  0.49639245  0.16083821  0.66295492  1
  I  I93  1  0.49939189  0.49938356  0.00030512  1
  I  I94  1  0.49896517  0.50306879  0.33324919  1
  I  I95  1  0.50178784  0.49851298  0.66659203  1
  I  I96  1  0.49970801  0.83408742  0.00023709  1
  I  I97  1  0.49871881  0.83586846  0.33743826  1
  I  I98  1  0.50428805  0.84058830  0.66254481  1
  I  I99  1  0.82928308  0.16407691  0.00389585  1
  I  I100  1  0.83486087  0.16347797  0.33024146  1
  I  I101  1  0.83089445  0.16529086  0.66679076  1
  I  I102  1  0.83548568  0.50136331  0.00338022  1
  I  I103  1  0.83408784  0.50161233  0.32981199  1
  I  I104  1  0.83368965  0.50035249  0.66711228  1
  I  I105  1  0.84024930  0.83384328  0.00000511  1
  I  I106  1  0.83404639  0.83372128  0.33349959  1
  I  I107  1  0.83580757  0.83427850  0.66628758  1
  I  I108  1  -0.00296939  0.16578746  0.16612000  1
  I  I109  1  0.00292940  0.16205005  0.50215425  1
  I  I110  1  0.00396048  0.16768565  0.82874933  1
  I  I111  1  -0.00357219  0.49770461  0.16728233  1
  I  I112  1  0.00002389  0.49889470  0.49839036  1
  I  I113  1  0.00314056  0.49813222  0.83410145  1
  I  I114  1  -0.00377525  0.83666815  0.17056168  1
  I  I115  1  0.00029016  0.83704188  0.50042383  1
  I  I116  1  0.00050824  0.83364673  0.82951000  1
  I  I117  1  0.33590710  0.16595051  0.16725894  1
  I  I118  1  0.33288185  0.15809929  0.49824298  1
  I  I119  1  0.32910615  0.16309574  0.83494550  1
  I  I120  1  0.33367783  0.49900720  0.16548725  1
  I  I121  1  0.33317074  0.50492645  0.50014130  1
  I  I122  1  0.32859564  0.50274795  0.83280723  1
  I  I123  1  0.33382728  0.83518542  0.16520618  1
  I  I124  1  0.33232703  0.83884101  0.50680432  1
  I  I125  1  0.32948474  0.83397083  0.82844656  1
  I  I126  1  0.66720456  0.16534050  0.17321280  1
  I  I127  1  0.66416051  0.16042260  0.49486188  1
  I  I128  1  0.66692768  0.16564968  0.83195759  1
  I  I129  1  0.67068220  0.50552514  0.16615867  1
  I  I130  1  0.66680452  0.50034956  0.50022221  1
  I  I131  1  0.66715307  0.50088062  0.83393257  1
  I  I132  1  0.67119199  0.83123709  0.16545830  1
  I  I133  1  0.66700522  0.83772139  0.49826628  1
  I  I134  1  0.66977852  0.83326623  0.83394793  1
