# generated using pymatgen
data_Cs27Sn13Pb14I81
_symmetry_space_group_name_H-M   'P 1'
_cell_length_a   18.97622429
_cell_length_b   18.97908951
_cell_length_c   18.97526587
_cell_angle_alpha   89.99742790
_cell_angle_beta   89.99758013
_cell_angle_gamma   89.99887078
_symmetry_Int_Tables_number   1
_chemical_formula_structural   Cs27Sn13Pb14I81
_chemical_formula_sum   'Cs27 Sn13 Pb14 I81'
_cell_volume   6833.96968245
_cell_formula_units_Z   1
loop_
 _symmetry_equiv_pos_site_id
 _symmetry_equiv_pos_as_xyz
  1  'x, y, z'
loop_
 _atom_site_type_symbol
 _atom_site_label
 _atom_site_symmetry_multiplicity
 _atom_site_fract_x
 _atom_site_fract_y
 _atom_site_fract_z
 _atom_site_occupancy
  Cs  Cs0  1  -0.00423345  -0.00178162  0.00175571  1
  Cs  Cs1  1  -0.00084775  -0.00229310  0.32395643  1
  Cs  Cs2  1  0.00239795  0.00035448  0.67011315  1
  Cs  Cs3  1  0.00315687  0.33427353  -0.00128799  1
  Cs  Cs4  1  -0.00245788  0.33239351  0.33413715  1
  Cs  Cs5  1  0.00057057  0.33365947  0.66623292  1
  Cs  Cs6  1  -0.00196472  0.66771437  0.00067851  1
  Cs  Cs7  1  0.00224352  0.66750575  0.33233568  1
  Cs  Cs8  1  -0.00116733  0.66607627  0.66729333  1
  Cs  Cs9  1  0.33474190  0.00342977  0.00029756  1
  Cs  Cs10  1  0.33463058  -0.00270404  0.33602589  1
  Cs  Cs11  1  0.33252623  -0.00116159  0.66368207  1
  Cs  Cs12  1  0.33431365  0.33221456  -0.00062127  1
  Cs  Cs13  1  0.33154678  0.33464639  0.32901895  1
  Cs  Cs14  1  0.33132958  0.33404296  0.67020770  1
  Cs  Cs15  1  0.33572210  0.66449177  0.00049235  1
  Cs  Cs16  1  0.33358682  0.66836398  0.33370366  1
  Cs  Cs17  1  0.33354957  0.66705458  0.66585236  1
  Cs  Cs18  1  0.66974985  -0.00203166  0.00329924  1
  Cs  Cs19  1  0.66650080  0.00955202  0.33558690  1
  Cs  Cs20  1  0.66501336  -0.00036145  0.66284420  1
  Cs  Cs21  1  0.66192480  0.33472480  -0.00135556  1
  Cs  Cs22  1  0.67068062  0.32984227  0.33589166  1
  Cs  Cs23  1  0.66662232  0.33215367  0.66553097  1
  Cs  Cs24  1  0.66585717  0.66717250  0.00019975  1
  Cs  Cs25  1  0.66474554  0.66407947  0.33371038  1
  Cs  Cs26  1  0.66860664  0.66595878  0.66627159  1
  Sn  Sn27  1  0.16643096  0.16726237  0.50039579  1
  Sn  Sn28  1  0.16575967  0.16669487  0.83264760  1
  Sn  Sn29  1  0.49916814  0.49992306  0.49932465  1
  Sn  Sn30  1  0.16752617  0.49927106  0.50073514  1
  Sn  Sn31  1  0.83396348  0.49909326  0.83410354  1
  Sn  Sn32  1  0.83369251  0.16768164  0.83316709  1
  Sn  Sn33  1  0.49936930  0.83315804  0.83388685  1
  Sn  Sn34  1  0.16760979  0.83311151  0.83350626  1
  Sn  Sn35  1  0.50011400  0.83280842  0.16617012  1
  Sn  Sn36  1  0.83260756  0.50012761  0.16575004  1
  Sn  Sn37  1  0.16590226  0.50028704  0.83263746  1
  Sn  Sn38  1  0.83356262  0.83337363  0.49984797  1
  Sn  Sn39  1  0.50097880  0.50063456  0.16776175  1
  Pb  Pb40  1  0.49709035  0.17003216  0.50023328  1
  Pb  Pb41  1  0.83322730  0.83321463  0.83242398  1
  Pb  Pb42  1  0.50166338  0.83148802  0.49985865  1
  Pb  Pb43  1  0.16490155  0.83317620  0.50179480  1
  Pb  Pb44  1  0.83337705  0.16974930  0.16370077  1
  Pb  Pb45  1  0.16661831  0.16661490  0.16647580  1
  Pb  Pb46  1  0.83628768  0.16411353  0.50233862  1
  Pb  Pb47  1  0.50004010  0.50149421  0.83326221  1
  Pb  Pb48  1  0.50001750  0.16704832  0.16674114  1
  Pb  Pb49  1  0.50001010  0.16356121  0.83327472  1
  Pb  Pb50  1  0.83392946  0.50081280  0.50021550  1
  Pb  Pb51  1  0.83063380  0.83106254  0.16941611  1
  Pb  Pb52  1  0.16925748  0.83323353  0.16358049  1
  Pb  Pb53  1  0.16682272  0.50002709  0.16666624  1
  I  I54  1  0.16855385  -0.00019102  0.16774560  1
  I  I55  1  0.16448641  0.00241463  0.50614001  1
  I  I56  1  0.16673905  0.00045981  0.82907403  1
  I  I57  1  0.16979062  0.33370417  0.16211944  1
  I  I58  1  0.17017878  0.33460886  0.50876471  1
  I  I59  1  0.16180473  0.33407771  0.82931992  1
  I  I60  1  0.16453384  0.66643374  0.16693379  1
  I  I61  1  0.16870273  0.66356198  0.50457399  1
  I  I62  1  0.16627314  0.66560823  0.82933957  1
  I  I63  1  0.49864037  -0.00322454  0.16096858  1
  I  I64  1  0.50019439  -0.00005451  0.49956454  1
  I  I65  1  0.49675845  -0.00448725  0.83857058  1
  I  I66  1  0.50308327  0.33734996  0.17002887  1
  I  I67  1  0.50110688  0.33822497  0.49512533  1
  I  I68  1  0.49806355  0.33350184  0.83402763  1
  I  I69  1  0.50336652  0.66555621  0.16568324  1
  I  I70  1  0.49398930  0.66347502  0.49926920  1
  I  I71  1  0.49634923  0.66925330  0.83406199  1
  I  I72  1  0.83226366  -0.00007488  0.16633222  1
  I  I73  1  0.83257181  -0.00316665  0.50346140  1
  I  I74  1  0.83705697  0.00207858  0.82989413  1
  I  I75  1  0.82687433  0.33787086  0.16737523  1
  I  I76  1  0.83118818  0.33327697  0.49833493  1
  I  I77  1  0.84102334  0.33458953  0.83614361  1
  I  I78  1  0.83199231  0.66313314  0.15931380  1
  I  I79  1  0.83486253  0.66817112  0.50382068  1
  I  I80  1  0.83657439  0.66384179  0.83494540  1
  I  I81  1  0.16375259  0.16813081  -0.00426830  1
  I  I82  1  0.16792054  0.17313588  0.33674522  1
  I  I83  1  0.16326140  0.16818054  0.66818492  1
  I  I84  1  0.16604352  0.49926493  -0.00352473  1
  I  I85  1  0.16718467  0.49564857  0.33649230  1
  I  I86  1  0.16690532  0.49967664  0.66767478  1
  I  I87  1  0.16586864  0.83231520  -0.00505789  1
  I  I88  1  0.16633255  0.83326088  0.33348849  1
  I  I89  1  0.17220221  0.83267728  0.67028157  1
  I  I90  1  0.49668442  0.17135649  -0.00029603  1
  I  I91  1  0.49807342  0.16157401  0.33360019  1
  I  I92  1  0.50266053  0.16620760  0.66683573  1
  I  I93  1  0.50113782  0.50294859  0.00215244  1
  I  I94  1  0.49952809  0.50657193  0.33286449  1
  I  I95  1  0.49887727  0.50229974  0.66463319  1
  I  I96  1  0.49640400  0.82645326  -0.00036325  1
  I  I97  1  0.50216751  0.82899354  0.33077659  1
  I  I98  1  0.49740172  0.83176107  0.66918202  1
  I  I99  1  0.84103466  0.16532342  -0.00441698  1
  I  I100  1  0.83429005  0.16635661  0.33345723  1
  I  I101  1  0.83528834  0.17371906  0.67035626  1
  I  I102  1  0.83337765  0.49790696  -0.00128435  1
  I  I103  1  0.83200393  0.50411866  0.33130863  1
  I  I104  1  0.83428131  0.49879828  0.66955794  1
  I  I105  1  0.83471182  0.83471234  0.00004753  1
  I  I106  1  0.83385890  0.83002620  0.33662619  1
  I  I107  1  0.83132693  0.82957334  0.66511674  1
  I  I108  1  -0.00015957  0.16805908  0.16868954  1
  I  I109  1  0.00392859  0.17524186  0.50387129  1
  I  I110  1  0.00119414  0.16605824  0.82931400  1
  I  I111  1  -0.00258369  0.49927735  0.16505652  1
  I  I112  1  0.00295947  0.49817055  0.50188463  1
  I  I113  1  0.00071419  0.50175752  0.83287254  1
  I  I114  1  -0.00032865  0.83224997  0.16675470  1
  I  I115  1  -0.00245239  0.82936296  0.50411210  1
  I  I116  1  0.00263407  0.83280027  0.82943664  1
  I  I117  1  0.33331601  0.16954758  0.16332179  1
  I  I118  1  0.32912854  0.16601615  0.50837604  1
  I  I119  1  0.32969797  0.16982888  0.83031892  1
  I  I120  1  0.33633112  0.50405160  0.16755511  1
  I  I121  1  0.33249662  0.49839262  0.50093864  1
  I  I122  1  0.33050411  0.49810109  0.83246998  1
  I  I123  1  0.33724292  0.82512851  0.16668040  1
  I  I124  1  0.33322214  0.83452017  0.49904091  1
  I  I125  1  0.33253682  0.83201476  0.83558421  1
  I  I126  1  0.66685751  0.16474430  0.16458112  1
  I  I127  1  0.66695705  0.16626104  0.50127106  1
  I  I128  1  0.66965908  0.17133644  0.83446056  1
  I  I129  1  0.66618087  0.50466975  0.16569768  1
  I  I130  1  0.66479408  0.50452393  0.49973029  1
  I  I131  1  0.66922075  0.49810880  0.83363696  1
  I  I132  1  0.66301510  0.82931641  0.15774044  1
  I  I133  1  0.66908638  0.82934052  0.50433765  1
  I  I134  1  0.66433619  0.83170722  0.83539306  1
