# generated using pymatgen
data_Cs27Sn14Pb13I81
_symmetry_space_group_name_H-M   'P 1'
_cell_length_a   18.98095091
_cell_length_b   18.96737539
_cell_length_c   18.98107712
_cell_angle_alpha   90.00040923
_cell_angle_beta   89.99965928
_cell_angle_gamma   89.99932687
_symmetry_Int_Tables_number   1
_chemical_formula_structural   Cs27Sn14Pb13I81
_chemical_formula_sum   'Cs27 Sn14 Pb13 I81'
_cell_volume   6833.54501041
_cell_formula_units_Z   1
loop_
 _symmetry_equiv_pos_site_id
 _symmetry_equiv_pos_as_xyz
  1  'x, y, z'
loop_
 _atom_site_type_symbol
 _atom_site_label
 _atom_site_symmetry_multiplicity
 _atom_site_fract_x
 _atom_site_fract_y
 _atom_site_fract_z
 _atom_site_occupancy
  Cs  Cs0  1  -0.00179030  0.00063774  0.00136289  1
  Cs  Cs1  1  0.00122626  0.00107478  0.33160841  1
  Cs  Cs2  1  0.00229778  -0.00022603  0.66706411  1
  Cs  Cs3  1  -0.00313928  0.32640468  0.01038083  1
  Cs  Cs4  1  0.00510012  0.33905798  0.32704026  1
  Cs  Cs5  1  0.00417544  0.33133760  0.66301758  1
  Cs  Cs6  1  0.00035202  0.66844766  -0.00182643  1
  Cs  Cs7  1  -0.00211514  0.66034154  0.33443605  1
  Cs  Cs8  1  -0.00143770  0.66752901  0.66784696  1
  Cs  Cs9  1  0.33256233  -0.00183126  -0.00125538  1
  Cs  Cs10  1  0.33567398  -0.00142330  0.33348244  1
  Cs  Cs11  1  0.33042560  0.00145749  0.66770175  1
  Cs  Cs12  1  0.33570636  0.33318937  0.00078829  1
  Cs  Cs13  1  0.33092733  0.33331430  0.33458565  1
  Cs  Cs14  1  0.33500430  0.33132085  0.66472881  1
  Cs  Cs15  1  0.33337163  0.66773144  -0.00188112  1
  Cs  Cs16  1  0.33561406  0.66814130  0.33116795  1
  Cs  Cs17  1  0.33323839  0.66650847  0.67054654  1
  Cs  Cs18  1  0.66937631  0.00203642  -0.00014715  1
  Cs  Cs19  1  0.66406907  -0.00115133  0.33754748  1
  Cs  Cs20  1  0.66758624  0.00298970  0.66355992  1
  Cs  Cs21  1  0.66679964  0.33122493  0.00122775  1
  Cs  Cs22  1  0.66687955  0.33277167  0.33329985  1
  Cs  Cs23  1  0.66412178  0.33152677  0.66642508  1
  Cs  Cs24  1  0.66625487  0.66656574  -0.00162815  1
  Cs  Cs25  1  0.66669806  0.66839083  0.33718954  1
  Cs  Cs26  1  0.66853367  0.66656987  0.66695285  1
  Sn  Sn27  1  0.50046319  0.83303803  0.83309409  1
  Sn  Sn28  1  0.50023887  0.49943771  0.16651554  1
  Sn  Sn29  1  0.16639782  0.83262805  0.83349393  1
  Sn  Sn30  1  0.16624132  0.50003675  0.83375782  1
  Sn  Sn31  1  0.50063239  0.16753860  0.49901178  1
  Sn  Sn32  1  0.50013004  0.50077128  0.83331350  1
  Sn  Sn33  1  0.16551664  0.83287865  0.16666758  1
  Sn  Sn34  1  0.16663247  0.83269390  0.49985383  1
  Sn  Sn35  1  0.50007835  0.49964510  0.50017605  1
  Sn  Sn36  1  0.83377085  0.83286682  0.16639270  1
  Sn  Sn37  1  0.83370306  0.49988817  0.83340623  1
  Sn  Sn38  1  0.83324415  0.83280526  0.83388514  1
  Sn  Sn39  1  0.50004183  0.16724218  0.16740355  1
  Sn  Sn40  1  0.83356685  0.16725100  0.49974580  1
  Pb  Pb41  1  0.83093288  0.50231044  0.16443209  1
  Pb  Pb42  1  0.49830055  0.83342289  0.50281423  1
  Pb  Pb43  1  0.83558339  0.83471614  0.50026474  1
  Pb  Pb44  1  0.16887268  0.50236613  0.16400349  1
  Pb  Pb45  1  0.16947517  0.16421540  0.16664019  1
  Pb  Pb46  1  0.16905859  0.50232625  0.50213610  1
  Pb  Pb47  1  0.50039967  0.83331069  0.16454306  1
  Pb  Pb48  1  0.83148180  0.49771180  0.50234273  1
  Pb  Pb49  1  0.83101153  0.16429274  0.16924695  1
  Pb  Pb50  1  0.16639753  0.16722112  0.83369329  1
  Pb  Pb51  1  0.16700369  0.16496439  0.49979591  1
  Pb  Pb52  1  0.49998412  0.16706716  0.83320712  1
  Pb  Pb53  1  0.83344956  0.16690625  0.83146378  1
  I  I54  1  0.16577760  -0.00437449  0.16258942  1
  I  I55  1  0.16960096  -0.00346368  0.50444060  1
  I  I56  1  0.16788048  -0.00421907  0.83284003  1
  I  I57  1  0.16577723  0.33376169  0.16494277  1
  I  I58  1  0.16593568  0.33370925  0.50333341  1
  I  I59  1  0.17010182  0.33714803  0.83108868  1
  I  I60  1  0.16653229  0.67068719  0.16743075  1
  I  I61  1  0.16792064  0.67048185  0.49941773  1
  I  I62  1  0.16861626  0.66808931  0.83313750  1
  I  I63  1  0.49947453  0.00193001  0.17075993  1
  I  I64  1  0.50187192  0.00247194  0.49637918  1
  I  I65  1  0.49889378  -0.00297806  0.83395143  1
  I  I66  1  0.50039229  0.33412076  0.16367328  1
  I  I67  1  0.50324838  0.33362046  0.50303047  1
  I  I68  1  0.49977687  0.33704994  0.83317352  1
  I  I69  1  0.49928427  0.66420983  0.16797394  1
  I  I70  1  0.49777024  0.66403807  0.49816632  1
  I  I71  1  0.49917750  0.66586807  0.83361868  1
  I  I72  1  0.83516496  -0.00368139  0.15866161  1
  I  I73  1  0.82490672  0.00238510  0.50190831  1
  I  I74  1  0.83328407  -0.00363905  0.83599154  1
  I  I75  1  0.83352726  0.33345483  0.16467148  1
  I  I76  1  0.82981792  0.32997300  0.50340578  1
  I  I77  1  0.83003282  0.33669614  0.83057159  1
  I  I78  1  0.83483556  0.67042345  0.16543650  1
  I  I79  1  0.83205523  0.66659699  0.49859749  1
  I  I80  1  0.83226858  0.66774892  0.83583455  1
  I  I81  1  0.16899168  0.16382219  0.00024809  1
  I  I82  1  0.16584419  0.16280216  0.33328973  1
  I  I83  1  0.16955935  0.16285134  0.66655855  1
  I  I84  1  0.17024135  0.50739871  -0.00409434  1
  I  I85  1  0.16902578  0.50260108  0.33312559  1
  I  I86  1  0.16906973  0.50677878  0.67039962  1
  I  I87  1  0.16727909  0.82977999  -0.00127695  1
  I  I88  1  0.16397376  0.83644703  0.33274215  1
  I  I89  1  0.16773702  0.83081040  0.66842126  1
  I  I90  1  0.49886366  0.16902224  0.00234273  1
  I  I91  1  0.50358472  0.17295076  0.33394875  1
  I  I92  1  0.50304710  0.16890901  0.66389700  1
  I  I93  1  0.49938046  0.50054085  -0.00122769  1
  I  I94  1  0.49963463  0.49567030  0.33338965  1
  I  I95  1  0.49966285  0.50002428  0.66780535  1
  I  I96  1  0.49569554  0.82962443  -0.00343204  1
  I  I97  1  0.49897556  0.83094840  0.33338477  1
  I  I98  1  0.50026374  0.82949031  0.67090221  1
  I  I99  1  0.83186168  0.16735208  0.00033297  1
  I  I100  1  0.82899788  0.16290716  0.33669957  1
  I  I101  1  0.82453528  0.16389424  0.66386958  1
  I  I102  1  0.83042858  0.50220660  -0.00394775  1
  I  I103  1  0.83079873  0.50177279  0.33323708  1
  I  I104  1  0.83052846  0.50812760  0.67063710  1
  I  I105  1  0.83712054  0.83069086  -0.00157677  1
  I  I106  1  0.83680655  0.83650926  0.33090361  1
  I  I107  1  0.83349763  0.83079520  0.67002264  1
  I  I108  1  -0.00023008  0.16704344  0.16791338  1
  I  I109  1  -0.00236485  0.16187899  0.50438160  1
  I  I110  1  -0.00017087  0.16578191  0.82931469  1
  I  I111  1  -0.00004680  0.49881709  0.16589219  1
  I  I112  1  0.00012815  0.49855229  0.50208990  1
  I  I113  1  0.00001511  0.50936868  0.83140885  1
  I  I114  1  0.00032415  0.83454400  0.16055275  1
  I  I115  1  0.00327474  0.83639103  0.50568510  1
  I  I116  1  0.00023786  0.82772901  0.83326850  1
  I  I117  1  0.33752252  0.16847825  0.17279024  1
  I  I118  1  0.33680235  0.16964660  0.49719314  1
  I  I119  1  0.33356771  0.16401699  0.83086367  1
  I  I120  1  0.33713819  0.49916008  0.16398597  1
  I  I121  1  0.33739523  0.49385474  0.50302275  1
  I  I122  1  0.33437290  0.50713508  0.83339548  1
  I  I123  1  0.33131422  0.83360529  0.16472039  1
  I  I124  1  0.33055370  0.83496067  0.50015394  1
  I  I125  1  0.33301639  0.82833691  0.83360831  1
  I  I126  1  0.66310061  0.16790482  0.16722871  1
  I  I127  1  0.66485339  0.16801231  0.49766017  1
  I  I128  1  0.66646163  0.16428269  0.83442931  1
  I  I129  1  0.66270451  0.49907460  0.16349963  1
  I  I130  1  0.66283596  0.50044108  0.50288826  1
  I  I131  1  0.66560139  0.50711702  0.83301977  1
  I  I132  1  0.66875028  0.83361250  0.16059925  1
  I  I133  1  0.66648222  0.83257851  0.50002230  1
  I  I134  1  0.66690658  0.82734716  0.83825879  1
