# generated using pymatgen
data_Cs27Sn14Pb13I81
_symmetry_space_group_name_H-M   'P 1'
_cell_length_a   18.96993450
_cell_length_b   18.97958730
_cell_length_c   18.97640855
_cell_angle_alpha   90.00067910
_cell_angle_beta   90.00208736
_cell_angle_gamma   89.99863954
_symmetry_Int_Tables_number   1
_chemical_formula_structural   Cs27Sn14Pb13I81
_chemical_formula_sum   'Cs27 Sn14 Pb13 I81'
_cell_volume   6832.29512551
_cell_formula_units_Z   1
loop_
 _symmetry_equiv_pos_site_id
 _symmetry_equiv_pos_as_xyz
  1  'x, y, z'
loop_
 _atom_site_type_symbol
 _atom_site_label
 _atom_site_symmetry_multiplicity
 _atom_site_fract_x
 _atom_site_fract_y
 _atom_site_fract_z
 _atom_site_occupancy
  Cs  Cs0  1  0.00045168  0.00365627  0.00236675  1
  Cs  Cs1  1  -0.00251359  -0.00249064  0.33393062  1
  Cs  Cs2  1  0.00103603  -0.00174562  0.66416483  1
  Cs  Cs3  1  0.00084178  0.33136188  0.00062043  1
  Cs  Cs4  1  -0.00172837  0.33441723  0.33223440  1
  Cs  Cs5  1  -0.00067020  0.33440565  0.66754475  1
  Cs  Cs6  1  0.00326277  0.66523715  -0.00371609  1
  Cs  Cs7  1  0.00087703  0.66384077  0.33624319  1
  Cs  Cs8  1  -0.00220286  0.66731907  0.66656004  1
  Cs  Cs9  1  0.33234616  -0.00002193  -0.00118675  1
  Cs  Cs10  1  0.33190572  0.00315376  0.33704677  1
  Cs  Cs11  1  0.33509366  0.00502317  0.66353772  1
  Cs  Cs12  1  0.33231668  0.33310366  0.00125693  1
  Cs  Cs13  1  0.33386704  0.33347884  0.33372228  1
  Cs  Cs14  1  0.33522466  0.32918922  0.66518748  1
  Cs  Cs15  1  0.33449155  0.66752515  0.00224428  1
  Cs  Cs16  1  0.33523529  0.66557392  0.33245123  1
  Cs  Cs17  1  0.33195669  0.66671230  0.66379646  1
  Cs  Cs18  1  0.66655649  -0.00779948  0.00331307  1
  Cs  Cs19  1  0.67228818  -0.00232590  0.32852137  1
  Cs  Cs20  1  0.66311584  0.00045369  0.66926501  1
  Cs  Cs21  1  0.66475872  0.33499554  -0.00248232  1
  Cs  Cs22  1  0.67072331  0.33381105  0.33455315  1
  Cs  Cs23  1  0.66649865  0.33260992  0.66763430  1
  Cs  Cs24  1  0.65784208  0.67383966  -0.00785593  1
  Cs  Cs25  1  0.66233887  0.66758278  0.33343044  1
  Cs  Cs26  1  0.66937196  0.66841427  0.67146365  1
  Sn  Sn27  1  0.16670900  0.49976844  0.83342870  1
  Sn  Sn28  1  0.49999673  0.83290757  0.49989530  1
  Sn  Sn29  1  0.16641337  0.83327625  0.16644021  1
  Sn  Sn30  1  0.83365818  0.16715910  0.50099509  1
  Sn  Sn31  1  0.16659711  0.83369215  0.83375625  1
  Sn  Sn32  1  0.83411443  0.16665812  0.83267396  1
  Sn  Sn33  1  0.16751666  0.16665152  0.16634461  1
  Sn  Sn34  1  0.16585699  0.16660596  0.83376000  1
  Sn  Sn35  1  0.16591437  0.50003439  0.16661503  1
  Sn  Sn36  1  0.50036363  0.50055026  0.50010583  1
  Sn  Sn37  1  0.83334902  0.50052911  0.16634529  1
  Sn  Sn38  1  0.83309169  0.49937132  0.49933882  1
  Sn  Sn39  1  0.16668631  0.49960791  0.49999103  1
  Sn  Sn40  1  0.49952924  0.16705644  0.16665396  1
  Pb  Pb41  1  0.50290223  0.16696676  0.49778901  1
  Pb  Pb42  1  0.83375653  0.16838893  0.16620486  1
  Pb  Pb43  1  0.50015680  0.49861266  0.16828668  1
  Pb  Pb44  1  0.16806259  0.83097990  0.49990713  1
  Pb  Pb45  1  0.49679101  0.83348440  0.83090270  1
  Pb  Pb46  1  0.16460198  0.16886126  0.49971168  1
  Pb  Pb47  1  0.83610344  0.83646235  0.83344670  1
  Pb  Pb48  1  0.83092875  0.83266176  0.49999589  1
  Pb  Pb49  1  0.83600650  0.82910638  0.16654957  1
  Pb  Pb50  1  0.50000768  0.16661837  0.83600743  1
  Pb  Pb51  1  0.83508001  0.49853580  0.83370338  1
  Pb  Pb52  1  0.49721167  0.83563453  0.16866245  1
  Pb  Pb53  1  0.49703133  0.49984155  0.83045168  1
  I  I54  1  0.17165894  0.00079264  0.15955089  1
  I  I55  1  0.16754378  0.00013286  0.49990474  1
  I  I56  1  0.16300472  0.00086094  0.84094603  1
  I  I57  1  0.16675934  0.33370100  0.16449010  1
  I  I58  1  0.17125639  0.33726193  0.49967714  1
  I  I59  1  0.16279576  0.33313502  0.83607953  1
  I  I60  1  0.16196433  0.66553599  0.16460114  1
  I  I61  1  0.16232067  0.66248958  0.50003277  1
  I  I62  1  0.16791650  0.66594790  0.83582934  1
  I  I63  1  0.49554288  0.00349041  0.16926110  1
  I  I64  1  0.49909348  -0.00180250  0.49893809  1
  I  I65  1  0.49764016  0.00017204  0.82917645  1
  I  I66  1  0.49293003  0.33086463  0.16900440  1
  I  I67  1  0.49736860  0.33623556  0.49844193  1
  I  I68  1  0.49689753  0.33318717  0.83081644  1
  I  I69  1  0.49919391  0.66670272  0.16736638  1
  I  I70  1  0.49954999  0.66493212  0.49807870  1
  I  I71  1  0.49905658  0.66658292  0.83605125  1
  I  I72  1  0.83353050  0.00005200  0.16787554  1
  I  I73  1  0.83255643  0.00281442  0.50339224  1
  I  I74  1  0.83917832  0.00465302  0.82729025  1
  I  I75  1  0.84042007  0.33618105  0.16965425  1
  I  I76  1  0.83225802  0.33470776  0.49961333  1
  I  I77  1  0.84073401  0.33058443  0.83203464  1
  I  I78  1  0.83942662  0.66128391  0.17566121  1
  I  I79  1  0.83652100  0.66273459  0.49571540  1
  I  I80  1  0.83541563  0.66658661  0.83206289  1
  I  I81  1  0.16482147  0.17073683  0.00010845  1
  I  I82  1  0.16931423  0.16679913  0.33038502  1
  I  I83  1  0.16451309  0.16664554  0.66930897  1
  I  I84  1  0.16125130  0.49935490  0.00071428  1
  I  I85  1  0.16613166  0.49995171  0.33301656  1
  I  I86  1  0.16707762  0.50021711  0.66649984  1
  I  I87  1  0.16657882  0.82896373  0.00021340  1
  I  I88  1  0.16845297  0.83368489  0.33054155  1
  I  I89  1  0.16835995  0.83353456  0.66935860  1
  I  I90  1  0.49874820  0.16797645  0.00370095  1
  I  I91  1  0.49239748  0.16757671  0.33045207  1
  I  I92  1  0.49747579  0.16645743  0.66642356  1
  I  I93  1  0.50071086  0.49820030  0.00005942  1
  I  I94  1  0.49473288  0.50212960  0.33656593  1
  I  I95  1  0.50055032  0.50208039  0.66196568  1
  I  I96  1  0.50164855  0.83465589  0.00015089  1
  I  I97  1  0.49706414  0.82826115  0.33622625  1
  I  I98  1  0.49797339  0.82934842  0.66313054  1
  I  I99  1  0.83668272  0.16894209  -0.00229515  1
  I  I100  1  0.83279224  0.16994015  0.33531868  1
  I  I101  1  0.83885039  0.17306428  0.66646430  1
  I  I102  1  0.84110451  0.49627022  0.00272096  1
  I  I103  1  0.83952955  0.49314119  0.33446974  1
  I  I104  1  0.83467596  0.49757404  0.66369623  1
  I  I105  1  0.82991390  0.83418301  0.00010673  1
  I  I106  1  0.83643946  0.83976310  0.33329563  1
  I  I107  1  0.83634772  0.82936080  0.66663306  1
  I  I108  1  0.00328551  0.16599516  0.16508700  1
  I  I109  1  -0.00311234  0.17245295  0.49890286  1
  I  I110  1  0.00189550  0.16755063  0.83568467  1
  I  I111  1  0.00205984  0.49741591  0.17205710  1
  I  I112  1  0.00035669  0.49535057  0.49864746  1
  I  I113  1  0.00399177  0.50156510  0.82930056  1
  I  I114  1  0.00454473  0.84013333  0.16454222  1
  I  I115  1  0.00016300  0.83288250  0.50007011  1
  I  I116  1  0.00454912  0.82976101  0.83537467  1
  I  I117  1  0.33054372  0.16928274  0.16232832  1
  I  I118  1  0.33326830  0.16778150  0.50200619  1
  I  I119  1  0.32953969  0.16691289  0.83504167  1
  I  I120  1  0.32964763  0.50109014  0.16732703  1
  I  I121  1  0.33243864  0.50467065  0.49990249  1
  I  I122  1  0.32801007  0.49683923  0.83535090  1
  I  I123  1  0.32897263  0.82729493  0.16299006  1
  I  I124  1  0.33571256  0.82755613  0.49984959  1
  I  I125  1  0.32854272  0.83524795  0.83776907  1
  I  I126  1  0.66505770  0.16995781  0.16904129  1
  I  I127  1  0.67048062  0.17303228  0.50387220  1
  I  I128  1  0.66964237  0.16935384  0.82944350  1
  I  I129  1  0.66940015  0.49415009  0.17401925  1
  I  I130  1  0.66765749  0.49894722  0.49333760  1
  I  I131  1  0.66679611  0.49724111  0.83381927  1
  I  I132  1  0.66643221  0.83531920  0.16848416  1
  I  I133  1  0.66320741  0.82797725  0.49876364  1
  I  I134  1  0.66651966  0.83425896  0.83239748  1
