# generated using pymatgen
data_Cs27Sn13Pb14I81
_symmetry_space_group_name_H-M   'P 1'
_cell_length_a   18.97725107
_cell_length_b   18.97207786
_cell_length_c   18.98238195
_cell_angle_alpha   89.99908004
_cell_angle_beta   90.00015528
_cell_angle_gamma   89.99916656
_symmetry_Int_Tables_number   1
_chemical_formula_structural   Cs27Sn13Pb14I81
_chemical_formula_sum   'Cs27 Sn13 Pb14 I81'
_cell_volume   6834.37664508
_cell_formula_units_Z   1
loop_
 _symmetry_equiv_pos_site_id
 _symmetry_equiv_pos_as_xyz
  1  'x, y, z'
loop_
 _atom_site_type_symbol
 _atom_site_label
 _atom_site_symmetry_multiplicity
 _atom_site_fract_x
 _atom_site_fract_y
 _atom_site_fract_z
 _atom_site_occupancy
  Cs  Cs0  1  0.00005717  -0.00200308  -0.00118805  1
  Cs  Cs1  1  -0.00014385  -0.00007632  0.33677563  1
  Cs  Cs2  1  -0.00045023  0.00003663  0.66606416  1
  Cs  Cs3  1  -0.00276592  0.33288451  -0.00003957  1
  Cs  Cs4  1  0.00345714  0.33487660  0.33158058  1
  Cs  Cs5  1  0.00125221  0.33238179  0.66882787  1
  Cs  Cs6  1  0.00316448  0.67059217  0.00027164  1
  Cs  Cs7  1  -0.00366743  0.66574180  0.33808637  1
  Cs  Cs8  1  -0.00229663  0.66807817  0.66211895  1
  Cs  Cs9  1  0.33313287  -0.00336470  -0.00030418  1
  Cs  Cs10  1  0.33482921  0.00076146  0.33353257  1
  Cs  Cs11  1  0.33469100  0.00132332  0.66706373  1
  Cs  Cs12  1  0.33218552  0.33347693  -0.00128437  1
  Cs  Cs13  1  0.33105116  0.33314944  0.33483228  1
  Cs  Cs14  1  0.33260942  0.33202553  0.66602320  1
  Cs  Cs15  1  0.33241542  0.67038793  0.00145970  1
  Cs  Cs16  1  0.33542436  0.66543927  0.33228509  1
  Cs  Cs17  1  0.33488998  0.66508871  0.66732582  1
  Cs  Cs18  1  0.66757601  0.00116670  0.00121588  1
  Cs  Cs19  1  0.66458148  0.00005349  0.33423544  1
  Cs  Cs20  1  0.66461808  -0.00110129  0.66574503  1
  Cs  Cs21  1  0.67510637  0.34000444  0.00532197  1
  Cs  Cs22  1  0.66660441  0.33777313  0.32235686  1
  Cs  Cs23  1  0.66463903  0.33728116  0.67221880  1
  Cs  Cs24  1  0.66551815  0.66133135  0.00008647  1
  Cs  Cs25  1  0.67038344  0.66083613  0.33220270  1
  Cs  Cs26  1  0.66748477  0.66426940  0.66673676  1
  Sn  Sn27  1  0.83311409  0.83398790  0.16586038  1
  Sn  Sn28  1  0.16679378  0.49931008  0.83403500  1
  Sn  Sn29  1  0.50100921  0.83430858  0.83258474  1
  Sn  Sn30  1  0.16728325  0.16708076  0.83358465  1
  Sn  Sn31  1  0.49920554  0.83378937  0.50080880  1
  Sn  Sn32  1  0.16682565  0.16675680  0.16625290  1
  Sn  Sn33  1  0.50053941  0.16645829  0.50067261  1
  Sn  Sn34  1  0.16793762  0.83410324  0.50019351  1
  Sn  Sn35  1  0.49978171  0.16614509  0.83323528  1
  Sn  Sn36  1  0.16676236  0.49957349  0.16556047  1
  Sn  Sn37  1  0.83202277  0.83390194  0.83411273  1
  Sn  Sn38  1  0.83247928  0.16700618  0.50018733  1
  Sn  Sn39  1  0.16666660  0.16567855  0.50015689  1
  Pb  Pb40  1  0.49688632  0.49990566  0.16640595  1
  Pb  Pb41  1  0.83319227  0.49577984  0.50021887  1
  Pb  Pb42  1  0.83593526  0.16475682  0.16893401  1
  Pb  Pb43  1  0.49771358  0.49964052  0.83342182  1
  Pb  Pb44  1  0.83646339  0.50305532  0.83316609  1
  Pb  Pb45  1  0.16519984  0.83337624  0.16963472  1
  Pb  Pb46  1  0.83652392  0.50265731  0.16646439  1
  Pb  Pb47  1  0.83285047  0.16504239  0.83175421  1
  Pb  Pb48  1  0.50001863  0.49932534  0.50009252  1
  Pb  Pb49  1  0.16677086  0.49967323  0.50023317  1
  Pb  Pb50  1  0.16715418  0.83362716  0.83124907  1
  Pb  Pb51  1  0.50243077  0.83345391  0.16684635  1
  Pb  Pb52  1  0.83231290  0.83470680  0.50033096  1
  Pb  Pb53  1  0.49790310  0.16659739  0.16605522  1
  I  I54  1  0.16523917  0.00289931  0.16502146  1
  I  I55  1  0.16661608  0.00161923  0.49999496  1
  I  I56  1  0.16703474  0.00303472  0.83490609  1
  I  I57  1  0.16663004  0.33199159  0.16918435  1
  I  I58  1  0.16741417  0.32952195  0.49965396  1
  I  I59  1  0.17158703  0.33116849  0.83112589  1
  I  I60  1  0.16495944  0.66436409  0.16232226  1
  I  I61  1  0.16988344  0.66960047  0.50035262  1
  I  I62  1  0.16612918  0.66482874  0.83691916  1
  I  I63  1  0.49665321  0.00001162  0.16698353  1
  I  I64  1  0.49785322  0.00053153  0.50404398  1
  I  I65  1  0.49682701  0.00025594  0.82870975  1
  I  I66  1  0.50255203  0.33292252  0.16814390  1
  I  I67  1  0.49668606  0.32875691  0.50508091  1
  I  I68  1  0.49558689  0.32956278  0.82649989  1
  I  I69  1  0.49725665  0.66701131  0.16725128  1
  I  I70  1  0.49418269  0.67037192  0.50424467  1
  I  I71  1  0.50230483  0.67004097  0.82862926  1
  I  I72  1  0.83667935  -0.00286703  0.16308686  1
  I  I73  1  0.83625500  0.00254028  0.50010524  1
  I  I74  1  0.83591690  -0.00304765  0.83561021  1
  I  I75  1  0.83215800  0.33326111  0.16884913  1
  I  I76  1  0.83713641  0.32773762  0.50078782  1
  I  I77  1  0.83143633  0.33315495  0.83119083  1
  I  I78  1  0.83543236  0.67044457  0.16490069  1
  I  I79  1  0.83538293  0.66699172  0.49921799  1
  I  I80  1  0.82892483  0.67128711  0.83530141  1
  I  I81  1  0.17079053  0.17088217  -0.00092579  1
  I  I82  1  0.16614571  0.16675709  0.33440147  1
  I  I83  1  0.16700350  0.16683931  0.66644899  1
  I  I84  1  0.16665894  0.49207360  -0.00031495  1
  I  I85  1  0.16600690  0.49652278  0.33091175  1
  I  I86  1  0.16726763  0.49650707  0.66938966  1
  I  I87  1  0.16768259  0.83516291  -0.00010799  1
  I  I88  1  0.16962617  0.83778507  0.33741174  1
  I  I89  1  0.16458163  0.83724887  0.66350584  1
  I  I90  1  0.49338819  0.16091148  -0.00383609  1
  I  I91  1  0.49842879  0.16139645  0.33681144  1
  I  I92  1  0.49376993  0.16160186  0.66637039  1
  I  I93  1  0.49996654  0.50083190  -0.00040741  1
  I  I94  1  0.49779883  0.50076637  0.33343204  1
  I  I95  1  0.49632515  0.50045068  0.66682504  1
  I  I96  1  0.50063153  0.83781216  -0.00343684  1
  I  I97  1  0.49628083  0.83881171  0.33693848  1
  I  I98  1  0.50107668  0.83801815  0.66671033  1
  I  I99  1  0.83415919  0.16602604  -0.00002303  1
  I  I100  1  0.83362708  0.16215890  0.33699226  1
  I  I101  1  0.83972624  0.16224018  0.66380395  1
  I  I102  1  0.83251997  0.49722484  -0.00014745  1
  I  I103  1  0.83624469  0.50404274  0.33318729  1
  I  I104  1  0.83704825  0.50424060  0.66684846  1
  I  I105  1  0.83074992  0.83486072  -0.00107753  1
  I  I106  1  0.83637826  0.83517955  0.33195282  1
  I  I107  1  0.83367863  0.83497692  0.66890732  1
  I  I108  1  0.00440379  0.16958034  0.16667900  1
  I  I109  1  0.00191956  0.16183211  0.49987310  1
  I  I110  1  0.00311329  0.16841591  0.83166962  1
  I  I111  1  0.00417804  0.49474328  0.16332955  1
  I  I112  1  0.00046893  0.50308195  0.50007906  1
  I  I113  1  0.00452873  0.49388974  0.83633726  1
  I  I114  1  -0.00240589  0.83395500  0.16172088  1
  I  I115  1  0.00196382  0.83744890  0.50021276  1
  I  I116  1  -0.00146113  0.83311645  0.83482715  1
  I  I117  1  0.32919839  0.16903214  0.17145105  1
  I  I118  1  0.33253625  0.16262047  0.50050395  1
  I  I119  1  0.33240145  0.16480677  0.82886937  1
  I  I120  1  0.32860943  0.49731031  0.16373164  1
  I  I121  1  0.33308366  0.49801074  0.49895434  1
  I  I122  1  0.32953946  0.50040058  0.83665939  1
  I  I123  1  0.33311259  0.83245627  0.16498391  1
  I  I124  1  0.33347483  0.84076825  0.50461392  1
  I  I125  1  0.33587047  0.83421906  0.83040990  1
  I  I126  1  0.66685831  0.16539807  0.16792369  1
  I  I127  1  0.66526783  0.15959137  0.50576261  1
  I  I128  1  0.66342718  0.16244888  0.82644341  1
  I  I129  1  0.66715815  0.50054226  0.16774103  1
  I  I130  1  0.66657171  0.50328248  0.49994884  1
  I  I131  1  0.66663295  0.49765758  0.83304354  1
  I  I132  1  0.67016105  0.83496821  0.16797268  1
  I  I133  1  0.66355454  0.83919470  0.50122138  1
  I  I134  1  0.66542788  0.83978840  0.83074269  1
