# generated using pymatgen
data_Cs27Sn13Pb14I81
_symmetry_space_group_name_H-M   'P 1'
_cell_length_a   18.98974475
_cell_length_b   18.98395490
_cell_length_c   18.99954621
_cell_angle_alpha   90.00062548
_cell_angle_beta   89.99866643
_cell_angle_gamma   90.00132929
_symmetry_Int_Tables_number   1
_chemical_formula_structural   Cs27Sn13Pb14I81
_chemical_formula_sum   'Cs27 Sn13 Pb14 I81'
_cell_volume   6849.34510786
_cell_formula_units_Z   1
loop_
 _symmetry_equiv_pos_site_id
 _symmetry_equiv_pos_as_xyz
  1  'x, y, z'
loop_
 _atom_site_type_symbol
 _atom_site_label
 _atom_site_symmetry_multiplicity
 _atom_site_fract_x
 _atom_site_fract_y
 _atom_site_fract_z
 _atom_site_occupancy
  Cs  Cs0  1  0.00895642  -0.00171926  -0.00084373  1
  Cs  Cs1  1  0.00355922  0.00413793  0.33089090  1
  Cs  Cs2  1  -0.00052328  -0.00207046  0.67006646  1
  Cs  Cs3  1  -0.00408213  0.33644272  -0.00028142  1
  Cs  Cs4  1  -0.00197514  0.33544454  0.33497039  1
  Cs  Cs5  1  -0.00158380  0.33489616  0.66548640  1
  Cs  Cs6  1  0.00094893  0.66621737  -0.00025885  1
  Cs  Cs7  1  0.00141971  0.66456236  0.33389610  1
  Cs  Cs8  1  -0.00101612  0.66757364  0.66626839  1
  Cs  Cs9  1  0.32640508  0.00221357  -0.00262230  1
  Cs  Cs10  1  0.33012393  0.00964647  0.33565119  1
  Cs  Cs11  1  0.33232361  0.01182052  0.66582975  1
  Cs  Cs12  1  0.33821370  0.32952483  -0.00518411  1
  Cs  Cs13  1  0.33325626  0.32753943  0.33682011  1
  Cs  Cs14  1  0.34057227  0.32686562  0.66840035  1
  Cs  Cs15  1  0.33490794  0.66767043  0.00225712  1
  Cs  Cs16  1  0.33249062  0.66631153  0.33178619  1
  Cs  Cs17  1  0.33692965  0.66429239  0.66336231  1
  Cs  Cs18  1  0.66578761  -0.00140738  0.00264458  1
  Cs  Cs19  1  0.66432275  -0.00180943  0.33233278  1
  Cs  Cs20  1  0.66907068  -0.00752612  0.66310893  1
  Cs  Cs21  1  0.66760035  0.33107778  -0.00088074  1
  Cs  Cs22  1  0.66994559  0.33147759  0.33135445  1
  Cs  Cs23  1  0.66557168  0.33488120  0.66914418  1
  Cs  Cs24  1  0.66503820  0.66698157  0.00135605  1
  Cs  Cs25  1  0.66536383  0.66823217  0.33215969  1
  Cs  Cs26  1  0.66414028  0.67078961  0.66448062  1
  Sn  Sn27  1  0.50008623  0.50026371  0.16689286  1
  Sn  Sn28  1  0.16651093  0.50046047  0.83289367  1
  Sn  Sn29  1  0.83366236  0.49999986  0.83308207  1
  Sn  Sn30  1  0.49954797  0.83313278  0.83392478  1
  Sn  Sn31  1  0.83344869  0.16729999  0.50110345  1
  Sn  Sn32  1  0.83340062  0.83253044  0.16661525  1
  Sn  Sn33  1  0.50001231  0.83271211  0.16576568  1
  Sn  Sn34  1  0.83312608  0.50116777  0.16663448  1
  Sn  Sn35  1  0.83360594  0.49979532  0.50026192  1
  Sn  Sn36  1  0.16684834  0.83246497  0.50011717  1
  Sn  Sn37  1  0.16708849  0.50015229  0.16650370  1
  Sn  Sn38  1  0.83326501  0.16673801  0.83258149  1
  Sn  Sn39  1  0.16622837  0.50089664  0.50049420  1
  Pb  Pb40  1  0.83228105  0.83285545  0.83571342  1
  Pb  Pb41  1  0.50400294  0.16685192  0.50003024  1
  Pb  Pb42  1  0.83340895  0.16648608  0.16628296  1
  Pb  Pb43  1  0.16935450  0.83059581  0.83079112  1
  Pb  Pb44  1  0.16717829  0.83153101  0.16839593  1
  Pb  Pb45  1  0.50350647  0.16330662  0.83353503  1
  Pb  Pb46  1  0.50021904  0.49995544  0.49726724  1
  Pb  Pb47  1  0.16366443  0.16994346  0.83326766  1
  Pb  Pb48  1  0.16641710  0.17071091  0.16638399  1
  Pb  Pb49  1  0.16382799  0.16789167  0.50026669  1
  Pb  Pb50  1  0.83521942  0.83307379  0.49734897  1
  Pb  Pb51  1  0.50046941  0.50143695  0.83543804  1
  Pb  Pb52  1  0.50011012  0.16614170  0.16642915  1
  Pb  Pb53  1  0.49678544  0.83328369  0.49900134  1
  I  I54  1  0.16597564  -0.00022458  0.16961519  1
  I  I55  1  0.16651962  -0.00212788  0.49793525  1
  I  I56  1  0.16623570  -0.00008994  0.83190316  1
  I  I57  1  0.16403445  0.33952722  0.17100121  1
  I  I58  1  0.16375051  0.33742581  0.49766862  1
  I  I59  1  0.16655499  0.33839081  0.83177478  1
  I  I60  1  0.16523549  0.66281047  0.16545877  1
  I  I61  1  0.16034886  0.66408796  0.49893570  1
  I  I62  1  0.15833877  0.66249157  0.83616587  1
  I  I63  1  0.50829716  -0.00392586  0.16409776  1
  I  I64  1  0.49931426  -0.00018738  0.49765841  1
  I  I65  1  0.50103617  -0.00418743  0.84119583  1
  I  I66  1  0.50117758  0.33690022  0.16753210  1
  I  I67  1  0.49412190  0.33365448  0.49820728  1
  I  I68  1  0.49737016  0.33335931  0.83452827  1
  I  I69  1  0.50193459  0.66604539  0.16298138  1
  I  I70  1  0.50507979  0.66664631  0.50235171  1
  I  I71  1  0.50295509  0.66905947  0.83622288  1
  I  I72  1  0.82637052  -0.00306234  0.16801514  1
  I  I73  1  0.83454001  0.00225178  0.50383136  1
  I  I74  1  0.82927430  0.00222320  0.82867927  1
  I  I75  1  0.83366512  0.33714862  0.16709895  1
  I  I76  1  0.83911682  0.33564747  0.49748830  1
  I  I77  1  0.83703810  0.33555070  0.83514084  1
  I  I78  1  0.83257281  0.66438066  0.16673518  1
  I  I79  1  0.83570424  0.66322756  0.50206940  1
  I  I80  1  0.83639281  0.66307478  0.83138608  1
  I  I81  1  0.16380561  0.16553584  -0.00029891  1
  I  I82  1  0.16457597  0.16712762  0.33357824  1
  I  I83  1  0.16850070  0.16721097  0.66667953  1
  I  I84  1  0.16182290  0.49955898  0.00028883  1
  I  I85  1  0.16286189  0.50451765  0.33340613  1
  I  I86  1  0.15725869  0.50499076  0.66629439  1
  I  I87  1  0.16474253  0.83257008  0.00003517  1
  I  I88  1  0.16632899  0.82576903  0.33589396  1
  I  I89  1  0.16558763  0.82570772  0.66340090  1
  I  I90  1  0.50389151  0.17045497  -0.00012972  1
  I  I91  1  0.50139330  0.16493514  0.33319816  1
  I  I92  1  0.49722054  0.16558688  0.66696758  1
  I  I93  1  0.50047819  0.50254989  0.00350946  1
  I  I94  1  0.50111548  0.50770142  0.32905531  1
  I  I95  1  0.49998799  0.50210645  0.66681784  1
  I  I96  1  0.50518796  0.82756677  0.00148154  1
  I  I97  1  0.50490128  0.82771730  0.32964596  1
  I  I98  1  0.50092185  0.83240228  0.66885049  1
  I  I99  1  0.83228966  0.17249513  -0.00276844  1
  I  I100  1  0.83434049  0.17141168  0.33583868  1
  I  I101  1  0.83375310  0.17623399  0.66659013  1
  I  I102  1  0.83619408  0.49946063  0.00029357  1
  I  I103  1  0.83589526  0.49934560  0.33307978  1
  I  I104  1  0.84104584  0.49475835  0.66662902  1
  I  I105  1  0.83196778  0.82828297  0.00346710  1
  I  I106  1  0.82697419  0.82842644  0.32976786  1
  I  I107  1  0.83130457  0.83152375  0.66658653  1
  I  I108  1  -0.00041851  0.16386206  0.16703339  1
  I  I109  1  -0.00371994  0.16961845  0.50273563  1
  I  I110  1  -0.00414524  0.16712175  0.82972662  1
  I  I111  1  -0.00086612  0.50341671  0.16692812  1
  I  I112  1  -0.00069061  0.49979465  0.49534495  1
  I  I113  1  -0.00099393  0.49697556  0.83773966  1
  I  I114  1  -0.00244344  0.82902133  0.16846431  1
  I  I115  1  0.00265456  0.82972651  0.49832311  1
  I  I116  1  0.00014107  0.83575581  0.83449827  1
  I  I117  1  0.33331044  0.16598866  0.16762044  1
  I  I118  1  0.33302932  0.16630413  0.49881099  1
  I  I119  1  0.33340351  0.16767004  0.83370243  1
  I  I120  1  0.33309778  0.50567237  0.16691281  1
  I  I121  1  0.32998322  0.50547630  0.49940529  1
  I  I122  1  0.33072135  0.50369022  0.83365348  1
  I  I123  1  0.33625131  0.82667185  0.16401748  1
  I  I124  1  0.32936085  0.82341247  0.49810795  1
  I  I125  1  0.33668094  0.82971916  0.84220335  1
  I  I126  1  0.66701750  0.17180145  0.16793485  1
  I  I127  1  0.67191367  0.17361021  0.50280631  1
  I  I128  1  0.67092724  0.17687531  0.83011600  1
  I  I129  1  0.66783255  0.50386269  0.16670434  1
  I  I130  1  0.67039131  0.49574646  0.50045367  1
  I  I131  1  0.67014924  0.49689594  0.83350648  1
  I  I132  1  0.66691781  0.82453828  0.16420981  1
  I  I133  1  0.66670859  0.83394686  0.50099602  1
  I  I134  1  0.66443780  0.83103250  0.83498810  1
