# generated using pymatgen
data_Cs27Sn14Pb13I81
_symmetry_space_group_name_H-M   'P 1'
_cell_length_a   18.96264375
_cell_length_b   18.96201675
_cell_length_c   18.95867070
_cell_angle_alpha   90.00001057
_cell_angle_beta   89.99862747
_cell_angle_gamma   90.00031545
_symmetry_Int_Tables_number   1
_chemical_formula_structural   Cs27Sn14Pb13I81
_chemical_formula_sum   'Cs27 Sn14 Pb13 I81'
_cell_volume   6816.96862335
_cell_formula_units_Z   1
loop_
 _symmetry_equiv_pos_site_id
 _symmetry_equiv_pos_as_xyz
  1  'x, y, z'
loop_
 _atom_site_type_symbol
 _atom_site_label
 _atom_site_symmetry_multiplicity
 _atom_site_fract_x
 _atom_site_fract_y
 _atom_site_fract_z
 _atom_site_occupancy
  Cs  Cs0  1  -0.00101587  0.00151090  0.00115276  1
  Cs  Cs1  1  -0.00404528  0.00064193  0.33336279  1
  Cs  Cs2  1  0.00178429  0.00012850  0.66651945  1
  Cs  Cs3  1  0.00279856  0.33506318  0.00214895  1
  Cs  Cs4  1  0.00345132  0.33314978  0.33518731  1
  Cs  Cs5  1  -0.00237271  0.33341081  0.66481487  1
  Cs  Cs6  1  -0.00038721  0.66576482  -0.00007557  1
  Cs  Cs7  1  0.00063834  0.66584820  0.33159426  1
  Cs  Cs8  1  -0.00045725  0.66713987  0.66674135  1
  Cs  Cs9  1  0.33272307  0.00509989  -0.00298328  1
  Cs  Cs10  1  0.33798018  -0.00347324  0.33670650  1
  Cs  Cs11  1  0.33037555  -0.00029080  0.66581910  1
  Cs  Cs12  1  0.33181030  0.33021819  0.00168816  1
  Cs  Cs13  1  0.33068936  0.33080387  0.33175993  1
  Cs  Cs14  1  0.33417158  0.33069374  0.66701818  1
  Cs  Cs15  1  0.33601195  0.66537537  0.00144220  1
  Cs  Cs16  1  0.33399878  0.66921061  0.33145402  1
  Cs  Cs17  1  0.33246278  0.67018115  0.66573316  1
  Cs  Cs18  1  0.66794332  -0.00181522  0.00309530  1
  Cs  Cs19  1  0.66761972  0.00169380  0.33003121  1
  Cs  Cs20  1  0.66753008  0.00064730  0.66720238  1
  Cs  Cs21  1  0.66566697  0.33475980  -0.00214580  1
  Cs  Cs22  1  0.66381113  0.33376673  0.33626716  1
  Cs  Cs23  1  0.66802126  0.33484141  0.66549963  1
  Cs  Cs24  1  0.66573889  0.66748905  -0.00083283  1
  Cs  Cs25  1  0.66536098  0.66552486  0.33331497  1
  Cs  Cs26  1  0.66760216  0.66458200  0.66850706  1
  Sn  Sn27  1  0.50095780  0.50055527  0.16582858  1
  Sn  Sn28  1  0.83311890  0.83378168  0.50079802  1
  Sn  Sn29  1  0.16599780  0.16719410  0.50011529  1
  Sn  Sn30  1  0.16685299  0.49969820  0.50085689  1
  Sn  Sn31  1  0.83282239  0.83349790  0.83261046  1
  Sn  Sn32  1  0.83399171  0.16580857  0.50092948  1
  Sn  Sn33  1  0.49966594  0.50072912  0.83397865  1
  Sn  Sn34  1  0.50054619  0.83273863  0.83402386  1
  Sn  Sn35  1  0.49895084  0.83256831  0.16535038  1
  Sn  Sn36  1  0.16690528  0.50022612  0.83234297  1
  Sn  Sn37  1  0.83337359  0.49995046  0.83417974  1
  Sn  Sn38  1  0.83250826  0.49996165  0.16604384  1
  Sn  Sn39  1  0.16754325  0.83355832  0.16619996  1
  Sn  Sn40  1  0.83331750  0.16668708  0.83295537  1
  Pb  Pb41  1  0.16660050  0.16321297  0.16954265  1
  Pb  Pb42  1  0.16668392  0.83152409  0.83515563  1
  Pb  Pb43  1  0.50005614  0.16673944  0.16638980  1
  Pb  Pb44  1  0.49683646  0.50008611  0.50019988  1
  Pb  Pb45  1  0.83327309  0.17010469  0.16682133  1
  Pb  Pb46  1  0.50244110  0.16650709  0.83333058  1
  Pb  Pb47  1  0.83474631  0.49991885  0.50006726  1
  Pb  Pb48  1  0.16414075  0.16927898  0.83150699  1
  Pb  Pb49  1  0.16438866  0.83333749  0.49816004  1
  Pb  Pb50  1  0.16723356  0.50111054  0.16643440  1
  Pb  Pb51  1  0.83267865  0.83145591  0.16626607  1
  Pb  Pb52  1  0.50295667  0.83316537  0.50049210  1
  Pb  Pb53  1  0.50041220  0.16663180  0.50024444  1
  I  I54  1  0.17109346  -0.00454356  0.16678260  1
  I  I55  1  0.16325322  0.00244070  0.49733298  1
  I  I56  1  0.16692612  -0.00000685  0.83302584  1
  I  I57  1  0.16633787  0.33344327  0.16597868  1
  I  I58  1  0.15997687  0.33367432  0.50301388  1
  I  I59  1  0.16719285  0.33777012  0.83333608  1
  I  I60  1  0.16705167  0.66873670  0.16921432  1
  I  I61  1  0.16459071  0.66426493  0.50244160  1
  I  I62  1  0.16151631  0.66308886  0.82788970  1
  I  I63  1  0.49663218  -0.00381417  0.16314085  1
  I  I64  1  0.49562415  -0.00033098  0.49952290  1
  I  I65  1  0.50478954  -0.00360775  0.83760023  1
  I  I66  1  0.50423329  0.33722108  0.16250121  1
  I  I67  1  0.50464398  0.33366001  0.49982841  1
  I  I68  1  0.50067152  0.33704351  0.83712859  1
  I  I69  1  0.50020980  0.66636781  0.16253986  1
  I  I70  1  0.50021471  0.66660325  0.49939106  1
  I  I71  1  0.50533932  0.66604691  0.83724044  1
  I  I72  1  0.83346107  -0.00016062  0.16521403  1
  I  I73  1  0.83880844  0.00026328  0.50679552  1
  I  I74  1  0.82900399  -0.00094673  0.82857329  1
  I  I75  1  0.82891981  0.33820013  0.16267170  1
  I  I76  1  0.83604505  0.33095072  0.50296270  1
  I  I77  1  0.83331626  0.33449791  0.83261126  1
  I  I78  1  0.83314174  0.66352505  0.16361806  1
  I  I79  1  0.83492950  0.66872474  0.50287837  1
  I  I80  1  0.83267162  0.66630381  0.83278698  1
  I  I81  1  0.16524770  0.16799250  -0.00015865  1
  I  I82  1  0.15856878  0.17554363  0.33743518  1
  I  I83  1  0.16424018  0.16709523  0.66338173  1
  I  I84  1  0.16490844  0.50278632  -0.00282204  1
  I  I85  1  0.16464180  0.49769672  0.33548055  1
  I  I86  1  0.16485551  0.49784038  0.66751385  1
  I  I87  1  0.16495561  0.82898852  0.00284600  1
  I  I88  1  0.17063372  0.83017221  0.33037349  1
  I  I89  1  0.16868456  0.83395036  0.66677101  1
  I  I90  1  0.50166643  0.16685828  -0.00033751  1
  I  I91  1  0.50241201  0.16704002  0.33331804  1
  I  I92  1  0.49865342  0.16715292  0.66700962  1
  I  I93  1  0.50023145  0.50445712  -0.00090855  1
  I  I94  1  0.50439226  0.50421658  0.33002423  1
  I  I95  1  0.50393227  0.50388166  0.67049631  1
  I  I96  1  0.50287653  0.82811183  -0.00057115  1
  I  I97  1  0.49729209  0.82901499  0.33025302  1
  I  I98  1  0.50264219  0.82811197  0.67032907  1
  I  I99  1  0.83207123  0.16380637  -0.00328458  1
  I  I100  1  0.83709236  0.16250473  0.33664528  1
  I  I101  1  0.83651609  0.16801001  0.66698719  1
  I  I102  1  0.83528758  0.50079947  -0.00189359  1
  I  I103  1  0.83110650  0.50142281  0.33104730  1
  I  I104  1  0.83120723  0.50026585  0.66984098  1
  I  I105  1  0.83267991  0.83480205  -0.00318116  1
  I  I106  1  0.83468406  0.83619800  0.33533528  1
  I  I107  1  0.82945452  0.83121835  0.66830378  1
  I  I108  1  -0.00020199  0.16645484  0.16474904  1
  I  I109  1  -0.00109037  0.16718174  0.50411493  1
  I  I110  1  -0.00426771  0.16545319  0.83127406  1
  I  I111  1  -0.00197301  0.50232749  0.16336703  1
  I  I112  1  0.00260141  0.49950355  0.50299403  1
  I  I113  1  -0.00127272  0.50023750  0.83362450  1
  I  I114  1  0.00116471  0.83038917  0.16775168  1
  I  I115  1  -0.00359025  0.83374015  0.50430097  1
  I  I116  1  -0.00319071  0.83175908  0.83129014  1
  I  I117  1  0.33318973  0.17172264  0.16851222  1
  I  I118  1  0.33008399  0.17169990  0.49841119  1
  I  I119  1  0.33310791  0.16669382  0.83155242  1
  I  I120  1  0.33624013  0.50305367  0.16393273  1
  I  I121  1  0.32884441  0.49470284  0.50317313  1
  I  I122  1  0.33419476  0.50539827  0.83340423  1
  I  I123  1  0.33482361  0.82627123  0.16373997  1
  I  I124  1  0.33325980  0.83402083  0.50110884  1
  I  I125  1  0.33622410  0.82762442  0.83585109  1
  I  I126  1  0.66697463  0.16250327  0.16986966  1
  I  I127  1  0.67064313  0.16323504  0.50348775  1
  I  I128  1  0.67087266  0.17137991  0.82667490  1
  I  I129  1  0.66635641  0.50537013  0.16006909  1
  I  I130  1  0.66675068  0.49938359  0.50083600  1
  I  I131  1  0.66735437  0.50060564  0.83785541  1
  I  I132  1  0.66394979  0.83057464  0.16573895  1
  I  I133  1  0.67107265  0.83836152  0.49943462  1
  I  I134  1  0.66743573  0.82900130  0.83477771  1
