# generated using pymatgen
data_Cs27Sn14Pb13I81
_symmetry_space_group_name_H-M   'P 1'
_cell_length_a   18.97709858
_cell_length_b   18.97707178
_cell_length_c   18.97069921
_cell_angle_alpha   89.99837958
_cell_angle_beta   90.00163795
_cell_angle_gamma   89.99819362
_symmetry_Int_Tables_number   1
_chemical_formula_structural   Cs27Sn14Pb13I81
_chemical_formula_sum   'Cs27 Sn14 Pb13 I81'
_cell_volume   6831.91338176
_cell_formula_units_Z   1
loop_
 _symmetry_equiv_pos_site_id
 _symmetry_equiv_pos_as_xyz
  1  'x, y, z'
loop_
 _atom_site_type_symbol
 _atom_site_label
 _atom_site_symmetry_multiplicity
 _atom_site_fract_x
 _atom_site_fract_y
 _atom_site_fract_z
 _atom_site_occupancy
  Cs  Cs0  1  0.00516582  -0.00119433  -0.00376830  1
  Cs  Cs1  1  -0.00310364  0.00142382  0.33106008  1
  Cs  Cs2  1  -0.00154015  -0.00257411  0.67595139  1
  Cs  Cs3  1  0.00543534  0.33339744  0.00272520  1
  Cs  Cs4  1  0.00013268  0.33220979  0.33449563  1
  Cs  Cs5  1  -0.01314760  0.33509116  0.65950281  1
  Cs  Cs6  1  -0.00062019  0.66737975  0.00019484  1
  Cs  Cs7  1  0.00095868  0.66692284  0.33360844  1
  Cs  Cs8  1  0.00192605  0.66803372  0.66725937  1
  Cs  Cs9  1  0.32975411  0.00445943  -0.00257430  1
  Cs  Cs10  1  0.33500553  0.00005127  0.33506424  1
  Cs  Cs11  1  0.33016808  -0.00158590  0.66750228  1
  Cs  Cs12  1  0.33316775  0.33382500  -0.00043054  1
  Cs  Cs13  1  0.33301323  0.33304115  0.33361196  1
  Cs  Cs14  1  0.33623950  0.33397227  0.66544697  1
  Cs  Cs15  1  0.33585193  0.66373646  0.00083458  1
  Cs  Cs16  1  0.33409769  0.66880133  0.33591821  1
  Cs  Cs17  1  0.33133374  0.66772846  0.66479768  1
  Cs  Cs18  1  0.66563691  -0.00027151  -0.00042183  1
  Cs  Cs19  1  0.66654377  -0.00213407  0.33262273  1
  Cs  Cs20  1  0.66946128  0.00525207  0.66907757  1
  Cs  Cs21  1  0.66408407  0.33554299  0.00050830  1
  Cs  Cs22  1  0.66626051  0.33245799  0.33315390  1
  Cs  Cs23  1  0.67026724  0.33030643  0.66582516  1
  Cs  Cs24  1  0.66593591  0.66593021  0.00107610  1
  Cs  Cs25  1  0.66476560  0.67134203  0.33027366  1
  Cs  Cs26  1  0.66699376  0.66530259  0.67166476  1
  Sn  Sn27  1  0.16691201  0.16660528  0.50027589  1
  Sn  Sn28  1  0.16717049  0.49938384  0.83331207  1
  Sn  Sn29  1  0.16644170  0.83261825  0.16714420  1
  Sn  Sn30  1  0.49983360  0.83285859  0.83343398  1
  Sn  Sn31  1  0.49910280  0.50087408  0.83321722  1
  Sn  Sn32  1  0.83339566  0.49989308  0.16679649  1
  Sn  Sn33  1  0.50060383  0.16741036  0.16754047  1
  Sn  Sn34  1  0.50014503  0.49974898  0.49971581  1
  Sn  Sn35  1  0.83437341  0.83345726  0.16725067  1
  Sn  Sn36  1  0.16703953  0.50106388  0.16639474  1
  Sn  Sn37  1  0.83252629  0.16660668  0.16661885  1
  Sn  Sn38  1  0.83325995  0.83314279  0.49974002  1
  Sn  Sn39  1  0.49896882  0.16723713  0.49895833  1
  Sn  Sn40  1  0.49977067  0.49933446  0.16713464  1
  Pb  Pb41  1  0.50181083  0.83385418  0.50240875  1
  Pb  Pb42  1  0.16840482  0.49853706  0.49984597  1
  Pb  Pb43  1  0.83345327  0.49987805  0.83583909  1
  Pb  Pb44  1  0.16441266  0.83570866  0.49787717  1
  Pb  Pb45  1  0.83041795  0.50237482  0.49721338  1
  Pb  Pb46  1  0.83132799  0.83309335  0.83420970  1
  Pb  Pb47  1  0.16709548  0.16694121  0.16789132  1
  Pb  Pb48  1  0.83276324  0.16454593  0.49791834  1
  Pb  Pb49  1  0.49987021  0.16753336  0.83325035  1
  Pb  Pb50  1  0.49970062  0.83385798  0.16521067  1
  Pb  Pb51  1  0.16669013  0.17056259  0.82966429  1
  Pb  Pb52  1  0.16904978  0.83084994  0.83582849  1
  Pb  Pb53  1  0.83356132  0.16698649  0.83718030  1
  I  I54  1  0.16353071  -0.00201297  0.16923163  1
  I  I55  1  0.17517430  0.00331877  0.49593837  1
  I  I56  1  0.16815113  0.00006093  0.83485015  1
  I  I57  1  0.16505399  0.33641626  0.16414626  1
  I  I58  1  0.16869045  0.33071340  0.49646505  1
  I  I59  1  0.17626866  0.33799951  0.84492760  1
  I  I60  1  0.16382591  0.66534842  0.16373678  1
  I  I61  1  0.16735909  0.66660014  0.50099548  1
  I  I62  1  0.16925681  0.66294478  0.83486718  1
  I  I63  1  0.50320001  0.00279009  0.16970940  1
  I  I64  1  0.49838973  0.00302676  0.49523145  1
  I  I65  1  0.50224680  -0.00201726  0.83485975  1
  I  I66  1  0.50289883  0.33458856  0.16515694  1
  I  I67  1  0.49672052  0.33355807  0.50007876  1
  I  I68  1  0.49603122  0.33695860  0.83511831  1
  I  I69  1  0.50211919  0.66364416  0.16814040  1
  I  I70  1  0.50178201  0.66383298  0.49621415  1
  I  I71  1  0.49783310  0.66447158  0.83485007  1
  I  I72  1  0.83220118  -0.00024865  0.17174208  1
  I  I73  1  0.83050291  -0.00281000  0.49171297  1
  I  I74  1  0.83012584  -0.00021456  0.83461384  1
  I  I75  1  0.83201660  0.33382258  0.16543466  1
  I  I76  1  0.83503095  0.33330580  0.49949306  1
  I  I77  1  0.83032020  0.33368518  0.83201660  1
  I  I78  1  0.83277758  0.66644314  0.16994420  1
  I  I79  1  0.83178828  0.66972774  0.49258663  1
  I  I80  1  0.83298811  0.66647765  0.83546897  1
  I  I81  1  0.16630431  0.16436480  0.00012575  1
  I  I82  1  0.16891022  0.16925308  0.33536146  1
  I  I83  1  0.17593975  0.16619670  0.66222739  1
  I  I84  1  0.17128376  0.50307403  0.00194408  1
  I  I85  1  0.16728977  0.50200001  0.32986682  1
  I  I86  1  0.17383208  0.49803450  0.66913311  1
  I  I87  1  0.15956882  0.83371238  0.00391949  1
  I  I88  1  0.16673018  0.82584172  0.32966381  1
  I  I89  1  0.16512430  0.83311577  0.66679515  1
  I  I90  1  0.50474507  0.16940924  0.00322226  1
  I  I91  1  0.50025151  0.17428752  0.33253942  1
  I  I92  1  0.49636186  0.16938226  0.66354659  1
  I  I93  1  0.50029574  0.50021171  0.00136159  1
  I  I94  1  0.50032274  0.49507273  0.33204501  1
  I  I95  1  0.49445297  0.50079796  0.66690371  1
  I  I96  1  0.50205966  0.82802500  -0.00227308  1
  I  I97  1  0.49907037  0.83102129  0.33314398  1
  I  I98  1  0.50214915  0.82795680  0.66989411  1
  I  I99  1  0.82615849  0.16427010  0.00576553  1
  I  I100  1  0.83160409  0.16897952  0.32962272  1
  I  I101  1  0.83301019  0.16428105  0.66621493  1
  I  I102  1  0.82780900  0.50307064  0.00461773  1
  I  I103  1  0.83452826  0.49747042  0.32874125  1
  I  I104  1  0.83366693  0.50192574  0.66630148  1
  I  I105  1  0.83575175  0.83279956  0.00402657  1
  I  I106  1  0.83485883  0.83319473  0.33086035  1
  I  I107  1  0.83000316  0.83479083  0.66437167  1
  I  I108  1  -0.00226527  0.16924348  0.16922160  1
  I  I109  1  0.00174118  0.16650223  0.49702245  1
  I  I110  1  0.00037598  0.16684333  0.83310592  1
  I  I111  1  0.00027969  0.50035584  0.16141728  1
  I  I112  1  -0.00020114  0.49804177  0.50057191  1
  I  I113  1  0.00312625  0.49914585  0.83943193  1
  I  I114  1  -0.00083335  0.83029754  0.17033186  1
  I  I115  1  -0.00342180  0.83428973  0.49679050  1
  I  I116  1  0.00022767  0.83250942  0.83166793  1
  I  I117  1  0.33626973  0.16980859  0.16835641  1
  I  I118  1  0.33528942  0.17017388  0.49256006  1
  I  I119  1  0.33340797  0.16377302  0.83957198  1
  I  I120  1  0.33414486  0.49964645  0.16546912  1
  I  I121  1  0.33686355  0.49912266  0.49503642  1
  I  I122  1  0.33472402  0.50364844  0.83978457  1
  I  I123  1  0.33107156  0.82971070  0.16421684  1
  I  I124  1  0.33344953  0.83234396  0.49918571  1
  I  I125  1  0.33669685  0.83111489  0.83455395  1
  I  I126  1  0.66577493  0.16939267  0.17208547  1
  I  I127  1  0.66360379  0.16980223  0.49810198  1
  I  I128  1  0.66631664  0.16792116  0.82867396  1
  I  I129  1  0.66579884  0.49973703  0.16678838  1
  I  I130  1  0.66220798  0.49298633  0.50125508  1
  I  I131  1  0.66317197  0.50354677  0.83489453  1
  I  I132  1  0.66911666  0.83131847  0.16843218  1
  I  I133  1  0.66926345  0.83428018  0.49075704  1
  I  I134  1  0.66354228  0.82606503  0.83638920  1
