# generated using pymatgen
data_Cs27Sn13Pb14I81
_symmetry_space_group_name_H-M   'P 1'
_cell_length_a   18.99957244
_cell_length_b   18.99366988
_cell_length_c   18.98349953
_cell_angle_alpha   90.00004111
_cell_angle_beta   90.00076499
_cell_angle_gamma   90.00042210
_symmetry_Int_Tables_number   1
_chemical_formula_structural   Cs27Sn13Pb14I81
_chemical_formula_sum   'Cs27 Sn13 Pb14 I81'
_cell_volume   6850.60597600
_cell_formula_units_Z   1
loop_
 _symmetry_equiv_pos_site_id
 _symmetry_equiv_pos_as_xyz
  1  'x, y, z'
loop_
 _atom_site_type_symbol
 _atom_site_label
 _atom_site_symmetry_multiplicity
 _atom_site_fract_x
 _atom_site_fract_y
 _atom_site_fract_z
 _atom_site_occupancy
  Cs  Cs0  1  0.00291698  0.00291820  -0.00322526  1
  Cs  Cs1  1  -0.00059025  -0.00513296  0.33127910  1
  Cs  Cs2  1  -0.00107759  -0.00151316  0.66890544  1
  Cs  Cs3  1  -0.00372824  0.33317798  0.00179596  1
  Cs  Cs4  1  0.00246215  0.33376802  0.33300009  1
  Cs  Cs5  1  -0.00157101  0.33300193  0.66709113  1
  Cs  Cs6  1  -0.00476190  0.66437742  0.00515712  1
  Cs  Cs7  1  0.00387126  0.67267203  0.33082096  1
  Cs  Cs8  1  0.00453288  0.67069505  0.66258672  1
  Cs  Cs9  1  0.33274179  0.00050264  -0.00131563  1
  Cs  Cs10  1  0.33425849  0.00223509  0.32733242  1
  Cs  Cs11  1  0.33616796  0.00072436  0.66812056  1
  Cs  Cs12  1  0.33298471  0.33407984  0.00158375  1
  Cs  Cs13  1  0.32834601  0.33212547  0.33446876  1
  Cs  Cs14  1  0.33421334  0.33306265  0.66555593  1
  Cs  Cs15  1  0.33971674  0.66567348  0.00192069  1
  Cs  Cs16  1  0.32723787  0.66506498  0.32719429  1
  Cs  Cs17  1  0.33199119  0.66625290  0.66763418  1
  Cs  Cs18  1  0.66598992  0.00061643  -0.00079264  1
  Cs  Cs19  1  0.66682714  0.00057103  0.33379894  1
  Cs  Cs20  1  0.66451151  0.00047886  0.66628738  1
  Cs  Cs21  1  0.67004839  0.33973017  -0.00104087  1
  Cs  Cs22  1  0.66729798  0.33032618  0.33856145  1
  Cs  Cs23  1  0.66804407  0.33461011  0.66405848  1
  Cs  Cs24  1  0.66569284  0.65816174  0.00784876  1
  Cs  Cs25  1  0.66881616  0.66851317  0.32659262  1
  Cs  Cs26  1  0.66512624  0.66590693  0.66652901  1
  Sn  Sn27  1  0.83247282  0.83293709  0.83332398  1
  Sn  Sn28  1  0.16750732  0.16718602  0.83222692  1
  Sn  Sn29  1  0.49976426  0.16669174  0.83418760  1
  Sn  Sn30  1  0.83473815  0.16683780  0.49941720  1
  Sn  Sn31  1  0.16694064  0.83293032  0.83311803  1
  Sn  Sn32  1  0.83316696  0.50028073  0.50021678  1
  Sn  Sn33  1  0.83232636  0.16638286  0.16752834  1
  Sn  Sn34  1  0.50034211  0.50182023  0.50005511  1
  Sn  Sn35  1  0.16537988  0.16602748  0.50110435  1
  Sn  Sn36  1  0.49985308  0.83175070  0.50032722  1
  Sn  Sn37  1  0.50061147  0.83363360  0.83262470  1
  Sn  Sn38  1  0.50127541  0.16693825  0.16506800  1
  Sn  Sn39  1  0.16661108  0.49984826  0.83321283  1
  Pb  Pb40  1  0.16647447  0.49829002  0.50153004  1
  Pb  Pb41  1  0.16639136  0.16659769  0.16624818  1
  Pb  Pb42  1  0.16962877  0.83615909  0.50175337  1
  Pb  Pb43  1  0.83290933  0.16564548  0.83290842  1
  Pb  Pb44  1  0.50007386  0.83545044  0.16631141  1
  Pb  Pb45  1  0.83134783  0.83338876  0.50158404  1
  Pb  Pb46  1  0.49996426  0.16644306  0.50040641  1
  Pb  Pb47  1  0.83570614  0.50302457  0.83058710  1
  Pb  Pb48  1  0.50000594  0.49658517  0.17034036  1
  Pb  Pb49  1  0.83342335  0.49734799  0.17016643  1
  Pb  Pb50  1  0.16677673  0.83349039  0.16318851  1
  Pb  Pb51  1  0.16663738  0.49984538  0.16352970  1
  Pb  Pb52  1  0.83315756  0.83619604  0.16368987  1
  Pb  Pb53  1  0.49861599  0.49985681  0.83159400  1
  I  I54  1  0.16710383  0.00050325  0.16545583  1
  I  I55  1  0.16192047  0.00415852  0.50636708  1
  I  I56  1  0.16757769  0.00054378  0.82958154  1
  I  I57  1  0.16776657  0.33274596  0.16414486  1
  I  I58  1  0.16867347  0.33010365  0.50661655  1
  I  I59  1  0.17227566  0.33171302  0.82871820  1
  I  I60  1  0.16623863  0.66667855  0.16769676  1
  I  I61  1  0.16429818  0.66692787  0.50266694  1
  I  I62  1  0.16712529  0.66749028  0.83224099  1
  I  I63  1  0.50282543  0.00356713  0.16806010  1
  I  I64  1  0.49986001  -0.00179691  0.50275367  1
  I  I65  1  0.49547043  0.00011924  0.83072056  1
  I  I66  1  0.50349569  0.32872088  0.16015451  1
  I  I67  1  0.50094807  0.33478314  0.50026110  1
  I  I68  1  0.49463093  0.33021182  0.83488251  1
  I  I69  1  0.49972347  0.66644053  0.16355801  1
  I  I70  1  0.50570858  0.66700730  0.50944914  1
  I  I71  1  0.49762564  0.66968928  0.82946446  1
  I  I72  1  0.82940760  0.00404538  0.17478406  1
  I  I73  1  0.83534073  0.00311899  0.49780526  1
  I  I74  1  0.83725568  -0.00219376  0.83122954  1
  I  I75  1  0.82942107  0.32932390  0.16488459  1
  I  I76  1  0.83001472  0.33202226  0.49788491  1
  I  I77  1  0.83395385  0.33346537  0.83526120  1
  I  I78  1  0.83395568  0.66663587  0.16614661  1
  I  I79  1  0.83032504  0.66431181  0.50556915  1
  I  I80  1  0.83219993  0.67086850  0.83032617  1
  I  I81  1  0.16756951  0.16488427  -0.00377029  1
  I  I82  1  0.16783564  0.16871150  0.33615173  1
  I  I83  1  0.16729407  0.16645891  0.66812003  1
  I  I84  1  0.16765515  0.49651877  -0.00513862  1
  I  I85  1  0.16775601  0.49608751  0.33376494  1
  I  I86  1  0.16723842  0.50127485  0.66963672  1
  I  I87  1  0.17002907  0.83919904  -0.00587435  1
  I  I88  1  0.16791423  0.83527856  0.33369078  1
  I  I89  1  0.16476333  0.83254249  0.67042297  1
  I  I90  1  0.49850043  0.15956317  -0.00174837  1
  I  I91  1  0.50051246  0.16682729  0.33174561  1
  I  I92  1  0.49837359  0.16490693  0.66931316  1
  I  I93  1  0.49791558  0.50227893  0.00010117  1
  I  I94  1  0.50381018  0.50448751  0.33829338  1
  I  I95  1  0.50292244  0.49714172  0.66380863  1
  I  I96  1  0.49747643  0.83726501  -0.00390254  1
  I  I97  1  0.50194933  0.83245303  0.33632126  1
  I  I98  1  0.49969226  0.83743770  0.66823604  1
  I  I99  1  0.83297842  0.16265159  0.00164607  1
  I  I100  1  0.83166841  0.17078815  0.33447194  1
  I  I101  1  0.83398805  0.16893602  0.66399169  1
  I  I102  1  0.83525665  0.49975223  -0.00011963  1
  I  I103  1  0.82859986  0.49802152  0.33804334  1
  I  I104  1  0.82895815  0.49027972  0.66336605  1
  I  I105  1  0.83266109  0.83604778  -0.00461695  1
  I  I106  1  0.83101061  0.83214223  0.33342552  1
  I  I107  1  0.83568710  0.83758899  0.66963689  1
  I  I108  1  -0.00273716  0.16713178  0.16714030  1
  I  I109  1  -0.00061376  0.17296611  0.50116595  1
  I  I110  1  0.00261872  0.16468108  0.83246450  1
  I  I111  1  -0.00018033  0.49638619  0.16726375  1
  I  I112  1  -0.00255954  0.49481752  0.50317808  1
  I  I113  1  0.00345183  0.49646208  0.83060602  1
  I  I114  1  -0.00015396  0.83622143  0.16593762  1
  I  I115  1  0.00020053  0.83182772  0.50252854  1
  I  I116  1  0.00079424  0.83602519  0.83317688  1
  I  I117  1  0.33587232  0.16562899  0.16631391  1
  I  I118  1  0.33149326  0.16685290  0.50195046  1
  I  I119  1  0.33315676  0.16182333  0.83241633  1
  I  I120  1  0.33360730  0.49710160  0.16979444  1
  I  I121  1  0.33578199  0.50087102  0.50271958  1
  I  I122  1  0.33073383  0.50246208  0.82925786  1
  I  I123  1  0.33361160  0.83719332  0.16626030  1
  I  I124  1  0.33729158  0.83007756  0.50743287  1
  I  I125  1  0.33372665  0.83603313  0.82856330  1
  I  I126  1  0.66647970  0.16524980  0.16772112  1
  I  I127  1  0.66868916  0.16754964  0.49970206  1
  I  I128  1  0.66390807  0.16042637  0.83305438  1
  I  I129  1  0.66665642  0.50098776  0.16176808  1
  I  I130  1  0.66662089  0.49495384  0.50272766  1
  I  I131  1  0.66681905  0.49939582  0.83345350  1
  I  I132  1  0.66657600  0.83382781  0.16341944  1
  I  I133  1  0.66360686  0.83618697  0.50830575  1
  I  I134  1  0.66522005  0.84194139  0.82797760  1
