# generated using pymatgen
data_Cs27Sn14Pb13I81
_symmetry_space_group_name_H-M   'P 1'
_cell_length_a   18.96625596
_cell_length_b   18.97781198
_cell_length_c   18.98126058
_cell_angle_alpha   90.00143237
_cell_angle_beta   90.00043306
_cell_angle_gamma   90.00015720
_symmetry_Int_Tables_number   1
_chemical_formula_structural   Cs27Sn14Pb13I81
_chemical_formula_sum   'Cs27 Sn14 Pb13 I81'
_cell_volume   6832.07771809
_cell_formula_units_Z   1
loop_
 _symmetry_equiv_pos_site_id
 _symmetry_equiv_pos_as_xyz
  1  'x, y, z'
loop_
 _atom_site_type_symbol
 _atom_site_label
 _atom_site_symmetry_multiplicity
 _atom_site_fract_x
 _atom_site_fract_y
 _atom_site_fract_z
 _atom_site_occupancy
  Cs  Cs0  1  -0.00252383  0.00412839  -0.00151701  1
  Cs  Cs1  1  -0.00722225  -0.00350615  0.33146446  1
  Cs  Cs2  1  0.00221613  -0.00393844  0.67210932  1
  Cs  Cs3  1  0.00020590  0.33084328  -0.00076201  1
  Cs  Cs4  1  0.00430990  0.33631871  0.33080212  1
  Cs  Cs5  1  -0.00583333  0.33405207  0.67047742  1
  Cs  Cs6  1  0.00192341  0.66628859  0.00338482  1
  Cs  Cs7  1  -0.00134122  0.66716099  0.33424801  1
  Cs  Cs8  1  -0.00016204  0.66829974  0.66197789  1
  Cs  Cs9  1  0.33336362  -0.00037738  -0.00038065  1
  Cs  Cs10  1  0.33458147  0.00260922  0.33310969  1
  Cs  Cs11  1  0.33408323  -0.00134114  0.66863570  1
  Cs  Cs12  1  0.33342156  0.33485807  0.00217611  1
  Cs  Cs13  1  0.33247377  0.33297347  0.33329870  1
  Cs  Cs14  1  0.33314717  0.33242915  0.66193136  1
  Cs  Cs15  1  0.33539310  0.66556919  0.00158229  1
  Cs  Cs16  1  0.33321511  0.66520961  0.33266624  1
  Cs  Cs17  1  0.33207058  0.66852465  0.66504015  1
  Cs  Cs18  1  0.66655653  -0.00292120  0.00072007  1
  Cs  Cs19  1  0.67076684  0.00195770  0.33402144  1
  Cs  Cs20  1  0.66229520  0.00276261  0.66553224  1
  Cs  Cs21  1  0.66692251  0.33699907  -0.00360177  1
  Cs  Cs22  1  0.66759292  0.32882251  0.33810933  1
  Cs  Cs23  1  0.67611669  0.33304256  0.66551547  1
  Cs  Cs24  1  0.66316325  0.66709008  -0.00258626  1
  Cs  Cs25  1  0.66810009  0.66764150  0.33276425  1
  Cs  Cs26  1  0.66824035  0.66457926  0.66990043  1
  Sn  Sn27  1  0.49962375  0.83229521  0.49958150  1
  Sn  Sn28  1  0.49957016  0.50064728  0.50005047  1
  Sn  Sn29  1  0.49947458  0.16676442  0.83430368  1
  Sn  Sn30  1  0.16749367  0.49916502  0.50019507  1
  Sn  Sn31  1  0.16719425  0.50009573  0.83310705  1
  Sn  Sn32  1  0.49940112  0.16598770  0.16558686  1
  Sn  Sn33  1  0.83359032  0.49989043  0.16669288  1
  Sn  Sn34  1  0.16658383  0.16686753  0.49944137  1
  Sn  Sn35  1  0.16729424  0.83377294  0.16674454  1
  Sn  Sn36  1  0.49918226  0.83416621  0.16715039  1
  Sn  Sn37  1  0.83282932  0.83321563  0.83352564  1
  Sn  Sn38  1  0.16600571  0.50002680  0.16666768  1
  Sn  Sn39  1  0.16743474  0.16624630  0.16761787  1
  Sn  Sn40  1  0.50057352  0.83388845  0.83345883  1
  Pb  Pb41  1  0.49822492  0.49973942  0.83064689  1
  Pb  Pb42  1  0.83389942  0.49999798  0.49779115  1
  Pb  Pb43  1  0.16744357  0.83148659  0.83579936  1
  Pb  Pb44  1  0.83016434  0.16419839  0.83362879  1
  Pb  Pb45  1  0.83276172  0.83160058  0.16504028  1
  Pb  Pb46  1  0.83798578  0.16654814  0.49990902  1
  Pb  Pb47  1  0.83613305  0.50225273  0.83561861  1
  Pb  Pb48  1  0.16843011  0.83363620  0.49741632  1
  Pb  Pb49  1  0.49861711  0.16664278  0.49981479  1
  Pb  Pb50  1  0.16872651  0.16871700  0.83350624  1
  Pb  Pb51  1  0.83011689  0.83329379  0.50273255  1
  Pb  Pb52  1  0.49982671  0.49953531  0.16856512  1
  Pb  Pb53  1  0.83301630  0.16903423  0.16664829  1
  I  I54  1  0.17273756  0.00041472  0.17078788  1
  I  I55  1  0.16961095  0.00263639  0.49568385  1
  I  I56  1  0.16446364  -0.00011153  0.83254618  1
  I  I57  1  0.16709561  0.33356299  0.16754856  1
  I  I58  1  0.17434181  0.33475261  0.49416619  1
  I  I59  1  0.16930357  0.33657166  0.83816853  1
  I  I60  1  0.16709795  0.66615115  0.16588678  1
  I  I61  1  0.16892076  0.66379293  0.49901406  1
  I  I62  1  0.16908382  0.66362206  0.83364336  1
  I  I63  1  0.49218178  -0.00079351  0.16715355  1
  I  I64  1  0.49805813  -0.00256748  0.50084037  1
  I  I65  1  0.50256255  -0.00117317  0.83190545  1
  I  I66  1  0.49647257  0.33060235  0.16352169  1
  I  I67  1  0.49624375  0.33555400  0.49843633  1
  I  I68  1  0.49554265  0.33089437  0.83864119  1
  I  I69  1  0.49699357  0.66933312  0.16420778  1
  I  I70  1  0.49343831  0.66697951  0.49938812  1
  I  I71  1  0.50203467  0.66960563  0.83646639  1
  I  I72  1  0.83652977  -0.00009734  0.16522627  1
  I  I73  1  0.83236972  -0.00024642  0.49804199  1
  I  I74  1  0.83395237  -0.00368852  0.83578894  1
  I  I75  1  0.83842600  0.33681927  0.16651271  1
  I  I76  1  0.82560491  0.33355643  0.50076910  1
  I  I77  1  0.83232177  0.33354389  0.83353423  1
  I  I78  1  0.83906741  0.66389686  0.16627067  1
  I  I79  1  0.83782504  0.66666296  0.49944855  1
  I  I80  1  0.82412031  0.66960255  0.83478214  1
  I  I81  1  0.16868933  0.16786916  0.00332332  1
  I  I82  1  0.17421872  0.17278522  0.33173288  1
  I  I83  1  0.16948037  0.17212942  0.66417649  1
  I  I84  1  0.16253042  0.50056016  0.00157073  1
  I  I85  1  0.16686393  0.49903977  0.33273729  1
  I  I86  1  0.17302615  0.49624998  0.66549439  1
  I  I87  1  0.17218570  0.83238361  0.00390934  1
  I  I88  1  0.17193522  0.82854662  0.32929526  1
  I  I89  1  0.16704269  0.83244121  0.66662753  1
  I  I90  1  0.49389120  0.15891434  0.00113672  1
  I  I91  1  0.49718393  0.16427520  0.33052807  1
  I  I92  1  0.49734553  0.16242306  0.66858842  1
  I  I93  1  0.49900484  0.50219881  0.00011991  1
  I  I94  1  0.49422028  0.50381364  0.33622769  1
  I  I95  1  0.49295281  0.50398897  0.66296366  1
  I  I96  1  0.50000424  0.83746659  0.00046419  1
  I  I97  1  0.49361082  0.83264604  0.33233985  1
  I  I98  1  0.50420183  0.83357495  0.66709498  1
  I  I99  1  0.83891021  0.16783936  0.00013157  1
  I  I100  1  0.82650361  0.16585574  0.33304706  1
  I  I101  1  0.83186863  0.16787877  0.66690174  1
  I  I102  1  0.83858945  0.50040135  0.00329921  1
  I  I103  1  0.83959645  0.50186166  0.33013265  1
  I  I104  1  0.83403256  0.50088160  0.66678793  1
  I  I105  1  0.82671501  0.83124830  -0.00247738  1
  I  I106  1  0.83320207  0.83199114  0.33314247  1
  I  I107  1  0.82992937  0.83197294  0.67063536  1
  I  I108  1  0.00371632  0.16457846  0.17118704  1
  I  I109  1  0.00598365  0.17445244  0.49293981  1
  I  I110  1  0.00024673  0.16590678  0.83277870  1
  I  I111  1  0.00306952  0.50081551  0.16845211  1
  I  I112  1  0.00397080  0.49559103  0.50120008  1
  I  I113  1  0.00418255  0.50121361  0.82903647  1
  I  I114  1  0.00291736  0.83451956  0.16481333  1
  I  I115  1  0.00024952  0.83306300  0.50044831  1
  I  I116  1  -0.00152347  0.82988191  0.83591779  1
  I  I117  1  0.33278832  0.16814802  0.16653101  1
  I  I118  1  0.33066417  0.16953794  0.49743995  1
  I  I119  1  0.33654046  0.15882038  0.83496693  1
  I  I120  1  0.33022335  0.50035083  0.16563978  1
  I  I121  1  0.33205938  0.50060972  0.49700864  1
  I  I122  1  0.33040379  0.50255659  0.83994013  1
  I  I123  1  0.33402970  0.83094943  0.16417811  1
  I  I124  1  0.33667905  0.83139954  0.50509690  1
  I  I125  1  0.33673189  0.83598288  0.83203765  1
  I  I126  1  0.66300548  0.16272614  0.16317202  1
  I  I127  1  0.66632163  0.16755514  0.49986337  1
  I  I128  1  0.66177713  0.16671043  0.83912749  1
  I  I129  1  0.66832340  0.50147535  0.16826405  1
  I  I130  1  0.66381641  0.50447122  0.49799514  1
  I  I131  1  0.66648087  0.49825284  0.83388697  1
  I  I132  1  0.66292508  0.83571127  0.16818013  1
  I  I133  1  0.66139393  0.82794253  0.49369364  1
  I  I134  1  0.66421207  0.83587345  0.83603122  1
