# generated using pymatgen
data_Cs27Sn13Pb14I81
_symmetry_space_group_name_H-M   'P 1'
_cell_length_a   18.96881237
_cell_length_b   18.98190039
_cell_length_c   18.98194268
_cell_angle_alpha   89.99971476
_cell_angle_beta   90.00077342
_cell_angle_gamma   90.00095659
_symmetry_Int_Tables_number   1
_chemical_formula_structural   Cs27Sn13Pb14I81
_chemical_formula_sum   'Cs27 Sn13 Pb14 I81'
_cell_volume   6834.71623597
_cell_formula_units_Z   1
loop_
 _symmetry_equiv_pos_site_id
 _symmetry_equiv_pos_as_xyz
  1  'x, y, z'
loop_
 _atom_site_type_symbol
 _atom_site_label
 _atom_site_symmetry_multiplicity
 _atom_site_fract_x
 _atom_site_fract_y
 _atom_site_fract_z
 _atom_site_occupancy
  Cs  Cs0  1  0.00068330  0.00067485  0.00106690  1
  Cs  Cs1  1  -0.00114265  0.00053983  0.33225637  1
  Cs  Cs2  1  -0.00044089  0.00155983  0.66610944  1
  Cs  Cs3  1  -0.00027124  0.33389608  0.00036393  1
  Cs  Cs4  1  0.00007362  0.33164354  0.33241900  1
  Cs  Cs5  1  0.00001904  0.33270289  0.66650262  1
  Cs  Cs6  1  -0.00022516  0.66570060  -0.00039880  1
  Cs  Cs7  1  0.00263333  0.66914447  0.33462909  1
  Cs  Cs8  1  0.00061878  0.66643952  0.66592540  1
  Cs  Cs9  1  0.34000959  -0.00280884  -0.00332263  1
  Cs  Cs10  1  0.33745243  -0.00709547  0.33108021  1
  Cs  Cs11  1  0.34462173  0.00276351  0.67295587  1
  Cs  Cs12  1  0.33163532  0.33223923  -0.00097340  1
  Cs  Cs13  1  0.33885839  0.33649114  0.33572356  1
  Cs  Cs14  1  0.33341558  0.33239520  0.66510992  1
  Cs  Cs15  1  0.33337777  0.66845123  0.00126187  1
  Cs  Cs16  1  0.33557772  0.66988329  0.33920538  1
  Cs  Cs17  1  0.33248853  0.66497928  0.66170057  1
  Cs  Cs18  1  0.66437772  -0.00119536  -0.00038070  1
  Cs  Cs19  1  0.66592247  0.00161045  0.33673840  1
  Cs  Cs20  1  0.66229373  -0.00327415  0.66540642  1
  Cs  Cs21  1  0.66954260  0.33649441  0.00345134  1
  Cs  Cs22  1  0.66405326  0.33299661  0.33191984  1
  Cs  Cs23  1  0.66965645  0.33423031  0.66487730  1
  Cs  Cs24  1  0.66632148  0.66491319  -0.00166081  1
  Cs  Cs25  1  0.66284864  0.66590314  0.33546757  1
  Cs  Cs26  1  0.66729792  0.67057149  0.66865584  1
  Sn  Sn27  1  0.83397792  0.16647453  0.16665140  1
  Sn  Sn28  1  0.83380710  0.83324781  0.16590003  1
  Sn  Sn29  1  0.83405188  0.49943959  0.49858309  1
  Sn  Sn30  1  0.83431191  0.16766017  0.49977938  1
  Sn  Sn31  1  0.16611387  0.16621517  0.49869565  1
  Sn  Sn32  1  0.83449024  0.50036778  0.16800138  1
  Sn  Sn33  1  0.83373421  0.16559769  0.83348539  1
  Sn  Sn34  1  0.16747425  0.50072259  0.83394237  1
  Sn  Sn35  1  0.83473788  0.83440150  0.83434297  1
  Sn  Sn36  1  0.16633048  0.16731721  0.16771792  1
  Sn  Sn37  1  0.16597290  0.49949992  0.16641391  1
  Sn  Sn38  1  0.49851318  0.49956511  0.83359816  1
  Sn  Sn39  1  0.16560854  0.83283175  0.83309419  1
  Pb  Pb40  1  0.16472899  0.49828456  0.49952928  1
  Pb  Pb41  1  0.16495072  0.83351987  0.16497291  1
  Pb  Pb42  1  0.50372077  0.16967404  0.83367105  1
  Pb  Pb43  1  0.83422429  0.50017101  0.83346871  1
  Pb  Pb44  1  0.49981001  0.83325430  0.50003403  1
  Pb  Pb45  1  0.50321018  0.49980054  0.50263849  1
  Pb  Pb46  1  0.50332008  0.83306991  0.16647114  1
  Pb  Pb47  1  0.16642411  0.83718372  0.50325319  1
  Pb  Pb48  1  0.50010439  0.83078014  0.83356307  1
  Pb  Pb49  1  0.83358049  0.83370960  0.49986686  1
  Pb  Pb50  1  0.49929224  0.49997388  0.16500615  1
  Pb  Pb51  1  0.49926248  0.16687428  0.16658735  1
  Pb  Pb52  1  0.16513360  0.16667177  0.83373845  1
  Pb  Pb53  1  0.49982740  0.16686498  0.49975733  1
  I  I54  1  0.16060587  0.00312445  0.16917614  1
  I  I55  1  0.15640579  0.00502637  0.49412920  1
  I  I56  1  0.16177934  -0.00210186  0.83297736  1
  I  I57  1  0.15747956  0.33367398  0.16289392  1
  I  I58  1  0.16213811  0.33032096  0.50222861  1
  I  I59  1  0.16778826  0.33590200  0.83447193  1
  I  I60  1  0.16084036  0.66369483  0.16232563  1
  I  I61  1  0.16525403  0.66675395  0.49873214  1
  I  I62  1  0.16348838  0.66568053  0.83896077  1
  I  I63  1  0.49919160  0.00002222  0.16528265  1
  I  I64  1  0.50305019  0.00038880  0.50207365  1
  I  I65  1  0.49780710  -0.00002977  0.83269503  1
  I  I66  1  0.50629465  0.33347924  0.16473687  1
  I  I67  1  0.50026320  0.33342419  0.50184514  1
  I  I68  1  0.49455540  0.33704623  0.83373280  1
  I  I69  1  0.50153588  0.66637195  0.16489614  1
  I  I70  1  0.50256003  0.66610604  0.50093611  1
  I  I71  1  0.50332124  0.66334145  0.83404191  1
  I  I72  1  0.83732117  0.00109547  0.16559052  1
  I  I73  1  0.83684385  0.00353450  0.49820443  1
  I  I74  1  0.83917736  -0.00006650  0.83617085  1
  I  I75  1  0.83625550  0.33314191  0.16562260  1
  I  I76  1  0.83625114  0.33237072  0.49947208  1
  I  I77  1  0.83333378  0.33116596  0.83488946  1
  I  I78  1  0.83689578  0.66579358  0.16480325  1
  I  I79  1  0.83255857  0.66389049  0.49845244  1
  I  I80  1  0.83318885  0.66881499  0.83607747  1
  I  I81  1  0.16037207  0.16890535  0.00274355  1
  I  I82  1  0.15584463  0.17309129  0.33218711  1
  I  I83  1  0.16007023  0.16727197  0.66489266  1
  I  I84  1  0.16326405  0.49731923  0.00029390  1
  I  I85  1  0.16221534  0.49723336  0.33010323  1
  I  I86  1  0.16770315  0.50194370  0.66931337  1
  I  I87  1  0.16280638  0.83341307  -0.00312601  1
  I  I88  1  0.16535820  0.83075753  0.33328887  1
  I  I89  1  0.15830295  0.82663252  0.67135171  1
  I  I90  1  0.50028237  0.16657116  -0.00011526  1
  I  I91  1  0.50551994  0.16785769  0.33322887  1
  I  I92  1  0.49970119  0.16698482  0.66687368  1
  I  I93  1  0.50294317  0.50031004  -0.00287617  1
  I  I94  1  0.49928443  0.50003499  0.33344614  1
  I  I95  1  0.49556443  0.50002769  0.67046017  1
  I  I96  1  0.49941474  0.83359649  -0.00033750  1
  I  I97  1  0.50119947  0.83272814  0.33309740  1
  I  I98  1  0.50375483  0.83341017  0.66741527  1
  I  I99  1  0.83706477  0.16741478  0.00083824  1
  I  I100  1  0.83696222  0.16720836  0.33266128  1
  I  I101  1  0.83763479  0.16871746  0.66635084  1
  I  I102  1  0.83367791  0.49723727  0.00256294  1
  I  I103  1  0.83798250  0.49713012  0.33185141  1
  I  I104  1  0.83284659  0.49602879  0.66502882  1
  I  I105  1  0.83689427  0.83596052  -0.00038201  1
  I  I106  1  0.83333680  0.83530739  0.33013193  1
  I  I107  1  0.83559078  0.83514907  0.66991019  1
  I  I108  1  -0.00151713  0.16798638  0.16684018  1
  I  I109  1  -0.00174664  0.17070827  0.49964476  1
  I  I110  1  -0.00338878  0.16818258  0.83350191  1
  I  I111  1  -0.00101633  0.49822342  0.16285948  1
  I  I112  1  -0.00351037  0.49740029  0.50213829  1
  I  I113  1  0.00250918  0.50075204  0.83478132  1
  I  I114  1  -0.00366498  0.83359240  0.16358187  1
  I  I115  1  -0.00022550  0.83091077  0.50034609  1
  I  I116  1  -0.00117920  0.83052139  0.83698967  1
  I  I117  1  0.32904724  0.17297320  0.17071437  1
  I  I118  1  0.32976089  0.16734690  0.49655605  1
  I  I119  1  0.33322042  0.16361225  0.83274798  1
  I  I120  1  0.32933114  0.49381926  0.16292417  1
  I  I121  1  0.33311561  0.49816761  0.49860033  1
  I  I122  1  0.33111063  0.50505178  0.83917718  1
  I  I123  1  0.33287721  0.83414267  0.16438826  1
  I  I124  1  0.33266616  0.83404394  0.50136419  1
  I  I125  1  0.33023836  0.83245116  0.83318384  1
  I  I126  1  0.67102591  0.16766605  0.16682743  1
  I  I127  1  0.67077339  0.16987903  0.49960279  1
  I  I128  1  0.67230080  0.16242980  0.83317066  1
  I  I129  1  0.67043868  0.49869697  0.16758503  1
  I  I130  1  0.67162823  0.49358871  0.49582737  1
  I  I131  1  0.66578266  0.49899680  0.83272786  1
  I  I132  1  0.67251015  0.83350921  0.15949450  1
  I  I133  1  0.66754404  0.83457074  0.50257783  1
  I  I134  1  0.67017748  0.83554307  0.83637854  1
