# generated using pymatgen
data_Cs27Sn14Pb13I81
_symmetry_space_group_name_H-M   'P 1'
_cell_length_a   18.96923683
_cell_length_b   18.97316356
_cell_length_c   18.98609244
_cell_angle_alpha   89.99906396
_cell_angle_beta   89.99935424
_cell_angle_gamma   90.00045747
_symmetry_Int_Tables_number   1
_chemical_formula_structural   Cs27Sn14Pb13I81
_chemical_formula_sum   'Cs27 Sn14 Pb13 I81'
_cell_volume   6833.21680376
_cell_formula_units_Z   1
loop_
 _symmetry_equiv_pos_site_id
 _symmetry_equiv_pos_as_xyz
  1  'x, y, z'
loop_
 _atom_site_type_symbol
 _atom_site_label
 _atom_site_symmetry_multiplicity
 _atom_site_fract_x
 _atom_site_fract_y
 _atom_site_fract_z
 _atom_site_occupancy
  Cs  Cs0  1  -0.00106433  0.00101181  0.00298377  1
  Cs  Cs1  1  0.00629207  -0.00144027  0.33427183  1
  Cs  Cs2  1  0.00011354  -0.00021785  0.66156984  1
  Cs  Cs3  1  -0.00110235  0.33562448  -0.00007038  1
  Cs  Cs4  1  -0.00050899  0.33278941  0.33194495  1
  Cs  Cs5  1  0.00118229  0.33390590  0.66719802  1
  Cs  Cs6  1  0.00105939  0.66447143  -0.00063926  1
  Cs  Cs7  1  0.00217787  0.66868302  0.33320116  1
  Cs  Cs8  1  -0.00527532  0.66660675  0.66776868  1
  Cs  Cs9  1  0.33336739  0.00367661  -0.00102283  1
  Cs  Cs10  1  0.32558415  -0.00107661  0.33391644  1
  Cs  Cs11  1  0.33459987  0.00139759  0.66707617  1
  Cs  Cs12  1  0.33561467  0.32904234  -0.00162204  1
  Cs  Cs13  1  0.33638834  0.33588076  0.33155117  1
  Cs  Cs14  1  0.33019648  0.33343573  0.66938650  1
  Cs  Cs15  1  0.33243582  0.66673869  -0.00324655  1
  Cs  Cs16  1  0.33439724  0.66575148  0.33348627  1
  Cs  Cs17  1  0.33431486  0.66555471  0.67140778  1
  Cs  Cs18  1  0.66692746  -0.00023163  -0.00014321  1
  Cs  Cs19  1  0.66770037  0.00042787  0.33426373  1
  Cs  Cs20  1  0.66624198  -0.00086445  0.66531790  1
  Cs  Cs21  1  0.66658241  0.33010467  0.00235892  1
  Cs  Cs22  1  0.66488071  0.33389287  0.33390360  1
  Cs  Cs23  1  0.66862078  0.33272760  0.66318531  1
  Cs  Cs24  1  0.66660583  0.66942468  -0.00051386  1
  Cs  Cs25  1  0.66406810  0.66520192  0.33489221  1
  Cs  Cs26  1  0.67071470  0.66673792  0.66643441  1
  Sn  Sn27  1  0.50005197  0.50029895  0.83347525  1
  Sn  Sn28  1  0.83352594  0.50024945  0.16667808  1
  Sn  Sn29  1  0.83340707  0.16652464  0.83316730  1
  Sn  Sn30  1  0.83278808  0.83325424  0.16674412  1
  Sn  Sn31  1  0.83279352  0.16656784  0.49964003  1
  Sn  Sn32  1  0.50022750  0.83351578  0.16663272  1
  Sn  Sn33  1  0.16645745  0.50004689  0.16646420  1
  Sn  Sn34  1  0.16668022  0.50031357  0.50023144  1
  Sn  Sn35  1  0.16694574  0.83302538  0.83338413  1
  Sn  Sn36  1  0.49939731  0.83269081  0.83336366  1
  Sn  Sn37  1  0.16734131  0.50091364  0.83335988  1
  Sn  Sn38  1  0.50019974  0.16595975  0.49994921  1
  Sn  Sn39  1  0.83317931  0.16648087  0.16700636  1
  Sn  Sn40  1  0.49994784  0.83393076  0.50006198  1
  Pb  Pb41  1  0.16697559  0.83127628  0.16454326  1
  Pb  Pb42  1  0.83315892  0.49826757  0.83522617  1
  Pb  Pb43  1  0.83538123  0.49801831  0.49735465  1
  Pb  Pb44  1  0.16928826  0.83088318  0.50279349  1
  Pb  Pb45  1  0.50183789  0.16383903  0.16912527  1
  Pb  Pb46  1  0.83141818  0.83520192  0.49731309  1
  Pb  Pb47  1  0.16424375  0.16650584  0.83336792  1
  Pb  Pb48  1  0.49830254  0.50011045  0.50244203  1
  Pb  Pb49  1  0.16444041  0.16944518  0.16655207  1
  Pb  Pb50  1  0.50001603  0.50199657  0.16429951  1
  Pb  Pb51  1  0.83328569  0.83531042  0.83511044  1
  Pb  Pb52  1  0.16710360  0.16881924  0.49997074  1
  Pb  Pb53  1  0.50204618  0.16637241  0.83142632  1
  I  I54  1  0.16553310  -0.00038151  0.16511949  1
  I  I55  1  0.16462237  -0.00031755  0.50157842  1
  I  I56  1  0.17140315  -0.00302499  0.83408557  1
  I  I57  1  0.16170495  0.33793153  0.16364702  1
  I  I58  1  0.16777773  0.33682240  0.50289915  1
  I  I59  1  0.17003874  0.33690612  0.83357709  1
  I  I60  1  0.15996513  0.66329486  0.16784987  1
  I  I61  1  0.16814656  0.66310146  0.49692050  1
  I  I62  1  0.17100463  0.66557191  0.83399344  1
  I  I63  1  0.50563493  -0.00429388  0.16024783  1
  I  I64  1  0.50514405  -0.00061974  0.50262223  1
  I  I65  1  0.49692536  -0.00331682  0.83520409  1
  I  I66  1  0.50052930  0.33338916  0.16668506  1
  I  I67  1  0.50363341  0.33100578  0.50170250  1
  I  I68  1  0.49584598  0.33571485  0.83210440  1
  I  I69  1  0.50619861  0.67002270  0.17116735  1
  I  I70  1  0.49741364  0.66953959  0.49805647  1
  I  I71  1  0.49621505  0.66769376  0.83196362  1
  I  I72  1  0.82682067  0.00007068  0.16542102  1
  I  I73  1  0.83246550  0.00349065  0.49881308  1
  I  I74  1  0.83261658  0.00317327  0.83605472  1
  I  I75  1  0.83951927  0.33311946  0.16624095  1
  I  I76  1  0.82655095  0.32982986  0.49801169  1
  I  I77  1  0.83321077  0.33033208  0.83584564  1
  I  I78  1  0.83365440  0.66673399  0.16478384  1
  I  I79  1  0.83250776  0.66668084  0.49881190  1
  I  I80  1  0.83329500  0.66675848  0.83570283  1
  I  I81  1  0.16482549  0.16878634  -0.00010240  1
  I  I82  1  0.16458676  0.16779779  0.33332474  1
  I  I83  1  0.16228561  0.16989910  0.66671726  1
  I  I84  1  0.16491904  0.50433447  -0.00053702  1
  I  I85  1  0.16109319  0.49813596  0.33261956  1
  I  I86  1  0.17250511  0.50208907  0.66799932  1
  I  I87  1  0.17131912  0.82707042  -0.00311943  1
  I  I88  1  0.16697350  0.83180959  0.33335436  1
  I  I89  1  0.17077803  0.82813344  0.67058915  1
  I  I90  1  0.50203851  0.16659990  0.00003853  1
  I  I91  1  0.50590733  0.16405113  0.33694918  1
  I  I92  1  0.50686310  0.16200104  0.66379142  1
  I  I93  1  0.49542123  0.50490051  -0.00343422  1
  I  I94  1  0.49862941  0.50057014  0.33325612  1
  I  I95  1  0.49467296  0.50450100  0.67021907  1
  I  I96  1  0.50099895  0.82764983  -0.00053065  1
  I  I97  1  0.50640839  0.83727632  0.33320815  1
  I  I98  1  0.49460253  0.83407994  0.66729221  1
  I  I99  1  0.83473018  0.16705550  0.00106542  1
  I  I100  1  0.82863684  0.16786856  0.33296781  1
  I  I101  1  0.82934885  0.16732004  0.66608708  1
  I  I102  1  0.83838194  0.49750584  0.00324715  1
  I  I103  1  0.83766610  0.49837862  0.32917078  1
  I  I104  1  0.83445227  0.49720260  0.66667916  1
  I  I105  1  0.82819825  0.83586773  0.00315702  1
  I  I106  1  0.82884096  0.83421705  0.32913749  1
  I  I107  1  0.83310560  0.83562766  0.66659005  1
  I  I108  1  -0.00452473  0.16072438  0.16956417  1
  I  I109  1  -0.00308603  0.16922578  0.49917538  1
  I  I110  1  -0.00388002  0.16746803  0.83226417  1
  I  I111  1  -0.00025181  0.50063870  0.16414834  1
  I  I112  1  0.00335015  0.49816978  0.50587512  1
  I  I113  1  0.00298867  0.50291726  0.83238587  1
  I  I114  1  -0.00268838  0.83573388  0.16427501  1
  I  I115  1  0.00018767  0.83465759  0.50001007  1
  I  I116  1  0.00238109  0.82887606  0.83607466  1
  I  I117  1  0.33361616  0.16705569  0.16811422  1
  I  I118  1  0.33642193  0.16297218  0.50182266  1
  I  I119  1  0.33351993  0.16745744  0.83086944  1
  I  I120  1  0.33070560  0.50298871  0.16825842  1
  I  I121  1  0.33038162  0.49796780  0.49483485  1
  I  I122  1  0.33252827  0.50374814  0.83509542  1
  I  I123  1  0.33625263  0.83042567  0.16842687  1
  I  I124  1  0.33743102  0.84037121  0.49423987  1
  I  I125  1  0.33455978  0.82878175  0.83517986  1
  I  I126  1  0.67040674  0.17247112  0.16444078  1
  I  I127  1  0.66720198  0.16358745  0.49995833  1
  I  I128  1  0.66991812  0.16701374  0.83643865  1
  I  I129  1  0.66938317  0.49762080  0.16459520  1
  I  I130  1  0.66656478  0.50084136  0.50020332  1
  I  I131  1  0.66413749  0.50419898  0.83461275  1
  I  I132  1  0.66678451  0.83163779  0.16392000  1
  I  I133  1  0.66312953  0.83338593  0.50567669  1
  I  I134  1  0.66345675  0.83002788  0.83214896  1
