# generated using pymatgen
data_Cs27Sn14Pb13I81
_symmetry_space_group_name_H-M   'P 1'
_cell_length_a   19.11212458
_cell_length_b   19.10317176
_cell_length_c   19.11228125
_cell_angle_alpha   89.99948997
_cell_angle_beta   90.00378461
_cell_angle_gamma   89.99889459
_symmetry_Int_Tables_number   1
_chemical_formula_structural   Cs27Sn14Pb13I81
_chemical_formula_sum   'Cs27 Sn14 Pb13 I81'
_cell_volume   6977.93588524
_cell_formula_units_Z   1
loop_
 _symmetry_equiv_pos_site_id
 _symmetry_equiv_pos_as_xyz
  1  'x, y, z'
loop_
 _atom_site_type_symbol
 _atom_site_label
 _atom_site_symmetry_multiplicity
 _atom_site_fract_x
 _atom_site_fract_y
 _atom_site_fract_z
 _atom_site_occupancy
  Cs  Cs0  1  -0.00155101  -0.00387570  0.00010822  1
  Cs  Cs1  1  -0.00493414  -0.01819738  0.33573782  1
  Cs  Cs2  1  -0.01013082  0.00316779  0.66462413  1
  Cs  Cs3  1  -0.00569068  0.33818893  0.00323338  1
  Cs  Cs4  1  -0.00220544  0.33197583  0.33212707  1
  Cs  Cs5  1  -0.00329677  0.33174010  0.66569091  1
  Cs  Cs6  1  -0.00118209  0.66049228  -0.00002281  1
  Cs  Cs7  1  -0.00177955  0.69773510  0.33687980  1
  Cs  Cs8  1  0.02081763  0.66783312  0.66113013  1
  Cs  Cs9  1  0.33484089  -0.00091735  -0.00056094  1
  Cs  Cs10  1  0.34286390  0.00272344  0.33030318  1
  Cs  Cs11  1  0.33739813  0.00572330  0.67468546  1
  Cs  Cs12  1  0.33086850  0.32563259  0.01630367  1
  Cs  Cs13  1  0.33327374  0.33485718  0.32844725  1
  Cs  Cs14  1  0.32990809  0.33590543  0.66054495  1
  Cs  Cs15  1  0.33103936  0.67541996  -0.00936803  1
  Cs  Cs16  1  0.33436499  0.65658084  0.33240398  1
  Cs  Cs17  1  0.31793817  0.64857651  0.68010703  1
  Cs  Cs18  1  0.66330740  0.00232375  -0.00709136  1
  Cs  Cs19  1  0.66149022  -0.00424153  0.33459384  1
  Cs  Cs20  1  0.67055527  0.00057543  0.66692848  1
  Cs  Cs21  1  0.67552762  0.33724878  0.00385197  1
  Cs  Cs22  1  0.66803814  0.33471334  0.33330729  1
  Cs  Cs23  1  0.67019972  0.33571310  0.66141591  1
  Cs  Cs24  1  0.66794928  0.65059571  -0.01084048  1
  Cs  Cs25  1  0.66672705  0.67693434  0.33319146  1
  Cs  Cs26  1  0.66208992  0.65812080  0.67447348  1
  Sn  Sn27  1  0.16667037  0.16587588  0.49900928  1
  Sn  Sn28  1  0.49885471  0.83312554  0.50125207  1
  Sn  Sn29  1  0.16673192  0.49919663  0.16757870  1
  Sn  Sn30  1  0.49971876  0.16615790  0.50014126  1
  Sn  Sn31  1  0.16652015  0.16638680  0.16756328  1
  Sn  Sn32  1  0.16645676  0.16687457  0.83355802  1
  Sn  Sn33  1  0.83372410  0.50019294  0.49867796  1
  Sn  Sn34  1  0.50035066  0.16662575  0.16686646  1
  Sn  Sn35  1  0.50024561  0.83253535  0.16704123  1
  Sn  Sn36  1  0.50009358  0.16776759  0.83282031  1
  Sn  Sn37  1  0.83292223  0.83384196  0.83311951  1
  Sn  Sn38  1  0.49946917  0.50072775  0.16719315  1
  Sn  Sn39  1  0.83330358  0.16763651  0.49949500  1
  Sn  Sn40  1  0.83327863  0.16616584  0.83250241  1
  Pb  Pb41  1  0.16982716  0.83386232  0.16663427  1
  Pb  Pb42  1  0.83025655  0.83323964  0.50301904  1
  Pb  Pb43  1  0.49922123  0.49555267  0.83593610  1
  Pb  Pb44  1  0.50156712  0.83527113  0.83212929  1
  Pb  Pb45  1  0.83395810  0.16605161  0.16732869  1
  Pb  Pb46  1  0.16660861  0.49514946  0.83660388  1
  Pb  Pb47  1  0.16381295  0.49688965  0.49661104  1
  Pb  Pb48  1  0.50157650  0.50023889  0.49823721  1
  Pb  Pb49  1  0.83452346  0.50027287  0.17031767  1
  Pb  Pb50  1  0.82948666  0.83356668  0.16263455  1
  Pb  Pb51  1  0.16417418  0.83731275  0.83303907  1
  Pb  Pb52  1  0.83408176  0.49968906  0.83030136  1
  Pb  Pb53  1  0.17163570  0.83735813  0.50045211  1
  I  I54  1  0.17117659  0.00368408  0.16477559  1
  I  I55  1  0.15126061  0.00480555  0.49376405  1
  I  I56  1  0.17457764  0.00515966  0.84035651  1
  I  I57  1  0.18205069  0.33087683  0.16530365  1
  I  I58  1  0.17851463  0.32901778  0.50712416  1
  I  I59  1  0.16100202  0.32816258  0.82576974  1
  I  I60  1  0.17204497  0.66403351  0.16674761  1
  I  I61  1  0.16133250  0.66682199  0.49791587  1
  I  I62  1  0.16302429  0.66624687  0.83501203  1
  I  I63  1  0.49478260  0.00195526  0.16693756  1
  I  I64  1  0.50356334  0.00336872  0.49012747  1
  I  I65  1  0.49397130  0.00396001  0.84287673  1
  I  I66  1  0.49329689  0.33181985  0.16493480  1
  I  I67  1  0.49589042  0.32946369  0.50216381  1
  I  I68  1  0.50660691  0.32815930  0.82794127  1
  I  I69  1  0.49583787  0.66670342  0.18036314  1
  I  I70  1  0.51108866  0.66955491  0.48779054  1
  I  I71  1  0.50801145  0.66625187  0.83358920  1
  I  I72  1  0.83822213  0.00022811  0.17739849  1
  I  I73  1  0.83951429  0.00284358  0.50228681  1
  I  I74  1  0.83360030  0.00316095  0.82295772  1
  I  I75  1  0.82392481  0.33285767  0.15589240  1
  I  I76  1  0.82880587  0.33020789  0.51007776  1
  I  I77  1  0.83361640  0.32992565  0.83310572  1
  I  I78  1  0.83588333  0.66659146  0.16706084  1
  I  I79  1  0.82751634  0.66474854  0.49689308  1
  I  I80  1  0.82494298  0.66879982  0.83648532  1
  I  I81  1  0.17242278  0.17235730  0.00053466  1
  I  I82  1  0.17321713  0.17573801  0.33322165  1
  I  I83  1  0.17202215  0.16180970  0.66635698  1
  I  I84  1  0.17215187  0.49123555  0.00396922  1
  I  I85  1  0.17651616  0.48702655  0.32998019  1
  I  I86  1  0.16381106  0.50585329  0.66644917  1
  I  I87  1  0.17021666  0.83537038  0.00020578  1
  I  I88  1  0.15296075  0.83584040  0.33334726  1
  I  I89  1  0.17064082  0.82904910  0.66657880  1
  I  I90  1  0.49559930  0.16662475  0.00038792  1
  I  I91  1  0.49662800  0.16656998  0.33295288  1
  I  I92  1  0.49697361  0.15541875  0.66632352  1
  I  I93  1  0.49748450  0.50506498  0.00376361  1
  I  I94  1  0.49448802  0.48973159  0.33052602  1
  I  I95  1  0.50520161  0.50500881  0.66681466  1
  I  I96  1  0.50019436  0.83441834  0.00227553  1
  I  I97  1  0.50256431  0.84477841  0.33300497  1
  I  I98  1  0.50590442  0.84689068  0.66353999  1
  I  I99  1  0.83163705  0.15934760  -0.00228577  1
  I  I100  1  0.83198005  0.17612289  0.33626601  1
  I  I101  1  0.83322576  0.16626466  0.66643179  1
  I  I102  1  0.83251366  0.50250400  0.00034971  1
  I  I103  1  0.83104205  0.48174959  0.33691993  1
  I  I104  1  0.82804306  0.49453422  0.66341807  1
  I  I105  1  0.83272914  0.84942462  -0.00393781  1
  I  I106  1  0.83990237  0.83101028  0.33349458  1
  I  I107  1  0.82756562  0.84021299  0.66941666  1
  I  I108  1  0.00305630  0.17947221  0.16375492  1
  I  I109  1  0.00009142  0.17843563  0.50633923  1
  I  I110  1  -0.00013847  0.15991159  0.82822735  1
  I  I111  1  0.00304466  0.48422874  0.16255156  1
  I  I112  1  -0.00333172  0.48710580  0.50166852  1
  I  I113  1  -0.00004915  0.49917805  0.84172219  1
  I  I114  1  -0.00017822  0.83110337  0.16607849  1
  I  I115  1  -0.00002980  0.82977558  0.50097376  1
  I  I116  1  -0.00345233  0.84410182  0.83160604  1
  I  I117  1  0.33454188  0.16650686  0.16550758  1
  I  I118  1  0.33380581  0.15707933  0.50433213  1
  I  I119  1  0.33397918  0.16818771  0.82952734  1
  I  I120  1  0.33422983  0.49516360  0.16966602  1
  I  I121  1  0.33293172  0.50422408  0.50505155  1
  I  I122  1  0.33303079  0.50542581  0.82148651  1
  I  I123  1  0.33736257  0.83680785  0.17081927  1
  I  I124  1  0.33803024  0.84411521  0.49024530  1
  I  I125  1  0.33344411  0.83097748  0.83583867  1
  I  I126  1  0.66368539  0.16751312  0.16541240  1
  I  I127  1  0.66615848  0.16686988  0.50405051  1
  I  I128  1  0.66644720  0.15846566  0.83102001  1
  I  I129  1  0.66429949  0.49773430  0.16502242  1
  I  I130  1  0.66840606  0.48732209  0.49821540  1
  I  I131  1  0.66688859  0.49855122  0.84085062  1
  I  I132  1  0.66239544  0.83698340  0.17730647  1
  I  I133  1  0.66370648  0.84544252  0.49016605  1
  I  I134  1  0.66845023  0.84683856  0.83433311  1
