# generated using pymatgen
data_Cs27Sn13Pb14I81
_symmetry_space_group_name_H-M   'P 1'
_cell_length_a   18.99917571
_cell_length_b   18.99366344
_cell_length_c   18.98292563
_cell_angle_alpha   90.00046565
_cell_angle_beta   90.00021187
_cell_angle_gamma   89.99909595
_symmetry_Int_Tables_number   1
_chemical_formula_structural   Cs27Sn13Pb14I81
_chemical_formula_sum   'Cs27 Sn13 Pb14 I81'
_cell_volume   6850.25350725
_cell_formula_units_Z   1
loop_
 _symmetry_equiv_pos_site_id
 _symmetry_equiv_pos_as_xyz
  1  'x, y, z'
loop_
 _atom_site_type_symbol
 _atom_site_label
 _atom_site_symmetry_multiplicity
 _atom_site_fract_x
 _atom_site_fract_y
 _atom_site_fract_z
 _atom_site_occupancy
  Cs  Cs0  1  -0.00184731  -0.00551879  0.00619409  1
  Cs  Cs1  1  -0.00379703  0.00452047  0.32842655  1
  Cs  Cs2  1  0.00038634  0.00175971  0.66589171  1
  Cs  Cs3  1  0.00458811  0.33389824  0.00328008  1
  Cs  Cs4  1  -0.00178951  0.33225796  0.33243828  1
  Cs  Cs5  1  -0.00098701  0.33087469  0.66465667  1
  Cs  Cs6  1  0.00646671  0.67448167  -0.00930090  1
  Cs  Cs7  1  -0.00063365  0.66277552  0.33665856  1
  Cs  Cs8  1  -0.00105472  0.66838368  0.66924405  1
  Cs  Cs9  1  0.33251474  -0.00139664  0.00133689  1
  Cs  Cs10  1  0.33601273  -0.00291621  0.33308042  1
  Cs  Cs11  1  0.33425793  0.00213325  0.66607457  1
  Cs  Cs12  1  0.33532157  0.33446530  0.00016126  1
  Cs  Cs13  1  0.33371579  0.33439412  0.33332269  1
  Cs  Cs14  1  0.33495170  0.33025333  0.66735379  1
  Cs  Cs15  1  0.32102714  0.66869872  -0.00161831  1
  Cs  Cs16  1  0.33692735  0.66716577  0.33425687  1
  Cs  Cs17  1  0.33193118  0.66820197  0.66461197  1
  Cs  Cs18  1  0.66816257  -0.00380900  0.00079692  1
  Cs  Cs19  1  0.66750564  -0.00181681  0.32980282  1
  Cs  Cs20  1  0.66449928  0.00238534  0.66694156  1
  Cs  Cs21  1  0.66098441  0.33527475  -0.00330806  1
  Cs  Cs22  1  0.66759033  0.33492467  0.33359922  1
  Cs  Cs23  1  0.66537278  0.33199810  0.66912206  1
  Cs  Cs24  1  0.67204197  0.66814838  -0.00113891  1
  Cs  Cs25  1  0.66398180  0.66462151  0.33368691  1
  Cs  Cs26  1  0.66912957  0.66610655  0.66739697  1
  Sn  Sn27  1  0.50000218  0.83284477  0.83304042  1
  Sn  Sn28  1  0.83310889  0.50064715  0.49967613  1
  Sn  Sn29  1  0.83464756  0.16702472  0.83369120  1
  Sn  Sn30  1  0.49953115  0.16731860  0.49893781  1
  Sn  Sn31  1  0.16742984  0.16649448  0.50028075  1
  Sn  Sn32  1  0.50082017  0.49956148  0.16718909  1
  Sn  Sn33  1  0.16671435  0.49964978  0.50014549  1
  Sn  Sn34  1  0.50006770  0.16733152  0.16781063  1
  Sn  Sn35  1  0.50013563  0.49892997  0.49981287  1
  Sn  Sn36  1  0.16525787  0.16670832  0.83291465  1
  Sn  Sn37  1  0.16540138  0.83398236  0.49997140  1
  Sn  Sn38  1  0.83299696  0.50016194  0.16673490  1
  Sn  Sn39  1  0.83387753  0.83299181  0.49992183  1
  Pb  Pb40  1  0.16668960  0.50007720  0.16887454  1
  Pb  Pb41  1  0.49949087  0.16539029  0.83356705  1
  Pb  Pb42  1  0.16665646  0.49725288  0.83039877  1
  Pb  Pb43  1  0.83063855  0.16937673  0.16371863  1
  Pb  Pb44  1  0.83296002  0.16701412  0.50064509  1
  Pb  Pb45  1  0.83347949  0.49801020  0.83353916  1
  Pb  Pb46  1  0.49993210  0.50264890  0.83366084  1
  Pb  Pb47  1  0.49998772  0.83200258  0.16402220  1
  Pb  Pb48  1  0.50026067  0.83326364  0.50102614  1
  Pb  Pb49  1  0.16826401  0.83627711  0.83058045  1
  Pb  Pb50  1  0.83192653  0.83567982  0.83075439  1
  Pb  Pb51  1  0.16905290  0.16673158  0.16725778  1
  Pb  Pb52  1  0.16646023  0.83330618  0.17014250  1
  Pb  Pb53  1  0.83333098  0.82994849  0.16944381  1
  I  I54  1  0.16968843  0.00033035  0.16890725  1
  I  I55  1  0.16821287  0.00085451  0.50548460  1
  I  I56  1  0.16515390  0.00375153  0.82488318  1
  I  I57  1  0.16475333  0.33337738  0.16836407  1
  I  I58  1  0.16777901  0.33316248  0.50406597  1
  I  I59  1  0.16534446  0.32937577  0.82644311  1
  I  I60  1  0.17082199  0.66640623  0.16761178  1
  I  I61  1  0.16735747  0.66612497  0.49783640  1
  I  I62  1  0.16854399  0.66703815  0.83330010  1
  I  I63  1  0.49823799  0.00263315  0.17088200  1
  I  I64  1  0.49677060  0.00274774  0.49875429  1
  I  I65  1  0.50002164  -0.00176891  0.83029644  1
  I  I66  1  0.50334000  0.33379775  0.17087841  1
  I  I67  1  0.49720672  0.33343663  0.49785193  1
  I  I68  1  0.49993021  0.33334782  0.83271570  1
  I  I69  1  0.50437725  0.66267357  0.17372036  1
  I  I70  1  0.49752425  0.66361469  0.49714517  1
  I  I71  1  0.50143814  0.66983402  0.82985934  1
  I  I72  1  0.83179018  0.00008300  0.16707027  1
  I  I73  1  0.83581448  -0.00189891  0.50440558  1
  I  I74  1  0.83554723  0.00337341  0.82981766  1
  I  I75  1  0.83198020  0.33676512  0.17650221  1
  I  I76  1  0.83531603  0.33633014  0.49783353  1
  I  I77  1  0.83452715  0.33030131  0.82836669  1
  I  I78  1  0.82350184  0.66206906  0.16939085  1
  I  I79  1  0.83560498  0.66541440  0.49711019  1
  I  I80  1  0.83082460  0.66675891  0.83442493  1
  I  I81  1  0.16499342  0.16673942  -0.00278106  1
  I  I82  1  0.16888002  0.16710583  0.33736374  1
  I  I83  1  0.16975850  0.16732574  0.66458070  1
  I  I84  1  0.16762836  0.49862031  0.00004261  1
  I  I85  1  0.16677883  0.49671475  0.33794490  1
  I  I86  1  0.16723168  0.50266117  0.66146745  1
  I  I87  1  0.16888844  0.83410253  -0.00053057  1
  I  I88  1  0.16581198  0.83625434  0.33895050  1
  I  I89  1  0.16404008  0.83010493  0.66247305  1
  I  I90  1  0.50068843  0.17065872  0.00250979  1
  I  I91  1  0.49428059  0.16978345  0.33501773  1
  I  I92  1  0.49893516  0.16964136  0.66380860  1
  I  I93  1  0.50688384  0.49410786  0.00355249  1
  I  I94  1  0.50032434  0.49629378  0.33511870  1
  I  I95  1  0.50057187  0.49573834  0.66296248  1
  I  I96  1  0.50100048  0.83707249  -0.00336835  1
  I  I97  1  0.49927309  0.83449656  0.33340377  1
  I  I98  1  0.49972900  0.83569142  0.66828786  1
  I  I99  1  0.83785238  0.16782320  -0.00380266  1
  I  I100  1  0.83548507  0.16406236  0.33318511  1
  I  I101  1  0.83136342  0.16829656  0.66833558  1
  I  I102  1  0.82408567  0.49544535  0.00320275  1
  I  I103  1  0.83222736  0.50308784  0.33540425  1
  I  I104  1  0.83254749  0.50288190  0.66290577  1
  I  I105  1  0.83088575  0.83295018  -0.00011437  1
  I  I106  1  0.83578118  0.83469155  0.33774078  1
  I  I107  1  0.83646265  0.82567373  0.66287350  1
  I  I108  1  -0.00014321  0.16788500  0.16879641  1
  I  I109  1  0.00257864  0.16866475  0.50393732  1
  I  I110  1  0.00089519  0.16782143  0.82330037  1
  I  I111  1  -0.00291240  0.49901199  0.17346668  1
  I  I112  1  -0.00020609  0.50021109  0.49646777  1
  I  I113  1  0.00006529  0.50187167  0.83370124  1
  I  I114  1  -0.00030339  0.83299114  0.16302112  1
  I  I115  1  0.00039856  0.82926449  0.50146374  1
  I  I116  1  0.00019907  0.83240472  0.83387968  1
  I  I117  1  0.33704864  0.17400390  0.16585683  1
  I  I118  1  0.33335885  0.16925253  0.50321599  1
  I  I119  1  0.33114546  0.16474260  0.82979091  1
  I  I120  1  0.33678979  0.49552903  0.17115931  1
  I  I121  1  0.33378110  0.49966578  0.49678690  1
  I  I122  1  0.33340862  0.49788582  0.83338289  1
  I  I123  1  0.33359246  0.83178413  0.16804838  1
  I  I124  1  0.33108587  0.83148869  0.50263716  1
  I  I125  1  0.33569927  0.83567291  0.83042984  1
  I  I126  1  0.66292782  0.16807446  0.17266839  1
  I  I127  1  0.66378764  0.16924092  0.49968712  1
  I  I128  1  0.66798836  0.16516238  0.83163672  1
  I  I129  1  0.66582130  0.49553809  0.17708343  1
  I  I130  1  0.66636303  0.50042531  0.49626050  1
  I  I131  1  0.66659124  0.49644508  0.82701750  1
  I  I132  1  0.66656484  0.83693909  0.16894604  1
  I  I133  1  0.66885858  0.82999911  0.50245465  1
  I  I134  1  0.66443575  0.83717110  0.82971875  1
