# generated using pymatgen
data_Cs27Sn14Pb13I81
_symmetry_space_group_name_H-M   'P 1'
_cell_length_a   18.97554577
_cell_length_b   18.97298130
_cell_length_c   18.97935356
_cell_angle_alpha   89.99903188
_cell_angle_beta   89.99965602
_cell_angle_gamma   90.00136582
_symmetry_Int_Tables_number   1
_chemical_formula_structural   Cs27Sn14Pb13I81
_chemical_formula_sum   'Cs27 Sn14 Pb13 I81'
_cell_volume   6832.99763381
_cell_formula_units_Z   1
loop_
 _symmetry_equiv_pos_site_id
 _symmetry_equiv_pos_as_xyz
  1  'x, y, z'
loop_
 _atom_site_type_symbol
 _atom_site_label
 _atom_site_symmetry_multiplicity
 _atom_site_fract_x
 _atom_site_fract_y
 _atom_site_fract_z
 _atom_site_occupancy
  Cs  Cs0  1  -0.00092484  -0.00061187  0.00106866  1
  Cs  Cs1  1  0.00005735  0.00007194  0.33253559  1
  Cs  Cs2  1  -0.00000849  0.00191640  0.66648719  1
  Cs  Cs3  1  0.00177602  0.33225354  -0.00060426  1
  Cs  Cs4  1  0.00210196  0.33048164  0.33275379  1
  Cs  Cs5  1  0.00990414  0.32753202  0.66797127  1
  Cs  Cs6  1  -0.00150791  0.66696472  0.00002724  1
  Cs  Cs7  1  -0.00148385  0.66729808  0.33213528  1
  Cs  Cs8  1  -0.00118396  0.66636003  0.66812672  1
  Cs  Cs9  1  0.34203493  -0.00257827  0.00065225  1
  Cs  Cs10  1  0.33193085  -0.00421461  0.33195694  1
  Cs  Cs11  1  0.33577568  0.00027894  0.66842158  1
  Cs  Cs12  1  0.33230380  0.33120811  0.00019953  1
  Cs  Cs13  1  0.33298399  0.33415337  0.33309897  1
  Cs  Cs14  1  0.32456714  0.33412457  0.66708444  1
  Cs  Cs15  1  0.33566604  0.66972772  0.00428447  1
  Cs  Cs16  1  0.33334983  0.66774394  0.33167197  1
  Cs  Cs17  1  0.33295143  0.66555891  0.66594427  1
  Cs  Cs18  1  0.65928894  0.00918459  -0.00273598  1
  Cs  Cs19  1  0.66864198  0.00510099  0.33634750  1
  Cs  Cs20  1  0.66521915  0.00025725  0.66716383  1
  Cs  Cs21  1  0.66497965  0.32985125  0.00241076  1
  Cs  Cs22  1  0.66561524  0.33403530  0.33207494  1
  Cs  Cs23  1  0.66784978  0.33680440  0.66540491  1
  Cs  Cs24  1  0.66873945  0.66520270  -0.00297053  1
  Cs  Cs25  1  0.66898946  0.66437300  0.33591124  1
  Cs  Cs26  1  0.66804019  0.66632803  0.66626158  1
  Sn  Sn27  1  0.16609144  0.83286126  0.83276954  1
  Sn  Sn28  1  0.83379253  0.83308371  0.83341046  1
  Sn  Sn29  1  0.16606422  0.83283781  0.50106462  1
  Sn  Sn30  1  0.83348269  0.83265501  0.50015488  1
  Sn  Sn31  1  0.49994860  0.16735021  0.50019314  1
  Sn  Sn32  1  0.50051676  0.50035225  0.83243747  1
  Sn  Sn33  1  0.83287806  0.83300548  0.16631438  1
  Sn  Sn34  1  0.16579733  0.49947864  0.16677122  1
  Sn  Sn35  1  0.16656118  0.16710864  0.16658759  1
  Sn  Sn36  1  0.83428481  0.50070348  0.16670946  1
  Sn  Sn37  1  0.50042545  0.49988421  0.50106164  1
  Sn  Sn38  1  0.50041957  0.83305324  0.49995929  1
  Sn  Sn39  1  0.83297002  0.50011476  0.83287356  1
  Sn  Sn40  1  0.83353450  0.50021740  0.50046282  1
  Pb  Pb41  1  0.49743735  0.16671083  0.16911696  1
  Pb  Pb42  1  0.83481970  0.16706684  0.16671910  1
  Pb  Pb43  1  0.16905123  0.16352039  0.49835583  1
  Pb  Pb44  1  0.16486017  0.83299313  0.16630095  1
  Pb  Pb45  1  0.83184596  0.16719598  0.50016929  1
  Pb  Pb46  1  0.50423712  0.83306118  0.16933913  1
  Pb  Pb47  1  0.16678629  0.16296499  0.83597471  1
  Pb  Pb48  1  0.16652287  0.50218502  0.83570323  1
  Pb  Pb49  1  0.50072202  0.83123231  0.83127147  1
  Pb  Pb50  1  0.49999629  0.17040619  0.83039500  1
  Pb  Pb51  1  0.50074849  0.50021136  0.16675893  1
  Pb  Pb52  1  0.83338095  0.16704805  0.83313239  1
  Pb  Pb53  1  0.16624526  0.50202140  0.49813017  1
  I  I54  1  0.16504916  0.00140688  0.16852460  1
  I  I55  1  0.16494545  -0.00467620  0.50008844  1
  I  I56  1  0.15999203  -0.00498311  0.83019036  1
  I  I57  1  0.16066951  0.33472786  0.16789327  1
  I  I58  1  0.16694967  0.33346099  0.49977707  1
  I  I59  1  0.16653630  0.33355728  0.83284255  1
  I  I60  1  0.16434828  0.66444973  0.16722943  1
  I  I61  1  0.17047499  0.67017202  0.50032125  1
  I  I62  1  0.16443721  0.66994681  0.83090062  1
  I  I63  1  0.49869010  -0.00029732  0.16797711  1
  I  I64  1  0.49985029  -0.00136965  0.49745615  1
  I  I65  1  0.49960007  -0.00018312  0.83271003  1
  I  I66  1  0.50406747  0.33369435  0.16946293  1
  I  I67  1  0.50594643  0.33502072  0.50245612  1
  I  I68  1  0.50682931  0.33835871  0.82911790  1
  I  I69  1  0.49177890  0.66656566  0.16902728  1
  I  I70  1  0.50171920  0.66637862  0.50340335  1
  I  I71  1  0.50191345  0.66343782  0.82731515  1
  I  I72  1  0.83594934  -0.00326755  0.16888703  1
  I  I73  1  0.83263401  -0.00379634  0.49896662  1
  I  I74  1  0.83808489  -0.00397955  0.83280850  1
  I  I75  1  0.83445788  0.33721291  0.16734831  1
  I  I76  1  0.82759933  0.33730685  0.49847954  1
  I  I77  1  0.82823636  0.33769352  0.83412416  1
  I  I78  1  0.83971723  0.66591793  0.16789570  1
  I  I79  1  0.82902715  0.66712486  0.49918982  1
  I  I80  1  0.83324161  0.66669595  0.83314068  1
  I  I81  1  0.16526103  0.17085363  0.00359928  1
  I  I82  1  0.16671830  0.16891500  0.33068975  1
  I  I83  1  0.16759186  0.16792276  0.66659537  1
  I  I84  1  0.16278792  0.49921628  0.00341622  1
  I  I85  1  0.16306218  0.49984390  0.33033150  1
  I  I86  1  0.16524929  0.49931216  0.66669012  1
  I  I87  1  0.16089653  0.83246826  -0.00233472  1
  I  I88  1  0.16679433  0.83336471  0.33578649  1
  I  I89  1  0.16207743  0.83240567  0.66581479  1
  I  I90  1  0.49935420  0.16707890  -0.00021169  1
  I  I91  1  0.50118942  0.16886967  0.33709271  1
  I  I92  1  0.50000937  0.16159224  0.66264340  1
  I  I93  1  0.50320032  0.50121610  -0.00270257  1
  I  I94  1  0.50307765  0.50055196  0.33686993  1
  I  I95  1  0.50832224  0.50107853  0.66518039  1
  I  I96  1  0.49745908  0.83198907  -0.00022389  1
  I  I97  1  0.49684862  0.82960596  0.33811419  1
  I  I98  1  0.50355128  0.83507373  0.66277200  1
  I  I99  1  0.83338442  0.16530507  0.00001851  1
  I  I100  1  0.83287795  0.16538904  0.33346255  1
  I  I101  1  0.83354066  0.16584572  0.66654602  1
  I  I102  1  0.83345671  0.50696939  -0.00019162  1
  I  I103  1  0.83249473  0.50638035  0.33389160  1
  I  I104  1  0.82591722  0.50779030  0.66624493  1
  I  I105  1  0.84169283  0.82535668  -0.00050519  1
  I  I106  1  0.83358432  0.82750019  0.33425201  1
  I  I107  1  0.83385407  0.82756524  0.66604065  1
  I  I108  1  0.00261983  0.16785657  0.16883511  1
  I  I109  1  0.00046901  0.16653705  0.49876392  1
  I  I110  1  0.00028293  0.17114803  0.83203976  1
  I  I111  1  -0.00160146  0.50071279  0.16731204  1
  I  I112  1  -0.00333456  0.50596658  0.50149580  1
  I  I113  1  -0.00334842  0.50319699  0.83116040  1
  I  I114  1  -0.00316226  0.83166064  0.17173158  1
  I  I115  1  -0.00135939  0.82836981  0.49961249  1
  I  I116  1  -0.00155035  0.82768281  0.82881678  1
  I  I117  1  0.32962330  0.17275675  0.16759981  1
  I  I118  1  0.33695823  0.16848455  0.49856690  1
  I  I119  1  0.33336916  0.16657605  0.83377312  1
  I  I120  1  0.33089479  0.49599994  0.16739231  1
  I  I121  1  0.33612583  0.50142089  0.50261697  1
  I  I122  1  0.33563046  0.50128145  0.82868228  1
  I  I123  1  0.33336601  0.83374309  0.16705488  1
  I  I124  1  0.33351676  0.83341617  0.50392514  1
  I  I125  1  0.33132833  0.83205710  0.82914930  1
  I  I126  1  0.66649745  0.16617380  0.16714794  1
  I  I127  1  0.66370796  0.16186507  0.49902058  1
  I  I128  1  0.66647386  0.16072517  0.83479338  1
  I  I129  1  0.67034039  0.50540525  0.16760370  1
  I  I130  1  0.66718627  0.50420332  0.49834535  1
  I  I131  1  0.66822384  0.50627368  0.83371028  1
  I  I132  1  0.67212580  0.82474167  0.16572199  1
  I  I133  1  0.66747380  0.83252564  0.49908281  1
  I  I134  1  0.67006404  0.83045153  0.83280735  1
