# generated using pymatgen
data_Cs27Sn14Pb13I81
_symmetry_space_group_name_H-M   'P 1'
_cell_length_a   18.98449895
_cell_length_b   18.96275668
_cell_length_c   18.97858013
_cell_angle_alpha   90.00182102
_cell_angle_beta   90.00004137
_cell_angle_gamma   90.00083692
_symmetry_Int_Tables_number   1
_chemical_formula_structural   Cs27Sn14Pb13I81
_chemical_formula_sum   'Cs27 Sn14 Pb13 I81'
_cell_volume   6832.25913135
_cell_formula_units_Z   1
loop_
 _symmetry_equiv_pos_site_id
 _symmetry_equiv_pos_as_xyz
  1  'x, y, z'
loop_
 _atom_site_type_symbol
 _atom_site_label
 _atom_site_symmetry_multiplicity
 _atom_site_fract_x
 _atom_site_fract_y
 _atom_site_fract_z
 _atom_site_occupancy
  Cs  Cs0  1  -0.00158869  -0.00181845  0.00102708  1
  Cs  Cs1  1  -0.00226405  0.00045765  0.33186043  1
  Cs  Cs2  1  -0.00024085  0.00071720  0.66722783  1
  Cs  Cs3  1  -0.00438885  0.33383060  -0.00044384  1
  Cs  Cs4  1  -0.00097480  0.33581637  0.32896241  1
  Cs  Cs5  1  -0.00003913  0.33201213  0.66903248  1
  Cs  Cs6  1  0.00204493  0.66904812  0.00173106  1
  Cs  Cs7  1  0.00986190  0.66039208  0.34247430  1
  Cs  Cs8  1  -0.00221367  0.66613992  0.65911398  1
  Cs  Cs9  1  0.33475656  -0.00049031  -0.00036051  1
  Cs  Cs10  1  0.33465518  0.00089048  0.33160495  1
  Cs  Cs11  1  0.33387830  0.00215042  0.66809537  1
  Cs  Cs12  1  0.33454645  0.33196054  -0.00247763  1
  Cs  Cs13  1  0.33375408  0.33604990  0.33287103  1
  Cs  Cs14  1  0.33319742  0.32971051  0.66966274  1
  Cs  Cs15  1  0.33178293  0.66854426  0.00164903  1
  Cs  Cs16  1  0.32708739  0.65526037  0.33876091  1
  Cs  Cs17  1  0.33232954  0.66794533  0.66259488  1
  Cs  Cs18  1  0.66623354  -0.00095266  0.00123980  1
  Cs  Cs19  1  0.66740108  -0.00092426  0.33027193  1
  Cs  Cs20  1  0.66610278  0.00041368  0.66725510  1
  Cs  Cs21  1  0.66842804  0.33508112  -0.00026735  1
  Cs  Cs22  1  0.66702568  0.33742171  0.32739769  1
  Cs  Cs23  1  0.66731173  0.33220439  0.66980781  1
  Cs  Cs24  1  0.66601758  0.67008103  -0.00144315  1
  Cs  Cs25  1  0.66457784  0.66355387  0.34295428  1
  Cs  Cs26  1  0.66980668  0.66672563  0.66161829  1
  Sn  Sn27  1  0.49923742  0.50064291  0.83363751  1
  Sn  Sn28  1  0.16751494  0.16632343  0.16614238  1
  Sn  Sn29  1  0.50055229  0.83346490  0.16657114  1
  Sn  Sn30  1  0.83309575  0.16563817  0.83287986  1
  Sn  Sn31  1  0.49930048  0.16607598  0.16631040  1
  Sn  Sn32  1  0.50047525  0.16636399  0.49959514  1
  Sn  Sn33  1  0.16727082  0.49946927  0.83364460  1
  Sn  Sn34  1  0.83299513  0.16645381  0.50047904  1
  Sn  Sn35  1  0.16648360  0.16712745  0.83378575  1
  Sn  Sn36  1  0.50028818  0.16638342  0.83371895  1
  Sn  Sn37  1  0.83262068  0.83418865  0.83412050  1
  Sn  Sn38  1  0.50077711  0.83316823  0.83390222  1
  Sn  Sn39  1  0.83263633  0.83302096  0.16660810  1
  Sn  Sn40  1  0.16660004  0.16635704  0.49977763  1
  Pb  Pb41  1  0.16678867  0.49692761  0.16360116  1
  Pb  Pb42  1  0.50006296  0.49663851  0.50328001  1
  Pb  Pb43  1  0.16664929  0.83338344  0.83312521  1
  Pb  Pb44  1  0.16698499  0.83617200  0.49992283  1
  Pb  Pb45  1  0.83307266  0.50502922  0.16635265  1
  Pb  Pb46  1  0.83327603  0.83555835  0.49984836  1
  Pb  Pb47  1  0.16680818  0.49641939  0.50332685  1
  Pb  Pb48  1  0.49971637  0.83535998  0.49961177  1
  Pb  Pb49  1  0.83289815  0.16571573  0.16633654  1
  Pb  Pb50  1  0.83339006  0.50079395  0.83365801  1
  Pb  Pb51  1  0.16741816  0.83507687  0.16678239  1
  Pb  Pb52  1  0.83321304  0.49631084  0.50012574  1
  Pb  Pb53  1  0.50025343  0.50075627  0.16426229  1
  I  I54  1  0.16836345  0.00412909  0.16276459  1
  I  I55  1  0.16701906  0.00539163  0.50539043  1
  I  I56  1  0.16887966  0.00392054  0.83248550  1
  I  I57  1  0.17266777  0.32817326  0.16980139  1
  I  I58  1  0.16736997  0.32810848  0.49829616  1
  I  I59  1  0.17025918  0.33056796  0.83254136  1
  I  I60  1  0.16589286  0.66651025  0.16464768  1
  I  I61  1  0.16584009  0.66587713  0.50089887  1
  I  I62  1  0.17052002  0.66397110  0.83456290  1
  I  I63  1  0.49973166  0.00145476  0.16153460  1
  I  I64  1  0.49937222  0.00441097  0.50579920  1
  I  I65  1  0.50010013  0.00156563  0.83325627  1
  I  I66  1  0.49560221  0.32980650  0.16668978  1
  I  I67  1  0.49908120  0.32787108  0.49958570  1
  I  I68  1  0.49926304  0.33114867  0.83233261  1
  I  I69  1  0.50578284  0.67046911  0.15920437  1
  I  I70  1  0.50036375  0.66646064  0.49999371  1
  I  I71  1  0.49976415  0.66764581  0.83975281  1
  I  I72  1  0.83203140  -0.00210252  0.16434078  1
  I  I73  1  0.83368988  0.00416072  0.50300095  1
  I  I74  1  0.83084953  0.00140917  0.83281401  1
  I  I75  1  0.83383158  0.33313713  0.16728458  1
  I  I76  1  0.83357181  0.32758495  0.50819776  1
  I  I77  1  0.83151211  0.32997786  0.82883524  1
  I  I78  1  0.82581409  0.67276519  0.15516894  1
  I  I79  1  0.83369488  0.66687769  0.50089372  1
  I  I80  1  0.83007366  0.67031217  0.83876522  1
  I  I81  1  0.16965694  0.16998927  -0.00098102  1
  I  I82  1  0.16922126  0.16292845  0.33329168  1
  I  I83  1  0.16862673  0.17012218  0.66769081  1
  I  I84  1  0.17087500  0.49312060  -0.00416090  1
  I  I85  1  0.16564539  0.50005516  0.33354213  1
  I  I86  1  0.17081896  0.49343665  0.67094220  1
  I  I87  1  0.16575880  0.83644215  -0.00024441  1
  I  I88  1  0.16533579  0.83685145  0.33304700  1
  I  I89  1  0.16661011  0.83567584  0.66715612  1
  I  I90  1  0.49707668  0.16631977  -0.00114515  1
  I  I91  1  0.49720165  0.16097455  0.33274165  1
  I  I92  1  0.49796754  0.16688452  0.66810872  1
  I  I93  1  0.49651388  0.49335835  -0.00401481  1
  I  I94  1  0.50083214  0.49970191  0.33346705  1
  I  I95  1  0.49637119  0.49989082  0.67153614  1
  I  I96  1  0.50386367  0.83954092  -0.00123048  1
  I  I97  1  0.50565016  0.84211457  0.32976737  1
  I  I98  1  0.50370546  0.83475659  0.67027794  1
  I  I99  1  0.83407409  0.16548050  -0.00319253  1
  I  I100  1  0.83409987  0.16454440  0.33556943  1
  I  I101  1  0.83340152  0.16182121  0.66844938  1
  I  I102  1  0.83387662  0.49165539  -0.00050786  1
  I  I103  1  0.83304997  0.49774818  0.33332324  1
  I  I104  1  0.83338716  0.50436086  0.66721202  1
  I  I105  1  0.82925132  0.84136869  -0.00139829  1
  I  I106  1  0.82768459  0.83814310  0.33022049  1
  I  I107  1  0.82900474  0.83573310  0.67001162  1
  I  I108  1  0.00215901  0.16517470  0.16629454  1
  I  I109  1  0.00010842  0.16561823  0.50443328  1
  I  I110  1  0.00008860  0.16724252  0.83060807  1
  I  I111  1  0.00009317  0.49729282  0.16328237  1
  I  I112  1  0.00024395  0.49914078  0.50276379  1
  I  I113  1  0.00268353  0.49350458  0.83341633  1
  I  I114  1  -0.00282414  0.83765716  0.15971905  1
  I  I115  1  -0.00023948  0.83674349  0.50123442  1
  I  I116  1  -0.00307643  0.83851825  0.83756302  1
  I  I117  1  0.33450169  0.16140430  0.16563495  1
  I  I118  1  0.33358064  0.16596127  0.50370675  1
  I  I119  1  0.33410576  0.16693185  0.83141850  1
  I  I120  1  0.33345780  0.50415066  0.16767381  1
  I  I121  1  0.33340767  0.49886694  0.49831799  1
  I  I122  1  0.33403626  0.49377122  0.83380925  1
  I  I123  1  0.33713326  0.83847741  0.15917558  1
  I  I124  1  0.33370340  0.83749272  0.50202520  1
  I  I125  1  0.33676674  0.83710593  0.83751006  1
  I  I126  1  0.66359073  0.16490702  0.16647705  1
  I  I127  1  0.66620989  0.16555463  0.50509797  1
  I  I128  1  0.66578596  0.16689309  0.83045728  1
  I  I129  1  0.66640827  0.49102700  0.16308682  1
  I  I130  1  0.66640735  0.49798795  0.50273945  1
  I  I131  1  0.66366245  0.49514452  0.83375211  1
  I  I132  1  0.66558751  0.84287514  0.15997241  1
  I  I133  1  0.66654838  0.83692487  0.50080874  1
  I  I134  1  0.66589658  0.83796477  0.83707460  1
