# generated using pymatgen
data_Cs27Sn13Pb14I81
_symmetry_space_group_name_H-M   'P 1'
_cell_length_a   18.97727920
_cell_length_b   18.98260525
_cell_length_c   18.97209683
_cell_angle_alpha   89.99961981
_cell_angle_beta   90.00017493
_cell_angle_gamma   89.99999932
_symmetry_Int_Tables_number   1
_chemical_formula_structural   Cs27Sn13Pb14I81
_chemical_formula_sum   'Cs27 Sn13 Pb14 I81'
_cell_volume   6834.47400408
_cell_formula_units_Z   1
loop_
 _symmetry_equiv_pos_site_id
 _symmetry_equiv_pos_as_xyz
  1  'x, y, z'
loop_
 _atom_site_type_symbol
 _atom_site_label
 _atom_site_symmetry_multiplicity
 _atom_site_fract_x
 _atom_site_fract_y
 _atom_site_fract_z
 _atom_site_occupancy
  Cs  Cs0  1  -0.00187266  -0.00008620  0.00082012  1
  Cs  Cs1  1  0.00089589  0.00007095  0.33408772  1
  Cs  Cs2  1  0.00059849  0.00139642  0.66581533  1
  Cs  Cs3  1  -0.00007092  0.33134045  0.00087768  1
  Cs  Cs4  1  -0.00025601  0.33349319  0.33278371  1
  Cs  Cs5  1  -0.00001194  0.33064780  0.66569376  1
  Cs  Cs6  1  -0.00153744  0.66871308  0.00257682  1
  Cs  Cs7  1  0.00228818  0.66626266  0.33355758  1
  Cs  Cs8  1  0.00069483  0.66686572  0.66471689  1
  Cs  Cs9  1  0.33274803  0.00121548  -0.00004297  1
  Cs  Cs10  1  0.33827420  -0.00068994  0.33223524  1
  Cs  Cs11  1  0.33054975  -0.00255709  0.66748029  1
  Cs  Cs12  1  0.33503897  0.33209911  -0.00151902  1
  Cs  Cs13  1  0.33766961  0.33903134  0.33203762  1
  Cs  Cs14  1  0.33154855  0.33604985  0.66916615  1
  Cs  Cs15  1  0.33155572  0.66667472  0.00084059  1
  Cs  Cs16  1  0.33722180  0.66079560  0.32818767  1
  Cs  Cs17  1  0.33310231  0.66747735  0.66624562  1
  Cs  Cs18  1  0.66863426  -0.00415849  0.00104002  1
  Cs  Cs19  1  0.65704956  0.00195995  0.33481120  1
  Cs  Cs20  1  0.66956933  0.00182951  0.66419685  1
  Cs  Cs21  1  0.66577523  0.33512662  0.00097138  1
  Cs  Cs22  1  0.66429136  0.32928674  0.33274216  1
  Cs  Cs23  1  0.66866841  0.33210447  0.66485967  1
  Cs  Cs24  1  0.66970474  0.66772924  -0.00133739  1
  Cs  Cs25  1  0.66280742  0.66950556  0.33426739  1
  Cs  Cs26  1  0.66657694  0.66674333  0.66835504  1
  Sn  Sn27  1  0.16678266  0.16628875  0.49872109  1
  Sn  Sn28  1  0.50038012  0.16630979  0.83293019  1
  Sn  Sn29  1  0.50004522  0.50013666  0.83314827  1
  Sn  Sn30  1  0.83363212  0.49937067  0.16691121  1
  Sn  Sn31  1  0.83348736  0.50074173  0.49984792  1
  Sn  Sn32  1  0.83385210  0.49988632  0.83321555  1
  Sn  Sn33  1  0.49934084  0.83350398  0.83293103  1
  Sn  Sn34  1  0.16624983  0.83369922  0.50015146  1
  Sn  Sn35  1  0.16621704  0.16665065  0.16804742  1
  Sn  Sn36  1  0.83404137  0.83283688  0.49981672  1
  Sn  Sn37  1  0.83401617  0.16696634  0.16680082  1
  Sn  Sn38  1  0.16610527  0.50092413  0.83335600  1
  Sn  Sn39  1  0.16687371  0.83253607  0.83277311  1
  Pb  Pb40  1  0.49923240  0.83319782  0.50217423  1
  Pb  Pb41  1  0.83494322  0.16659023  0.49775225  1
  Pb  Pb42  1  0.16460883  0.49777364  0.16403465  1
  Pb  Pb43  1  0.16662075  0.83549865  0.16704349  1
  Pb  Pb44  1  0.83111613  0.16890997  0.83542463  1
  Pb  Pb45  1  0.83392277  0.83153049  0.83140914  1
  Pb  Pb46  1  0.50289271  0.50010530  0.16420549  1
  Pb  Pb47  1  0.83345327  0.83339302  0.17014705  1
  Pb  Pb48  1  0.16505204  0.50031408  0.50160201  1
  Pb  Pb49  1  0.49981857  0.83311998  0.16361121  1
  Pb  Pb50  1  0.50293848  0.49994839  0.50230558  1
  Pb  Pb51  1  0.49642907  0.16679218  0.50261691  1
  Pb  Pb52  1  0.49993560  0.16671801  0.16448200  1
  Pb  Pb53  1  0.16783781  0.16629827  0.83337597  1
  I  I54  1  0.15941690  0.00356790  0.16369757  1
  I  I55  1  0.16007238  -0.00089600  0.50405379  1
  I  I56  1  0.17200316  -0.00268677  0.83238298  1
  I  I57  1  0.16419033  0.32987194  0.17028687  1
  I  I58  1  0.16443802  0.33108450  0.49950702  1
  I  I59  1  0.16736434  0.33578279  0.83326186  1
  I  I60  1  0.16540458  0.66642471  0.16750985  1
  I  I61  1  0.16305670  0.66951037  0.50537246  1
  I  I62  1  0.17079922  0.66683754  0.82801255  1
  I  I63  1  0.50347408  0.00025545  0.16298600  1
  I  I64  1  0.50604614  -0.00003683  0.50367531  1
  I  I65  1  0.49314812  -0.00079471  0.83375959  1
  I  I66  1  0.49829566  0.33338389  0.16233181  1
  I  I67  1  0.50032014  0.33332624  0.50421852  1
  I  I68  1  0.49963391  0.33434872  0.83411188  1
  I  I69  1  0.50144021  0.66637405  0.16493251  1
  I  I70  1  0.49690888  0.66661837  0.50273866  1
  I  I71  1  0.49993051  0.66631489  0.83285367  1
  I  I72  1  0.83751227  0.00289534  0.16593296  1
  I  I73  1  0.83604962  -0.00246427  0.50052677  1
  I  I74  1  0.83262533  -0.00002965  0.83357586  1
  I  I75  1  0.83758787  0.33412026  0.16657286  1
  I  I76  1  0.83473317  0.33612063  0.50324827  1
  I  I77  1  0.83444555  0.33755702  0.82849112  1
  I  I78  1  0.83227942  0.66345172  0.16265199  1
  I  I79  1  0.83925342  0.66610157  0.50022000  1
  I  I80  1  0.82931130  0.66301801  0.83756179  1
  I  I81  1  0.16439132  0.16800230  0.00195884  1
  I  I82  1  0.16085025  0.16103813  0.33369008  1
  I  I83  1  0.16823617  0.16553298  0.66470213  1
  I  I84  1  0.16542731  0.50375480  -0.00452047  1
  I  I85  1  0.16423210  0.50196252  0.33326182  1
  I  I86  1  0.16488120  0.49837403  0.67026736  1
  I  I87  1  0.17116014  0.83064402  -0.00339555  1
  I  I88  1  0.16016461  0.83616533  0.33686334  1
  I  I89  1  0.16652989  0.83579760  0.66725036  1
  I  I90  1  0.49723853  0.16783102  -0.00372005  1
  I  I91  1  0.50206431  0.16627017  0.33331994  1
  I  I92  1  0.49955238  0.16775391  0.67085196  1
  I  I93  1  0.50162285  0.49962124  -0.00466105  1
  I  I94  1  0.50016143  0.49954938  0.33327092  1
  I  I95  1  0.50188662  0.50018556  0.67128027  1
  I  I96  1  0.49506363  0.83299857  -0.00531655  1
  I  I97  1  0.50064766  0.83447134  0.33374430  1
  I  I98  1  0.49851284  0.83190320  0.67070228  1
  I  I99  1  0.83990891  0.17177474  0.00326930  1
  I  I100  1  0.83537465  0.17307823  0.33002705  1
  I  I101  1  0.83362509  0.16813321  0.66651348  1
  I  I102  1  0.83227978  0.49509550  -0.00077130  1
  I  I103  1  0.83597809  0.49956986  0.33349952  1
  I  I104  1  0.83232148  0.50474748  0.66723908  1
  I  I105  1  0.83264467  0.83257151  -0.00005713  1
  I  I106  1  0.84090398  0.82732473  0.33789851  1
  I  I107  1  0.83444623  0.82827876  0.66362327  1
  I  I108  1  -0.00000632  0.17107717  0.16829452  1
  I  I109  1  0.00288717  0.16551392  0.50122267  1
  I  I110  1  -0.00004051  0.16752739  0.83253670  1
  I  I111  1  -0.00360933  0.49806391  0.16308687  1
  I  I112  1  -0.00327947  0.50077415  0.50384213  1
  I  I113  1  -0.00024375  0.50417501  0.83327470  1
  I  I114  1  -0.00008492  0.83231477  0.16034529  1
  I  I115  1  0.00081137  0.83342066  0.50683794  1
  I  I116  1  0.00305874  0.82905238  0.83127404  1
  I  I117  1  0.33033210  0.16460816  0.16817720  1
  I  I118  1  0.32841561  0.15989238  0.49455272  1
  I  I119  1  0.33575206  0.17161513  0.83473905  1
  I  I120  1  0.33319425  0.49855897  0.16508348  1
  I  I121  1  0.33313238  0.49972655  0.50263426  1
  I  I122  1  0.33318494  0.49981104  0.83253935  1
  I  I123  1  0.33302081  0.83596741  0.16988316  1
  I  I124  1  0.32970203  0.83918191  0.50448886  1
  I  I125  1  0.33253384  0.82897411  0.82804214  1
  I  I126  1  0.66958810  0.17177742  0.16449705  1
  I  I127  1  0.66673544  0.16625385  0.49949279  1
  I  I128  1  0.66315959  0.16583068  0.83504058  1
  I  I129  1  0.67127339  0.49308973  0.16470161  1
  I  I130  1  0.67153997  0.50523374  0.50232864  1
  I  I131  1  0.66698107  0.49987485  0.83378659  1
  I  I132  1  0.66701639  0.83553485  0.16591206  1
  I  I133  1  0.66937238  0.82846955  0.50122731  1
  I  I134  1  0.66438522  0.83222387  0.83258950  1
