# generated using pymatgen
data_Cs27Sn13Pb14I81
_symmetry_space_group_name_H-M   'P 1'
_cell_length_a   18.97175099
_cell_length_b   18.97854173
_cell_length_c   18.97821686
_cell_angle_alpha   89.99944536
_cell_angle_beta   89.99926467
_cell_angle_gamma   90.00103242
_symmetry_Int_Tables_number   1
_chemical_formula_structural   Cs27Sn13Pb14I81
_chemical_formula_sum   'Cs27 Sn13 Pb14 I81'
_cell_volume   6833.22403340
_cell_formula_units_Z   1
loop_
 _symmetry_equiv_pos_site_id
 _symmetry_equiv_pos_as_xyz
  1  'x, y, z'
loop_
 _atom_site_type_symbol
 _atom_site_label
 _atom_site_symmetry_multiplicity
 _atom_site_fract_x
 _atom_site_fract_y
 _atom_site_fract_z
 _atom_site_occupancy
  Cs  Cs0  1  0.00114191  -0.00096389  0.00073213  1
  Cs  Cs1  1  0.00032197  -0.00136553  0.33160723  1
  Cs  Cs2  1  -0.00231990  0.00110828  0.66652083  1
  Cs  Cs3  1  -0.00102024  0.33285826  -0.00075964  1
  Cs  Cs4  1  0.00251467  0.33594055  0.33325502  1
  Cs  Cs5  1  -0.00107263  0.33286829  0.66726166  1
  Cs  Cs6  1  -0.00043964  0.66845689  0.00144613  1
  Cs  Cs7  1  0.00012136  0.66622109  0.33336370  1
  Cs  Cs8  1  0.00160530  0.66669247  0.66299559  1
  Cs  Cs9  1  0.33218927  0.00012223  -0.00024541  1
  Cs  Cs10  1  0.33267918  0.00199338  0.33029165  1
  Cs  Cs11  1  0.33354345  -0.00204996  0.67142959  1
  Cs  Cs12  1  0.33323143  0.32992780  0.00017368  1
  Cs  Cs13  1  0.33645557  0.33368551  0.33551542  1
  Cs  Cs14  1  0.33190020  0.33561563  0.66511347  1
  Cs  Cs15  1  0.33348236  0.67012975  -0.00387719  1
  Cs  Cs16  1  0.33084135  0.66400404  0.33613725  1
  Cs  Cs17  1  0.34085507  0.66601966  0.66842397  1
  Cs  Cs18  1  0.66951441  0.00027031  0.00186981  1
  Cs  Cs19  1  0.66560035  0.00029085  0.33892931  1
  Cs  Cs20  1  0.66972726  0.00078834  0.65679709  1
  Cs  Cs21  1  0.66683939  0.34204094  -0.00162564  1
  Cs  Cs22  1  0.65590328  0.33393916  0.33170734  1
  Cs  Cs23  1  0.67028341  0.33123938  0.66996541  1
  Cs  Cs24  1  0.66778676  0.65978931  -0.00107543  1
  Cs  Cs25  1  0.66733472  0.66687637  0.33407241  1
  Cs  Cs26  1  0.65754637  0.66825326  0.66611355  1
  Sn  Sn27  1  0.16659663  0.83418971  0.49959830  1
  Sn  Sn28  1  0.16622462  0.49957721  0.83410863  1
  Sn  Sn29  1  0.50015491  0.83331699  0.16649875  1
  Sn  Sn30  1  0.83330346  0.83336049  0.83354848  1
  Sn  Sn31  1  0.16649534  0.49990282  0.16550043  1
  Sn  Sn32  1  0.16722698  0.16746427  0.83338519  1
  Sn  Sn33  1  0.83307294  0.83415027  0.16574722  1
  Sn  Sn34  1  0.83368738  0.16655471  0.16682172  1
  Sn  Sn35  1  0.16635956  0.16558368  0.49993807  1
  Sn  Sn36  1  0.16584239  0.16700328  0.16680098  1
  Sn  Sn37  1  0.49995744  0.16621852  0.83366599  1
  Sn  Sn38  1  0.83329904  0.49980249  0.49980687  1
  Sn  Sn39  1  0.16670330  0.83315859  0.16743619  1
  Pb  Pb40  1  0.49710383  0.16650895  0.50283283  1
  Pb  Pb41  1  0.83553237  0.16882577  0.49667339  1
  Pb  Pb42  1  0.50012702  0.16497600  0.16492301  1
  Pb  Pb43  1  0.83573600  0.50264780  0.83127044  1
  Pb  Pb44  1  0.50355047  0.49979778  0.50009949  1
  Pb  Pb45  1  0.16548144  0.83354418  0.83326074  1
  Pb  Pb46  1  0.83519662  0.49990089  0.16810161  1
  Pb  Pb47  1  0.49667108  0.83357929  0.49734562  1
  Pb  Pb48  1  0.83375354  0.16509979  0.83542711  1
  Pb  Pb49  1  0.49656581  0.50293314  0.16650093  1
  Pb  Pb50  1  0.50327354  0.83586229  0.83562347  1
  Pb  Pb51  1  0.49725392  0.49745240  0.83352722  1
  Pb  Pb52  1  0.16601034  0.49995854  0.50025034  1
  Pb  Pb53  1  0.83525857  0.83197644  0.49936592  1
  I  I54  1  0.16602518  -0.00004838  0.16708931  1
  I  I55  1  0.16539499  0.00029026  0.49623194  1
  I  I56  1  0.16877503  0.00293857  0.83568325  1
  I  I57  1  0.16112969  0.33210042  0.16614951  1
  I  I58  1  0.16464039  0.33061751  0.49776328  1
  I  I59  1  0.16929968  0.33216964  0.83627267  1
  I  I60  1  0.16586933  0.66781033  0.16748504  1
  I  I61  1  0.16349328  0.66899724  0.49526959  1
  I  I62  1  0.16280885  0.66471778  0.83678423  1
  I  I63  1  0.49440883  -0.00286117  0.16484374  1
  I  I64  1  0.50331154  -0.00001369  0.50028753  1
  I  I65  1  0.48941012  0.00308184  0.83532820  1
  I  I66  1  0.50061911  0.33326412  0.16594303  1
  I  I67  1  0.49643415  0.33299341  0.49779492  1
  I  I68  1  0.49845168  0.32957462  0.83551644  1
  I  I69  1  0.50126905  0.67103135  0.16594398  1
  I  I70  1  0.49618385  0.66694671  0.50069698  1
  I  I71  1  0.49895615  0.66694139  0.83361215  1
  I  I72  1  0.83974586  -0.00099445  0.16295580  1
  I  I73  1  0.83334313  0.00011627  0.50167478  1
  I  I74  1  0.83742180  -0.00275765  0.83608025  1
  I  I75  1  0.84031199  0.33061824  0.16786340  1
  I  I76  1  0.83912167  0.33594732  0.49999282  1
  I  I77  1  0.83196641  0.33324507  0.83388791  1
  I  I78  1  0.83562518  0.66991297  0.16487538  1
  I  I79  1  0.83976775  0.66467250  0.49754476  1
  I  I80  1  0.83667594  0.67026086  0.84137112  1
  I  I81  1  0.16696634  0.16665111  0.00077399  1
  I  I82  1  0.16154313  0.16563275  0.33202887  1
  I  I83  1  0.17101436  0.16703549  0.66713065  1
  I  I84  1  0.16535382  0.49746873  0.00078240  1
  I  I85  1  0.16442329  0.49926775  0.33063251  1
  I  I86  1  0.16380185  0.49642347  0.66906183  1
  I  I87  1  0.16734786  0.83517180  0.00325140  1
  I  I88  1  0.16450230  0.83540429  0.33135099  1
  I  I89  1  0.16228229  0.83614734  0.66450782  1
  I  I90  1  0.49162265  0.16456742  -0.00255753  1
  I  I91  1  0.49968767  0.16582034  0.33314698  1
  I  I92  1  0.49451342  0.16597038  0.67070575  1
  I  I93  1  0.50317981  0.50019539  0.00009377  1
  I  I94  1  0.49659362  0.49893076  0.33301219  1
  I  I95  1  0.49604867  0.50174331  0.66698039  1
  I  I96  1  0.49220995  0.83503889  0.00338835  1
  I  I97  1  0.50476549  0.83535301  0.32920364  1
  I  I98  1  0.49991447  0.83332779  0.66683386  1
  I  I99  1  0.84052576  0.16419950  0.00345271  1
  I  I100  1  0.83979654  0.15906755  0.32879606  1
  I  I101  1  0.83439354  0.16539945  0.66659297  1
  I  I102  1  0.83334677  0.49914646  0.00010755  1
  I  I103  1  0.83962217  0.50266491  0.33537922  1
  I  I104  1  0.83908975  0.50082331  0.66397334  1
  I  I105  1  0.83772942  0.83664467  0.00221794  1
  I  I106  1  0.83344480  0.83548151  0.32966325  1
  I  I107  1  0.83783122  0.83230969  0.66855767  1
  I  I108  1  0.00215733  0.16173298  0.16442115  1
  I  I109  1  0.00404541  0.16329418  0.50443718  1
  I  I110  1  0.00353824  0.16903914  0.83264089  1
  I  I111  1  0.00371377  0.50372454  0.16449635  1
  I  I112  1  -0.00116776  0.50105353  0.49903870  1
  I  I113  1  0.00375817  0.49321201  0.83715682  1
  I  I114  1  0.00103595  0.83417341  0.16669025  1
  I  I115  1  0.00334190  0.83586783  0.49415832  1
  I  I116  1  -0.00206323  0.83523825  0.83968611  1
  I  I117  1  0.32952044  0.16549210  0.16781091  1
  I  I118  1  0.32829668  0.16479941  0.49315079  1
  I  I119  1  0.33049840  0.16922142  0.83580272  1
  I  I120  1  0.32797629  0.49808504  0.16502039  1
  I  I121  1  0.33308647  0.50049668  0.49993918  1
  I  I122  1  0.32877250  0.50080429  0.83591905  1
  I  I123  1  0.33133363  0.83386776  0.17101624  1
  I  I124  1  0.32834078  0.83553438  0.49574477  1
  I  I125  1  0.33324101  0.83145079  0.83360052  1
  I  I126  1  0.66951681  0.16107722  0.16486172  1
  I  I127  1  0.66691906  0.16835122  0.50041755  1
  I  I128  1  0.66476575  0.16348407  0.83638551  1
  I  I129  1  0.66673035  0.49940304  0.16898507  1
  I  I130  1  0.67118759  0.50193860  0.49835628  1
  I  I131  1  0.66683786  0.49899906  0.83166096  1
  I  I132  1  0.66799221  0.83888373  0.16153649  1
  I  I133  1  0.66674930  0.83090314  0.49984947  1
  I  I134  1  0.67085832  0.83431336  0.83900810  1
