# generated using pymatgen
data_Cs27Sn14Pb13I81
_symmetry_space_group_name_H-M   'P 1'
_cell_length_a   18.97634940
_cell_length_b   18.96447973
_cell_length_c   18.98514631
_cell_angle_alpha   89.99922098
_cell_angle_beta   89.99993989
_cell_angle_gamma   90.00095097
_symmetry_Int_Tables_number   1
_chemical_formula_structural   Cs27Sn14Pb13I81
_chemical_formula_sum   'Cs27 Sn14 Pb13 I81'
_cell_volume   6832.30978274
_cell_formula_units_Z   1
loop_
 _symmetry_equiv_pos_site_id
 _symmetry_equiv_pos_as_xyz
  1  'x, y, z'
loop_
 _atom_site_type_symbol
 _atom_site_label
 _atom_site_symmetry_multiplicity
 _atom_site_fract_x
 _atom_site_fract_y
 _atom_site_fract_z
 _atom_site_occupancy
  Cs  Cs0  1  0.00132305  -0.00187228  -0.00245706  1
  Cs  Cs1  1  0.00171222  0.00155904  0.33594205  1
  Cs  Cs2  1  -0.00202990  -0.00130925  0.66618738  1
  Cs  Cs3  1  -0.00062077  0.33416009  0.00131977  1
  Cs  Cs4  1  -0.00225268  0.33128119  0.33035493  1
  Cs  Cs5  1  -0.00082920  0.33206490  0.66788093  1
  Cs  Cs6  1  -0.00016971  0.67383286  -0.00097002  1
  Cs  Cs7  1  -0.00211785  0.67759548  0.33135977  1
  Cs  Cs8  1  0.00706715  0.67492578  0.66862531  1
  Cs  Cs9  1  0.33862280  0.00030768  0.00498870  1
  Cs  Cs10  1  0.33453029  -0.00094651  0.32988876  1
  Cs  Cs11  1  0.33745939  0.00188121  0.66647481  1
  Cs  Cs12  1  0.33323020  0.33236175  -0.00006858  1
  Cs  Cs13  1  0.33178459  0.33531159  0.33412726  1
  Cs  Cs14  1  0.33247719  0.33636082  0.66586703  1
  Cs  Cs15  1  0.33182936  0.66679840  -0.00105896  1
  Cs  Cs16  1  0.33188972  0.66566374  0.33603662  1
  Cs  Cs17  1  0.33035519  0.66269572  0.66597626  1
  Cs  Cs18  1  0.65962305  -0.00176678  -0.00060233  1
  Cs  Cs19  1  0.66388435  -0.00191672  0.33438134  1
  Cs  Cs20  1  0.66621082  -0.00035880  0.66703044  1
  Cs  Cs21  1  0.66680257  0.33436578  -0.00144219  1
  Cs  Cs22  1  0.67037977  0.33493895  0.33509449  1
  Cs  Cs23  1  0.66769115  0.33402135  0.66703210  1
  Cs  Cs24  1  0.66842209  0.66424962  0.00113653  1
  Cs  Cs25  1  0.66894193  0.66491772  0.32961628  1
  Cs  Cs26  1  0.66462963  0.66700446  0.66752052  1
  Sn  Sn27  1  0.50002766  0.83190632  0.83242467  1
  Sn  Sn28  1  0.83362880  0.16679820  0.16630991  1
  Sn  Sn29  1  0.16585083  0.16753105  0.16644786  1
  Sn  Sn30  1  0.83327908  0.49957006  0.83195625  1
  Sn  Sn31  1  0.16688039  0.49945027  0.16675983  1
  Sn  Sn32  1  0.49901026  0.49934541  0.16592022  1
  Sn  Sn33  1  0.50012747  0.16639059  0.50001852  1
  Sn  Sn34  1  0.83324818  0.16738579  0.50012763  1
  Sn  Sn35  1  0.83408439  0.49980441  0.50139935  1
  Sn  Sn36  1  0.16604485  0.16707805  0.83346692  1
  Sn  Sn37  1  0.16666403  0.16718875  0.50012776  1
  Sn  Sn38  1  0.50024381  0.83361910  0.50077112  1
  Sn  Sn39  1  0.50043665  0.50065726  0.83400376  1
  Sn  Sn40  1  0.83393215  0.16741671  0.83356030  1
  Pb  Pb41  1  0.16288279  0.49804982  0.49752252  1
  Pb  Pb42  1  0.16596788  0.49815657  0.83509507  1
  Pb  Pb43  1  0.50006505  0.16897377  0.16939134  1
  Pb  Pb44  1  0.16960684  0.83620941  0.50012856  1
  Pb  Pb45  1  0.83316258  0.83756863  0.16652796  1
  Pb  Pb46  1  0.50152360  0.49992158  0.50025772  1
  Pb  Pb47  1  0.83117288  0.83339815  0.83322493  1
  Pb  Pb48  1  0.49994833  0.82992702  0.16695611  1
  Pb  Pb49  1  0.83404749  0.49864468  0.16620226  1
  Pb  Pb50  1  0.16999413  0.83677120  0.83329835  1
  Pb  Pb51  1  0.83112054  0.83344369  0.50022291  1
  Pb  Pb52  1  0.50024143  0.16749125  0.83149709  1
  Pb  Pb53  1  0.16674866  0.83377869  0.16660771  1
  I  I54  1  0.16239121  0.00435716  0.16748345  1
  I  I55  1  0.16057795  0.00520467  0.49728664  1
  I  I56  1  0.16073596  0.00525882  0.83495701  1
  I  I57  1  0.16742926  0.33163367  0.16689838  1
  I  I58  1  0.17302853  0.32923244  0.50185114  1
  I  I59  1  0.16835609  0.32961746  0.83141661  1
  I  I60  1  0.17173466  0.66345822  0.16630520  1
  I  I61  1  0.16681437  0.66641104  0.49773578  1
  I  I62  1  0.16399411  0.66660108  0.83594045  1
  I  I63  1  0.50032526  0.00027036  0.16440768  1
  I  I64  1  0.50172968  0.00131065  0.50558914  1
  I  I65  1  0.49958645  -0.00132878  0.83021345  1
  I  I66  1  0.49895950  0.33654836  0.16107924  1
  I  I67  1  0.49906661  0.33057017  0.49995516  1
  I  I68  1  0.50152476  0.33604204  0.83591712  1
  I  I69  1  0.49536319  0.66200701  0.16802585  1
  I  I70  1  0.50315091  0.66868727  0.50056475  1
  I  I71  1  0.50600192  0.66541986  0.83169134  1
  I  I72  1  0.83934531  0.00612160  0.16791589  1
  I  I73  1  0.83540806  0.00404351  0.50015270  1
  I  I74  1  0.83629691  0.00382611  0.83234381  1
  I  I75  1  0.83434579  0.33017433  0.16772714  1
  I  I76  1  0.82960773  0.33131697  0.50040235  1
  I  I77  1  0.82992809  0.33238572  0.83231491  1
  I  I78  1  0.83318978  0.66634791  0.16778542  1
  I  I79  1  0.82960785  0.66349435  0.50339078  1
  I  I80  1  0.82995540  0.66312800  0.82934271  1
  I  I81  1  0.15984721  0.17049662  0.00034749  1
  I  I82  1  0.16401119  0.17018073  0.33326688  1
  I  I83  1  0.16439641  0.16569871  0.66647134  1
  I  I84  1  0.16732874  0.49181683  0.00292983  1
  I  I85  1  0.17412519  0.49228770  0.32984570  1
  I  I86  1  0.17038060  0.49766695  0.66657513  1
  I  I87  1  0.16918895  0.83651291  -0.00015474  1
  I  I88  1  0.16927836  0.83495611  0.33343423  1
  I  I89  1  0.16541413  0.83415595  0.66671797  1
  I  I90  1  0.49997130  0.16368943  -0.00000631  1
  I  I91  1  0.50068269  0.16247391  0.33736965  1
  I  I92  1  0.50003577  0.16718410  0.66351801  1
  I  I93  1  0.50292424  0.50430468  -0.00114466  1
  I  I94  1  0.49832384  0.49820612  0.33147933  1
  I  I95  1  0.50306759  0.50021209  0.66924129  1
  I  I96  1  0.50051260  0.83322136  -0.00286766  1
  I  I97  1  0.50023266  0.83867181  0.33619103  1
  I  I98  1  0.50127219  0.83308038  0.66671584  1
  I  I99  1  0.84015720  0.17144864  -0.00071852  1
  I  I100  1  0.83527895  0.17100833  0.33409924  1
  I  I101  1  0.83531020  0.17028956  0.66655396  1
  I  I102  1  0.83042689  0.49436347  -0.00278815  1
  I  I103  1  0.83115192  0.49386672  0.33535591  1
  I  I104  1  0.82473104  0.48922481  0.66745396  1
  I  I105  1  0.83003142  0.83218495  -0.00025347  1
  I  I106  1  0.82955041  0.83079907  0.33350875  1
  I  I107  1  0.83334510  0.83835224  0.66674030  1
  I  I108  1  0.00037755  0.17326049  0.17101504  1
  I  I109  1  -0.00055378  0.17209101  0.49913604  1
  I  I110  1  -0.00102364  0.17234393  0.83006641  1
  I  I111  1  0.00245225  0.49441430  0.16751125  1
  I  I112  1  -0.00480991  0.49192069  0.50503163  1
  I  I113  1  -0.00320331  0.49495233  0.83096607  1
  I  I114  1  0.00003887  0.82690135  0.16657393  1
  I  I115  1  0.00001048  0.83333789  0.49864395  1
  I  I116  1  0.00012983  0.83092177  0.83443347  1
  I  I117  1  0.33058365  0.16811717  0.16619700  1
  I  I118  1  0.33324692  0.16153290  0.50017067  1
  I  I119  1  0.33109153  0.16600534  0.83339331  1
  I  I120  1  0.33353179  0.49348996  0.16185192  1
  I  I121  1  0.33308686  0.49882127  0.50118500  1
  I  I122  1  0.33589746  0.50179098  0.83558000  1
  I  I123  1  0.33361637  0.83968456  0.16633914  1
  I  I124  1  0.33763110  0.83802568  0.50372935  1
  I  I125  1  0.33779297  0.82792430  0.82873250  1
  I  I126  1  0.66931086  0.16879188  0.16653316  1
  I  I127  1  0.66750259  0.16646078  0.50023940  1
  I  I128  1  0.66945583  0.16726493  0.83307958  1
  I  I129  1  0.66494648  0.49883041  0.16605388  1
  I  I130  1  0.66927289  0.49303989  0.49864171  1
  I  I131  1  0.66663340  0.49708247  0.83567282  1
  I  I132  1  0.66620941  0.83348347  0.16717978  1
  I  I133  1  0.66330832  0.84078598  0.50387183  1
  I  I134  1  0.66324399  0.83562580  0.82912596  1
