# generated using pymatgen
data_Cs27Sn14Pb13I81
_symmetry_space_group_name_H-M   'P 1'
_cell_length_a   18.97148196
_cell_length_b   18.96514522
_cell_length_c   18.99068391
_cell_angle_alpha   90.00069647
_cell_angle_beta   89.99959515
_cell_angle_gamma   90.00030857
_symmetry_Int_Tables_number   1
_chemical_formula_structural   Cs27Sn14Pb13I81
_chemical_formula_sum   'Cs27 Sn14 Pb13 I81'
_cell_volume   6832.78939579
_cell_formula_units_Z   1
loop_
 _symmetry_equiv_pos_site_id
 _symmetry_equiv_pos_as_xyz
  1  'x, y, z'
loop_
 _atom_site_type_symbol
 _atom_site_label
 _atom_site_symmetry_multiplicity
 _atom_site_fract_x
 _atom_site_fract_y
 _atom_site_fract_z
 _atom_site_occupancy
  Cs  Cs0  1  -0.00593194  0.00857112  0.00105513  1
  Cs  Cs1  1  -0.00738116  0.00491796  0.33884053  1
  Cs  Cs2  1  -0.00729879  0.00617568  0.65977566  1
  Cs  Cs3  1  0.00080965  0.33090460  0.00008013  1
  Cs  Cs4  1  -0.00095129  0.33194764  0.33061841  1
  Cs  Cs5  1  -0.00123431  0.33389841  0.66939323  1
  Cs  Cs6  1  0.00464250  0.66450595  0.00077199  1
  Cs  Cs7  1  0.00251148  0.66680252  0.33344218  1
  Cs  Cs8  1  0.00234983  0.66542562  0.66576976  1
  Cs  Cs9  1  0.33308579  -0.00181246  -0.00069615  1
  Cs  Cs10  1  0.33135657  0.00251378  0.33716423  1
  Cs  Cs11  1  0.33359300  0.00025070  0.66424398  1
  Cs  Cs12  1  0.33349278  0.33315327  -0.00035710  1
  Cs  Cs13  1  0.33635530  0.33314020  0.33264225  1
  Cs  Cs14  1  0.33575699  0.33374375  0.66739068  1
  Cs  Cs15  1  0.33127815  0.66777076  0.00113200  1
  Cs  Cs16  1  0.33214673  0.66673835  0.33158076  1
  Cs  Cs17  1  0.33205826  0.66674999  0.66741250  1
  Cs  Cs18  1  0.67255306  -0.01029688  0.00026078  1
  Cs  Cs19  1  0.67308656  -0.00088656  0.33131599  1
  Cs  Cs20  1  0.66961468  -0.00293645  0.66948164  1
  Cs  Cs21  1  0.66426941  0.33478000  -0.00024850  1
  Cs  Cs22  1  0.66272738  0.33484331  0.33445187  1
  Cs  Cs23  1  0.66340941  0.33465014  0.66552863  1
  Cs  Cs24  1  0.66522145  0.67281450  0.00187606  1
  Cs  Cs25  1  0.66610236  0.66657856  0.32992369  1
  Cs  Cs26  1  0.66671696  0.66583540  0.66789505  1
  Sn  Sn27  1  0.83310713  0.50026243  0.83381643  1
  Sn  Sn28  1  0.83325704  0.50010480  0.49986506  1
  Sn  Sn29  1  0.50002960  0.16626045  0.50019370  1
  Sn  Sn30  1  0.49998596  0.49986715  0.83293231  1
  Sn  Sn31  1  0.83407187  0.50008111  0.16637045  1
  Sn  Sn32  1  0.16598769  0.50029762  0.16655709  1
  Sn  Sn33  1  0.16617794  0.83348842  0.83373146  1
  Sn  Sn34  1  0.50006050  0.83284546  0.49993943  1
  Sn  Sn35  1  0.49979703  0.50044830  0.50066113  1
  Sn  Sn36  1  0.16685758  0.49986779  0.50001965  1
  Sn  Sn37  1  0.16687631  0.50048260  0.83340472  1
  Sn  Sn38  1  0.49982668  0.16679484  0.83389434  1
  Sn  Sn39  1  0.16644562  0.83361285  0.16611363  1
  Sn  Sn40  1  0.49995715  0.16615707  0.16602226  1
  Pb  Pb41  1  0.83079170  0.83046741  0.50008660  1
  Pb  Pb42  1  0.49754192  0.83635452  0.16913042  1
  Pb  Pb43  1  0.49809711  0.83298838  0.83172144  1
  Pb  Pb44  1  0.83691522  0.83073892  0.16665416  1
  Pb  Pb45  1  0.16849319  0.16646648  0.83328207  1
  Pb  Pb46  1  0.16841050  0.16956335  0.50014644  1
  Pb  Pb47  1  0.83037827  0.16947799  0.16652137  1
  Pb  Pb48  1  0.49965648  0.49928496  0.16622930  1
  Pb  Pb49  1  0.16829897  0.16642325  0.16662615  1
  Pb  Pb50  1  0.83009837  0.16918585  0.83337429  1
  Pb  Pb51  1  0.83725306  0.83066489  0.83326956  1
  Pb  Pb52  1  0.16788454  0.83180852  0.50013240  1
  Pb  Pb53  1  0.83035742  0.16959666  0.50012693  1
  I  I54  1  0.17293163  -0.00310046  0.16087489  1
  I  I55  1  0.17093409  -0.00007722  0.49967632  1
  I  I56  1  0.17239875  -0.00312560  0.83952430  1
  I  I57  1  0.16410128  0.33706574  0.16616724  1
  I  I58  1  0.16906225  0.33880402  0.50031189  1
  I  I59  1  0.16544362  0.33741888  0.83360529  1
  I  I60  1  0.16462677  0.66434764  0.16601892  1
  I  I61  1  0.17010887  0.66244987  0.50018440  1
  I  I62  1  0.16963772  0.66377597  0.83393654  1
  I  I63  1  0.49654996  0.00423457  0.16589068  1
  I  I64  1  0.49646681  0.00060125  0.50013536  1
  I  I65  1  0.49592797  0.00253386  0.83094083  1
  I  I66  1  0.49846303  0.33147492  0.17110403  1
  I  I67  1  0.50006295  0.33474499  0.50051455  1
  I  I68  1  0.49822500  0.33523004  0.82868416  1
  I  I69  1  0.50213359  0.66685777  0.16740967  1
  I  I70  1  0.49980805  0.66452819  0.50506048  1
  I  I71  1  0.50152198  0.66305521  0.82810154  1
  I  I72  1  0.83354387  0.00000072  0.16702213  1
  I  I73  1  0.83266880  0.00010523  0.49924783  1
  I  I74  1  0.83285581  -0.00009040  0.83375003  1
  I  I75  1  0.84064635  0.33800083  0.16707178  1
  I  I76  1  0.83147703  0.33834038  0.50045150  1
  I  I77  1  0.83889997  0.33830464  0.83240305  1
  I  I78  1  0.83154136  0.66207300  0.16719977  1
  I  I79  1  0.83065361  0.66158678  0.50057097  1
  I  I80  1  0.82609806  0.66160759  0.83252425  1
  I  I81  1  0.17225966  0.17251766  -0.00005575  1
  I  I82  1  0.17227280  0.16806813  0.33337666  1
  I  I83  1  0.17041273  0.16668183  0.66672203  1
  I  I84  1  0.16541744  0.50313000  -0.00031429  1
  I  I85  1  0.16572696  0.50338009  0.33326737  1
  I  I86  1  0.16629239  0.50333893  0.66704035  1
  I  I87  1  0.17017383  0.82174373  -0.00017241  1
  I  I88  1  0.17068914  0.82607964  0.33095253  1
  I  I89  1  0.17057806  0.82594875  0.66923046  1
  I  I90  1  0.49807329  0.17604298  -0.00093418  1
  I  I91  1  0.49846428  0.16994221  0.33438019  1
  I  I92  1  0.49872838  0.17075167  0.66645786  1
  I  I93  1  0.49964029  0.49461236  -0.00288600  1
  I  I94  1  0.49987050  0.49838211  0.33615263  1
  I  I95  1  0.49948778  0.49590156  0.66615704  1
  I  I96  1  0.50047279  0.83326692  0.00005178  1
  I  I97  1  0.49695231  0.82893064  0.33686727  1
  I  I98  1  0.49657063  0.83492520  0.66382427  1
  I  I99  1  0.83073720  0.17056101  -0.00004179  1
  I  I100  1  0.83064380  0.16983371  0.33337395  1
  I  I101  1  0.83259593  0.16889693  0.66668486  1
  I  I102  1  0.83571776  0.49884188  -0.00037176  1
  I  I103  1  0.83474471  0.49975983  0.33368907  1
  I  I104  1  0.83442411  0.49980156  0.66671863  1
  I  I105  1  0.82766598  0.83030021  -0.00003598  1
  I  I106  1  0.83405849  0.83000322  0.33333888  1
  I  I107  1  0.83477654  0.83071213  0.66670224  1
  I  I108  1  -0.00020183  0.16564170  0.16641573  1
  I  I109  1  -0.00043143  0.16678072  0.49902523  1
  I  I110  1  -0.00020919  0.16779827  0.83470463  1
  I  I111  1  0.00090520  0.50350795  0.16741950  1
  I  I112  1  0.00043686  0.50150680  0.50259590  1
  I  I113  1  0.00063085  0.50509998  0.83027918  1
  I  I114  1  0.00480321  0.82933560  0.16326850  1
  I  I115  1  0.00002482  0.83088452  0.49972286  1
  I  I116  1  0.00505933  0.82457759  0.83656665  1
  I  I117  1  0.33655153  0.17183316  0.16797374  1
  I  I118  1  0.33751920  0.17044859  0.50015495  1
  I  I119  1  0.33708427  0.17484148  0.83207937  1
  I  I120  1  0.33046656  0.50164404  0.16704066  1
  I  I121  1  0.33423090  0.49941167  0.50224253  1
  I  I122  1  0.33343728  0.49935097  0.83048338  1
  I  I123  1  0.33017935  0.82337868  0.16314719  1
  I  I124  1  0.33623855  0.83011088  0.50028941  1
  I  I125  1  0.33047733  0.82529719  0.83614269  1
  I  I126  1  0.66226764  0.17044732  0.16872181  1
  I  I127  1  0.66179376  0.17075638  0.50012357  1
  I  I128  1  0.66168383  0.17367817  0.83113330  1
  I  I129  1  0.66878393  0.49586246  0.16769885  1
  I  I130  1  0.66544275  0.49875989  0.50242240  1
  I  I131  1  0.66587846  0.49391668  0.82962700  1
  I  I132  1  0.66669679  0.83300731  0.16805927  1
  I  I133  1  0.66233377  0.83166971  0.50074349  1
  I  I134  1  0.66672362  0.83297709  0.83179171  1
