# generated using pymatgen
data_Cs27Sn13Pb14I81
_symmetry_space_group_name_H-M   'P 1'
_cell_length_a   18.98096070
_cell_length_b   18.97359026
_cell_length_c   18.97831604
_cell_angle_alpha   89.99745398
_cell_angle_beta   89.99864328
_cell_angle_gamma   90.00009295
_symmetry_Int_Tables_number   1
_chemical_formula_structural   Cs27Sn13Pb14I81
_chemical_formula_sum   'Cs27 Sn13 Pb14 I81'
_cell_volume   6834.79324459
_cell_formula_units_Z   1
loop_
 _symmetry_equiv_pos_site_id
 _symmetry_equiv_pos_as_xyz
  1  'x, y, z'
loop_
 _atom_site_type_symbol
 _atom_site_label
 _atom_site_symmetry_multiplicity
 _atom_site_fract_x
 _atom_site_fract_y
 _atom_site_fract_z
 _atom_site_occupancy
  Cs  Cs0  1  0.00013039  0.00053718  0.00195606  1
  Cs  Cs1  1  0.00183440  0.00211195  0.33147760  1
  Cs  Cs2  1  0.00093490  -0.00596620  0.66699112  1
  Cs  Cs3  1  0.00112930  0.33280601  0.00480958  1
  Cs  Cs4  1  0.00365260  0.33313598  0.33147259  1
  Cs  Cs5  1  -0.00105431  0.33398645  0.66358585  1
  Cs  Cs6  1  0.00122251  0.66813408  -0.00397028  1
  Cs  Cs7  1  -0.00059423  0.66482662  0.33309004  1
  Cs  Cs8  1  0.00487336  0.67642126  0.67439803  1
  Cs  Cs9  1  0.33705580  -0.00016148  -0.00146565  1
  Cs  Cs10  1  0.33498102  -0.00294057  0.33592812  1
  Cs  Cs11  1  0.33255213  0.00118236  0.66731868  1
  Cs  Cs12  1  0.33415881  0.33526393  -0.00022653  1
  Cs  Cs13  1  0.32927973  0.33434067  0.33462834  1
  Cs  Cs14  1  0.33496318  0.33283028  0.66516915  1
  Cs  Cs15  1  0.33118515  0.66518489  -0.00060928  1
  Cs  Cs16  1  0.33385360  0.66779780  0.33359439  1
  Cs  Cs17  1  0.32345961  0.66724030  0.66922557  1
  Cs  Cs18  1  0.66406497  0.00237401  0.00117346  1
  Cs  Cs19  1  0.66534806  -0.00221392  0.33343787  1
  Cs  Cs20  1  0.66705156  0.00147170  0.66580567  1
  Cs  Cs21  1  0.66660235  0.33316963  -0.00038478  1
  Cs  Cs22  1  0.66757652  0.33465048  0.33501981  1
  Cs  Cs23  1  0.66558531  0.33321828  0.66527951  1
  Cs  Cs24  1  0.66777199  0.66347592  0.00089228  1
  Cs  Cs25  1  0.66634684  0.66635941  0.33266949  1
  Cs  Cs26  1  0.67201968  0.66436187  0.66639484  1
  Sn  Sn27  1  0.16640306  0.16714171  0.83338327  1
  Sn  Sn28  1  0.83255481  0.16728722  0.50058422  1
  Sn  Sn29  1  0.83287601  0.49948091  0.49948438  1
  Sn  Sn30  1  0.83393985  0.83252093  0.16679185  1
  Sn  Sn31  1  0.50025137  0.16597602  0.83311197  1
  Sn  Sn32  1  0.50063943  0.49952870  0.49933449  1
  Sn  Sn33  1  0.83246805  0.50069212  0.16738262  1
  Sn  Sn34  1  0.16583841  0.83343357  0.16696132  1
  Sn  Sn35  1  0.83352952  0.16684211  0.83247283  1
  Sn  Sn36  1  0.50086599  0.49890184  0.16756688  1
  Sn  Sn37  1  0.50081582  0.83331534  0.83295472  1
  Sn  Sn38  1  0.50092392  0.16732650  0.49974024  1
  Sn  Sn39  1  0.50007291  0.16761136  0.16723196  1
  Pb  Pb40  1  0.17011608  0.16477742  0.16481292  1
  Pb  Pb41  1  0.16634599  0.49704222  0.83336565  1
  Pb  Pb42  1  0.50002353  0.49976738  0.83266641  1
  Pb  Pb43  1  0.83108450  0.83603413  0.83587246  1
  Pb  Pb44  1  0.83161466  0.16713742  0.16731049  1
  Pb  Pb45  1  0.16649555  0.16661285  0.50211847  1
  Pb  Pb46  1  0.83348560  0.49763680  0.83302880  1
  Pb  Pb47  1  0.83320570  0.83322138  0.49777328  1
  Pb  Pb48  1  0.50039827  0.83251433  0.16525860  1
  Pb  Pb49  1  0.16661260  0.83347573  0.49731677  1
  Pb  Pb50  1  0.16603752  0.49993636  0.49998861  1
  Pb  Pb51  1  0.16890478  0.83578000  0.83548053  1
  Pb  Pb52  1  0.16670360  0.50198100  0.16672272  1
  Pb  Pb53  1  0.50016609  0.83245309  0.50285384  1
  I  I54  1  0.16057164  -0.00283926  0.16543687  1
  I  I55  1  0.16741523  0.00042374  0.49961841  1
  I  I56  1  0.16609283  0.00359745  0.83427460  1
  I  I57  1  0.16474747  0.33315358  0.16488534  1
  I  I58  1  0.16720111  0.33310647  0.50006598  1
  I  I59  1  0.17164735  0.32864012  0.83467913  1
  I  I60  1  0.16846438  0.66977372  0.16506786  1
  I  I61  1  0.16859293  0.66652546  0.50114931  1
  I  I62  1  0.16928970  0.66728459  0.83367103  1
  I  I63  1  0.50041316  0.00257250  0.16724673  1
  I  I64  1  0.50372285  0.00346086  0.49739732  1
  I  I65  1  0.49980008  0.00278372  0.83532664  1
  I  I66  1  0.50548586  0.33318295  0.16374488  1
  I  I67  1  0.50383836  0.33212396  0.50149340  1
  I  I68  1  0.50008445  0.32962125  0.83423395  1
  I  I69  1  0.50084910  0.66354246  0.16940876  1
  I  I70  1  0.50494771  0.66281590  0.49438422  1
  I  I71  1  0.49948256  0.66894071  0.83628993  1
  I  I72  1  0.83489166  -0.00159719  0.16527319  1
  I  I73  1  0.82859404  0.00344345  0.50289824  1
  I  I74  1  0.83386943  0.00433476  0.82912241  1
  I  I75  1  0.82988467  0.33591678  0.16647031  1
  I  I76  1  0.82847216  0.33284347  0.49865528  1
  I  I77  1  0.82845145  0.32911323  0.83514230  1
  I  I78  1  0.83013275  0.66539840  0.17197762  1
  I  I79  1  0.82680023  0.66309691  0.49601130  1
  I  I80  1  0.83142702  0.66687834  0.83140309  1
  I  I81  1  0.16592383  0.16561264  -0.00317339  1
  I  I82  1  0.16668256  0.16515116  0.33318076  1
  I  I83  1  0.17239815  0.16561546  0.67011839  1
  I  I84  1  0.16792128  0.49977071  0.00038381  1
  I  I85  1  0.16761812  0.49974103  0.33317024  1
  I  I86  1  0.16857404  0.50096637  0.66654806  1
  I  I87  1  0.16323373  0.83401532  0.00299305  1
  I  I88  1  0.16504493  0.83450692  0.32911688  1
  I  I89  1  0.16790470  0.83312447  0.66729533  1
  I  I90  1  0.50042268  0.16578969  -0.00038821  1
  I  I91  1  0.50533297  0.16985383  0.33375343  1
  I  I92  1  0.50024524  0.16667097  0.66668716  1
  I  I93  1  0.50369917  0.49683485  0.00290055  1
  I  I94  1  0.50380979  0.49256119  0.33286247  1
  I  I95  1  0.50526076  0.49561652  0.66318568  1
  I  I96  1  0.50025472  0.84026995  -0.00233189  1
  I  I97  1  0.49894593  0.83723494  0.33323300  1
  I  I98  1  0.49969543  0.84026041  0.67046849  1
  I  I99  1  0.83123727  0.16575204  -0.00205215  1
  I  I100  1  0.82780403  0.16661288  0.33610747  1
  I  I101  1  0.82794130  0.17198549  0.66626508  1
  I  I102  1  0.82873009  0.50203430  0.00324047  1
  I  I103  1  0.82861073  0.49814286  0.33304705  1
  I  I104  1  0.82644177  0.49564458  0.66309402  1
  I  I105  1  0.83579171  0.82872687  0.00372656  1
  I  I106  1  0.83484981  0.83506303  0.32960190  1
  I  I107  1  0.83250262  0.83095306  0.66690374  1
  I  I108  1  -0.00007347  0.16818715  0.16550856  1
  I  I109  1  -0.00369524  0.17080970  0.50343832  1
  I  I110  1  -0.00091666  0.16830745  0.82941261  1
  I  I111  1  -0.00346979  0.50084772  0.17077315  1
  I  I112  1  -0.00418298  0.49310135  0.49380296  1
  I  I113  1  -0.00038720  0.49831744  0.83400202  1
  I  I114  1  -0.00119150  0.82887767  0.16604443  1
  I  I115  1  -0.00037281  0.83392334  0.50273224  1
  I  I116  1  -0.00012018  0.83491619  0.83299673  1
  I  I117  1  0.33845101  0.17009599  0.16644730  1
  I  I118  1  0.33708098  0.17042787  0.50058147  1
  I  I119  1  0.33512524  0.16228677  0.83430884  1
  I  I120  1  0.33689054  0.49724001  0.16974000  1
  I  I121  1  0.33705513  0.49473752  0.49579392  1
  I  I122  1  0.33377976  0.49887823  0.83432962  1
  I  I123  1  0.33198045  0.83504046  0.16361179  1
  I  I124  1  0.33378085  0.83399594  0.49746215  1
  I  I125  1  0.33661580  0.83947932  0.83627872  1
  I  I126  1  0.66349186  0.16487210  0.16129503  1
  I  I127  1  0.66576592  0.17017096  0.50493810  1
  I  I128  1  0.66563983  0.16289098  0.83313280  1
  I  I129  1  0.66635440  0.50229846  0.16976952  1
  I  I130  1  0.66636036  0.49455106  0.49503796  1
  I  I131  1  0.66659490  0.49875555  0.83552001  1
  I  I132  1  0.66888852  0.83261612  0.16506907  1
  I  I133  1  0.66659647  0.83503627  0.49720896  1
  I  I134  1  0.66355138  0.84066117  0.83626584  1
