# generated using pymatgen
data_Cs27Sn13Pb14I81
_symmetry_space_group_name_H-M   'P 1'
_cell_length_a   18.99907424
_cell_length_b   18.97703906
_cell_length_c   18.99966366
_cell_angle_alpha   89.99969040
_cell_angle_beta   90.00032935
_cell_angle_gamma   90.00201776
_symmetry_Int_Tables_number   1
_chemical_formula_structural   Cs27Sn13Pb14I81
_chemical_formula_sum   'Cs27 Sn13 Pb14 I81'
_cell_volume   6850.25603411
_cell_formula_units_Z   1
loop_
 _symmetry_equiv_pos_site_id
 _symmetry_equiv_pos_as_xyz
  1  'x, y, z'
loop_
 _atom_site_type_symbol
 _atom_site_label
 _atom_site_symmetry_multiplicity
 _atom_site_fract_x
 _atom_site_fract_y
 _atom_site_fract_z
 _atom_site_occupancy
  Cs  Cs0  1  0.00062659  0.00062452  0.00029145  1
  Cs  Cs1  1  -0.00229509  0.00006765  0.33103329  1
  Cs  Cs2  1  -0.00288371  -0.00017558  0.66915670  1
  Cs  Cs3  1  -0.00110239  0.32957398  -0.00220131  1
  Cs  Cs4  1  0.00258730  0.33643721  0.33793283  1
  Cs  Cs5  1  0.00011730  0.33975347  0.66448276  1
  Cs  Cs6  1  0.00982970  0.66080220  0.00639514  1
  Cs  Cs7  1  0.00038649  0.66023454  0.32740837  1
  Cs  Cs8  1  0.00187360  0.66067478  0.66767991  1
  Cs  Cs9  1  0.33088265  -0.00039290  0.00010518  1
  Cs  Cs10  1  0.33511339  0.00097222  0.33548257  1
  Cs  Cs11  1  0.33533785  0.00002742  0.66475369  1
  Cs  Cs12  1  0.33719898  0.33801735  -0.00062755  1
  Cs  Cs13  1  0.32973814  0.33315014  0.33572404  1
  Cs  Cs14  1  0.33458025  0.33159515  0.66511835  1
  Cs  Cs15  1  0.32626847  0.66011201  -0.00069141  1
  Cs  Cs16  1  0.33655185  0.66556092  0.33278212  1
  Cs  Cs17  1  0.33124453  0.67005477  0.66739870  1
  Cs  Cs18  1  0.66909534  0.00033680  -0.00049069  1
  Cs  Cs19  1  0.66721747  -0.00073757  0.33343428  1
  Cs  Cs20  1  0.66743713  -0.00105883  0.66713074  1
  Cs  Cs21  1  0.66362468  0.33818510  -0.00222301  1
  Cs  Cs22  1  0.66764378  0.33492509  0.33158416  1
  Cs  Cs23  1  0.66546926  0.33398356  0.67120645  1
  Cs  Cs24  1  0.66679966  0.65985266  0.00236987  1
  Cs  Cs25  1  0.66568073  0.66686261  0.33369145  1
  Cs  Cs26  1  0.66684087  0.67029419  0.66390215  1
  Sn  Sn27  1  0.83412438  0.83400002  0.50042915  1
  Sn  Sn28  1  0.83313736  0.16607811  0.16655496  1
  Sn  Sn29  1  0.16564876  0.83383625  0.49974443  1
  Sn  Sn30  1  0.83313290  0.16593086  0.50034699  1
  Sn  Sn31  1  0.16678457  0.16591646  0.16603159  1
  Sn  Sn32  1  0.83402224  0.16567043  0.83313181  1
  Sn  Sn33  1  0.50035667  0.50059579  0.50042595  1
  Sn  Sn34  1  0.16620778  0.16592785  0.83345913  1
  Sn  Sn35  1  0.50008972  0.16562675  0.16662319  1
  Sn  Sn36  1  0.50011471  0.83293791  0.50003899  1
  Sn  Sn37  1  0.50072080  0.83378203  0.83403140  1
  Sn  Sn38  1  0.50016939  0.83411434  0.16589810  1
  Sn  Sn39  1  0.83307208  0.83315119  0.83336486  1
  Pb  Pb40  1  0.50003206  0.50015745  0.16875018  1
  Pb  Pb41  1  0.83327875  0.49671179  0.16665068  1
  Pb  Pb42  1  0.50237549  0.16614206  0.49814975  1
  Pb  Pb43  1  0.16591031  0.83517571  0.83163801  1
  Pb  Pb44  1  0.83169466  0.83452041  0.16608649  1
  Pb  Pb45  1  0.16671823  0.49630902  0.83304241  1
  Pb  Pb46  1  0.16405723  0.16468226  0.50031018  1
  Pb  Pb47  1  0.50024944  0.16462193  0.83558916  1
  Pb  Pb48  1  0.16919693  0.83555504  0.16896301  1
  Pb  Pb49  1  0.83332547  0.50113464  0.83327949  1
  Pb  Pb50  1  0.50019127  0.50374889  0.83057426  1
  Pb  Pb51  1  0.83121967  0.50083843  0.50012518  1
  Pb  Pb52  1  0.16688114  0.49633191  0.16680880  1
  Pb  Pb53  1  0.16936097  0.50326721  0.50004695  1
  I  I54  1  0.16423209  0.00371320  0.16331942  1
  I  I55  1  0.17420479  -0.00290790  0.49962115  1
  I  I56  1  0.16460061  0.00312190  0.83762703  1
  I  I57  1  0.16931875  0.32773996  0.16442212  1
  I  I58  1  0.16734248  0.33308479  0.49933436  1
  I  I59  1  0.16018315  0.32782054  0.83687985  1
  I  I60  1  0.16811819  0.66692641  0.16761524  1
  I  I61  1  0.16170570  0.67146386  0.50145312  1
  I  I62  1  0.16696261  0.66700487  0.83161186  1
  I  I63  1  0.50024844  -0.00004396  0.17049163  1
  I  I64  1  0.49855159  -0.00359315  0.50096607  1
  I  I65  1  0.50130585  -0.00332546  0.82650032  1
  I  I66  1  0.50055337  0.32984035  0.16839261  1
  I  I67  1  0.50216419  0.33493438  0.49663974  1
  I  I68  1  0.49977730  0.33323433  0.83328328  1
  I  I69  1  0.50136289  0.67025529  0.16656846  1
  I  I70  1  0.50206066  0.66968757  0.49770310  1
  I  I71  1  0.50672539  0.67216724  0.83800783  1
  I  I72  1  0.83457479  0.00345455  0.16743994  1
  I  I73  1  0.83009531  -0.00063724  0.50034825  1
  I  I74  1  0.83259522  0.00069265  0.83171923  1
  I  I75  1  0.82976574  0.32718598  0.16717668  1
  I  I76  1  0.83199360  0.33012749  0.49913923  1
  I  I77  1  0.83773105  0.32949110  0.83320862  1
  I  I78  1  0.83029712  0.66696910  0.16783637  1
  I  I79  1  0.83377956  0.67088830  0.50595688  1
  I  I80  1  0.82652133  0.67110734  0.82484174  1
  I  I81  1  0.16093724  0.16461993  0.00036615  1
  I  I82  1  0.16663684  0.16488016  0.33078855  1
  I  I83  1  0.16255951  0.16448180  0.66920758  1
  I  I84  1  0.16816040  0.50504646  0.00000965  1
  I  I85  1  0.16701487  0.49693589  0.33362913  1
  I  I86  1  0.16726295  0.49679311  0.66628802  1
  I  I87  1  0.16743848  0.83295808  0.00007120  1
  I  I88  1  0.16645425  0.83711391  0.33679672  1
  I  I89  1  0.17285869  0.83726418  0.66386475  1
  I  I90  1  0.50406102  0.16095113  0.00355169  1
  I  I91  1  0.49962696  0.16116065  0.33016949  1
  I  I92  1  0.49894228  0.16698219  0.66672765  1
  I  I93  1  0.49995112  0.49974977  -0.00009443  1
  I  I94  1  0.50093011  0.50713404  0.33625923  1
  I  I95  1  0.50094876  0.50410026  0.66287366  1
  I  I96  1  0.50580846  0.84169840  -0.00000190  1
  I  I97  1  0.49985307  0.83369724  0.33412571  1
  I  I98  1  0.50070467  0.82884052  0.66592568  1
  I  I99  1  0.83480734  0.16214754  -0.00035416  1
  I  I100  1  0.83213115  0.16194993  0.33343661  1
  I  I101  1  0.83752208  0.16189093  0.66696087  1
  I  I102  1  0.83125002  0.50062531  -0.00010922  1
  I  I103  1  0.83218282  0.49962466  0.33358427  1
  I  I104  1  0.83207896  0.49331789  0.66660351  1
  I  I105  1  0.82666103  0.84028064  -0.00316994  1
  I  I106  1  0.83119424  0.83875969  0.33629272  1
  I  I107  1  0.82676028  0.84302231  0.66594833  1
  I  I108  1  -0.00057660  0.16686208  0.16567385  1
  I  I109  1  -0.00384163  0.16085781  0.49518160  1
  I  I110  1  -0.00154271  0.16039279  0.83879674  1
  I  I111  1  0.00019945  0.50179212  0.16836554  1
  I  I112  1  0.00001153  0.49954039  0.49961488  1
  I  I113  1  0.00001362  0.50463481  0.83200765  1
  I  I114  1  0.00002383  0.83514632  0.16772133  1
  I  I115  1  -0.00143148  0.84136677  0.50557838  1
  I  I116  1  -0.00346325  0.83798162  0.82646700  1
  I  I117  1  0.33361340  0.16174719  0.16287666  1
  I  I118  1  0.33340599  0.16617244  0.49929239  1
  I  I119  1  0.33119544  0.16475634  0.83798063  1
  I  I120  1  0.33361052  0.49776163  0.16807225  1
  I  I121  1  0.33717055  0.50455971  0.49887345  1
  I  I122  1  0.33360711  0.49957484  0.83273920  1
  I  I123  1  0.33743818  0.84025473  0.16758006  1
  I  I124  1  0.33476494  0.82908340  0.49984211  1
  I  I125  1  0.33585827  0.83566881  0.83086135  1
  I  I126  1  0.66682611  0.16192949  0.16829481  1
  I  I127  1  0.67029162  0.16099527  0.50073325  1
  I  I128  1  0.66981809  0.16456417  0.83314967  1
  I  I129  1  0.66633412  0.49680430  0.16733396  1
  I  I130  1  0.66377887  0.50681826  0.49869701  1
  I  I131  1  0.66656668  0.49299350  0.83366491  1
  I  I132  1  0.66347255  0.84048901  0.17227048  1
  I  I133  1  0.66647351  0.83353696  0.50061745  1
  I  I134  1  0.66693419  0.84078700  0.82693243  1
