# generated using pymatgen
data_Cs27Sn13Pb14I81
_symmetry_space_group_name_H-M   'P 1'
_cell_length_a   18.97268427
_cell_length_b   18.97941703
_cell_length_c   18.97860699
_cell_angle_alpha   90.00105962
_cell_angle_beta   89.99944659
_cell_angle_gamma   90.00160241
_symmetry_Int_Tables_number   1
_chemical_formula_structural   Cs27Sn13Pb14I81
_chemical_formula_sum   'Cs27 Sn13 Pb14 I81'
_cell_volume   6834.01583023
_cell_formula_units_Z   1
loop_
 _symmetry_equiv_pos_site_id
 _symmetry_equiv_pos_as_xyz
  1  'x, y, z'
loop_
 _atom_site_type_symbol
 _atom_site_label
 _atom_site_symmetry_multiplicity
 _atom_site_fract_x
 _atom_site_fract_y
 _atom_site_fract_z
 _atom_site_occupancy
  Cs  Cs0  1  0.00090634  0.00297200  0.00388772  1
  Cs  Cs1  1  0.00139294  0.00009341  0.33142189  1
  Cs  Cs2  1  -0.00106195  -0.00231200  0.66603116  1
  Cs  Cs3  1  0.00093027  0.33154745  0.00080978  1
  Cs  Cs4  1  0.00168915  0.33088568  0.32949963  1
  Cs  Cs5  1  -0.00077340  0.33564550  0.66755370  1
  Cs  Cs6  1  0.00023738  0.66654051  -0.00087021  1
  Cs  Cs7  1  0.00016988  0.66799132  0.33605905  1
  Cs  Cs8  1  -0.00004957  0.66689201  0.66589750  1
  Cs  Cs9  1  0.33259122  0.00170002  -0.00199502  1
  Cs  Cs10  1  0.33189690  0.00117980  0.33418355  1
  Cs  Cs11  1  0.33391847  -0.00252602  0.66809213  1
  Cs  Cs12  1  0.33275662  0.33109937  -0.00050397  1
  Cs  Cs13  1  0.33346273  0.33557376  0.33570574  1
  Cs  Cs14  1  0.33231760  0.33463232  0.66679244  1
  Cs  Cs15  1  0.33318936  0.66918324  -0.00269639  1
  Cs  Cs16  1  0.33680579  0.66336862  0.33526442  1
  Cs  Cs17  1  0.33412044  0.66763680  0.66722520  1
  Cs  Cs18  1  0.66666532  -0.00106396  0.00299323  1
  Cs  Cs19  1  0.66507113  -0.00130864  0.33739790  1
  Cs  Cs20  1  0.66791537  0.00226987  0.66207963  1
  Cs  Cs21  1  0.66546977  0.33518572  -0.00200949  1
  Cs  Cs22  1  0.66329414  0.33357254  0.33374586  1
  Cs  Cs23  1  0.66798701  0.32970897  0.66842554  1
  Cs  Cs24  1  0.66634171  0.66640181  0.00733513  1
  Cs  Cs25  1  0.66237339  0.66682586  0.32336875  1
  Cs  Cs26  1  0.67238687  0.66775699  0.66763335  1
  Sn  Sn27  1  0.83333406  0.50095412  0.83281879  1
  Sn  Sn28  1  0.16648267  0.50110396  0.16580102  1
  Sn  Sn29  1  0.16637326  0.16599364  0.50134206  1
  Sn  Sn30  1  0.83355278  0.83279935  0.83309681  1
  Sn  Sn31  1  0.83335474  0.50066079  0.50020986  1
  Sn  Sn32  1  0.83415764  0.83203341  0.50059092  1
  Sn  Sn33  1  0.49919982  0.16719437  0.83408268  1
  Sn  Sn34  1  0.49997943  0.16663255  0.16597063  1
  Sn  Sn35  1  0.16633175  0.83387780  0.49932345  1
  Sn  Sn36  1  0.49992233  0.49977495  0.83299758  1
  Sn  Sn37  1  0.16671321  0.83212828  0.16754075  1
  Sn  Sn38  1  0.16678930  0.49943753  0.83401462  1
  Sn  Sn39  1  0.16711556  0.16732361  0.83220069  1
  Pb  Pb40  1  0.83331756  0.16673562  0.83354965  1
  Pb  Pb41  1  0.83545311  0.83332767  0.16711609  1
  Pb  Pb42  1  0.16799163  0.16680851  0.16644866  1
  Pb  Pb43  1  0.49727837  0.16677085  0.50092972  1
  Pb  Pb44  1  0.16519088  0.50033228  0.50041152  1
  Pb  Pb45  1  0.50358938  0.50018072  0.50286505  1
  Pb  Pb46  1  0.50329166  0.83360148  0.83321112  1
  Pb  Pb47  1  0.49667711  0.83575436  0.16651076  1
  Pb  Pb48  1  0.83548108  0.49983060  0.16646643  1
  Pb  Pb49  1  0.16495736  0.83345446  0.83304010  1
  Pb  Pb50  1  0.49710528  0.49820642  0.16413147  1
  Pb  Pb51  1  0.83593330  0.16676258  0.49997708  1
  Pb  Pb52  1  0.82974700  0.16678690  0.16677862  1
  Pb  Pb53  1  0.50033273  0.83294959  0.50015196  1
  I  I54  1  0.16751184  -0.00206137  0.16764837  1
  I  I55  1  0.16160609  -0.00063488  0.49937785  1
  I  I56  1  0.16972205  0.00254964  0.83306482  1
  I  I57  1  0.16733390  0.33558775  0.16541096  1
  I  I58  1  0.16573370  0.33138181  0.50080813  1
  I  I59  1  0.16517864  0.33394856  0.83367402  1
  I  I60  1  0.16539366  0.66638686  0.16562875  1
  I  I61  1  0.16343330  0.66930198  0.49911498  1
  I  I62  1  0.16859699  0.66381131  0.83441111  1
  I  I63  1  0.49756883  0.00353412  0.15836917  1
  I  I64  1  0.50398311  0.00015278  0.50212584  1
  I  I65  1  0.49483344  0.00337830  0.83691421  1
  I  I66  1  0.49651886  0.33043390  0.16436978  1
  I  I67  1  0.49951369  0.33339012  0.49745343  1
  I  I68  1  0.50074864  0.33345298  0.83697998  1
  I  I69  1  0.50111795  0.66644708  0.16576295  1
  I  I70  1  0.49316074  0.66640006  0.50191391  1
  I  I71  1  0.49571301  0.66338978  0.83195906  1
  I  I72  1  0.83734948  -0.00025599  0.16489960  1
  I  I73  1  0.83538432  -0.00338373  0.50508827  1
  I  I74  1  0.83441773  -0.00276881  0.82856755  1
  I  I75  1  0.83872238  0.33363244  0.16680676  1
  I  I76  1  0.83465252  0.33643233  0.50606936  1
  I  I77  1  0.83376786  0.33671666  0.82898729  1
  I  I78  1  0.83143500  0.66658192  0.16564452  1
  I  I79  1  0.84144531  0.66729750  0.50705357  1
  I  I80  1  0.83501453  0.66536947  0.82844187  1
  I  I81  1  0.16838423  0.16744868  -0.00287092  1
  I  I82  1  0.16731925  0.16587038  0.33540263  1
  I  I83  1  0.17157077  0.16709334  0.66793384  1
  I  I84  1  0.16448757  0.49940101  -0.00175800  1
  I  I85  1  0.16400495  0.49956206  0.33145954  1
  I  I86  1  0.16779724  0.49839440  0.66988320  1
  I  I87  1  0.16505591  0.83283541  0.00171432  1
  I  I88  1  0.16051093  0.83511370  0.33433833  1
  I  I89  1  0.16381970  0.83485211  0.66415348  1
  I  I90  1  0.49280255  0.17038764  -0.00194991  1
  I  I91  1  0.49821900  0.16525256  0.33104871  1
  I  I92  1  0.49831952  0.17092038  0.67034768  1
  I  I93  1  0.50511494  0.49784635  -0.00410586  1
  I  I94  1  0.49980051  0.49777833  0.33306014  1
  I  I95  1  0.49310640  0.49303254  0.67133426  1
  I  I96  1  0.50018000  0.83211054  -0.00027084  1
  I  I97  1  0.50421541  0.83619548  0.33318144  1
  I  I98  1  0.49436580  0.83584678  0.66698944  1
  I  I99  1  0.84002728  0.16579990  -0.00042820  1
  I  I100  1  0.83493439  0.16701525  0.33366644  1
  I  I101  1  0.82952415  0.16636314  0.66686621  1
  I  I102  1  0.83183642  0.50393416  -0.00382366  1
  I  I103  1  0.83689497  0.50425863  0.33633993  1
  I  I104  1  0.83613645  0.50402618  0.66825319  1
  I  I105  1  0.83421466  0.82895815  -0.00282784  1
  I  I106  1  0.83653328  0.82955231  0.33693483  1
  I  I107  1  0.83964772  0.82909863  0.66625916  1
  I  I108  1  0.00067581  0.16640024  0.16624342  1
  I  I109  1  0.00413033  0.16533911  0.50587896  1
  I  I110  1  0.00319683  0.16999013  0.82961134  1
  I  I111  1  0.00373458  0.50169427  0.16059716  1
  I  I112  1  -0.00255181  0.50123316  0.50677524  1
  I  I113  1  0.00042206  0.49956167  0.83315924  1
  I  I114  1  0.00368025  0.83152212  0.16747137  1
  I  I115  1  0.00041611  0.83361278  0.50066087  1
  I  I116  1  -0.00278687  0.82897339  0.83156249  1
  I  I117  1  0.33547265  0.16646583  0.16357993  1
  I  I118  1  0.32905862  0.16143426  0.50147870  1
  I  I119  1  0.33241105  0.17383733  0.83329880  1
  I  I120  1  0.32907367  0.50330198  0.16272230  1
  I  I121  1  0.33313467  0.49964156  0.50008051  1
  I  I122  1  0.33237495  0.49465323  0.83824129  1
  I  I123  1  0.32855640  0.82919957  0.17163705  1
  I  I124  1  0.32960363  0.83807120  0.49639271  1
  I  I125  1  0.33311637  0.83129258  0.83323662  1
  I  I126  1  0.66183778  0.16747521  0.15851661  1
  I  I127  1  0.66665091  0.16568622  0.49968868  1
  I  I128  1  0.66372843  0.17010632  0.83797251  1
  I  I129  1  0.66635018  0.49824149  0.16663176  1
  I  I130  1  0.67175082  0.50527236  0.50498006  1
  I  I131  1  0.66704524  0.49848328  0.82757079  1
  I  I132  1  0.66658931  0.83512505  0.16707931  1
  I  I133  1  0.67068231  0.83080343  0.50562977  1
  I  I134  1  0.67130627  0.83029226  0.82671856  1
