# generated using pymatgen
data_Cs27Sn14Pb13I81
_symmetry_space_group_name_H-M   'P 1'
_cell_length_a   18.97714460
_cell_length_b   18.97232248
_cell_length_c   18.97943018
_cell_angle_alpha   90.00031605
_cell_angle_beta   90.00074482
_cell_angle_gamma   89.99931838
_symmetry_Int_Tables_number   1
_chemical_formula_structural   Cs27Sn14Pb13I81
_chemical_formula_sum   'Cs27 Sn14 Pb13 I81'
_cell_volume   6833.36366792
_cell_formula_units_Z   1
loop_
 _symmetry_equiv_pos_site_id
 _symmetry_equiv_pos_as_xyz
  1  'x, y, z'
loop_
 _atom_site_type_symbol
 _atom_site_label
 _atom_site_symmetry_multiplicity
 _atom_site_fract_x
 _atom_site_fract_y
 _atom_site_fract_z
 _atom_site_occupancy
  Cs  Cs0  1  -0.00306395  -0.00668012  0.00614207  1
  Cs  Cs1  1  0.00046157  -0.00034186  0.32892192  1
  Cs  Cs2  1  -0.00069560  -0.00025836  0.66668027  1
  Cs  Cs3  1  0.00197630  0.33170936  0.00082607  1
  Cs  Cs4  1  -0.00128325  0.33466031  0.32739001  1
  Cs  Cs5  1  0.00080066  0.33269069  0.66752714  1
  Cs  Cs6  1  -0.00144758  0.67600751  0.00320948  1
  Cs  Cs7  1  0.00057202  0.66534568  0.32599594  1
  Cs  Cs8  1  0.00241943  0.66760530  0.66794944  1
  Cs  Cs9  1  0.33691099  0.00103736  0.00028755  1
  Cs  Cs10  1  0.33620546  -0.00080577  0.33545011  1
  Cs  Cs11  1  0.33363895  0.00114369  0.66536310  1
  Cs  Cs12  1  0.33128982  0.33559159  -0.00182371  1
  Cs  Cs13  1  0.33119450  0.33370559  0.33245640  1
  Cs  Cs14  1  0.33082871  0.33192455  0.66803220  1
  Cs  Cs15  1  0.33450194  0.66271045  0.00228910  1
  Cs  Cs16  1  0.33124898  0.66673128  0.33071246  1
  Cs  Cs17  1  0.33086619  0.66534395  0.66690917  1
  Cs  Cs18  1  0.66549770  -0.00084287  0.00037102  1
  Cs  Cs19  1  0.66318189  0.00085545  0.33555853  1
  Cs  Cs20  1  0.66657220  0.00146762  0.66583689  1
  Cs  Cs21  1  0.66707828  0.33404365  -0.00250680  1
  Cs  Cs22  1  0.67074590  0.33991178  0.33554022  1
  Cs  Cs23  1  0.66871438  0.33317794  0.66685385  1
  Cs  Cs24  1  0.66588531  0.66829249  0.00119640  1
  Cs  Cs25  1  0.66856579  0.65863977  0.33612083  1
  Cs  Cs26  1  0.66692645  0.66382514  0.66511088  1
  Sn  Sn27  1  0.50097459  0.83370871  0.50023457  1
  Sn  Sn28  1  0.50024597  0.16685230  0.16689840  1
  Sn  Sn29  1  0.16637214  0.16742119  0.50062955  1
  Sn  Sn30  1  0.50003476  0.16600658  0.83323535  1
  Sn  Sn31  1  0.83467897  0.49949873  0.83297624  1
  Sn  Sn32  1  0.83345752  0.16589658  0.50064831  1
  Sn  Sn33  1  0.16643562  0.49903819  0.50080667  1
  Sn  Sn34  1  0.49982286  0.83398114  0.83265594  1
  Sn  Sn35  1  0.16615938  0.16657850  0.83280989  1
  Sn  Sn36  1  0.50017617  0.16658936  0.49993759  1
  Sn  Sn37  1  0.16503565  0.49934801  0.83236721  1
  Sn  Sn38  1  0.83272509  0.83407579  0.50037637  1
  Sn  Sn39  1  0.83376767  0.16696979  0.83282897  1
  Sn  Sn40  1  0.50034326  0.83409772  0.16725205  1
  Pb  Pb41  1  0.16963134  0.83378794  0.16665813  1
  Pb  Pb42  1  0.16919225  0.83399725  0.83331800  1
  Pb  Pb43  1  0.83613511  0.49979467  0.50183108  1
  Pb  Pb44  1  0.16658065  0.49966283  0.16577804  1
  Pb  Pb45  1  0.83339798  0.49976556  0.16257712  1
  Pb  Pb46  1  0.83096072  0.83383350  0.83130476  1
  Pb  Pb47  1  0.16658162  0.83391677  0.50002776  1
  Pb  Pb48  1  0.16904229  0.16649953  0.16646241  1
  Pb  Pb49  1  0.50014225  0.49953508  0.16680770  1
  Pb  Pb50  1  0.83052013  0.16670238  0.16672071  1
  Pb  Pb51  1  0.49982828  0.49952043  0.83309792  1
  Pb  Pb52  1  0.83007366  0.83369191  0.17038032  1
  Pb  Pb53  1  0.49747612  0.49963520  0.50019096  1
  I  I54  1  0.16448106  0.00043102  0.16665537  1
  I  I55  1  0.16835054  0.00377859  0.50518888  1
  I  I56  1  0.16570384  0.00397195  0.82727417  1
  I  I57  1  0.17171334  0.33302901  0.16743624  1
  I  I58  1  0.16874081  0.33145960  0.50463198  1
  I  I59  1  0.16946675  0.33191943  0.82933627  1
  I  I60  1  0.17022388  0.66654348  0.16756232  1
  I  I61  1  0.16812647  0.66401726  0.50495879  1
  I  I62  1  0.16435511  0.66362148  0.82859238  1
  I  I63  1  0.49926456  0.00050740  0.16625086  1
  I  I64  1  0.49827585  0.00121473  0.50016171  1
  I  I65  1  0.49968568  0.00168991  0.83335798  1
  I  I66  1  0.49905697  0.32952169  0.16578675  1
  I  I67  1  0.50299576  0.32931876  0.50113254  1
  I  I68  1  0.49992965  0.32947601  0.83274943  1
  I  I69  1  0.49947348  0.67015280  0.16576194  1
  I  I70  1  0.50367992  0.66997641  0.49958092  1
  I  I71  1  0.50005874  0.66957156  0.83409205  1
  I  I72  1  0.83640424  0.00008368  0.16058893  1
  I  I73  1  0.83323237  0.00181096  0.50642351  1
  I  I74  1  0.83515022  0.00353404  0.83101152  1
  I  I75  1  0.82890370  0.33303886  0.17253285  1
  I  I76  1  0.82858361  0.32990559  0.50194215  1
  I  I77  1  0.83031350  0.33134141  0.82752256  1
  I  I78  1  0.83021404  0.66688759  0.16730354  1
  I  I79  1  0.82746802  0.66897495  0.50158543  1
  I  I80  1  0.83621977  0.66448731  0.83129809  1
  I  I81  1  0.16814505  0.17184451  -0.00379519  1
  I  I82  1  0.16711711  0.17017409  0.33700578  1
  I  I83  1  0.17192266  0.17069784  0.66664985  1
  I  I84  1  0.16528074  0.49415675  -0.00410237  1
  I  I85  1  0.16890498  0.49589261  0.33637096  1
  I  I86  1  0.16469007  0.49538661  0.66754272  1
  I  I87  1  0.16792922  0.83246871  -0.00033100  1
  I  I88  1  0.16858872  0.83249119  0.33379845  1
  I  I89  1  0.17101680  0.83177342  0.66657246  1
  I  I90  1  0.49975660  0.16109825  -0.00132099  1
  I  I91  1  0.49859401  0.16026245  0.33470878  1
  I  I92  1  0.49945826  0.16118955  0.66665548  1
  I  I93  1  0.49805961  0.50045657  -0.00030369  1
  I  I94  1  0.49767527  0.49975898  0.33366711  1
  I  I95  1  0.50132182  0.50279342  0.66672004  1
  I  I96  1  0.49825803  0.83977333  -0.00044879  1
  I  I97  1  0.50255851  0.84123516  0.33430802  1
  I  I98  1  0.50291649  0.83978246  0.66605264  1
  I  I99  1  0.83298694  0.17172613  -0.00366173  1
  I  I100  1  0.83376717  0.16227482  0.33709884  1
  I  I101  1  0.82859295  0.16686330  0.66671007  1
  I  I102  1  0.83813723  0.49282664  -0.00558574  1
  I  I103  1  0.83397388  0.50038014  0.33369467  1
  I  I104  1  0.83383102  0.49773991  0.66967413  1
  I  I105  1  0.83217787  0.83193505  -0.00006985  1
  I  I106  1  0.82912404  0.84000210  0.33833641  1
  I  I107  1  0.82613590  0.83552973  0.66358125  1
  I  I108  1  -0.00014519  0.16833821  0.16698927  1
  I  I109  1  -0.00018898  0.16587635  0.50817485  1
  I  I110  1  -0.00001058  0.17314159  0.82429239  1
  I  I111  1  0.00008435  0.49976791  0.17075780  1
  I  I112  1  0.00373087  0.49609949  0.50327508  1
  I  I113  1  0.00056920  0.49063812  0.82800257  1
  I  I114  1  -0.00058252  0.83127028  0.16731417  1
  I  I115  1  -0.00283242  0.83716636  0.50278241  1
  I  I116  1  -0.00024860  0.83489877  0.83127841  1
  I  I117  1  0.33736657  0.16172350  0.16685401  1
  I  I118  1  0.33405455  0.16625307  0.50235552  1
  I  I119  1  0.33377490  0.16685844  0.83095312  1
  I  I120  1  0.33337652  0.50146801  0.16419657  1
  I  I121  1  0.32973422  0.49609565  0.50714243  1
  I  I122  1  0.33035369  0.49698317  0.83018567  1
  I  I123  1  0.33826113  0.83788225  0.17011619  1
  I  I124  1  0.33684401  0.83669240  0.49938234  1
  I  I125  1  0.33771089  0.83766425  0.83020038  1
  I  I126  1  0.66230643  0.16105990  0.16560210  1
  I  I127  1  0.66618141  0.16131970  0.50293407  1
  I  I128  1  0.66633021  0.16718473  0.83100236  1
  I  I129  1  0.66664242  0.50003612  0.16637583  1
  I  I130  1  0.66704683  0.49851667  0.50073235  1
  I  I131  1  0.66906728  0.49610804  0.83346329  1
  I  I132  1  0.66217538  0.83940074  0.16232198  1
  I  I133  1  0.66524724  0.84160089  0.50039913  1
  I  I134  1  0.66277228  0.83727836  0.83545574  1
