# generated using pymatgen
data_Cs27Sn14Pb13I81
_symmetry_space_group_name_H-M   'P 1'
_cell_length_a   18.97534279
_cell_length_b   18.97997788
_cell_length_c   18.97078832
_cell_angle_alpha   90.00376030
_cell_angle_beta   89.99818418
_cell_angle_gamma   89.99999138
_symmetry_Int_Tables_number   1
_chemical_formula_structural   Cs27Sn14Pb13I81
_chemical_formula_sum   'Cs27 Sn14 Pb13 I81'
_cell_volume   6832.35949106
_cell_formula_units_Z   1
loop_
 _symmetry_equiv_pos_site_id
 _symmetry_equiv_pos_as_xyz
  1  'x, y, z'
loop_
 _atom_site_type_symbol
 _atom_site_label
 _atom_site_symmetry_multiplicity
 _atom_site_fract_x
 _atom_site_fract_y
 _atom_site_fract_z
 _atom_site_occupancy
  Cs  Cs0  1  0.00045361  0.00070530  0.00363590  1
  Cs  Cs1  1  0.00277378  -0.00415787  0.33177758  1
  Cs  Cs2  1  -0.00700210  -0.00283671  0.66406819  1
  Cs  Cs3  1  0.00640661  0.33122083  -0.00387105  1
  Cs  Cs4  1  -0.00133811  0.33518324  0.33451280  1
  Cs  Cs5  1  -0.00027820  0.33091861  0.66887136  1
  Cs  Cs6  1  -0.00139436  0.66768029  -0.00344813  1
  Cs  Cs7  1  -0.00033615  0.66875194  0.33637723  1
  Cs  Cs8  1  -0.00032666  0.66856029  0.66843943  1
  Cs  Cs9  1  0.33338317  0.00217984  0.00080926  1
  Cs  Cs10  1  0.33146730  0.00108090  0.33309508  1
  Cs  Cs11  1  0.34008967  -0.00003898  0.66496953  1
  Cs  Cs12  1  0.32634806  0.33377305  -0.00187083  1
  Cs  Cs13  1  0.33543348  0.33268642  0.33505697  1
  Cs  Cs14  1  0.33215267  0.33644297  0.66407022  1
  Cs  Cs15  1  0.33313503  0.66541203  -0.00246425  1
  Cs  Cs16  1  0.33328064  0.66644809  0.33421580  1
  Cs  Cs17  1  0.33407466  0.66422962  0.66704590  1
  Cs  Cs18  1  0.66660735  -0.00199722  -0.00089049  1
  Cs  Cs19  1  0.66529849  0.00074930  0.33173492  1
  Cs  Cs20  1  0.66602449  0.00329537  0.66915720  1
  Cs  Cs21  1  0.66755736  0.33414841  0.00447041  1
  Cs  Cs22  1  0.66651259  0.33523959  0.33132633  1
  Cs  Cs23  1  0.66857480  0.32976105  0.66573437  1
  Cs  Cs24  1  0.66790224  0.66743085  0.00127255  1
  Cs  Cs25  1  0.66744230  0.66352695  0.33045205  1
  Cs  Cs26  1  0.66607554  0.66747493  0.66796310  1
  Sn  Sn27  1  0.16713197  0.49939928  0.49900525  1
  Sn  Sn28  1  0.83258549  0.83392116  0.16616822  1
  Sn  Sn29  1  0.83285531  0.16603584  0.16681691  1
  Sn  Sn30  1  0.16662460  0.50043186  0.16786159  1
  Sn  Sn31  1  0.49980466  0.49996652  0.50080012  1
  Sn  Sn32  1  0.49938687  0.16689287  0.49899058  1
  Sn  Sn33  1  0.50035382  0.83384320  0.16743500  1
  Sn  Sn34  1  0.50052456  0.16597762  0.16714982  1
  Sn  Sn35  1  0.16707877  0.16709774  0.50014387  1
  Sn  Sn36  1  0.83402665  0.83264693  0.83420417  1
  Sn  Sn37  1  0.50033645  0.83313244  0.49897136  1
  Sn  Sn38  1  0.16620713  0.83395973  0.83320556  1
  Sn  Sn39  1  0.50119605  0.49966778  0.83277678  1
  Sn  Sn40  1  0.83212520  0.50029856  0.83331420  1
  Pb  Pb41  1  0.83341483  0.49998407  0.50256765  1
  Pb  Pb42  1  0.16650247  0.50117524  0.83223862  1
  Pb  Pb43  1  0.83024518  0.83326894  0.49970881  1
  Pb  Pb44  1  0.83310419  0.16661579  0.49713804  1
  Pb  Pb45  1  0.16907370  0.83323451  0.50213065  1
  Pb  Pb46  1  0.16676678  0.16316680  0.82966790  1
  Pb  Pb47  1  0.16698762  0.83141733  0.16514617  1
  Pb  Pb48  1  0.50057763  0.83181029  0.83386191  1
  Pb  Pb49  1  0.83600743  0.50020652  0.16446481  1
  Pb  Pb50  1  0.49989893  0.16980931  0.83382405  1
  Pb  Pb51  1  0.49849377  0.49986054  0.16678753  1
  Pb  Pb52  1  0.83319753  0.16621923  0.83615288  1
  Pb  Pb53  1  0.16700607  0.16855105  0.16876913  1
  I  I54  1  0.16626272  -0.00000565  0.16666309  1
  I  I55  1  0.17170983  0.00243344  0.50173993  1
  I  I56  1  0.16077814  -0.00440405  0.83484073  1
  I  I57  1  0.16738655  0.33641352  0.16618070  1
  I  I58  1  0.17566348  0.33426636  0.49643385  1
  I  I59  1  0.16635593  0.33336515  0.83581968  1
  I  I60  1  0.16798415  0.66371632  0.17253581  1
  I  I61  1  0.17174410  0.66386903  0.49812701  1
  I  I62  1  0.16561408  0.66882865  0.83202052  1
  I  I63  1  0.50316831  -0.00029792  0.17392613  1
  I  I64  1  0.49557506  0.00040289  0.49579586  1
  I  I65  1  0.50034619  -0.00004342  0.82981830  1
  I  I66  1  0.50366406  0.33077780  0.16981132  1
  I  I67  1  0.49546740  0.33337271  0.50004135  1
  I  I68  1  0.50445986  0.33793385  0.82963377  1
  I  I69  1  0.50329413  0.66916810  0.16915907  1
  I  I70  1  0.49606874  0.66611386  0.50052992  1
  I  I71  1  0.50014027  0.66391229  0.82931781  1
  I  I72  1  0.82953250  -0.00106053  0.16067420  1
  I  I73  1  0.83453938  -0.00012793  0.50593290  1
  I  I74  1  0.83744639  -0.00342671  0.83474030  1
  I  I75  1  0.82857660  0.33103107  0.16691208  1
  I  I76  1  0.82939633  0.33335717  0.49978383  1
  I  I77  1  0.82948550  0.33603595  0.83352286  1
  I  I78  1  0.82877811  0.66962969  0.16393100  1
  I  I79  1  0.83342970  0.66667850  0.49538237  1
  I  I80  1  0.83321105  0.66751448  0.83913958  1
  I  I81  1  0.16706422  0.16963567  0.00018131  1
  I  I82  1  0.16924214  0.16768989  0.33662041  1
  I  I83  1  0.17422347  0.17557336  0.66200590  1
  I  I84  1  0.16760188  0.50163171  0.00125234  1
  I  I85  1  0.17304056  0.49777997  0.33480315  1
  I  I86  1  0.16921508  0.49746902  0.66358518  1
  I  I87  1  0.16775074  0.82861082  -0.00264407  1
  I  I88  1  0.16401612  0.83357055  0.33359520  1
  I  I89  1  0.16160207  0.83030322  0.66977633  1
  I  I90  1  0.50469105  0.16193534  0.00352576  1
  I  I91  1  0.50027260  0.16800254  0.33382869  1
  I  I92  1  0.49573070  0.16375341  0.66325916  1
  I  I93  1  0.50130575  0.50182941  -0.00209467  1
  I  I94  1  0.49667806  0.50018187  0.33618843  1
  I  I95  1  0.49697953  0.50155945  0.66524525  1
  I  I96  1  0.50082649  0.83610168  0.00289347  1
  I  I97  1  0.50450763  0.83143833  0.33294742  1
  I  I98  1  0.49859614  0.83492675  0.66420586  1
  I  I99  1  0.82651588  0.16562952  0.00403290  1
  I  I100  1  0.83143772  0.16052655  0.32931555  1
  I  I101  1  0.83336691  0.16647052  0.66661972  1
  I  I102  1  0.82802783  0.50234519  -0.00324061  1
  I  I103  1  0.83172147  0.50063143  0.33307159  1
  I  I104  1  0.83383071  0.50715819  0.67055837  1
  I  I105  1  0.83069962  0.83267639  0.00034965  1
  I  I106  1  0.83161031  0.83758566  0.32990855  1
  I  I107  1  0.83678007  0.82820304  0.66962774  1
  I  I108  1  -0.00235834  0.16313566  0.16685350  1
  I  I109  1  0.00285411  0.17308386  0.50001408  1
  I  I110  1  -0.00000035  0.17287981  0.83364173  1
  I  I111  1  0.00345778  0.49990723  0.17132591  1
  I  I112  1  0.00331346  0.49509134  0.49710663  1
  I  I113  1  -0.00223184  0.50329121  0.83488825  1
  I  I114  1  -0.00275973  0.83637989  0.16323577  1
  I  I115  1  0.00003828  0.83313573  0.49869367  1
  I  I116  1  -0.00154487  0.82604146  0.83797770  1
  I  I117  1  0.33645698  0.16280084  0.16900414  1
  I  I118  1  0.33506097  0.16751819  0.49421235  1
  I  I119  1  0.33338968  0.16609336  0.83976212  1
  I  I120  1  0.33087847  0.50041325  0.16508324  1
  I  I121  1  0.33447641  0.49945235  0.50258427  1
  I  I122  1  0.33542360  0.50252238  0.83224751  1
  I  I123  1  0.33648767  0.83645588  0.16894359  1
  I  I124  1  0.33721372  0.83294738  0.49614287  1
  I  I125  1  0.33205835  0.82995003  0.83264834  1
  I  I126  1  0.66549213  0.16399938  0.17193035  1
  I  I127  1  0.66292315  0.16747505  0.49892657  1
  I  I128  1  0.66648042  0.16329634  0.82757974  1
  I  I129  1  0.66671735  0.49982891  0.16796057  1
  I  I130  1  0.66309472  0.49932953  0.50213527  1
  I  I131  1  0.66630062  0.50644584  0.82881286  1
  I  I132  1  0.66635767  0.83623732  0.16427066  1
  I  I133  1  0.66193261  0.83316951  0.50155370  1
  I  I134  1  0.66924175  0.82998392  0.83481907  1
