# generated using pymatgen
data_Cs27Sn14Pb13I81
_symmetry_space_group_name_H-M   'P 1'
_cell_length_a   18.97641274
_cell_length_b   18.98187639
_cell_length_c   18.97097616
_cell_angle_alpha   90.00128616
_cell_angle_beta   89.99859501
_cell_angle_gamma   89.99927194
_symmetry_Int_Tables_number   1
_chemical_formula_structural   Cs27Sn14Pb13I81
_chemical_formula_sum   'Cs27 Sn14 Pb13 I81'
_cell_volume   6833.49587631
_cell_formula_units_Z   1
loop_
 _symmetry_equiv_pos_site_id
 _symmetry_equiv_pos_as_xyz
  1  'x, y, z'
loop_
 _atom_site_type_symbol
 _atom_site_label
 _atom_site_symmetry_multiplicity
 _atom_site_fract_x
 _atom_site_fract_y
 _atom_site_fract_z
 _atom_site_occupancy
  Cs  Cs0  1  0.00007237  0.00160497  -0.00072693  1
  Cs  Cs1  1  0.00313949  -0.00185417  0.33378267  1
  Cs  Cs2  1  0.00114098  0.00178471  0.67037087  1
  Cs  Cs3  1  -0.00045491  0.33133693  0.00048305  1
  Cs  Cs4  1  -0.00302494  0.33373114  0.33604688  1
  Cs  Cs5  1  0.00058069  0.33456238  0.66092854  1
  Cs  Cs6  1  -0.00175069  0.66677736  0.00166466  1
  Cs  Cs7  1  0.00146301  0.66796018  0.33338843  1
  Cs  Cs8  1  0.00201931  0.66283466  0.66525206  1
  Cs  Cs9  1  0.32964172  0.00374389  -0.00069789  1
  Cs  Cs10  1  0.33334772  -0.00279093  0.33644791  1
  Cs  Cs11  1  0.33206912  0.00436096  0.66650412  1
  Cs  Cs12  1  0.33266086  0.33334223  -0.00174350  1
  Cs  Cs13  1  0.33690496  0.33052191  0.33195046  1
  Cs  Cs14  1  0.33181679  0.33519211  0.66980304  1
  Cs  Cs15  1  0.33311804  0.66335333  -0.00003543  1
  Cs  Cs16  1  0.33728510  0.67050756  0.33225965  1
  Cs  Cs17  1  0.33361136  0.66060990  0.66808476  1
  Cs  Cs18  1  0.66784362  -0.00012600  -0.00206629  1
  Cs  Cs19  1  0.66518379  -0.00187325  0.33330361  1
  Cs  Cs20  1  0.66419602  -0.00425108  0.66748339  1
  Cs  Cs21  1  0.66863752  0.33286749  0.00233791  1
  Cs  Cs22  1  0.66738224  0.33398052  0.33352506  1
  Cs  Cs23  1  0.66737846  0.33050203  0.66281180  1
  Cs  Cs24  1  0.66848152  0.66738821  -0.00014027  1
  Cs  Cs25  1  0.66576229  0.66665022  0.33291163  1
  Cs  Cs26  1  0.66496471  0.67177827  0.66550767  1
  Sn  Sn27  1  0.50024393  0.50058264  0.49914307  1
  Sn  Sn28  1  0.83395283  0.16782932  0.83399570  1
  Sn  Sn29  1  0.83349276  0.49995792  0.16619913  1
  Sn  Sn30  1  0.16647067  0.49916304  0.16679233  1
  Sn  Sn31  1  0.50071615  0.83289549  0.16659896  1
  Sn  Sn32  1  0.83268547  0.83346047  0.16743434  1
  Sn  Sn33  1  0.83328723  0.83341819  0.49918661  1
  Sn  Sn34  1  0.16568546  0.16759118  0.16643496  1
  Sn  Sn35  1  0.83415556  0.16654371  0.16627981  1
  Sn  Sn36  1  0.50072301  0.83230146  0.49921924  1
  Sn  Sn37  1  0.83305597  0.49910312  0.83371515  1
  Sn  Sn38  1  0.16671494  0.83337436  0.83361312  1
  Sn  Sn39  1  0.50014191  0.50078046  0.16713029  1
  Sn  Sn40  1  0.16532079  0.16616902  0.83435946  1
  Pb  Pb41  1  0.50046037  0.16681246  0.83353057  1
  Pb  Pb42  1  0.50016699  0.16644147  0.16656517  1
  Pb  Pb43  1  0.16419063  0.49924096  0.83546765  1
  Pb  Pb44  1  0.16677686  0.83354310  0.16525474  1
  Pb  Pb45  1  0.83331907  0.16379149  0.49985361  1
  Pb  Pb46  1  0.50013002  0.16644712  0.49987423  1
  Pb  Pb47  1  0.83486028  0.83337990  0.83357819  1
  Pb  Pb48  1  0.49713771  0.83329365  0.83377312  1
  Pb  Pb49  1  0.16644006  0.16689741  0.49962113  1
  Pb  Pb50  1  0.50315384  0.49992008  0.83386268  1
  Pb  Pb51  1  0.83148748  0.50220829  0.49966890  1
  Pb  Pb52  1  0.16714201  0.83324297  0.50287127  1
  Pb  Pb53  1  0.16968215  0.50007919  0.49637768  1
  I  I54  1  0.16337658  0.00256059  0.16363402  1
  I  I55  1  0.16953725  -0.00016185  0.49544660  1
  I  I56  1  0.16122671  0.00147878  0.83931765  1
  I  I57  1  0.16487879  0.33313025  0.16073960  1
  I  I58  1  0.16869782  0.33364311  0.50504916  1
  I  I59  1  0.16524318  0.33027753  0.83630343  1
  I  I60  1  0.16439899  0.66436590  0.16442536  1
  I  I61  1  0.16343377  0.66668146  0.50211308  1
  I  I62  1  0.16532951  0.66810021  0.83463539  1
  I  I63  1  0.50295705  -0.00328342  0.17129189  1
  I  I64  1  0.50355252  -0.00395682  0.49514109  1
  I  I65  1  0.50429223  -0.00022601  0.83283442  1
  I  I66  1  0.50216823  0.33657879  0.17075446  1
  I  I67  1  0.49982233  0.33674535  0.49450456  1
  I  I68  1  0.49495039  0.33362000  0.83255042  1
  I  I69  1  0.50235868  0.66637443  0.17054197  1
  I  I70  1  0.50417606  0.66743605  0.49460774  1
  I  I71  1  0.49898513  0.66662979  0.83364490  1
  I  I72  1  0.83331674  -0.00010162  0.16604154  1
  I  I73  1  0.82624239  -0.00412174  0.49623156  1
  I  I74  1  0.83608781  0.00259196  0.83674461  1
  I  I75  1  0.83332027  0.33369783  0.16160277  1
  I  I76  1  0.83135027  0.33350381  0.49857564  1
  I  I77  1  0.83783698  0.33278259  0.84229971  1
  I  I78  1  0.83303372  0.66630433  0.16568015  1
  I  I79  1  0.83141193  0.67005651  0.49677916  1
  I  I80  1  0.83482723  0.66466123  0.83769412  1
  I  I81  1  0.16259858  0.16572720  0.00058744  1
  I  I82  1  0.16232640  0.17047462  0.32929269  1
  I  I83  1  0.16271858  0.16124951  0.67030337  1
  I  I84  1  0.17195909  0.49963277  0.00371235  1
  I  I85  1  0.15954463  0.49528182  0.32807733  1
  I  I86  1  0.16680586  0.49995731  0.66681116  1
  I  I87  1  0.16558332  0.83526638  -0.00228703  1
  I  I88  1  0.16655638  0.83382206  0.33310458  1
  I  I89  1  0.16512196  0.84059581  0.67061838  1
  I  I90  1  0.49956836  0.16578066  0.00044006  1
  I  I91  1  0.49917347  0.16684861  0.33283928  1
  I  I92  1  0.49985791  0.16614131  0.66665605  1
  I  I93  1  0.49830048  0.50467038  0.00390708  1
  I  I94  1  0.50149587  0.50436294  0.33142202  1
  I  I95  1  0.50171284  0.50547496  0.66390412  1
  I  I96  1  0.50498432  0.82854417  0.00356789  1
  I  I97  1  0.50345630  0.82914204  0.33232188  1
  I  I98  1  0.50503064  0.82920395  0.66351456  1
  I  I99  1  0.83716099  0.16530598  0.00132278  1
  I  I100  1  0.83703730  0.17003516  0.32953365  1
  I  I101  1  0.83815502  0.17088669  0.67004564  1
  I  I102  1  0.83127351  0.50194726  0.00223008  1
  I  I103  1  0.83484388  0.49703007  0.32961266  1
  I  I104  1  0.83254536  0.49678811  0.66909694  1
  I  I105  1  0.83000602  0.83274888  0.00333040  1
  I  I106  1  0.83007077  0.83310035  0.33135430  1
  I  I107  1  0.82934739  0.83314923  0.66452808  1
  I  I108  1  -0.00088831  0.16880937  0.16225342  1
  I  I109  1  -0.00035276  0.16447035  0.49951543  1
  I  I110  1  -0.00041936  0.16512477  0.83918417  1
  I  I111  1  -0.00111951  0.50056696  0.16095504  1
  I  I112  1  -0.00025384  0.50163725  0.50010590  1
  I  I113  1  -0.00362279  0.50036852  0.83936054  1
  I  I114  1  -0.00301641  0.83072008  0.16912286  1
  I  I115  1  -0.00280901  0.83423315  0.49486200  1
  I  I116  1  0.00238880  0.83528218  0.83482972  1
  I  I117  1  0.33027143  0.16982470  0.16183504  1
  I  I118  1  0.33328737  0.16380859  0.50002612  1
  I  I119  1  0.32964806  0.16186369  0.83764480  1
  I  I120  1  0.33376274  0.50073016  0.17086968  1
  I  I121  1  0.33774948  0.50784742  0.49626658  1
  I  I122  1  0.33318956  0.49986281  0.83357662  1
  I  I123  1  0.33600502  0.83003869  0.16987720  1
  I  I124  1  0.33689442  0.82994666  0.49448359  1
  I  I125  1  0.32949402  0.84011510  0.83457859  1
  I  I126  1  0.67020610  0.16857137  0.16242782  1
  I  I127  1  0.66697912  0.16835332  0.50058081  1
  I  I128  1  0.67078540  0.17030297  0.83876165  1
  I  I129  1  0.66730505  0.50023683  0.16653280  1
  I  I130  1  0.66363916  0.50201845  0.49403437  1
  I  I131  1  0.67100434  0.49529093  0.84039286  1
  I  I132  1  0.66756199  0.83064804  0.16965556  1
  I  I133  1  0.66637422  0.82987403  0.49666471  1
  I  I134  1  0.66682264  0.83395233  0.83273039  1
