# generated using pymatgen
data_Cs27Sn13Pb14I81
_symmetry_space_group_name_H-M   'P 1'
_cell_length_a   18.97072436
_cell_length_b   18.97774965
_cell_length_c   18.98172556
_cell_angle_alpha   90.00087999
_cell_angle_beta   90.00185483
_cell_angle_gamma   89.99889083
_symmetry_Int_Tables_number   1
_chemical_formula_structural   Cs27Sn13Pb14I81
_chemical_formula_sum   'Cs27 Sn13 Pb14 I81'
_cell_volume   6833.83229680
_cell_formula_units_Z   1
loop_
 _symmetry_equiv_pos_site_id
 _symmetry_equiv_pos_as_xyz
  1  'x, y, z'
loop_
 _atom_site_type_symbol
 _atom_site_label
 _atom_site_symmetry_multiplicity
 _atom_site_fract_x
 _atom_site_fract_y
 _atom_site_fract_z
 _atom_site_occupancy
  Cs  Cs0  1  -0.00258019  0.00051978  0.00049610  1
  Cs  Cs1  1  -0.00086056  -0.00179889  0.33244596  1
  Cs  Cs2  1  -0.00204809  0.00340193  0.66739185  1
  Cs  Cs3  1  0.00026040  0.33306653  -0.00164449  1
  Cs  Cs4  1  -0.00224091  0.33434157  0.33392430  1
  Cs  Cs5  1  0.00214162  0.33187799  0.66838390  1
  Cs  Cs6  1  0.00284010  0.66623527  -0.00006666  1
  Cs  Cs7  1  0.00004488  0.66736014  0.33358620  1
  Cs  Cs8  1  0.00026002  0.66574313  0.66599909  1
  Cs  Cs9  1  0.33274992  0.00090947  0.00411881  1
  Cs  Cs10  1  0.33691223  0.00175023  0.33345788  1
  Cs  Cs11  1  0.33448508  0.00341312  0.66260057  1
  Cs  Cs12  1  0.33649373  0.33311378  0.00035784  1
  Cs  Cs13  1  0.33899655  0.32747571  0.33270820  1
  Cs  Cs14  1  0.33184185  0.32946451  0.66522332  1
  Cs  Cs15  1  0.32960875  0.66636257  -0.00213380  1
  Cs  Cs16  1  0.32879192  0.67083743  0.33519544  1
  Cs  Cs17  1  0.33653015  0.66695903  0.66788875  1
  Cs  Cs18  1  0.66904249  -0.00024268  -0.00156052  1
  Cs  Cs19  1  0.66756008  0.00074186  0.33247872  1
  Cs  Cs20  1  0.66870673  -0.00512299  0.67011862  1
  Cs  Cs21  1  0.66127771  0.33431992  0.00338970  1
  Cs  Cs22  1  0.66401704  0.33842399  0.33177291  1
  Cs  Cs23  1  0.66535622  0.33871508  0.66568517  1
  Cs  Cs24  1  0.66337825  0.66567301  -0.00274596  1
  Cs  Cs25  1  0.66891808  0.66093521  0.33551239  1
  Cs  Cs26  1  0.65687972  0.66796789  0.66772297  1
  Sn  Sn27  1  0.50160786  0.83289248  0.16681575  1
  Sn  Sn28  1  0.83352618  0.16629619  0.49933483  1
  Sn  Sn29  1  0.16608354  0.83342832  0.83199527  1
  Sn  Sn30  1  0.16571929  0.16769695  0.16673713  1
  Sn  Sn31  1  0.16626233  0.50036298  0.50006339  1
  Sn  Sn32  1  0.50019423  0.16621453  0.83318565  1
  Sn  Sn33  1  0.83410054  0.16641139  0.16756972  1
  Sn  Sn34  1  0.83382881  0.50033670  0.83340688  1
  Sn  Sn35  1  0.83223969  0.83347445  0.16715243  1
  Sn  Sn36  1  0.83419379  0.83383103  0.49942898  1
  Sn  Sn37  1  0.16564958  0.83300089  0.50142363  1
  Sn  Sn38  1  0.16629002  0.49846641  0.16699727  1
  Sn  Sn39  1  0.16569532  0.50065489  0.83301237  1
  Pb  Pb40  1  0.50033087  0.83339449  0.49778368  1
  Pb  Pb41  1  0.49684610  0.83532944  0.83544851  1
  Pb  Pb42  1  0.83514452  0.83128502  0.83319652  1
  Pb  Pb43  1  0.49668356  0.50312473  0.16682334  1
  Pb  Pb44  1  0.16790536  0.16673184  0.83548070  1
  Pb  Pb45  1  0.49627616  0.50003284  0.49982245  1
  Pb  Pb46  1  0.83513604  0.50056697  0.50213938  1
  Pb  Pb47  1  0.49896847  0.49816670  0.83334848  1
  Pb  Pb48  1  0.16483233  0.16629763  0.49748522  1
  Pb  Pb49  1  0.50399565  0.16631080  0.50232817  1
  Pb  Pb50  1  0.83512835  0.50026148  0.16487263  1
  Pb  Pb51  1  0.16579834  0.83345069  0.16705679  1
  Pb  Pb52  1  0.50092096  0.16497879  0.16557898  1
  Pb  Pb53  1  0.83150731  0.16893761  0.83361509  1
  I  I54  1  0.16612490  0.00190655  0.16558383  1
  I  I55  1  0.16464643  -0.00306016  0.50308004  1
  I  I56  1  0.16834763  -0.00253783  0.83129827  1
  I  I57  1  0.16107512  0.33350826  0.16532693  1
  I  I58  1  0.16464915  0.33586772  0.50330144  1
  I  I59  1  0.16443355  0.33637905  0.83138327  1
  I  I60  1  0.16708809  0.66459794  0.16572568  1
  I  I61  1  0.16096613  0.66720858  0.49766166  1
  I  I62  1  0.16347244  0.66592641  0.83631044  1
  I  I63  1  0.49681907  -0.00269264  0.16514778  1
  I  I64  1  0.49277487  -0.00013044  0.50019247  1
  I  I65  1  0.49989638  0.00258270  0.83479183  1
  I  I66  1  0.50084055  0.33329788  0.16488990  1
  I  I67  1  0.49995623  0.33304481  0.49992356  1
  I  I68  1  0.49855563  0.33067428  0.83611356  1
  I  I69  1  0.50516113  0.67080655  0.16565932  1
  I  I70  1  0.50449874  0.66690503  0.50034463  1
  I  I71  1  0.50096088  0.66682839  0.83439338  1
  I  I72  1  0.83654204  -0.00002175  0.16915179  1
  I  I73  1  0.83975192  -0.00101096  0.49657479  1
  I  I74  1  0.83401380  -0.00009522  0.83359831  1
  I  I75  1  0.83673381  0.33057290  0.16924728  1
  I  I76  1  0.83488191  0.33103747  0.49705168  1
  I  I77  1  0.84091071  0.33646201  0.83288097  1
  I  I78  1  0.83221598  0.66971321  0.17033629  1
  I  I79  1  0.83701842  0.66986011  0.49499221  1
  I  I80  1  0.83714464  0.66361593  0.83449381  1
  I  I81  1  0.16165257  0.16853860  0.00343854  1
  I  I82  1  0.16589714  0.16940109  0.32955673  1
  I  I83  1  0.16668165  0.16864455  0.66647080  1
  I  I84  1  0.16302914  0.50158191  -0.00039012  1
  I  I85  1  0.16634377  0.50255295  0.33341013  1
  I  I86  1  0.16240525  0.50510824  0.66702522  1
  I  I87  1  0.16721672  0.82982355  -0.00154818  1
  I  I88  1  0.16554872  0.82962028  0.33569380  1
  I  I89  1  0.16188245  0.82566668  0.66590656  1
  I  I90  1  0.50039155  0.16615228  -0.00200684  1
  I  I91  1  0.49687141  0.16518403  0.33324909  1
  I  I92  1  0.49767155  0.16717928  0.66980130  1
  I  I93  1  0.49784447  0.49976693  0.00010002  1
  I  I94  1  0.50082994  0.49817791  0.33306434  1
  I  I95  1  0.50004358  0.49992186  0.66687056  1
  I  I96  1  0.50406993  0.83460205  0.00314561  1
  I  I97  1  0.49654684  0.83595190  0.32997776  1
  I  I98  1  0.50178548  0.83390862  0.66675815  1
  I  I99  1  0.83635257  0.16273466  0.00315478  1
  I  I100  1  0.83842841  0.16230216  0.33234522  1
  I  I101  1  0.83237790  0.16269876  0.66413251  1
  I  I102  1  0.84093973  0.49980899  -0.00275522  1
  I  I103  1  0.83544564  0.49982735  0.33342376  1
  I  I104  1  0.84052831  0.49829630  0.66967742  1
  I  I105  1  0.83250611  0.83726542  0.00277850  1
  I  I106  1  0.83653079  0.83709528  0.33320123  1
  I  I107  1  0.83742267  0.83759811  0.66379193  1
  I  I108  1  -0.00060912  0.16385387  0.16810496  1
  I  I109  1  -0.00304879  0.16503603  0.49924941  1
  I  I110  1  -0.00009872  0.16609187  0.83319522  1
  I  I111  1  0.00358822  0.50155798  0.16743398  1
  I  I112  1  0.00350166  0.50196592  0.49816420  1
  I  I113  1  0.00214888  0.50223223  0.83406807  1
  I  I114  1  -0.00257378  0.83466777  0.16776931  1
  I  I115  1  0.00019801  0.83289064  0.49670701  1
  I  I116  1  0.00334952  0.83195984  0.83544611  1
  I  I117  1  0.33097650  0.16852055  0.16425719  1
  I  I118  1  0.33315034  0.16726105  0.49902470  1
  I  I119  1  0.33540884  0.16758810  0.83669957  1
  I  I120  1  0.32814961  0.49572352  0.16326890  1
  I  I121  1  0.32755031  0.50650488  0.50297682  1
  I  I122  1  0.32923687  0.50351234  0.83400109  1
  I  I123  1  0.33428311  0.83305325  0.16520934  1
  I  I124  1  0.32988535  0.82796879  0.50169391  1
  I  I125  1  0.32880421  0.82651934  0.83095716  1
  I  I126  1  0.67017331  0.16360022  0.16831305  1
  I  I127  1  0.67188552  0.16057450  0.49325941  1
  I  I128  1  0.66424442  0.16794074  0.83567798  1
  I  I129  1  0.66684058  0.49744057  0.16353966  1
  I  I130  1  0.66712382  0.50018832  0.50288936  1
  I  I131  1  0.66901121  0.49812974  0.83375715  1
  I  I132  1  0.66874508  0.84037704  0.17054755  1
  I  I133  1  0.67035595  0.83823216  0.49814617  1
  I  I134  1  0.66676568  0.83157143  0.83150340  1
