# generated using pymatgen
data_Cs27Sn13Pb14I81
_symmetry_space_group_name_H-M   'P 1'
_cell_length_a   18.97780033
_cell_length_b   18.98595859
_cell_length_c   18.96866451
_cell_angle_alpha   90.00083893
_cell_angle_beta   89.99644219
_cell_angle_gamma   90.00028638
_symmetry_Int_Tables_number   1
_chemical_formula_structural   Cs27Sn13Pb14I81
_chemical_formula_sum   'Cs27 Sn13 Pb14 I81'
_cell_volume   6834.63233742
_cell_formula_units_Z   1
loop_
 _symmetry_equiv_pos_site_id
 _symmetry_equiv_pos_as_xyz
  1  'x, y, z'
loop_
 _atom_site_type_symbol
 _atom_site_label
 _atom_site_symmetry_multiplicity
 _atom_site_fract_x
 _atom_site_fract_y
 _atom_site_fract_z
 _atom_site_occupancy
  Cs  Cs0  1  0.00019104  -0.00137629  0.00079041  1
  Cs  Cs1  1  -0.00262978  -0.00133752  0.33202332  1
  Cs  Cs2  1  0.00156938  0.00470889  0.66651187  1
  Cs  Cs3  1  0.00267511  0.33437781  -0.00168667  1
  Cs  Cs4  1  -0.00175081  0.33443939  0.33417706  1
  Cs  Cs5  1  0.00123597  0.33149995  0.66720993  1
  Cs  Cs6  1  -0.00186339  0.66654592  0.00009293  1
  Cs  Cs7  1  0.00149648  0.66584968  0.33272913  1
  Cs  Cs8  1  -0.00191558  0.66538253  0.66673385  1
  Cs  Cs9  1  0.33224178  0.00086713  -0.00017749  1
  Cs  Cs10  1  0.33226700  -0.00587131  0.33208067  1
  Cs  Cs11  1  0.33363294  0.00215580  0.66708355  1
  Cs  Cs12  1  0.33136904  0.33310441  0.00049461  1
  Cs  Cs13  1  0.33400555  0.33543690  0.33175398  1
  Cs  Cs14  1  0.33183245  0.33091490  0.66648786  1
  Cs  Cs15  1  0.33818536  0.66734751  0.00137447  1
  Cs  Cs16  1  0.33160723  0.66911791  0.33409759  1
  Cs  Cs17  1  0.33408724  0.66772991  0.66440002  1
  Cs  Cs18  1  0.66865905  -0.00520083  0.00714672  1
  Cs  Cs19  1  0.66963046  0.00198746  0.32959901  1
  Cs  Cs20  1  0.66491742  -0.00138293  0.66564398  1
  Cs  Cs21  1  0.66372298  0.33550268  0.00236532  1
  Cs  Cs22  1  0.66762849  0.33296164  0.33155880  1
  Cs  Cs23  1  0.66675948  0.33414818  0.66658086  1
  Cs  Cs24  1  0.66194707  0.67137314  -0.00663051  1
  Cs  Cs25  1  0.66664123  0.66467243  0.33668795  1
  Cs  Cs26  1  0.66734004  0.66733637  0.66776602  1
  Sn  Sn27  1  0.16579974  0.49911080  0.16573928  1
  Sn  Sn28  1  0.50073962  0.49970373  0.50025293  1
  Sn  Sn29  1  0.16656850  0.83310042  0.83307304  1
  Sn  Sn30  1  0.16680870  0.50041280  0.83400980  1
  Sn  Sn31  1  0.16669347  0.16676288  0.83407663  1
  Sn  Sn32  1  0.49989562  0.16669180  0.50020628  1
  Sn  Sn33  1  0.50101118  0.83360093  0.50029533  1
  Sn  Sn34  1  0.83273153  0.16673030  0.83376337  1
  Sn  Sn35  1  0.83302631  0.83294588  0.50027636  1
  Sn  Sn36  1  0.16656065  0.16738291  0.16636746  1
  Sn  Sn37  1  0.50067674  0.16671280  0.83321919  1
  Sn  Sn38  1  0.83268574  0.50043855  0.49955686  1
  Sn  Sn39  1  0.83356292  0.50019243  0.16655975  1
  Pb  Pb40  1  0.49989253  0.50008527  0.16876295  1
  Pb  Pb41  1  0.49764445  0.16665973  0.16652800  1
  Pb  Pb42  1  0.83567248  0.16902363  0.16404520  1
  Pb  Pb43  1  0.50020723  0.83328254  0.16948258  1
  Pb  Pb44  1  0.16606191  0.83341124  0.50211143  1
  Pb  Pb45  1  0.83116216  0.16699922  0.50144906  1
  Pb  Pb46  1  0.83519967  0.83570797  0.83102712  1
  Pb  Pb47  1  0.83484541  0.49849018  0.83324643  1
  Pb  Pb48  1  0.16621255  0.49987477  0.49965117  1
  Pb  Pb49  1  0.49817983  0.83592242  0.83132053  1
  Pb  Pb50  1  0.16651790  0.83274205  0.16406308  1
  Pb  Pb51  1  0.49748832  0.49795816  0.83100110  1
  Pb  Pb52  1  0.83342947  0.83017528  0.16904738  1
  Pb  Pb53  1  0.16885642  0.16660514  0.49933603  1
  I  I54  1  0.16867516  0.00278714  0.16253879  1
  I  I55  1  0.16669995  0.00007604  0.50071865  1
  I  I56  1  0.16734689  0.00177158  0.83532159  1
  I  I57  1  0.16417437  0.33386190  0.15828728  1
  I  I58  1  0.16721853  0.33337203  0.50498558  1
  I  I59  1  0.16698175  0.33251675  0.83684615  1
  I  I60  1  0.16318513  0.66301134  0.16374048  1
  I  I61  1  0.17175923  0.66647610  0.50131371  1
  I  I62  1  0.16557455  0.66577989  0.83533059  1
  I  I63  1  0.49707935  0.00028979  0.16897485  1
  I  I64  1  0.50204969  0.00016005  0.50547781  1
  I  I65  1  0.49607538  0.00401038  0.82618835  1
  I  I66  1  0.50093474  0.33335745  0.17036001  1
  I  I67  1  0.50251236  0.33334837  0.50406646  1
  I  I68  1  0.49707009  0.32983841  0.82675937  1
  I  I69  1  0.49590557  0.66636015  0.16796166  1
  I  I70  1  0.50341495  0.66647600  0.49871532  1
  I  I71  1  0.49732101  0.66670129  0.83177715  1
  I  I72  1  0.83502952  0.00016677  0.16798846  1
  I  I73  1  0.82999564  -0.00217257  0.50352895  1
  I  I74  1  0.83652573  0.00376474  0.83007419  1
  I  I75  1  0.83562904  0.33667864  0.17459784  1
  I  I76  1  0.82988990  0.33625638  0.49769914  1
  I  I77  1  0.83678412  0.33046491  0.82995785  1
  I  I78  1  0.84201555  0.66214645  0.16846857  1
  I  I79  1  0.82604237  0.66565138  0.49762824  1
  I  I80  1  0.83688450  0.66659409  0.83395479  1
  I  I81  1  0.16890146  0.16787247  -0.00186954  1
  I  I82  1  0.16842966  0.17294212  0.33013489  1
  I  I83  1  0.16563054  0.16789769  0.67013399  1
  I  I84  1  0.16088289  0.49776923  -0.00015093  1
  I  I85  1  0.16624753  0.49456157  0.33038347  1
  I  I86  1  0.16711064  0.49763796  0.66950160  1
  I  I87  1  0.16636176  0.83532572  -0.00399566  1
  I  I88  1  0.16809209  0.83358865  0.33332152  1
  I  I89  1  0.16732441  0.83474973  0.67015437  1
  I  I90  1  0.49923849  0.16796548  -0.00331476  1
  I  I91  1  0.49852691  0.16674748  0.33663325  1
  I  I92  1  0.49646902  0.16707986  0.66676856  1
  I  I93  1  0.50196089  0.49762804  -0.00024466  1
  I  I94  1  0.49855475  0.49740394  0.33751207  1
  I  I95  1  0.50435836  0.50156959  0.66269402  1
  I  I96  1  0.49852756  0.83443664  -0.00054433  1
  I  I97  1  0.50121830  0.83613600  0.33853670  1
  I  I98  1  0.50257723  0.83116559  0.66299351  1
  I  I99  1  0.82993894  0.16835009  -0.00410023  1
  I  I100  1  0.83400221  0.16486716  0.33323035  1
  I  I101  1  0.83989574  0.16896456  0.66949692  1
  I  I102  1  0.83844265  0.49578396  0.00238772  1
  I  I103  1  0.83615491  0.50264215  0.33433571  1
  I  I104  1  0.83098430  0.50232130  0.66371507  1
  I  I105  1  0.83504958  0.83321871  -0.00026243  1
  I  I106  1  0.83009131  0.83408720  0.33752292  1
  I  I107  1  0.82957924  0.82604523  0.66304433  1
  I  I108  1  0.00377885  0.16861879  0.16118032  1
  I  I109  1  -0.00016199  0.16683005  0.50235090  1
  I  I110  1  0.00149651  0.16689381  0.83634214  1
  I  I111  1  0.00084964  0.49582512  0.16973842  1
  I  I112  1  -0.00297424  0.50491410  0.49939523  1
  I  I113  1  0.00334008  0.49632254  0.83138473  1
  I  I114  1  0.00011304  0.83584707  0.17048781  1
  I  I115  1  -0.00312744  0.82728989  0.50145168  1
  I  I116  1  0.00333121  0.83604881  0.83042100  1
  I  I117  1  0.32952065  0.17372288  0.16119281  1
  I  I118  1  0.33715056  0.16723899  0.50622576  1
  I  I119  1  0.33238009  0.16686196  0.83185149  1
  I  I120  1  0.32993972  0.49548103  0.16384939  1
  I  I121  1  0.33602197  0.50030042  0.50121777  1
  I  I122  1  0.32915392  0.49732180  0.83719537  1
  I  I123  1  0.33299086  0.83155440  0.17006047  1
  I  I124  1  0.33633855  0.83268603  0.50150504  1
  I  I125  1  0.33007691  0.83518651  0.83056630  1
  I  I126  1  0.66683295  0.16802156  0.16552951  1
  I  I127  1  0.66307038  0.16716949  0.50646551  1
  I  I128  1  0.66599834  0.16830001  0.82528078  1
  I  I129  1  0.66959606  0.49904679  0.17113758  1
  I  I130  1  0.66704394  0.50012946  0.49504586  1
  I  I131  1  0.66653373  0.49716243  0.83531828  1
  I  I132  1  0.66700846  0.83316004  0.16305697  1
  I  I133  1  0.66615324  0.83185466  0.50139959  1
  I  I134  1  0.66660325  0.83469229  0.83370539  1
