# generated using pymatgen
data_Cs27Sn13Pb14I81
_symmetry_space_group_name_H-M   'P 1'
_cell_length_a   18.97292555
_cell_length_b   18.98127325
_cell_length_c   18.97638922
_cell_angle_alpha   90.00016251
_cell_angle_beta   89.99796813
_cell_angle_gamma   89.99894688
_symmetry_Int_Tables_number   1
_chemical_formula_structural   Cs27Sn13Pb14I81
_chemical_formula_sum   'Cs27 Sn13 Pb14 I81'
_cell_volume   6833.97243575
_cell_formula_units_Z   1
loop_
 _symmetry_equiv_pos_site_id
 _symmetry_equiv_pos_as_xyz
  1  'x, y, z'
loop_
 _atom_site_type_symbol
 _atom_site_label
 _atom_site_symmetry_multiplicity
 _atom_site_fract_x
 _atom_site_fract_y
 _atom_site_fract_z
 _atom_site_occupancy
  Cs  Cs0  1  -0.00199925  0.00055284  -0.00413612  1
  Cs  Cs1  1  -0.00049829  -0.00040042  0.33203977  1
  Cs  Cs2  1  0.00743924  0.00329902  0.67787736  1
  Cs  Cs3  1  -0.00071008  0.33083902  0.00317314  1
  Cs  Cs4  1  -0.00241101  0.33444081  0.33099551  1
  Cs  Cs5  1  0.00838183  0.32898867  0.66838660  1
  Cs  Cs6  1  -0.00178487  0.66804901  0.00068159  1
  Cs  Cs7  1  -0.00126643  0.66581007  0.33335214  1
  Cs  Cs8  1  0.00341250  0.66867314  0.66664398  1
  Cs  Cs9  1  0.33583200  0.00079847  0.00230267  1
  Cs  Cs10  1  0.33390861  0.00011126  0.33301529  1
  Cs  Cs11  1  0.33127368  0.00066064  0.66515261  1
  Cs  Cs12  1  0.33532179  0.33481871  -0.00118514  1
  Cs  Cs13  1  0.33218089  0.33043616  0.33377343  1
  Cs  Cs14  1  0.32675276  0.33348869  0.66766913  1
  Cs  Cs15  1  0.33817401  0.66276164  0.00099144  1
  Cs  Cs16  1  0.33385315  0.66865959  0.33191921  1
  Cs  Cs17  1  0.32751330  0.66538622  0.66683369  1
  Cs  Cs18  1  0.66607995  0.00020318  -0.00242949  1
  Cs  Cs19  1  0.66675503  -0.00038182  0.33584153  1
  Cs  Cs20  1  0.66557674  -0.00014294  0.66750709  1
  Cs  Cs21  1  0.66593392  0.33464025  -0.00073962  1
  Cs  Cs22  1  0.66961770  0.33298889  0.33726653  1
  Cs  Cs23  1  0.66601728  0.33406568  0.66171711  1
  Cs  Cs24  1  0.66474858  0.66570052  -0.00022560  1
  Cs  Cs25  1  0.66716531  0.66713127  0.33440649  1
  Cs  Cs26  1  0.66770194  0.66737476  0.66443591  1
  Sn  Sn27  1  0.83374873  0.50103036  0.16646213  1
  Sn  Sn28  1  0.50011194  0.83348796  0.83213296  1
  Sn  Sn29  1  0.83381642  0.83266149  0.16723208  1
  Sn  Sn30  1  0.16753827  0.16646538  0.16669679  1
  Sn  Sn31  1  0.83319865  0.83312998  0.49987775  1
  Sn  Sn32  1  0.83295669  0.50085664  0.50062129  1
  Sn  Sn33  1  0.50043464  0.16633676  0.83379311  1
  Sn  Sn34  1  0.49997423  0.16674871  0.16625257  1
  Sn  Sn35  1  0.50055239  0.83222939  0.50109543  1
  Sn  Sn36  1  0.16584177  0.83318718  0.16668669  1
  Sn  Sn37  1  0.83338642  0.49987287  0.83278616  1
  Sn  Sn38  1  0.16621584  0.50037297  0.16681028  1
  Sn  Sn39  1  0.50004585  0.50096051  0.49985799  1
  Pb  Pb40  1  0.16592910  0.50013881  0.49764681  1
  Pb  Pb41  1  0.50076314  0.83486483  0.16713093  1
  Pb  Pb42  1  0.50071947  0.49771290  0.16897072  1
  Pb  Pb43  1  0.16988641  0.83301585  0.83662540  1
  Pb  Pb44  1  0.49999378  0.16641771  0.50032290  1
  Pb  Pb45  1  0.50164033  0.49995000  0.83054898  1
  Pb  Pb46  1  0.83370196  0.16580520  0.50037004  1
  Pb  Pb47  1  0.16636049  0.16639190  0.49738080  1
  Pb  Pb48  1  0.83314941  0.16621182  0.16671931  1
  Pb  Pb49  1  0.16366371  0.50023002  0.83638019  1
  Pb  Pb50  1  0.83155459  0.83165866  0.83301061  1
  Pb  Pb51  1  0.83073231  0.16946755  0.83316444  1
  Pb  Pb52  1  0.16604191  0.83341248  0.49806251  1
  Pb  Pb53  1  0.16955272  0.16670296  0.83630569  1
  I  I54  1  0.16750904  -0.00024156  0.16783257  1
  I  I55  1  0.16791681  -0.00037822  0.49558496  1
  I  I56  1  0.16337600  -0.00012488  0.83578836  1
  I  I57  1  0.16603939  0.33367862  0.16707183  1
  I  I58  1  0.16789772  0.33362952  0.49711219  1
  I  I59  1  0.16862428  0.33345693  0.83525522  1
  I  I60  1  0.16153180  0.66667055  0.16742742  1
  I  I61  1  0.16903811  0.66670167  0.49651292  1
  I  I62  1  0.17047503  0.66663661  0.83625865  1
  I  I63  1  0.49614792  0.00266633  0.16722941  1
  I  I64  1  0.50468264  -0.00328260  0.49975843  1
  I  I65  1  0.50130169  -0.00037442  0.83285829  1
  I  I66  1  0.49620539  0.33003633  0.16232594  1
  I  I67  1  0.50556218  0.33610218  0.49787363  1
  I  I68  1  0.50205894  0.33102769  0.83782365  1
  I  I69  1  0.49673221  0.66661496  0.16391060  1
  I  I70  1  0.50483906  0.66748307  0.50344258  1
  I  I71  1  0.50180268  0.66915376  0.83284742  1
  I  I72  1  0.83548214  -0.00341828  0.17165628  1
  I  I73  1  0.82654710  -0.00435450  0.49141308  1
  I  I74  1  0.83339579  -0.00024930  0.83447950  1
  I  I75  1  0.83586038  0.33657040  0.16779339  1
  I  I76  1  0.82743803  0.33724568  0.49683823  1
  I  I77  1  0.83084027  0.33770598  0.83564375  1
  I  I78  1  0.84021594  0.66619286  0.16757024  1
  I  I79  1  0.82761269  0.66622422  0.49709015  1
  I  I80  1  0.82942706  0.66372722  0.83549053  1
  I  I81  1  0.16810359  0.16708671  0.00451522  1
  I  I82  1  0.17430483  0.16693883  0.32839674  1
  I  I83  1  0.16743727  0.16730557  0.66730021  1
  I  I84  1  0.16329714  0.49983754  0.00488223  1
  I  I85  1  0.16170399  0.49958151  0.32924493  1
  I  I86  1  0.16672150  0.49868964  0.66664790  1
  I  I87  1  0.16098347  0.83381927  0.00498984  1
  I  I88  1  0.16829367  0.83317682  0.32936053  1
  I  I89  1  0.16436463  0.83396521  0.66685533  1
  I  I90  1  0.49647421  0.16151002  0.00043885  1
  I  I91  1  0.49531312  0.16658385  0.33074067  1
  I  I92  1  0.50310971  0.16537257  0.66934565  1
  I  I93  1  0.50084302  0.50148517  0.00014044  1
  I  I94  1  0.50504335  0.50492821  0.33654397  1
  I  I95  1  0.50687656  0.49926438  0.66280202  1
  I  I96  1  0.49961901  0.83656196  -0.00157663  1
  I  I97  1  0.50085164  0.83109732  0.33583594  1
  I  I98  1  0.50702427  0.83569506  0.66573553  1
  I  I99  1  0.83401865  0.16723786  0.00027046  1
  I  I100  1  0.83089224  0.17097832  0.33307805  1
  I  I101  1  0.82962851  0.16696274  0.66677063  1
  I  I102  1  0.83743384  0.50313204  0.00158006  1
  I  I103  1  0.83346681  0.50337169  0.33293277  1
  I  I104  1  0.82507358  0.50384653  0.66533118  1
  I  I105  1  0.83548596  0.82933249  0.00290028  1
  I  I106  1  0.83087476  0.82608873  0.33282752  1
  I  I107  1  0.82826143  0.82771558  0.66355510  1
  I  I108  1  0.00275024  0.16772210  0.16833000  1
  I  I109  1  -0.00008104  0.16847106  0.49703954  1
  I  I110  1  0.00020814  0.16722523  0.83396423  1
  I  I111  1  -0.00102767  0.49803095  0.16855179  1
  I  I112  1  -0.00396564  0.50492169  0.50017843  1
  I  I113  1  -0.00445893  0.50153482  0.82826511  1
  I  I114  1  -0.00088051  0.83388579  0.17238779  1
  I  I115  1  -0.00377253  0.82671183  0.49525941  1
  I  I116  1  -0.00010966  0.83243090  0.83136553  1
  I  I117  1  0.33310173  0.16629363  0.16327841  1
  I  I118  1  0.33373237  0.16746281  0.50037488  1
  I  I119  1  0.33747019  0.16410955  0.83529026  1
  I  I120  1  0.33108318  0.50206610  0.16864389  1
  I  I121  1  0.33601611  0.50334330  0.49814790  1
  I  I122  1  0.33350415  0.49935426  0.83373150  1
  I  I123  1  0.33126829  0.83184489  0.16629129  1
  I  I124  1  0.33653346  0.83001979  0.50168156  1
  I  I125  1  0.33798122  0.83669843  0.82849188  1
  I  I126  1  0.66393848  0.16658986  0.16336325  1
  I  I127  1  0.66646609  0.16810230  0.49557418  1
  I  I128  1  0.66277091  0.16243470  0.84146587  1
  I  I129  1  0.67000927  0.50358708  0.16556081  1
  I  I130  1  0.66768930  0.50310057  0.49682789  1
  I  I131  1  0.66949258  0.49999912  0.83997405  1
  I  I132  1  0.66953784  0.82933124  0.16753845  1
  I  I133  1  0.66667410  0.82918002  0.49646822  1
  I  I134  1  0.66352577  0.83660731  0.83540843  1
