# generated using pymatgen
data_Cs27Sn14Pb13I81
_symmetry_space_group_name_H-M   'P 1'
_cell_length_a   18.96163091
_cell_length_b   18.96149304
_cell_length_c   18.96071997
_cell_angle_alpha   90.00041255
_cell_angle_beta   90.00144313
_cell_angle_gamma   90.00065473
_symmetry_Int_Tables_number   1
_chemical_formula_structural   Cs27Sn14Pb13I81
_chemical_formula_sum   'Cs27 Sn14 Pb13 I81'
_cell_volume   6817.15303995
_cell_formula_units_Z   1
loop_
 _symmetry_equiv_pos_site_id
 _symmetry_equiv_pos_as_xyz
  1  'x, y, z'
loop_
 _atom_site_type_symbol
 _atom_site_label
 _atom_site_symmetry_multiplicity
 _atom_site_fract_x
 _atom_site_fract_y
 _atom_site_fract_z
 _atom_site_occupancy
  Cs  Cs0  1  -0.00039679  0.00036215  0.00207018  1
  Cs  Cs1  1  -0.00145662  -0.00041026  0.33223067  1
  Cs  Cs2  1  0.00235065  -0.00078053  0.66599731  1
  Cs  Cs3  1  0.00053184  0.33152945  -0.00305634  1
  Cs  Cs4  1  0.00147913  0.33577062  0.33385019  1
  Cs  Cs5  1  -0.00117455  0.33584439  0.66850702  1
  Cs  Cs6  1  -0.00062750  0.66837196  0.00344636  1
  Cs  Cs7  1  -0.00030287  0.66499245  0.33256401  1
  Cs  Cs8  1  0.00086093  0.66460502  0.66534713  1
  Cs  Cs9  1  0.33244034  -0.00075507  -0.00334331  1
  Cs  Cs10  1  0.33395078  0.00050190  0.33522809  1
  Cs  Cs11  1  0.33215018  -0.00125034  0.66741085  1
  Cs  Cs12  1  0.33642349  0.33690140  0.00142111  1
  Cs  Cs13  1  0.33372672  0.33562861  0.33149504  1
  Cs  Cs14  1  0.33257470  0.33056787  0.66670973  1
  Cs  Cs15  1  0.33591932  0.66414853  -0.00147457  1
  Cs  Cs16  1  0.33232412  0.66394551  0.33303310  1
  Cs  Cs17  1  0.33153696  0.67091047  0.66839182  1
  Cs  Cs18  1  0.66743642  0.00463813  0.00011597  1
  Cs  Cs19  1  0.66773950  -0.00128303  0.33404165  1
  Cs  Cs20  1  0.66521879  0.00003855  0.66354926  1
  Cs  Cs21  1  0.66173750  0.32875242  -0.00577930  1
  Cs  Cs22  1  0.66407624  0.33125179  0.33359931  1
  Cs  Cs23  1  0.66914682  0.33712289  0.67040146  1
  Cs  Cs24  1  0.66674197  0.66643531  -0.00073239  1
  Cs  Cs25  1  0.66849296  0.66970739  0.33354466  1
  Cs  Cs26  1  0.66747965  0.66397955  0.66768460  1
  Sn  Sn27  1  0.50006707  0.83357342  0.16723346  1
  Sn  Sn28  1  0.16655987  0.16744248  0.83342102  1
  Sn  Sn29  1  0.49994391  0.50045366  0.49994295  1
  Sn  Sn30  1  0.16660852  0.49975457  0.83337242  1
  Sn  Sn31  1  0.50016176  0.16687020  0.49988347  1
  Sn  Sn32  1  0.16670182  0.16608805  0.16684993  1
  Sn  Sn33  1  0.83353157  0.16627753  0.49987636  1
  Sn  Sn34  1  0.16706812  0.83387209  0.16700484  1
  Sn  Sn35  1  0.16637633  0.16642583  0.49974192  1
  Sn  Sn36  1  0.83295072  0.83384655  0.50028091  1
  Sn  Sn37  1  0.83298369  0.83267279  0.16651675  1
  Sn  Sn38  1  0.50056473  0.83299400  0.49911070  1
  Sn  Sn39  1  0.83283478  0.49967257  0.16646572  1
  Sn  Sn40  1  0.83329815  0.83355198  0.83315949  1
  Pb  Pb41  1  0.83160572  0.50013864  0.49837855  1
  Pb  Pb42  1  0.50264972  0.83347100  0.83321743  1
  Pb  Pb43  1  0.83498987  0.50205730  0.83595200  1
  Pb  Pb44  1  0.83487474  0.16658607  0.16842171  1
  Pb  Pb45  1  0.16473592  0.83359673  0.83583833  1
  Pb  Pb46  1  0.16879101  0.49741452  0.50178690  1
  Pb  Pb47  1  0.49763688  0.16648489  0.83077149  1
  Pb  Pb48  1  0.49777671  0.50016022  0.83089561  1
  Pb  Pb49  1  0.49756393  0.16439053  0.16858553  1
  Pb  Pb50  1  0.16518268  0.49985746  0.16497829  1
  Pb  Pb51  1  0.16655013  0.83485898  0.49793523  1
  Pb  Pb52  1  0.83537061  0.16454179  0.83070309  1
  Pb  Pb53  1  0.50268961  0.50221009  0.16840824  1
  I  I54  1  0.16404612  -0.00027553  0.16566075  1
  I  I55  1  0.17018424  0.00331298  0.50428834  1
  I  I56  1  0.16550966  0.00279037  0.83112893  1
  I  I57  1  0.16400195  0.33037403  0.16930296  1
  I  I58  1  0.16587591  0.32877075  0.49507061  1
  I  I59  1  0.16570820  0.33186581  0.83372165  1
  I  I60  1  0.16694443  0.66963647  0.16500296  1
  I  I61  1  0.16687413  0.66668552  0.50065640  1
  I  I62  1  0.16513798  0.66479897  0.83497061  1
  I  I63  1  0.50516969  -0.00401966  0.17254878  1
  I  I64  1  0.50080849  -0.00041521  0.49639054  1
  I  I65  1  0.49681797  -0.00015501  0.83099167  1
  I  I66  1  0.49941636  0.33320698  0.16946472  1
  I  I67  1  0.49864859  0.33222379  0.50093022  1
  I  I68  1  0.50224104  0.33323218  0.83165914  1
  I  I69  1  0.49540867  0.67075788  0.17287182  1
  I  I70  1  0.50527666  0.66829129  0.49622515  1
  I  I71  1  0.49604055  0.66698541  0.83022782  1
  I  I72  1  0.83276266  -0.00344791  0.16624679  1
  I  I73  1  0.82989285  -0.00102605  0.49783644  1
  I  I74  1  0.83582631  -0.00346570  0.83848206  1
  I  I75  1  0.83766283  0.33525111  0.17052698  1
  I  I76  1  0.83348478  0.33053225  0.49744646  1
  I  I77  1  0.83368812  0.33313462  0.83309719  1
  I  I78  1  0.83623513  0.66953650  0.16922298  1
  I  I79  1  0.82885773  0.67013843  0.50066265  1
  I  I80  1  0.83639485  0.67020476  0.82852257  1
  I  I81  1  0.16462047  0.16532891  0.00044141  1
  I  I82  1  0.16670141  0.16093803  0.33379735  1
  I  I83  1  0.16723639  0.17063508  0.66587983  1
  I  I84  1  0.16522580  0.49485623  -0.00268859  1
  I  I85  1  0.16664996  0.49916573  0.33327526  1
  I  I86  1  0.16613402  0.49585150  0.66962796  1
  I  I87  1  0.16584399  0.83858785  0.00399290  1
  I  I88  1  0.16257199  0.83806183  0.32976219  1
  I  I89  1  0.16634358  0.83422561  0.66662767  1
  I  I90  1  0.49862999  0.16517706  0.00021398  1
  I  I91  1  0.49769047  0.16745056  0.33732879  1
  I  I92  1  0.49783585  0.16255206  0.66181727  1
  I  I93  1  0.49962231  0.50209785  0.00019640  1
  I  I94  1  0.49863443  0.49754668  0.33661782  1
  I  I95  1  0.50130205  0.50214491  0.66245322  1
  I  I96  1  0.49987681  0.83268868  0.00330682  1
  I  I97  1  0.50446064  0.83437922  0.33430077  1
  I  I98  1  0.50352937  0.83418670  0.66278149  1
  I  I99  1  0.83678070  0.16497183  -0.00000465  1
  I  I100  1  0.83515921  0.16086702  0.33692890  1
  I  I101  1  0.83470805  0.16175988  0.66221509  1
  I  I102  1  0.83510033  0.50718126  0.00372197  1
  I  I103  1  0.83501997  0.50691075  0.33072506  1
  I  I104  1  0.83333002  0.50109466  0.66661358  1
  I  I105  1  0.83499366  0.82840154  0.00148578  1
  I  I106  1  0.83245768  0.83391600  0.33338059  1
  I  I107  1  0.82953074  0.83832197  0.66509678  1
  I  I108  1  0.00326456  0.16087034  0.16951968  1
  I  I109  1  0.00012700  0.16087964  0.49975356  1
  I  I110  1  0.00368170  0.16896418  0.83083434  1
  I  I111  1  -0.00254873  0.50722573  0.16813742  1
  I  I112  1  -0.00002777  0.49992361  0.50009967  1
  I  I113  1  0.00286942  0.49543161  0.83214192  1
  I  I114  1  -0.00075209  0.83372336  0.16668811  1
  I  I115  1  -0.00302578  0.83803452  0.49892218  1
  I  I116  1  -0.00309540  0.83411682  0.83225999  1
  I  I117  1  0.32914529  0.16198996  0.16895091  1
  I  I118  1  0.33325341  0.16599598  0.50034567  1
  I  I119  1  0.32904259  0.16808742  0.83136780  1
  I  I120  1  0.33349395  0.50123213  0.16648094  1
  I  I121  1  0.33681990  0.50197176  0.49946960  1
  I  I122  1  0.32971705  0.49653285  0.83470412  1
  I  I123  1  0.33333542  0.83847952  0.17180417  1
  I  I124  1  0.33618878  0.83431115  0.49588880  1
  I  I125  1  0.33303290  0.83339826  0.83308614  1
  I  I126  1  0.66657585  0.16607178  0.16895393  1
  I  I127  1  0.66662234  0.16414072  0.49860149  1
  I  I128  1  0.66694282  0.16572145  0.83253345  1
  I  I129  1  0.67042159  0.50677611  0.16840140  1
  I  I130  1  0.66366873  0.49641899  0.49882944  1
  I  I131  1  0.66683036  0.50156760  0.83313462  1
  I  I132  1  0.66741896  0.82831494  0.16877854  1
  I  I133  1  0.66700883  0.83824120  0.49565406  1
  I  I134  1  0.67063332  0.83256288  0.83661935  1
