# generated using pymatgen
data_Cs27Sn13Pb14I81
_symmetry_space_group_name_H-M   'P 1'
_cell_length_a   18.97788140
_cell_length_b   18.97411520
_cell_length_c   18.97782424
_cell_angle_alpha   89.99854697
_cell_angle_beta   89.99850219
_cell_angle_gamma   89.99846708
_symmetry_Int_Tables_number   1
_chemical_formula_structural   Cs27Sn13Pb14I81
_chemical_formula_sum   'Cs27 Sn13 Pb14 I81'
_cell_volume   6833.69640758
_cell_formula_units_Z   1
loop_
 _symmetry_equiv_pos_site_id
 _symmetry_equiv_pos_as_xyz
  1  'x, y, z'
loop_
 _atom_site_type_symbol
 _atom_site_label
 _atom_site_symmetry_multiplicity
 _atom_site_fract_x
 _atom_site_fract_y
 _atom_site_fract_z
 _atom_site_occupancy
  Cs  Cs0  1  -0.00187396  -0.00055159  0.00059688  1
  Cs  Cs1  1  0.00315281  0.00072921  0.33221749  1
  Cs  Cs2  1  -0.00087431  -0.00232612  0.66732937  1
  Cs  Cs3  1  -0.00084856  0.33505470  0.00044046  1
  Cs  Cs4  1  -0.00059472  0.33186573  0.33342769  1
  Cs  Cs5  1  0.00369186  0.33491154  0.66415009  1
  Cs  Cs6  1  0.00083190  0.66430137  0.00102688  1
  Cs  Cs7  1  -0.00031027  0.66901354  0.33305658  1
  Cs  Cs8  1  -0.00385219  0.66610066  0.66620140  1
  Cs  Cs9  1  0.33248294  -0.00058026  0.00164940  1
  Cs  Cs10  1  0.33168178  0.00030139  0.33265353  1
  Cs  Cs11  1  0.33492898  0.00030819  0.66616025  1
  Cs  Cs12  1  0.33286450  0.33632651  -0.00165469  1
  Cs  Cs13  1  0.33316244  0.33070313  0.33267112  1
  Cs  Cs14  1  0.32994168  0.33273735  0.67034732  1
  Cs  Cs15  1  0.33330939  0.66104861  -0.00022820  1
  Cs  Cs16  1  0.33551104  0.67081436  0.33272450  1
  Cs  Cs17  1  0.34113002  0.66729570  0.66985435  1
  Cs  Cs18  1  0.66930566  0.00035351  -0.00468275  1
  Cs  Cs19  1  0.66487033  0.00264938  0.33025751  1
  Cs  Cs20  1  0.66640459  -0.00665896  0.67653999  1
  Cs  Cs21  1  0.66779383  0.33165885  -0.00082863  1
  Cs  Cs22  1  0.66621035  0.33476668  0.33380263  1
  Cs  Cs23  1  0.66453433  0.33302312  0.66413630  1
  Cs  Cs24  1  0.66655432  0.66748846  0.00163277  1
  Cs  Cs25  1  0.66597725  0.66316294  0.33720636  1
  Cs  Cs26  1  0.66488899  0.67555335  0.65831327  1
  Sn  Sn27  1  0.16731260  0.16750449  0.16629745  1
  Sn  Sn28  1  0.50004376  0.16653073  0.49953127  1
  Sn  Sn29  1  0.83287852  0.49995349  0.83330778  1
  Sn  Sn30  1  0.83406150  0.50067741  0.16594300  1
  Sn  Sn31  1  0.50108739  0.83418776  0.16653562  1
  Sn  Sn32  1  0.83314254  0.16617388  0.50030115  1
  Sn  Sn33  1  0.16628175  0.16556632  0.83362275  1
  Sn  Sn34  1  0.16690601  0.49988862  0.49885727  1
  Sn  Sn35  1  0.16665140  0.83362991  0.83347659  1
  Sn  Sn36  1  0.83244859  0.83262289  0.16692470  1
  Sn  Sn37  1  0.16583424  0.49914059  0.16806871  1
  Sn  Sn38  1  0.49924935  0.16601803  0.16704996  1
  Sn  Sn39  1  0.16665839  0.16717315  0.49998958  1
  Pb  Pb40  1  0.83349452  0.83631903  0.49715992  1
  Pb  Pb41  1  0.49988667  0.83636463  0.49739014  1
  Pb  Pb42  1  0.49677545  0.49744416  0.49985915  1
  Pb  Pb43  1  0.50006789  0.49939482  0.16659935  1
  Pb  Pb44  1  0.16674993  0.83314415  0.50251518  1
  Pb  Pb45  1  0.16560969  0.50001572  0.83318119  1
  Pb  Pb46  1  0.83584568  0.16869955  0.83056808  1
  Pb  Pb47  1  0.49780098  0.16687999  0.83371825  1
  Pb  Pb48  1  0.16675663  0.83307674  0.16527120  1
  Pb  Pb49  1  0.49765748  0.83338315  0.83643629  1
  Pb  Pb50  1  0.83504107  0.49837659  0.49949577  1
  Pb  Pb51  1  0.50407641  0.50008351  0.83310970  1
  Pb  Pb52  1  0.83327460  0.16707777  0.16783967  1
  Pb  Pb53  1  0.83531951  0.83097596  0.83567255  1
  I  I54  1  0.16700996  0.00302024  0.16920402  1
  I  I55  1  0.16701172  0.00399265  0.49647944  1
  I  I56  1  0.16627373  0.00177156  0.83413822  1
  I  I57  1  0.16635020  0.33235752  0.16553145  1
  I  I58  1  0.16632920  0.33148859  0.50096183  1
  I  I59  1  0.16557310  0.33062445  0.83283254  1
  I  I60  1  0.16562439  0.66378491  0.16843273  1
  I  I61  1  0.16388506  0.66344021  0.49538498  1
  I  I62  1  0.16451309  0.66849941  0.83570274  1
  I  I63  1  0.49863306  0.00135046  0.17126128  1
  I  I64  1  0.49480889  0.00465804  0.49710959  1
  I  I65  1  0.50187825  0.00025589  0.83166958  1
  I  I66  1  0.49830487  0.32991392  0.17101893  1
  I  I67  1  0.50193938  0.32896816  0.49170227  1
  I  I68  1  0.49631504  0.33307376  0.83627942  1
  I  I69  1  0.49965887  0.66910484  0.16448122  1
  I  I70  1  0.49865815  0.66679940  0.49958483  1
  I  I71  1  0.49353550  0.66689925  0.83645466  1
  I  I72  1  0.83353277  -0.00177388  0.16949525  1
  I  I73  1  0.83838458  0.00452010  0.49782281  1
  I  I74  1  0.83339236  0.00001308  0.83359593  1
  I  I75  1  0.83557672  0.33590596  0.16469428  1
  I  I76  1  0.83334833  0.33019118  0.49680341  1
  I  I77  1  0.83702673  0.33619457  0.84216409  1
  I  I78  1  0.83509383  0.66577882  0.16272831  1
  I  I79  1  0.83616372  0.66656935  0.50183213  1
  I  I80  1  0.83919230  0.66330799  0.83561412  1
  I  I81  1  0.17103063  0.16723952  0.00129565  1
  I  I82  1  0.16717228  0.17113716  0.33312268  1
  I  I83  1  0.16645678  0.16803257  0.66556404  1
  I  I84  1  0.16471442  0.49680672  0.00286374  1
  I  I85  1  0.16084639  0.49126252  0.33209863  1
  I  I86  1  0.16417742  0.49449105  0.66435922  1
  I  I87  1  0.16635879  0.83816748  -0.00226920  1
  I  I88  1  0.16653475  0.83547423  0.33301516  1
  I  I89  1  0.16524166  0.83793952  0.67024844  1
  I  I90  1  0.49546312  0.16348889  0.00364086  1
  I  I91  1  0.49435369  0.16292382  0.33263139  1
  I  I92  1  0.49811651  0.16936675  0.66355576  1
  I  I93  1  0.49345268  0.49752824  0.00043756  1
  I  I94  1  0.50436691  0.50188723  0.33305385  1
  I  I95  1  0.49786108  0.49702298  0.66637903  1
  I  I96  1  0.50385131  0.84132336  0.00435665  1
  I  I97  1  0.50104261  0.83501965  0.32929233  1
  I  I98  1  0.49921120  0.83384067  0.66677920  1
  I  I99  1  0.83393502  0.16542269  0.00003612  1
  I  I100  1  0.83848436  0.16820304  0.33569429  1
  I  I101  1  0.83408363  0.16988786  0.66263048  1
  I  I102  1  0.84092214  0.50226153  0.00196218  1
  I  I103  1  0.83598362  0.50234329  0.33013870  1
  I  I104  1  0.83795964  0.49574734  0.66848929  1
  I  I105  1  0.83070336  0.83386734  0.00375624  1
  I  I106  1  0.83214470  0.82629329  0.32902713  1
  I  I107  1  0.83468043  0.83213530  0.66682125  1
  I  I108  1  0.00304513  0.16718996  0.16804193  1
  I  I109  1  0.00173541  0.17088510  0.49905074  1
  I  I110  1  0.00421671  0.16406962  0.83513836  1
  I  I111  1  0.00079703  0.49946020  0.16623315  1
  I  I112  1  0.00317937  0.49199213  0.49866750  1
  I  I113  1  -0.00189838  0.49907760  0.83625478  1
  I  I114  1  -0.00197770  0.83252707  0.16474482  1
  I  I115  1  0.00018329  0.83704447  0.49721158  1
  I  I116  1  0.00299771  0.83840642  0.83625971  1
  I  I117  1  0.33206755  0.16571749  0.17101909  1
  I  I118  1  0.33212644  0.17023113  0.49847441  1
  I  I119  1  0.32910817  0.16494916  0.82976905  1
  I  I120  1  0.33001695  0.49893520  0.16988624  1
  I  I121  1  0.32841609  0.49430046  0.49424897  1
  I  I122  1  0.33290630  0.49997670  0.83379867  1
  I  I123  1  0.33536140  0.83555880  0.16535320  1
  I  I124  1  0.33318563  0.83464099  0.49730780  1
  I  I125  1  0.32968574  0.83712709  0.83488175  1
  I  I126  1  0.66426228  0.16624036  0.17241768  1
  I  I127  1  0.66613394  0.16752679  0.49184229  1
  I  I128  1  0.66691727  0.16842476  0.83323351  1
  I  I129  1  0.66972620  0.50029846  0.16204727  1
  I  I130  1  0.66671492  0.49683544  0.49988253  1
  I  I131  1  0.67180815  0.49792782  0.84274929  1
  I  I132  1  0.66676846  0.83439038  0.16671451  1
  I  I133  1  0.66672016  0.83391445  0.50225850  1
  I  I134  1  0.66684529  0.83217303  0.83282778  1
