# generated using pymatgen
data_Cs27Sn14Pb13I81
_symmetry_space_group_name_H-M   'P 1'
_cell_length_a   18.96466546
_cell_length_b   18.96333323
_cell_length_c   18.95614819
_cell_angle_alpha   89.99882096
_cell_angle_beta   90.00017377
_cell_angle_gamma   89.99949215
_symmetry_Int_Tables_number   1
_chemical_formula_structural   Cs27Sn14Pb13I81
_chemical_formula_sum   'Cs27 Sn14 Pb13 I81'
_cell_volume   6817.26156982
_cell_formula_units_Z   1
loop_
 _symmetry_equiv_pos_site_id
 _symmetry_equiv_pos_as_xyz
  1  'x, y, z'
loop_
 _atom_site_type_symbol
 _atom_site_label
 _atom_site_symmetry_multiplicity
 _atom_site_fract_x
 _atom_site_fract_y
 _atom_site_fract_z
 _atom_site_occupancy
  Cs  Cs0  1  -0.00011771  0.00120520  -0.00000051  1
  Cs  Cs1  1  0.00257142  -0.00201885  0.33356491  1
  Cs  Cs2  1  0.00222768  0.00336587  0.66811822  1
  Cs  Cs3  1  -0.00279593  0.33705319  -0.00535510  1
  Cs  Cs4  1  -0.00379560  0.33629347  0.33194373  1
  Cs  Cs5  1  0.00241762  0.33234047  0.67243497  1
  Cs  Cs6  1  0.00029094  0.66192738  -0.00220491  1
  Cs  Cs7  1  0.00060737  0.66793726  0.33539624  1
  Cs  Cs8  1  -0.00252370  0.66585129  0.66448180  1
  Cs  Cs9  1  0.33287885  -0.00229873  0.00043828  1
  Cs  Cs10  1  0.33080979  0.00062871  0.33356772  1
  Cs  Cs11  1  0.33232039  0.00195980  0.66626011  1
  Cs  Cs12  1  0.33115405  0.33684781  0.00063187  1
  Cs  Cs13  1  0.33605111  0.33148294  0.33082972  1
  Cs  Cs14  1  0.33291771  0.33036410  0.66767926  1
  Cs  Cs15  1  0.33388086  0.66780773  0.00088588  1
  Cs  Cs16  1  0.33224343  0.66754185  0.33306288  1
  Cs  Cs17  1  0.33619795  0.66772896  0.66640447  1
  Cs  Cs18  1  0.66864342  -0.00050265  -0.00083754  1
  Cs  Cs19  1  0.66658629  0.00087248  0.33309586  1
  Cs  Cs20  1  0.66591439  -0.00093894  0.66747311  1
  Cs  Cs21  1  0.67187029  0.33070132  0.00893259  1
  Cs  Cs22  1  0.66675180  0.32998306  0.32955051  1
  Cs  Cs23  1  0.66457754  0.33514784  0.66376937  1
  Cs  Cs24  1  0.66614276  0.66835269  -0.00208841  1
  Cs  Cs25  1  0.66714612  0.66742851  0.33577429  1
  Cs  Cs26  1  0.66564360  0.66724344  0.66573870  1
  Sn  Sn27  1  0.83261902  0.83380806  0.49941318  1
  Sn  Sn28  1  0.16642776  0.16656794  0.16654443  1
  Sn  Sn29  1  0.50048530  0.83309002  0.49981098  1
  Sn  Sn30  1  0.49965911  0.50055937  0.50048803  1
  Sn  Sn31  1  0.83308716  0.49970234  0.50008213  1
  Sn  Sn32  1  0.83333273  0.16631255  0.50028014  1
  Sn  Sn33  1  0.50031666  0.49964291  0.83304422  1
  Sn  Sn34  1  0.16715637  0.83311161  0.83377123  1
  Sn  Sn35  1  0.50031013  0.16693916  0.83374480  1
  Sn  Sn36  1  0.50011122  0.83333080  0.16697027  1
  Sn  Sn37  1  0.16634011  0.83387759  0.16566285  1
  Sn  Sn38  1  0.49909613  0.83334909  0.83316042  1
  Sn  Sn39  1  0.83357626  0.83318866  0.16725596  1
  Sn  Sn40  1  0.16731948  0.49981653  0.49996520  1
  Pb  Pb41  1  0.16900713  0.50254970  0.83103627  1
  Pb  Pb42  1  0.83569550  0.16421006  0.16852020  1
  Pb  Pb43  1  0.16864830  0.16464151  0.83559972  1
  Pb  Pb44  1  0.16662176  0.50044874  0.16846583  1
  Pb  Pb45  1  0.83323074  0.50276141  0.16882700  1
  Pb  Pb46  1  0.83343067  0.83334420  0.83300761  1
  Pb  Pb47  1  0.83028922  0.49997970  0.83106005  1
  Pb  Pb48  1  0.16677008  0.83229893  0.50012820  1
  Pb  Pb49  1  0.50134701  0.16652731  0.50127629  1
  Pb  Pb50  1  0.16433511  0.16969327  0.49805528  1
  Pb  Pb51  1  0.49829765  0.16404896  0.16412748  1
  Pb  Pb52  1  0.50011569  0.50215040  0.16690485  1
  Pb  Pb53  1  0.83087824  0.16668493  0.83124526  1
  I  I54  1  0.16722541  -0.00260920  0.16459311  1
  I  I55  1  0.16632983  -0.00002109  0.50148353  1
  I  I56  1  0.17281365  -0.00370004  0.83278101  1
  I  I57  1  0.16802361  0.33093550  0.17057036  1
  I  I58  1  0.16888706  0.33753944  0.49848545  1
  I  I59  1  0.16862704  0.33354293  0.83395189  1
  I  I60  1  0.16758854  0.67059051  0.16457531  1
  I  I61  1  0.16361943  0.66444756  0.49851514  1
  I  I62  1  0.17228643  0.67060627  0.83955619  1
  I  I63  1  0.50183358  -0.00470730  0.16813812  1
  I  I64  1  0.50429211  -0.00345753  0.50079741  1
  I  I65  1  0.49681051  -0.00195779  0.83275724  1
  I  I66  1  0.49762908  0.33307965  0.16692512  1
  I  I67  1  0.50078030  0.33640488  0.50517780  1
  I  I68  1  0.50035396  0.33418537  0.82483190  1
  I  I69  1  0.49708606  0.67113321  0.16369211  1
  I  I70  1  0.50389579  0.66758440  0.50374843  1
  I  I71  1  0.49656658  0.66796575  0.83167669  1
  I  I72  1  0.83058864  -0.00420641  0.17301596  1
  I  I73  1  0.82811982  -0.00162908  0.49621422  1
  I  I74  1  0.83020538  -0.00040386  0.82939200  1
  I  I75  1  0.83465861  0.33314833  0.16885779  1
  I  I76  1  0.83273423  0.33427414  0.50169974  1
  I  I77  1  0.83263309  0.33344509  0.83104947  1
  I  I78  1  0.83508760  0.67136502  0.17225903  1
  I  I79  1  0.83213734  0.66725362  0.49620618  1
  I  I80  1  0.83184363  0.66696552  0.83171068  1
  I  I81  1  0.16773901  0.16281610  0.00341761  1
  I  I82  1  0.16785302  0.15750234  0.33050358  1
  I  I83  1  0.16598648  0.16563054  0.66675863  1
  I  I84  1  0.16883633  0.49941599  -0.00030380  1
  I  I85  1  0.16887047  0.50376306  0.33689687  1
  I  I86  1  0.16399784  0.50228200  0.66290802  1
  I  I87  1  0.17084124  0.83645369  0.00072499  1
  I  I88  1  0.16893683  0.83487789  0.33075756  1
  I  I89  1  0.17079723  0.83078956  0.66889261  1
  I  I90  1  0.49926987  0.16635480  -0.00395439  1
  I  I91  1  0.50018076  0.16666543  0.33308873  1
  I  I92  1  0.50034762  0.16124329  0.66931105  1
  I  I93  1  0.49784372  0.50261902  -0.00303629  1
  I  I94  1  0.50054131  0.50512017  0.33717062  1
  I  I95  1  0.50077460  0.50597421  0.66548352  1
  I  I96  1  0.49923642  0.83308671  -0.00040678  1
  I  I97  1  0.50040486  0.82859918  0.33402580  1
  I  I98  1  0.50029572  0.83216036  0.66656262  1
  I  I99  1  0.83271227  0.16438801  0.00027170  1
  I  I100  1  0.83136393  0.16896839  0.33679769  1
  I  I101  1  0.83382248  0.16305230  0.66266902  1
  I  I102  1  0.83267794  0.50116383  -0.00003737  1
  I  I103  1  0.82992834  0.49877972  0.33783129  1
  I  I104  1  0.83494359  0.50510693  0.66208435  1
  I  I105  1  0.83036047  0.83477341  0.00288897  1
  I  I106  1  0.83069293  0.83252155  0.33442466  1
  I  I107  1  0.82975294  0.83167638  0.66292915  1
  I  I108  1  0.00323721  0.15882784  0.16855083  1
  I  I109  1  -0.00367430  0.16331089  0.49893519  1
  I  I110  1  0.00023523  0.16420823  0.83259854  1
  I  I111  1  -0.00002859  0.50339052  0.17037915  1
  I  I112  1  -0.00094063  0.50236939  0.49691075  1
  I  I113  1  0.00017232  0.50183638  0.83124409  1
  I  I114  1  0.00026492  0.83706940  0.16876698  1
  I  I115  1  -0.00266086  0.83134562  0.49696834  1
  I  I116  1  0.00281357  0.83392881  0.83575732  1
  I  I117  1  0.33057337  0.15974173  0.16824923  1
  I  I118  1  0.33327730  0.16654939  0.50015368  1
  I  I119  1  0.33677076  0.16698815  0.83094623  1
  I  I120  1  0.33345919  0.50261227  0.17081449  1
  I  I121  1  0.33487594  0.50657667  0.50313750  1
  I  I122  1  0.33716393  0.49976290  0.82667781  1
  I  I123  1  0.33358882  0.83612841  0.16623239  1
  I  I124  1  0.33634965  0.82844336  0.49860514  1
  I  I125  1  0.33512302  0.83287652  0.83578564  1
  I  I126  1  0.66676757  0.16578711  0.16638313  1
  I  I127  1  0.66945667  0.16902887  0.50041436  1
  I  I128  1  0.66256521  0.16168946  0.83280443  1
  I  I129  1  0.66652081  0.50083608  0.16801924  1
  I  I130  1  0.66612942  0.50272960  0.50470545  1
  I  I131  1  0.66196169  0.50570516  0.82712995  1
  I  I132  1  0.66610280  0.83171317  0.16780188  1
  I  I133  1  0.66610167  0.82941675  0.49789834  1
  I  I134  1  0.66301082  0.83262574  0.83481172  1
