# generated using pymatgen
data_Cs27Sn14Pb13I81
_symmetry_space_group_name_H-M   'P 1'
_cell_length_a   18.95919515
_cell_length_b   18.96408522
_cell_length_c   18.96156575
_cell_angle_alpha   90.00038565
_cell_angle_beta   89.99937347
_cell_angle_gamma   89.99998626
_symmetry_Int_Tables_number   1
_chemical_formula_structural   Cs27Sn14Pb13I81
_chemical_formula_sum   'Cs27 Sn14 Pb13 I81'
_cell_volume   6817.51325927
_cell_formula_units_Z   1
loop_
 _symmetry_equiv_pos_site_id
 _symmetry_equiv_pos_as_xyz
  1  'x, y, z'
loop_
 _atom_site_type_symbol
 _atom_site_label
 _atom_site_symmetry_multiplicity
 _atom_site_fract_x
 _atom_site_fract_y
 _atom_site_fract_z
 _atom_site_occupancy
  Cs  Cs0  1  0.00087095  0.00005986  0.00197053  1
  Cs  Cs1  1  -0.00132233  -0.00156130  0.33195862  1
  Cs  Cs2  1  0.00043964  -0.00107561  0.66724350  1
  Cs  Cs3  1  0.00018183  0.33330496  0.00223092  1
  Cs  Cs4  1  0.00479178  0.33666810  0.33318355  1
  Cs  Cs5  1  0.00233600  0.33189173  0.66614813  1
  Cs  Cs6  1  -0.00672494  0.66579153  0.00581032  1
  Cs  Cs7  1  0.00341909  0.66407945  0.32955937  1
  Cs  Cs8  1  0.00045107  0.66878005  0.66644822  1
  Cs  Cs9  1  0.33171307  0.00051309  0.00380554  1
  Cs  Cs10  1  0.33529751  0.00507444  0.32500808  1
  Cs  Cs11  1  0.33279901  -0.00178721  0.66721596  1
  Cs  Cs12  1  0.33241018  0.33247177  -0.00325800  1
  Cs  Cs13  1  0.32784030  0.32972343  0.33283230  1
  Cs  Cs14  1  0.33186230  0.33347390  0.66756006  1
  Cs  Cs15  1  0.33535115  0.66711972  -0.00257700  1
  Cs  Cs16  1  0.33152162  0.66633469  0.33228048  1
  Cs  Cs17  1  0.33462548  0.66699007  0.66700210  1
  Cs  Cs18  1  0.66735638  -0.00071192  0.00149284  1
  Cs  Cs19  1  0.66518497  0.00231331  0.33315089  1
  Cs  Cs20  1  0.66705070  -0.00049963  0.66573107  1
  Cs  Cs21  1  0.66743719  0.33517539  -0.00151216  1
  Cs  Cs22  1  0.66602366  0.33117388  0.33484710  1
  Cs  Cs23  1  0.66637004  0.33426665  0.66669586  1
  Cs  Cs24  1  0.67047928  0.66579580  0.00049329  1
  Cs  Cs25  1  0.66593314  0.66687344  0.33573942  1
  Cs  Cs26  1  0.66558328  0.66637510  0.66665781  1
  Sn  Sn27  1  0.49940268  0.83298824  0.50051832  1
  Sn  Sn28  1  0.50030068  0.50032533  0.49972898  1
  Sn  Sn29  1  0.49994840  0.50001876  0.16698225  1
  Sn  Sn30  1  0.50082723  0.16631187  0.83284096  1
  Sn  Sn31  1  0.83294402  0.50006206  0.50049287  1
  Sn  Sn32  1  0.16689191  0.50144276  0.83303692  1
  Sn  Sn33  1  0.83317587  0.16686861  0.50007484  1
  Sn  Sn34  1  0.49955088  0.83345318  0.83268938  1
  Sn  Sn35  1  0.16742450  0.83351366  0.50043024  1
  Sn  Sn36  1  0.16720432  0.83195822  0.83278323  1
  Sn  Sn37  1  0.49955724  0.50027394  0.83322667  1
  Sn  Sn38  1  0.83334605  0.83299163  0.50039987  1
  Sn  Sn39  1  0.83304379  0.16685085  0.16678605  1
  Sn  Sn40  1  0.83261065  0.16657543  0.83329696  1
  Pb  Pb41  1  0.16400038  0.16683503  0.16661011  1
  Pb  Pb42  1  0.16944553  0.50022448  0.16328270  1
  Pb  Pb43  1  0.16688687  0.83307524  0.16602972  1
  Pb  Pb44  1  0.16405350  0.16347898  0.50008030  1
  Pb  Pb45  1  0.16683060  0.16606803  0.83320189  1
  Pb  Pb46  1  0.16729477  0.50197258  0.50193078  1
  Pb  Pb47  1  0.50180196  0.16920000  0.16375235  1
  Pb  Pb48  1  0.83340504  0.49815966  0.83143710  1
  Pb  Pb49  1  0.83115149  0.49802105  0.16971146  1
  Pb  Pb50  1  0.50013212  0.83123903  0.16657431  1
  Pb  Pb51  1  0.83294720  0.83525026  0.16997473  1
  Pb  Pb52  1  0.83325487  0.83525977  0.83180118  1
  Pb  Pb53  1  0.50129157  0.16659768  0.50174337  1
  I  I54  1  0.16693438  -0.00012112  0.16506994  1
  I  I55  1  0.16729090  -0.00489250  0.50807984  1
  I  I56  1  0.16915796  -0.00342375  0.82874859  1
  I  I57  1  0.16667478  0.33372158  0.16538008  1
  I  I58  1  0.16570288  0.33358258  0.50138526  1
  I  I59  1  0.17034782  0.33588422  0.83363332  1
  I  I60  1  0.16481159  0.66652779  0.16880503  1
  I  I61  1  0.16191575  0.67008661  0.50276010  1
  I  I62  1  0.17564972  0.66719718  0.82846602  1
  I  I63  1  0.50096475  0.00034447  0.16699677  1
  I  I64  1  0.50159761  -0.00314592  0.50541542  1
  I  I65  1  0.50059365  -0.00093390  0.82769168  1
  I  I66  1  0.50210910  0.33702356  0.16774706  1
  I  I67  1  0.50583709  0.33642567  0.50185727  1
  I  I68  1  0.50050321  0.33432284  0.83322010  1
  I  I69  1  0.50100013  0.66326710  0.16275801  1
  I  I70  1  0.50541805  0.66661387  0.50440930  1
  I  I71  1  0.49508876  0.66646511  0.83206025  1
  I  I72  1  0.83234886  0.00351592  0.16742386  1
  I  I73  1  0.83350216  -0.00013944  0.50066131  1
  I  I74  1  0.82956940  0.00349323  0.83035500  1
  I  I75  1  0.83139436  0.33006459  0.16745258  1
  I  I76  1  0.82714715  0.33342841  0.50081949  1
  I  I77  1  0.82912707  0.32996197  0.83021216  1
  I  I78  1  0.83323569  0.66629047  0.16707844  1
  I  I79  1  0.83121344  0.66687206  0.50155287  1
  I  I80  1  0.83156450  0.66668065  0.83150370  1
  I  I81  1  0.16427037  0.16491100  -0.00057396  1
  I  I82  1  0.16619969  0.16564064  0.33359816  1
  I  I83  1  0.16298605  0.16870246  0.66686806  1
  I  I84  1  0.17100998  0.50499521  -0.00495779  1
  I  I85  1  0.16650580  0.50088775  0.33355107  1
  I  I86  1  0.17205608  0.50101593  0.66990794  1
  I  I87  1  0.17250883  0.83138051  -0.00415074  1
  I  I88  1  0.16553277  0.83378071  0.33686183  1
  I  I89  1  0.16717493  0.83016238  0.66694622  1
  I  I90  1  0.50532473  0.16588701  -0.00461350  1
  I  I91  1  0.50232435  0.16628207  0.33334258  1
  I  I92  1  0.50595343  0.17025290  0.67014434  1
  I  I93  1  0.49545604  0.49897826  -0.00177547  1
  I  I94  1  0.50661923  0.50511755  0.33501586  1
  I  I95  1  0.50093087  0.50083245  0.66692571  1
  I  I96  1  0.49507549  0.83351230  -0.00385099  1
  I  I97  1  0.50086247  0.82929763  0.33716725  1
  I  I98  1  0.50041272  0.82943913  0.66664542  1
  I  I99  1  0.82890311  0.16711282  -0.00098164  1
  I  I100  1  0.83347775  0.16549335  0.33462853  1
  I  I101  1  0.82946000  0.16617890  0.66624096  1
  I  I102  1  0.83288091  0.49733080  -0.00010876  1
  I  I103  1  0.82857510  0.49898317  0.33804627  1
  I  I104  1  0.82760004  0.49836690  0.66314154  1
  I  I105  1  0.83379689  0.83572482  -0.00013155  1
  I  I106  1  0.83264559  0.83520692  0.33876199  1
  I  I107  1  0.83271794  0.83581453  0.66321152  1
  I  I108  1  -0.00453110  0.16692477  0.16414160  1
  I  I109  1  -0.00499579  0.16822040  0.50344361  1
  I  I110  1  -0.00314571  0.16674883  0.83255704  1
  I  I111  1  -0.00017881  0.49833508  0.16665570  1
  I  I112  1  -0.00251161  0.49946439  0.50223036  1
  I  I113  1  0.00233639  0.50242394  0.83002170  1
  I  I114  1  -0.00014745  0.83422404  0.16587129  1
  I  I115  1  -0.00036431  0.83521794  0.50470726  1
  I  I116  1  0.00256009  0.83132934  0.82818029  1
  I  I117  1  0.33378239  0.16688726  0.16536551  1
  I  I118  1  0.33340092  0.16756362  0.50223236  1
  I  I119  1  0.33662640  0.16785109  0.83271654  1
  I  I120  1  0.33752848  0.49977709  0.17220444  1
  I  I121  1  0.33694577  0.50448827  0.49952596  1
  I  I122  1  0.33538385  0.49795980  0.83148608  1
  I  I123  1  0.33361769  0.83434107  0.17143037  1
  I  I124  1  0.33453624  0.82681753  0.50582876  1
  I  I125  1  0.33457630  0.83390158  0.82558969  1
  I  I126  1  0.66976220  0.16680705  0.16969100  1
  I  I127  1  0.66998450  0.16275394  0.49933973  1
  I  I128  1  0.66630454  0.16717786  0.83233172  1
  I  I129  1  0.66335793  0.49991368  0.16058391  1
  I  I130  1  0.66575242  0.50382483  0.50254206  1
  I  I131  1  0.66331056  0.50189150  0.83411913  1
  I  I132  1  0.66650256  0.83336279  0.16547498  1
  I  I133  1  0.66619912  0.83270969  0.50390669  1
  I  I134  1  0.66343811  0.83105022  0.82928155  1
