# generated using pymatgen
data_Cs27Sn13Pb14I81
_symmetry_space_group_name_H-M   'P 1'
_cell_length_a   18.99179528
_cell_length_b   18.98255774
_cell_length_c   19.00540632
_cell_angle_alpha   90.00057744
_cell_angle_beta   89.99740979
_cell_angle_gamma   90.00022044
_symmetry_Int_Tables_number   1
_chemical_formula_structural   Cs27Sn13Pb14I81
_chemical_formula_sum   'Cs27 Sn13 Pb14 I81'
_cell_volume   6851.69320083
_cell_formula_units_Z   1
loop_
 _symmetry_equiv_pos_site_id
 _symmetry_equiv_pos_as_xyz
  1  'x, y, z'
loop_
 _atom_site_type_symbol
 _atom_site_label
 _atom_site_symmetry_multiplicity
 _atom_site_fract_x
 _atom_site_fract_y
 _atom_site_fract_z
 _atom_site_occupancy
  Cs  Cs0  1  -0.00018599  0.00077031  -0.00026556  1
  Cs  Cs1  1  -0.00019780  -0.00038183  0.33200125  1
  Cs  Cs2  1  0.00012386  0.00038107  0.66798743  1
  Cs  Cs3  1  -0.00250890  0.33147057  -0.00288997  1
  Cs  Cs4  1  -0.00018620  0.33368113  0.33442924  1
  Cs  Cs5  1  0.00208965  0.33426312  0.66767646  1
  Cs  Cs6  1  0.00245784  0.66246574  0.00249908  1
  Cs  Cs7  1  0.00066558  0.65950510  0.33469048  1
  Cs  Cs8  1  -0.00198757  0.66092809  0.66382092  1
  Cs  Cs9  1  0.33120885  -0.00200135  -0.00243732  1
  Cs  Cs10  1  0.33226368  -0.00096514  0.33380044  1
  Cs  Cs11  1  0.33274420  -0.00057184  0.66695586  1
  Cs  Cs12  1  0.34290360  0.34125527  0.00087344  1
  Cs  Cs13  1  0.33877477  0.33456270  0.33406404  1
  Cs  Cs14  1  0.33234726  0.33384794  0.66583461  1
  Cs  Cs15  1  0.33327370  0.66195874  0.00163572  1
  Cs  Cs16  1  0.33095274  0.66836475  0.33334754  1
  Cs  Cs17  1  0.33440905  0.66679558  0.66650932  1
  Cs  Cs18  1  0.66919377  -0.00148760  -0.00074043  1
  Cs  Cs19  1  0.66790286  -0.00095050  0.33319209  1
  Cs  Cs20  1  0.66733341  -0.00097828  0.66853521  1
  Cs  Cs21  1  0.66093939  0.34226983  0.00295638  1
  Cs  Cs22  1  0.66128510  0.33255428  0.32834508  1
  Cs  Cs23  1  0.66438624  0.33125888  0.66955276  1
  Cs  Cs24  1  0.66495254  0.66283742  -0.00201278  1
  Cs  Cs25  1  0.66873799  0.66843617  0.33643102  1
  Cs  Cs26  1  0.66766760  0.66696181  0.66495481  1
  Sn  Sn27  1  0.83409185  0.16577236  0.16631075  1
  Sn  Sn28  1  0.16569977  0.16540784  0.49983977  1
  Sn  Sn29  1  0.50013912  0.50132441  0.50015900  1
  Sn  Sn30  1  0.16631001  0.16591827  0.83368046  1
  Sn  Sn31  1  0.83383180  0.16581184  0.83374114  1
  Sn  Sn32  1  0.16637004  0.16637553  0.16632602  1
  Sn  Sn33  1  0.83482472  0.83382116  0.83429307  1
  Sn  Sn34  1  0.16528091  0.83375602  0.83250181  1
  Sn  Sn35  1  0.49920924  0.83299288  0.49922896  1
  Sn  Sn36  1  0.50081375  0.83430193  0.16719393  1
  Sn  Sn37  1  0.83297834  0.83380702  0.16580045  1
  Sn  Sn38  1  0.83400707  0.16622051  0.49996177  1
  Sn  Sn39  1  0.16677056  0.83412855  0.50076528  1
  Pb  Pb40  1  0.83354876  0.50009290  0.83324810  1
  Pb  Pb41  1  0.50009837  0.50393251  0.16918488  1
  Pb  Pb42  1  0.49990986  0.16637362  0.83360403  1
  Pb  Pb43  1  0.83401834  0.83485410  0.50009034  1
  Pb  Pb44  1  0.16834060  0.49980240  0.50000013  1
  Pb  Pb45  1  0.16648302  0.49999435  0.83325726  1
  Pb  Pb46  1  0.83071422  0.49599503  0.49996309  1
  Pb  Pb47  1  0.49996976  0.50039513  0.83027209  1
  Pb  Pb48  1  0.50017493  0.16391375  0.16647306  1
  Pb  Pb49  1  0.49991854  0.83349574  0.83327021  1
  Pb  Pb50  1  0.49972608  0.16554260  0.50008489  1
  Pb  Pb51  1  0.16645032  0.49573213  0.16674459  1
  Pb  Pb52  1  0.83354037  0.50003348  0.16676163  1
  Pb  Pb53  1  0.16591887  0.83462235  0.16650467  1
  I  I54  1  0.16562323  0.00296077  0.16794660  1
  I  I55  1  0.17010720  0.00042681  0.50103208  1
  I  I56  1  0.16295331  0.00037883  0.83158659  1
  I  I57  1  0.15936220  0.32705943  0.16776632  1
  I  I58  1  0.16406225  0.32940481  0.50091451  1
  I  I59  1  0.16135071  0.32912744  0.83140501  1
  I  I60  1  0.16711946  0.66700460  0.16679476  1
  I  I61  1  0.16894000  0.67018769  0.50451093  1
  I  I62  1  0.16281034  0.67062686  0.82776058  1
  I  I63  1  0.50200532  -0.00360998  0.17541441  1
  I  I64  1  0.49804637  -0.00329038  0.49629209  1
  I  I65  1  0.49992684  -0.00038009  0.82898831  1
  I  I66  1  0.49961621  0.33353073  0.16793151  1
  I  I67  1  0.50070889  0.33496106  0.50101696  1
  I  I68  1  0.50007767  0.33336801  0.83156759  1
  I  I69  1  0.50568243  0.67172688  0.16732598  1
  I  I70  1  0.49389375  0.66884844  0.49566544  1
  I  I71  1  0.49994224  0.66729106  0.83632685  1
  I  I72  1  0.83242087  0.00063640  0.16610343  1
  I  I73  1  0.83184222  0.00307984  0.49954010  1
  I  I74  1  0.83696007  0.00044771  0.83405113  1
  I  I75  1  0.83824149  0.32917734  0.16653142  1
  I  I76  1  0.83937257  0.32759233  0.50060070  1
  I  I77  1  0.83831835  0.32916435  0.83264770  1
  I  I78  1  0.82827791  0.67054612  0.16176367  1
  I  I79  1  0.83577231  0.66678105  0.49989922  1
  I  I80  1  0.83683953  0.67063905  0.83807952  1
  I  I81  1  0.15937839  0.16062684  -0.00060375  1
  I  I82  1  0.16067920  0.16218226  0.33402122  1
  I  I83  1  0.16104510  0.16292727  0.66648010  1
  I  I84  1  0.16889551  0.50284482  -0.00004862  1
  I  I85  1  0.16714702  0.50173091  0.33357324  1
  I  I86  1  0.16891089  0.49532296  0.66649957  1
  I  I87  1  0.16672904  0.83849017  -0.00259690  1
  I  I88  1  0.16902799  0.83823981  0.33587482  1
  I  I89  1  0.16824474  0.84160554  0.66627075  1
  I  I90  1  0.49835264  0.16487568  0.00015864  1
  I  I91  1  0.50023650  0.16904056  0.33342185  1
  I  I92  1  0.50184167  0.16597675  0.66650802  1
  I  I93  1  0.49984469  0.49920567  0.00038469  1
  I  I94  1  0.49945988  0.49948103  0.33658663  1
  I  I95  1  0.49960414  0.50728755  0.66253066  1
  I  I96  1  0.50113952  0.83667314  0.00264641  1
  I  I97  1  0.50004473  0.83038993  0.33415485  1
  I  I98  1  0.49892627  0.82944902  0.66360182  1
  I  I99  1  0.84111283  0.16102935  -0.00004022  1
  I  I100  1  0.83910122  0.16243811  0.33286085  1
  I  I101  1  0.83801154  0.16264093  0.66712070  1
  I  I102  1  0.83130607  0.49552774  0.00000969  1
  I  I103  1  0.83331282  0.50105729  0.33347469  1
  I  I104  1  0.83113894  0.50127717  0.66650376  1
  I  I105  1  0.83227123  0.84229098  -0.00002510  1
  I  I106  1  0.83117225  0.83884273  0.33111417  1
  I  I107  1  0.83283017  0.83837088  0.66904561  1
  I  I108  1  -0.00073631  0.15986271  0.16752489  1
  I  I109  1  0.00086261  0.16045709  0.49974987  1
  I  I110  1  -0.00005460  0.16227571  0.83280725  1
  I  I111  1  -0.00006723  0.50711758  0.16859324  1
  I  I112  1  -0.00003558  0.50274026  0.50008138  1
  I  I113  1  0.00000329  0.50013707  0.83140579  1
  I  I114  1  -0.00298418  0.83725232  0.16586200  1
  I  I115  1  0.00293739  0.83763105  0.50066856  1
  I  I116  1  0.00001695  0.83945473  0.83313037  1
  I  I117  1  0.33013995  0.16490165  0.16845078  1
  I  I118  1  0.32985110  0.16618821  0.50046409  1
  I  I119  1  0.32919636  0.16133939  0.83116237  1
  I  I120  1  0.33359182  0.49957836  0.16647500  1
  I  I121  1  0.33618124  0.49938800  0.49947047  1
  I  I122  1  0.33317215  0.49891128  0.83396274  1
  I  I123  1  0.33493421  0.83519507  0.16861133  1
  I  I124  1  0.33263930  0.83571112  0.49975532  1
  I  I125  1  0.33001762  0.83900600  0.83196606  1
  I  I126  1  0.67030258  0.16496317  0.16812426  1
  I  I127  1  0.66963850  0.16683578  0.49991949  1
  I  I128  1  0.67074697  0.16143435  0.83129561  1
  I  I129  1  0.66656481  0.49332838  0.16744722  1
  I  I130  1  0.66318683  0.50835444  0.49981294  1
  I  I131  1  0.66682040  0.49880354  0.83291937  1
  I  I132  1  0.66774533  0.83997835  0.16765914  1
  I  I133  1  0.66473311  0.83125633  0.49916802  1
  I  I134  1  0.66987029  0.83873549  0.83351237  1
