# generated using pymatgen
data_Cs27Sn13Pb14I81
_symmetry_space_group_name_H-M   'P 1'
_cell_length_a   19.07036741
_cell_length_b   19.06164802
_cell_length_c   19.05656522
_cell_angle_alpha   89.99961009
_cell_angle_beta   89.99716480
_cell_angle_gamma   89.99797390
_symmetry_Int_Tables_number   1
_chemical_formula_structural   Cs27Sn13Pb14I81
_chemical_formula_sum   'Cs27 Sn13 Pb14 I81'
_cell_volume   6927.30214960
_cell_formula_units_Z   1
loop_
 _symmetry_equiv_pos_site_id
 _symmetry_equiv_pos_as_xyz
  1  'x, y, z'
loop_
 _atom_site_type_symbol
 _atom_site_label
 _atom_site_symmetry_multiplicity
 _atom_site_fract_x
 _atom_site_fract_y
 _atom_site_fract_z
 _atom_site_occupancy
  Cs  Cs0  1  0.00027913  0.01153730  0.01294477  1
  Cs  Cs1  1  0.00078891  0.00141520  0.33052443  1
  Cs  Cs2  1  -0.00189771  0.00054918  0.66422895  1
  Cs  Cs3  1  -0.00981967  0.32060794  -0.01391184  1
  Cs  Cs4  1  0.00285048  0.33878852  0.33888589  1
  Cs  Cs5  1  -0.00031256  0.33083260  0.66944459  1
  Cs  Cs6  1  -0.00354621  0.66334416  0.00971078  1
  Cs  Cs7  1  0.00296766  0.66446125  0.33363123  1
  Cs  Cs8  1  0.00091786  0.66698807  0.66232141  1
  Cs  Cs9  1  0.33295414  0.00088741  -0.00022288  1
  Cs  Cs10  1  0.33313724  0.00376289  0.32886521  1
  Cs  Cs11  1  0.33712514  -0.00503320  0.66756168  1
  Cs  Cs12  1  0.32913809  0.33318075  -0.00200217  1
  Cs  Cs13  1  0.34328739  0.33368849  0.33017701  1
  Cs  Cs14  1  0.33493125  0.33888008  0.66979208  1
  Cs  Cs15  1  0.33411784  0.66747693  -0.00572411  1
  Cs  Cs16  1  0.32721484  0.66613989  0.33385637  1
  Cs  Cs17  1  0.33373734  0.67009642  0.66869606  1
  Cs  Cs18  1  0.66603096  0.00109586  -0.00431991  1
  Cs  Cs19  1  0.66551889  0.00371130  0.33120262  1
  Cs  Cs20  1  0.66447131  -0.00416181  0.66748946  1
  Cs  Cs21  1  0.68028526  0.34401706  0.01152007  1
  Cs  Cs22  1  0.65080508  0.33286262  0.32407565  1
  Cs  Cs23  1  0.66405965  0.33602882  0.66679340  1
  Cs  Cs24  1  0.66866855  0.65779808  0.00417287  1
  Cs  Cs25  1  0.66950797  0.66444747  0.32994110  1
  Cs  Cs26  1  0.66544684  0.67299086  0.66662975  1
  Sn  Sn27  1  0.83483667  0.83340529  0.83284637  1
  Sn  Sn28  1  0.16472966  0.83353671  0.83309280  1
  Sn  Sn29  1  0.16663695  0.16663600  0.50039955  1
  Sn  Sn30  1  0.16632643  0.83422214  0.50081286  1
  Sn  Sn31  1  0.16604844  0.49950874  0.49969699  1
  Sn  Sn32  1  0.16665312  0.49956834  0.16657943  1
  Sn  Sn33  1  0.83374357  0.49947294  0.50031715  1
  Sn  Sn34  1  0.83353268  0.16709754  0.50000155  1
  Sn  Sn35  1  0.50040085  0.16664104  0.83290660  1
  Sn  Sn36  1  0.49978038  0.83311750  0.16664025  1
  Sn  Sn37  1  0.83379958  0.83366096  0.50055374  1
  Sn  Sn38  1  0.49994153  0.83320560  0.49883045  1
  Sn  Sn39  1  0.50040945  0.83388852  0.83383645  1
  Pb  Pb40  1  0.49674153  0.50273731  0.16653534  1
  Pb  Pb41  1  0.49978958  0.50280486  0.50025423  1
  Pb  Pb42  1  0.16682490  0.17010741  0.16964365  1
  Pb  Pb43  1  0.16830247  0.83198935  0.16656155  1
  Pb  Pb44  1  0.83123638  0.83354012  0.16698608  1
  Pb  Pb45  1  0.49983848  0.16416007  0.50206604  1
  Pb  Pb46  1  0.83332396  0.16666159  0.17043518  1
  Pb  Pb47  1  0.83663129  0.49988888  0.17015261  1
  Pb  Pb48  1  0.50034543  0.49980765  0.83346528  1
  Pb  Pb49  1  0.83365282  0.50302534  0.82978369  1
  Pb  Pb50  1  0.49987466  0.16410173  0.16297022  1
  Pb  Pb51  1  0.16866577  0.16340564  0.83013381  1
  Pb  Pb52  1  0.83073633  0.16357239  0.83009742  1
  Pb  Pb53  1  0.16623934  0.50242446  0.83280261  1
  I  I54  1  0.16786850  0.00035869  0.16615202  1
  I  I55  1  0.16395336  -0.00156528  0.50724913  1
  I  I56  1  0.16588066  -0.00453112  0.82523335  1
  I  I57  1  0.16957325  0.33743688  0.17754890  1
  I  I58  1  0.15570056  0.33361127  0.49335050  1
  I  I59  1  0.17261148  0.33310351  0.83380445  1
  I  I60  1  0.16768526  0.66492512  0.17706344  1
  I  I61  1  0.16480398  0.66777294  0.49944002  1
  I  I62  1  0.17333767  0.67083020  0.82440308  1
  I  I63  1  0.49708556  -0.00367267  0.17279973  1
  I  I64  1  0.49956160  -0.00428824  0.49844473  1
  I  I65  1  0.49951441  -0.00390448  0.83164883  1
  I  I66  1  0.50045797  0.33327886  0.16642194  1
  I  I67  1  0.50065165  0.33332283  0.50273863  1
  I  I68  1  0.49616987  0.33002666  0.82702264  1
  I  I69  1  0.50182587  0.67040823  0.16309596  1
  I  I70  1  0.49962927  0.67137865  0.50571232  1
  I  I71  1  0.49887905  0.67129587  0.83217529  1
  I  I72  1  0.83552839  -0.00020396  0.16995871  1
  I  I73  1  0.83630922  -0.00161155  0.50532106  1
  I  I74  1  0.83438443  -0.00418067  0.82325134  1
  I  I75  1  0.83008933  0.33354192  0.16521315  1
  I  I76  1  0.84685802  0.33347565  0.49970167  1
  I  I77  1  0.82978525  0.33308668  0.83421845  1
  I  I78  1  0.83091143  0.66680913  0.16751594  1
  I  I79  1  0.83594600  0.66801540  0.50456981  1
  I  I80  1  0.82761315  0.67135312  0.82586105  1
  I  I81  1  0.16894607  0.16724695  -0.00015763  1
  I  I82  1  0.16269089  0.15511559  0.33792115  1
  I  I83  1  0.16069013  0.17419519  0.66262604  1
  I  I84  1  0.17388457  0.50789902  0.00254086  1
  I  I85  1  0.16101004  0.50568634  0.33623694  1
  I  I86  1  0.16190830  0.49801062  0.66281285  1
  I  I87  1  0.16980427  0.82837726  -0.00316478  1
  I  I88  1  0.16662413  0.83532675  0.33726343  1
  I  I89  1  0.17326461  0.83021220  0.66458255  1
  I  I90  1  0.49723692  0.15365876  -0.00428657  1
  I  I91  1  0.50116720  0.16616667  0.33318247  1
  I  I92  1  0.49982946  0.15501379  0.66897287  1
  I  I93  1  0.49596730  0.50517076  0.00008956  1
  I  I94  1  0.50497547  0.50106717  0.33360594  1
  I  I95  1  0.49575720  0.50306148  0.66647383  1
  I  I96  1  0.49747904  0.83880876  -0.00122641  1
  I  I97  1  0.49951618  0.83085799  0.33459270  1
  I  I98  1  0.49984666  0.83696197  0.66665398  1
  I  I99  1  0.83262229  0.16511942  -0.00029446  1
  I  I100  1  0.83756184  0.15864420  0.33884356  1
  I  I101  1  0.84025563  0.16951650  0.66279943  1
  I  I102  1  0.83217050  0.50245582  0.00020847  1
  I  I103  1  0.83533027  0.50777044  0.33792018  1
  I  I104  1  0.84417318  0.49742430  0.66216216  1
  I  I105  1  0.83254929  0.83280047  -0.00316486  1
  I  I106  1  0.83382375  0.83263147  0.33747219  1
  I  I107  1  0.82717637  0.83237298  0.66456006  1
  I  I108  1  0.00030007  0.16292451  0.15986373  1
  I  I109  1  0.00032521  0.15941977  0.50013201  1
  I  I110  1  -0.00023711  0.16763529  0.83773408  1
  I  I111  1  0.00364313  0.50796443  0.17169257  1
  I  I112  1  0.00062509  0.50804002  0.49446853  1
  I  I113  1  0.00009162  0.50116566  0.83856588  1
  I  I114  1  -0.00004131  0.83118502  0.16526766  1
  I  I115  1  0.00014568  0.83244425  0.50897532  1
  I  I116  1  0.00001325  0.82937957  0.81825369  1
  I  I117  1  0.33341682  0.16726714  0.17200303  1
  I  I118  1  0.33057999  0.16664463  0.50083205  1
  I  I119  1  0.33589555  0.15629809  0.83040623  1
  I  I120  1  0.32986297  0.50034062  0.18050106  1
  I  I121  1  0.33008688  0.49982748  0.49532245  1
  I  I122  1  0.33313442  0.50435997  0.82882262  1
  I  I123  1  0.33602593  0.83133218  0.16764848  1
  I  I124  1  0.33300213  0.83227013  0.50385901  1
  I  I125  1  0.33372816  0.83595286  0.82879829  1
  I  I126  1  0.66634733  0.16741742  0.17198922  1
  I  I127  1  0.66931081  0.16536385  0.50255962  1
  I  I128  1  0.66361502  0.15372270  0.82845516  1
  I  I129  1  0.66682782  0.49930589  0.16620742  1
  I  I130  1  0.66959666  0.50104679  0.50375470  1
  I  I131  1  0.66683109  0.50403745  0.83042396  1
  I  I132  1  0.66332753  0.83323808  0.16853565  1
  I  I133  1  0.66679985  0.83289119  0.50422204  1
  I  I134  1  0.66616070  0.83829625  0.82687652  1
