# generated using pymatgen
data_Cs27Sn13Pb14I81
_symmetry_space_group_name_H-M   'P 1'
_cell_length_a   18.97997193
_cell_length_b   18.97632489
_cell_length_c   18.97347860
_cell_angle_alpha   89.99981633
_cell_angle_beta   89.99989814
_cell_angle_gamma   89.99783839
_symmetry_Int_Tables_number   1
_chemical_formula_structural   Cs27Sn13Pb14I81
_chemical_formula_sum   'Cs27 Sn13 Pb14 I81'
_cell_volume   6833.67994031
_cell_formula_units_Z   1
loop_
 _symmetry_equiv_pos_site_id
 _symmetry_equiv_pos_as_xyz
  1  'x, y, z'
loop_
 _atom_site_type_symbol
 _atom_site_label
 _atom_site_symmetry_multiplicity
 _atom_site_fract_x
 _atom_site_fract_y
 _atom_site_fract_z
 _atom_site_occupancy
  Cs  Cs0  1  -0.00331330  -0.00041001  0.00033214  1
  Cs  Cs1  1  -0.00038230  0.00039303  0.33219417  1
  Cs  Cs2  1  0.00247839  0.00078694  0.66657840  1
  Cs  Cs3  1  0.01034585  0.33406821  0.00655195  1
  Cs  Cs4  1  0.00183009  0.33407831  0.32874521  1
  Cs  Cs5  1  -0.00336029  0.33273792  0.66822889  1
  Cs  Cs6  1  0.00155498  0.66634752  -0.00843129  1
  Cs  Cs7  1  0.00303294  0.66574130  0.33517189  1
  Cs  Cs8  1  -0.00434792  0.66558997  0.66938939  1
  Cs  Cs9  1  0.33418789  -0.00391942  -0.00557031  1
  Cs  Cs10  1  0.33409998  -0.00246127  0.33622283  1
  Cs  Cs11  1  0.33070763  0.00144883  0.66452705  1
  Cs  Cs12  1  0.32850810  0.33682360  0.00149056  1
  Cs  Cs13  1  0.33424261  0.33492380  0.33317123  1
  Cs  Cs14  1  0.33452889  0.33060976  0.66706355  1
  Cs  Cs15  1  0.33287750  0.66640314  -0.00784574  1
  Cs  Cs16  1  0.33245869  0.66695992  0.33361066  1
  Cs  Cs17  1  0.33438714  0.66770097  0.66796332  1
  Cs  Cs18  1  0.66912403  -0.00333304  0.00266764  1
  Cs  Cs19  1  0.66641576  -0.00012793  0.33201017  1
  Cs  Cs20  1  0.66676503  0.00431880  0.66490753  1
  Cs  Cs21  1  0.66527262  0.33154218  0.00109394  1
  Cs  Cs22  1  0.66623748  0.33417939  0.33355622  1
  Cs  Cs23  1  0.66722469  0.33263855  0.66679894  1
  Cs  Cs24  1  0.66738201  0.67294661  -0.00471527  1
  Cs  Cs25  1  0.66638131  0.66514134  0.33391977  1
  Cs  Cs26  1  0.66989573  0.66292101  0.66975666  1
  Sn  Sn27  1  0.83319674  0.83396981  0.49951369  1
  Sn  Sn28  1  0.49922134  0.50002538  0.49939650  1
  Sn  Sn29  1  0.50050776  0.83296948  0.49970937  1
  Sn  Sn30  1  0.50083181  0.16687669  0.83358165  1
  Sn  Sn31  1  0.49983892  0.16696977  0.16671951  1
  Sn  Sn32  1  0.50080671  0.16681855  0.49962556  1
  Sn  Sn33  1  0.50119238  0.49990320  0.16720109  1
  Sn  Sn34  1  0.16648541  0.83219355  0.49915169  1
  Sn  Sn35  1  0.83266702  0.16722285  0.83320481  1
  Sn  Sn36  1  0.16741721  0.50048058  0.49996911  1
  Sn  Sn37  1  0.16679609  0.83327580  0.16729067  1
  Sn  Sn38  1  0.83266606  0.16611118  0.50021388  1
  Sn  Sn39  1  0.83231277  0.50052243  0.16654532  1
  Pb  Pb40  1  0.83314225  0.49946146  0.49890698  1
  Pb  Pb41  1  0.83535786  0.83068353  0.16891564  1
  Pb  Pb42  1  0.16656317  0.83346702  0.83244242  1
  Pb  Pb43  1  0.16677444  0.49980762  0.82945538  1
  Pb  Pb44  1  0.50016580  0.49770970  0.83341362  1
  Pb  Pb45  1  0.83146557  0.16812136  0.16698360  1
  Pb  Pb46  1  0.83314057  0.83601922  0.83046460  1
  Pb  Pb47  1  0.16642401  0.16668900  0.83339598  1
  Pb  Pb48  1  0.16635913  0.16686313  0.49983598  1
  Pb  Pb49  1  0.83306327  0.49667523  0.83701009  1
  Pb  Pb50  1  0.17013906  0.16374017  0.16688304  1
  Pb  Pb51  1  0.16764031  0.50231565  0.16840387  1
  Pb  Pb52  1  0.49849384  0.83266853  0.16831509  1
  Pb  Pb53  1  0.50030749  0.83619309  0.82999999  1
  I  I54  1  0.16704813  -0.00372194  0.17575419  1
  I  I55  1  0.16945816  -0.00310155  0.49749356  1
  I  I56  1  0.16831793  0.00002469  0.83040296  1
  I  I57  1  0.16464922  0.33368196  0.16773671  1
  I  I58  1  0.17058782  0.33612714  0.49963118  1
  I  I59  1  0.16674219  0.33319774  0.83275351  1
  I  I60  1  0.16835713  0.66969134  0.17279736  1
  I  I61  1  0.17011324  0.66743922  0.49532858  1
  I  I62  1  0.16705357  0.66675243  0.83547501  1
  I  I63  1  0.49829813  0.00270008  0.16844108  1
  I  I64  1  0.49978779  0.00061502  0.50010227  1
  I  I65  1  0.50335476  0.00451649  0.83454889  1
  I  I66  1  0.50343790  0.33327747  0.17245343  1
  I  I67  1  0.49982129  0.33278991  0.49960251  1
  I  I68  1  0.50417698  0.32946951  0.82715631  1
  I  I69  1  0.50193823  0.66349525  0.17403631  1
  I  I70  1  0.49868528  0.66633266  0.49389662  1
  I  I71  1  0.49843791  0.66669765  0.83349970  1
  I  I72  1  0.83335203  -0.00005059  0.16536086  1
  I  I73  1  0.83046282  0.00039429  0.50273060  1
  I  I74  1  0.82832974  0.00400550  0.83269572  1
  I  I75  1  0.83200172  0.33598331  0.17037149  1
  I  I76  1  0.82967947  0.33041740  0.50274232  1
  I  I77  1  0.82746297  0.32902461  0.82231638  1
  I  I78  1  0.82579996  0.66306794  0.17121629  1
  I  I79  1  0.83165481  0.66898099  0.49650205  1
  I  I80  1  0.83478543  0.66650003  0.83228869  1
  I  I81  1  0.16587630  0.16522437  0.00027941  1
  I  I82  1  0.16552844  0.16805900  0.33360452  1
  I  I83  1  0.17133258  0.16502641  0.66621280  1
  I  I84  1  0.16666882  0.50137565  0.00028499  1
  I  I85  1  0.16857544  0.50215725  0.33656230  1
  I  I86  1  0.17228719  0.50618408  0.66117299  1
  I  I87  1  0.16822638  0.83411415  0.00268327  1
  I  I88  1  0.16751946  0.83009711  0.33593864  1
  I  I89  1  0.16747420  0.83052936  0.66218545  1
  I  I90  1  0.50346383  0.17169474  0.00035405  1
  I  I91  1  0.50343642  0.16730487  0.33479503  1
  I  I92  1  0.50339969  0.16612320  0.66494358  1
  I  I93  1  0.50309069  0.49478927  0.00349218  1
  I  I94  1  0.49978274  0.49469734  0.33467955  1
  I  I95  1  0.49581349  0.49987456  0.66288895  1
  I  I96  1  0.49642384  0.83367033  -0.00002538  1
  I  I97  1  0.50101308  0.83839205  0.33722604  1
  I  I98  1  0.49663696  0.83225059  0.66111178  1
  I  I99  1  0.82806867  0.16882597  -0.00234244  1
  I  I100  1  0.82898455  0.16384259  0.33649017  1
  I  I101  1  0.82529834  0.16323579  0.66497891  1
  I  I102  1  0.82664820  0.49928929  0.00468300  1
  I  I103  1  0.83142393  0.49732269  0.33138464  1
  I  I104  1  0.83434579  0.50193210  0.66656113  1
  I  I105  1  0.83607990  0.83405592  0.00015139  1
  I  I106  1  0.83109148  0.84047810  0.33748233  1
  I  I107  1  0.83556240  0.83278985  0.66169050  1
  I  I108  1  -0.00005558  0.16889604  0.16659031  1
  I  I109  1  -0.00331153  0.16389511  0.50533680  1
  I  I110  1  -0.00361998  0.16596863  0.82560541  1
  I  I111  1  -0.00157622  0.49983940  0.16961240  1
  I  I112  1  0.00201890  0.50330524  0.49762837  1
  I  I113  1  -0.00019884  0.49729231  0.83351150  1
  I  I114  1  0.00309650  0.83249929  0.17481260  1
  I  I115  1  0.00016529  0.83360210  0.49616279  1
  I  I116  1  -0.00013773  0.83641714  0.83135000  1
  I  I117  1  0.33840806  0.17407125  0.16891599  1
  I  I118  1  0.33687990  0.16450264  0.50069053  1
  I  I119  1  0.33704031  0.16632164  0.83073525  1
  I  I120  1  0.33671202  0.49550364  0.17021031  1
  I  I121  1  0.33498476  0.50202199  0.49446315  1
  I  I122  1  0.33363011  0.49697706  0.83755258  1
  I  I123  1  0.33077271  0.83344657  0.17522185  1
  I  I124  1  0.33377725  0.83372738  0.49637221  1
  I  I125  1  0.33351976  0.83636941  0.83124772  1
  I  I126  1  0.66310137  0.16752231  0.16858416  1
  I  I127  1  0.66534351  0.16394212  0.50056219  1
  I  I128  1  0.66573306  0.16704616  0.82979704  1
  I  I129  1  0.66484883  0.49534636  0.17496701  1
  I  I130  1  0.66356125  0.50147992  0.49758222  1
  I  I131  1  0.66661569  0.50112833  0.82733137  1
  I  I132  1  0.66654344  0.83502115  0.16861845  1
  I  I133  1  0.66613283  0.83505132  0.50009975  1
  I  I134  1  0.66665440  0.83135692  0.83369511  1
