# generated using pymatgen
data_Cs27Sn14Pb13I81
_symmetry_space_group_name_H-M   'P 1'
_cell_length_a   18.97484746
_cell_length_b   18.97519404
_cell_length_c   18.97527521
_cell_angle_alpha   90.00145555
_cell_angle_beta   89.99894258
_cell_angle_gamma   90.00172880
_symmetry_Int_Tables_number   1
_chemical_formula_structural   Cs27Sn14Pb13I81
_chemical_formula_sum   'Cs27 Sn14 Pb13 I81'
_cell_volume   6832.07463498
_cell_formula_units_Z   1
loop_
 _symmetry_equiv_pos_site_id
 _symmetry_equiv_pos_as_xyz
  1  'x, y, z'
loop_
 _atom_site_type_symbol
 _atom_site_label
 _atom_site_symmetry_multiplicity
 _atom_site_fract_x
 _atom_site_fract_y
 _atom_site_fract_z
 _atom_site_occupancy
  Cs  Cs0  1  -0.00277830  0.00183179  0.00136859  1
  Cs  Cs1  1  -0.00124005  -0.00068427  0.33444977  1
  Cs  Cs2  1  0.00232904  0.00789007  0.66569478  1
  Cs  Cs3  1  0.00214675  0.34008070  -0.01237370  1
  Cs  Cs4  1  0.00296021  0.33386246  0.33622846  1
  Cs  Cs5  1  -0.00145444  0.32396780  0.67340942  1
  Cs  Cs6  1  0.00127633  0.66140981  -0.00064012  1
  Cs  Cs7  1  0.00025046  0.66810981  0.33249846  1
  Cs  Cs8  1  -0.00355356  0.66707371  0.66583313  1
  Cs  Cs9  1  0.33480416  -0.00193430  -0.00071885  1
  Cs  Cs10  1  0.33277342  0.00033738  0.33270021  1
  Cs  Cs11  1  0.33248844  -0.00137535  0.66944357  1
  Cs  Cs12  1  0.33313715  0.33522675  0.00376571  1
  Cs  Cs13  1  0.33413961  0.33459257  0.33148954  1
  Cs  Cs14  1  0.33714135  0.32911540  0.66455130  1
  Cs  Cs15  1  0.33118045  0.66766118  -0.00087563  1
  Cs  Cs16  1  0.33249110  0.66562788  0.33422593  1
  Cs  Cs17  1  0.33576480  0.67105970  0.66432866  1
  Cs  Cs18  1  0.66637282  0.00113964  0.00717187  1
  Cs  Cs19  1  0.66801448  0.00047021  0.32913205  1
  Cs  Cs20  1  0.66511671  -0.00257485  0.66631990  1
  Cs  Cs21  1  0.66627170  0.33092690  -0.00094801  1
  Cs  Cs22  1  0.66431717  0.33326697  0.33259887  1
  Cs  Cs23  1  0.66615683  0.33481269  0.66865708  1
  Cs  Cs24  1  0.66725624  0.66711197  -0.00014534  1
  Cs  Cs25  1  0.66784252  0.66653621  0.33497521  1
  Cs  Cs26  1  0.66669093  0.66667572  0.66521476  1
  Sn  Sn27  1  0.49978229  0.49975169  0.83438426  1
  Sn  Sn28  1  0.16733429  0.83428829  0.16733809  1
  Sn  Sn29  1  0.50009706  0.16715054  0.83279313  1
  Sn  Sn30  1  0.83357292  0.83286967  0.50104322  1
  Sn  Sn31  1  0.83476937  0.50029608  0.49930841  1
  Sn  Sn32  1  0.50004170  0.83445555  0.49894686  1
  Sn  Sn33  1  0.16521933  0.50041932  0.50038435  1
  Sn  Sn34  1  0.50094151  0.50113212  0.16578393  1
  Sn  Sn35  1  0.50027676  0.16521738  0.50039000  1
  Sn  Sn36  1  0.83342488  0.83343059  0.83246056  1
  Sn  Sn37  1  0.83269198  0.49978890  0.16752735  1
  Sn  Sn38  1  0.16651300  0.83257247  0.49933281  1
  Sn  Sn39  1  0.49913458  0.83210940  0.16769667  1
  Sn  Sn40  1  0.16612450  0.16592856  0.16664612  1
  Pb  Pb41  1  0.16663979  0.50063818  0.16817243  1
  Pb  Pb42  1  0.83689720  0.17074204  0.16670292  1
  Pb  Pb43  1  0.83376786  0.83173755  0.16718641  1
  Pb  Pb44  1  0.16383149  0.83326348  0.83326680  1
  Pb  Pb45  1  0.50148803  0.83330091  0.83376035  1
  Pb  Pb46  1  0.83046946  0.16361010  0.83339314  1
  Pb  Pb47  1  0.83073019  0.16676978  0.49966808  1
  Pb  Pb48  1  0.16979150  0.50038246  0.82917600  1
  Pb  Pb49  1  0.83129021  0.50155506  0.83263523  1
  Pb  Pb50  1  0.50026028  0.50048763  0.49968822  1
  Pb  Pb51  1  0.16893507  0.16628625  0.49862960  1
  Pb  Pb52  1  0.49886285  0.16656774  0.16676683  1
  Pb  Pb53  1  0.16952373  0.16645278  0.83639594  1
  I  I54  1  0.17380799  -0.00213878  0.17264557  1
  I  I55  1  0.16460763  -0.00353191  0.49762642  1
  I  I56  1  0.16904302  -0.00021014  0.82899901  1
  I  I57  1  0.16889310  0.33203804  0.16969764  1
  I  I58  1  0.16533630  0.33579438  0.49675930  1
  I  I59  1  0.16390617  0.33352819  0.83437416  1
  I  I60  1  0.16850302  0.66952241  0.16975139  1
  I  I61  1  0.16919910  0.66816992  0.49357486  1
  I  I62  1  0.17000226  0.66675894  0.83930218  1
  I  I63  1  0.49819901  -0.00287375  0.16728344  1
  I  I64  1  0.49967858  -0.00188521  0.50024005  1
  I  I65  1  0.50167091  0.00196509  0.83174925  1
  I  I66  1  0.50124883  0.33589529  0.16688084  1
  I  I67  1  0.49920665  0.33185068  0.50056684  1
  I  I68  1  0.50075862  0.33366455  0.83218185  1
  I  I69  1  0.49785440  0.66716640  0.16733079  1
  I  I70  1  0.49980436  0.66957089  0.49943978  1
  I  I71  1  0.50215737  0.66452668  0.83400914  1
  I  I72  1  0.83013384  -0.00013021  0.16624010  1
  I  I73  1  0.83571201  -0.00364786  0.50402060  1
  I  I74  1  0.83169090  -0.00423134  0.82658912  1
  I  I75  1  0.82575528  0.33855796  0.17338992  1
  I  I76  1  0.83593674  0.33683163  0.49505020  1
  I  I77  1  0.83379444  0.33344849  0.83376559  1
  I  I78  1  0.83268263  0.66391694  0.16842659  1
  I  I79  1  0.83099740  0.66744565  0.49982299  1
  I  I80  1  0.82930809  0.66922587  0.83119050  1
  I  I81  1  0.16937787  0.16045804  0.00421993  1
  I  I82  1  0.17149889  0.16538341  0.33093762  1
  I  I83  1  0.16667542  0.16705784  0.66663643  1
  I  I84  1  0.16413543  0.49960961  -0.00002600  1
  I  I85  1  0.16863817  0.50197588  0.33615804  1
  I  I86  1  0.16237730  0.50729864  0.66135780  1
  I  I87  1  0.17157774  0.83712710  0.00343494  1
  I  I88  1  0.16653873  0.83294577  0.33410036  1
  I  I89  1  0.17109570  0.82861289  0.66283264  1
  I  I90  1  0.49829338  0.16774808  -0.00195957  1
  I  I91  1  0.49831741  0.16595304  0.33556781  1
  I  I92  1  0.49929769  0.16772280  0.66607442  1
  I  I93  1  0.50538613  0.49992139  0.00147638  1
  I  I94  1  0.50047148  0.50072317  0.33100546  1
  I  I95  1  0.49980510  0.49912024  0.66818427  1
  I  I96  1  0.49768989  0.83266784  0.00302123  1
  I  I97  1  0.50131876  0.83310848  0.33392785  1
  I  I98  1  0.49798187  0.83328925  0.66371671  1
  I  I99  1  0.83002858  0.16398494  0.00016568  1
  I  I100  1  0.82882260  0.16203952  0.33319243  1
  I  I101  1  0.83536545  0.17116802  0.66643498  1
  I  I102  1  0.83103464  0.50248880  0.00232641  1
  I  I103  1  0.83019994  0.50672368  0.33420005  1
  I  I104  1  0.83433153  0.50379595  0.66340685  1
  I  I105  1  0.83105800  0.83177619  -0.00138895  1
  I  I106  1  0.83256324  0.83044881  0.33646404  1
  I  I107  1  0.83070380  0.82631226  0.66404836  1
  I  I108  1  0.00433197  0.15774900  0.17007462  1
  I  I109  1  0.00016390  0.16511119  0.49833476  1
  I  I110  1  -0.00001584  0.16670092  0.83417929  1
  I  I111  1  -0.00227240  0.50110609  0.17010819  1
  I  I112  1  -0.00081051  0.50953973  0.49201898  1
  I  I113  1  -0.00014634  0.50160517  0.83746087  1
  I  I114  1  0.00269421  0.83569190  0.17006661  1
  I  I115  1  0.00020012  0.82722167  0.49887259  1
  I  I116  1  -0.00397320  0.83089229  0.82990586  1
  I  I117  1  0.33123217  0.16712588  0.16759525  1
  I  I118  1  0.33695137  0.16404880  0.50293680  1
  I  I119  1  0.33739954  0.16893490  0.82804110  1
  I  I120  1  0.33600716  0.50051750  0.16514088  1
  I  I121  1  0.33160082  0.50327287  0.49940695  1
  I  I122  1  0.33778912  0.49760779  0.83981348  1
  I  I123  1  0.33425844  0.83124156  0.17387190  1
  I  I124  1  0.33362676  0.83192708  0.49534417  1
  I  I125  1  0.33353911  0.83355047  0.83117865  1
  I  I126  1  0.66658448  0.16424572  0.16608108  1
  I  I127  1  0.66245952  0.16343909  0.50232206  1
  I  I128  1  0.66259605  0.17147512  0.83014641  1
  I  I129  1  0.66542332  0.50604697  0.16948806  1
  I  I130  1  0.66886134  0.50371855  0.49921981  1
  I  I131  1  0.66330600  0.49743367  0.83231639  1
  I  I132  1  0.66402486  0.83119739  0.16926022  1
  I  I133  1  0.66633737  0.83228458  0.50044481  1
  I  I134  1  0.66904919  0.83220049  0.82811259  1
