# generated using pymatgen
data_Cs27Sn14Pb13I81
_symmetry_space_group_name_H-M   'P 1'
_cell_length_a   18.96633030
_cell_length_b   18.98939016
_cell_length_c   18.97835680
_cell_angle_alpha   89.99991413
_cell_angle_beta   89.99984062
_cell_angle_gamma   90.00140494
_symmetry_Int_Tables_number   1
_chemical_formula_structural   Cs27Sn14Pb13I81
_chemical_formula_sum   'Cs27 Sn14 Pb13 I81'
_cell_volume   6835.22687425
_cell_formula_units_Z   1
loop_
 _symmetry_equiv_pos_site_id
 _symmetry_equiv_pos_as_xyz
  1  'x, y, z'
loop_
 _atom_site_type_symbol
 _atom_site_label
 _atom_site_symmetry_multiplicity
 _atom_site_fract_x
 _atom_site_fract_y
 _atom_site_fract_z
 _atom_site_occupancy
  Cs  Cs0  1  -0.00171425  -0.00095662  0.00012158  1
  Cs  Cs1  1  0.00560959  0.00004218  0.33574347  1
  Cs  Cs2  1  -0.00107248  0.00222835  0.66559142  1
  Cs  Cs3  1  0.00416154  0.33512473  -0.00046857  1
  Cs  Cs4  1  0.00246479  0.33210015  0.34252133  1
  Cs  Cs5  1  0.00606080  0.33255465  0.65985015  1
  Cs  Cs6  1  -0.00191050  0.66590188  0.00002725  1
  Cs  Cs7  1  0.00588283  0.66755868  0.33366474  1
  Cs  Cs8  1  -0.00102939  0.66464593  0.66809653  1
  Cs  Cs9  1  0.33521223  0.00094659  -0.00026233  1
  Cs  Cs10  1  0.32811007  -0.00398664  0.33458619  1
  Cs  Cs11  1  0.33349491  -0.00136695  0.66615806  1
  Cs  Cs12  1  0.33218845  0.33347401  -0.00193708  1
  Cs  Cs13  1  0.32920577  0.33494305  0.33238314  1
  Cs  Cs14  1  0.32843731  0.33521833  0.67054527  1
  Cs  Cs15  1  0.33372886  0.66563426  -0.00016237  1
  Cs  Cs16  1  0.32731519  0.67018620  0.34222523  1
  Cs  Cs17  1  0.33331964  0.66737854  0.66007806  1
  Cs  Cs18  1  0.66620727  -0.00001992  0.00010364  1
  Cs  Cs19  1  0.66665888  0.00118523  0.33090869  1
  Cs  Cs20  1  0.66664593  0.00037129  0.66910579  1
  Cs  Cs21  1  0.66551553  0.33327677  0.00163985  1
  Cs  Cs22  1  0.66791934  0.33285175  0.33141099  1
  Cs  Cs23  1  0.66684186  0.33298961  0.66562020  1
  Cs  Cs24  1  0.66738135  0.66617749  0.00034144  1
  Cs  Cs25  1  0.66626425  0.66567274  0.33264477  1
  Cs  Cs26  1  0.66624024  0.66603023  0.66640072  1
  Sn  Sn27  1  0.16795390  0.83338637  0.83416682  1
  Sn  Sn28  1  0.50065269  0.83298688  0.16612545  1
  Sn  Sn29  1  0.50121174  0.50003207  0.83410623  1
  Sn  Sn30  1  0.83246131  0.83345346  0.16795792  1
  Sn  Sn31  1  0.83315074  0.16701794  0.16582336  1
  Sn  Sn32  1  0.83252848  0.16828559  0.83424261  1
  Sn  Sn33  1  0.50099796  0.16693476  0.83332355  1
  Sn  Sn34  1  0.83224125  0.83335039  0.49854740  1
  Sn  Sn35  1  0.50037339  0.16685879  0.49971422  1
  Sn  Sn36  1  0.49913124  0.83307206  0.83404052  1
  Sn  Sn37  1  0.83224289  0.49825035  0.83416289  1
  Sn  Sn38  1  0.50038673  0.50035617  0.16607617  1
  Sn  Sn39  1  0.50043671  0.16665211  0.16683452  1
  Sn  Sn40  1  0.83285921  0.49951053  0.16590750  1
  Pb  Pb41  1  0.83290198  0.50207644  0.49970660  1
  Pb  Pb42  1  0.16677948  0.50005040  0.50009984  1
  Pb  Pb43  1  0.83154810  0.16494463  0.49986821  1
  Pb  Pb44  1  0.16670455  0.50228790  0.83363611  1
  Pb  Pb45  1  0.16635459  0.16669380  0.16629847  1
  Pb  Pb46  1  0.50181798  0.83518030  0.49971294  1
  Pb  Pb47  1  0.16634955  0.16461361  0.83372564  1
  Pb  Pb48  1  0.16342347  0.83354699  0.50320704  1
  Pb  Pb49  1  0.17046296  0.16635368  0.50014300  1
  Pb  Pb50  1  0.16674580  0.50003219  0.16640851  1
  Pb  Pb51  1  0.50029384  0.49734615  0.49962929  1
  Pb  Pb52  1  0.83238229  0.83335475  0.83413851  1
  Pb  Pb53  1  0.16689214  0.83332517  0.16447710  1
  I  I54  1  0.16658634  -0.00012983  0.16586760  1
  I  I55  1  0.16576855  -0.00033102  0.50048267  1
  I  I56  1  0.17059713  -0.00310309  0.83370357  1
  I  I57  1  0.16817123  0.33332518  0.16617455  1
  I  I58  1  0.16488127  0.33294031  0.50074122  1
  I  I59  1  0.16890324  0.33340275  0.83237881  1
  I  I60  1  0.16577796  0.66682917  0.16543788  1
  I  I61  1  0.16789498  0.66739256  0.50043850  1
  I  I62  1  0.16947904  0.67002010  0.83393759  1
  I  I63  1  0.50599850  0.00003004  0.16318035  1
  I  I64  1  0.50263575  0.00285407  0.50115589  1
  I  I65  1  0.50030528  0.00039644  0.83557213  1
  I  I66  1  0.50573683  0.33306195  0.16431419  1
  I  I67  1  0.50252273  0.32946891  0.50016907  1
  I  I68  1  0.50461048  0.33303222  0.83548224  1
  I  I69  1  0.50731285  0.66689705  0.15782232  1
  I  I70  1  0.49983218  0.66677312  0.50085252  1
  I  I71  1  0.50085089  0.66657229  0.84011906  1
  I  I72  1  0.82692945  0.00025014  0.16524014  1
  I  I73  1  0.83148934  -0.00281102  0.49775227  1
  I  I74  1  0.83042226  0.00225835  0.83552541  1
  I  I75  1  0.82565175  0.33310277  0.16097229  1
  I  I76  1  0.83321944  0.33313553  0.49827200  1
  I  I77  1  0.82489407  0.33298540  0.84053762  1
  I  I78  1  0.82723172  0.66659627  0.16542662  1
  I  I79  1  0.83220763  0.67005413  0.49804829  1
  I  I80  1  0.83110110  0.66450358  0.83552596  1
  I  I81  1  0.17085197  0.16563144  -0.00014713  1
  I  I82  1  0.16555575  0.16548670  0.33328895  1
  I  I83  1  0.16504677  0.16525957  0.66703176  1
  I  I84  1  0.16615911  0.50071627  -0.00018257  1
  I  I85  1  0.16717473  0.50133391  0.33301530  1
  I  I86  1  0.16633088  0.50118721  0.66736641  1
  I  I87  1  0.16645537  0.83366859  -0.00312061  1
  I  I88  1  0.16899647  0.83297258  0.33344983  1
  I  I89  1  0.17295039  0.83334232  0.67069747  1
  I  I90  1  0.50342817  0.16550096  -0.00005711  1
  I  I91  1  0.50528769  0.16625462  0.33145244  1
  I  I92  1  0.50455762  0.16507907  0.66863354  1
  I  I93  1  0.50373902  0.49723858  -0.00023644  1
  I  I94  1  0.50539960  0.50004896  0.32933040  1
  I  I95  1  0.50394291  0.50111617  0.67041658  1
  I  I96  1  0.50213329  0.83738669  0.00003898  1
  I  I97  1  0.50316137  0.83355699  0.32982954  1
  I  I98  1  0.49847748  0.83386480  0.66980543  1
  I  I99  1  0.82554762  0.16377896  0.00026158  1
  I  I100  1  0.82822734  0.16876845  0.32980518  1
  I  I101  1  0.82853397  0.16738614  0.66981996  1
  I  I102  1  0.82906370  0.50252328  0.00024752  1
  I  I103  1  0.82780564  0.49735797  0.32932675  1
  I  I104  1  0.82905223  0.49863826  0.67024901  1
  I  I105  1  0.83265110  0.83361596  0.00303163  1
  I  I106  1  0.82664758  0.83369274  0.33068945  1
  I  I107  1  0.83378661  0.83412941  0.66560842  1
  I  I108  1  -0.00434730  0.16531418  0.16078189  1
  I  I109  1  -0.00025126  0.16539248  0.50064623  1
  I  I110  1  -0.00384701  0.16795907  0.83836273  1
  I  I111  1  -0.00420300  0.50156902  0.16130225  1
  I  I112  1  -0.00063098  0.50026171  0.50094917  1
  I  I113  1  -0.00368699  0.49881949  0.83777951  1
  I  I114  1  -0.00365188  0.83344021  0.16840126  1
  I  I115  1  -0.00429183  0.83460177  0.49450528  1
  I  I116  1  0.00106204  0.83353901  0.83253469  1
  I  I117  1  0.33795170  0.16620614  0.16552362  1
  I  I118  1  0.33860470  0.16466213  0.50026613  1
  I  I119  1  0.33738096  0.16922399  0.83413139  1
  I  I120  1  0.33772329  0.49852078  0.16136842  1
  I  I121  1  0.33402558  0.50045092  0.50012200  1
  I  I122  1  0.33727975  0.49618504  0.83775345  1
  I  I123  1  0.33721724  0.83452227  0.16421274  1
  I  I124  1  0.33341219  0.83472110  0.49778027  1
  I  I125  1  0.33644406  0.83437246  0.83872278  1
  I  I126  1  0.66598706  0.16587840  0.16549035  1
  I  I127  1  0.66374699  0.16535188  0.50080801  1
  I  I128  1  0.66552412  0.16404472  0.83424792  1
  I  I129  1  0.66646132  0.50032640  0.16225454  1
  I  I130  1  0.66660261  0.50150782  0.50180197  1
  I  I131  1  0.66594517  0.50193187  0.83724019  1
  I  I132  1  0.66626513  0.83401903  0.16396948  1
  I  I133  1  0.66944516  0.83379393  0.50124123  1
  I  I134  1  0.66342983  0.83422419  0.83400088  1
