# generated using pymatgen
data_Cs27Sn14Pb13I81
_symmetry_space_group_name_H-M   'P 1'
_cell_length_a   18.96334495
_cell_length_b   18.95996795
_cell_length_c   18.95859643
_cell_angle_alpha   90.00183805
_cell_angle_beta   90.00259431
_cell_angle_gamma   90.00038122
_symmetry_Int_Tables_number   1
_chemical_formula_structural   Cs27Sn14Pb13I81
_chemical_formula_sum   'Cs27 Sn14 Pb13 I81'
_cell_volume   6816.45740341
_cell_formula_units_Z   1
loop_
 _symmetry_equiv_pos_site_id
 _symmetry_equiv_pos_as_xyz
  1  'x, y, z'
loop_
 _atom_site_type_symbol
 _atom_site_label
 _atom_site_symmetry_multiplicity
 _atom_site_fract_x
 _atom_site_fract_y
 _atom_site_fract_z
 _atom_site_occupancy
  Cs  Cs0  1  -0.00178405  -0.00494288  -0.00256295  1
  Cs  Cs1  1  -0.00185831  0.00152182  0.33521501  1
  Cs  Cs2  1  0.00004541  0.00060236  0.66771708  1
  Cs  Cs3  1  -0.00134514  0.33305524  -0.00010404  1
  Cs  Cs4  1  0.00648713  0.33573889  0.33557488  1
  Cs  Cs5  1  -0.00091817  0.33387666  0.66383720  1
  Cs  Cs6  1  0.00404783  0.67183153  0.00205894  1
  Cs  Cs7  1  0.00136999  0.66311434  0.33237277  1
  Cs  Cs8  1  -0.00119264  0.66736183  0.66523664  1
  Cs  Cs9  1  0.33167231  -0.00028122  0.00256869  1
  Cs  Cs10  1  0.33772434  0.00240537  0.32840731  1
  Cs  Cs11  1  0.33359425  -0.00125480  0.66691484  1
  Cs  Cs12  1  0.33445866  0.33326016  0.00141517  1
  Cs  Cs13  1  0.32695309  0.33299324  0.33142051  1
  Cs  Cs14  1  0.33410522  0.33273528  0.66696579  1
  Cs  Cs15  1  0.32587221  0.66604453  -0.00206389  1
  Cs  Cs16  1  0.33658759  0.66596489  0.33238106  1
  Cs  Cs17  1  0.33595329  0.67093229  0.66871589  1
  Cs  Cs18  1  0.66863563  0.00233489  0.00135560  1
  Cs  Cs19  1  0.66586537  -0.00240150  0.33360958  1
  Cs  Cs20  1  0.66698134  0.00116235  0.66563682  1
  Cs  Cs21  1  0.66570879  0.33382325  -0.00068399  1
  Cs  Cs22  1  0.66693082  0.33339741  0.33258450  1
  Cs  Cs23  1  0.66686975  0.33392495  0.66777082  1
  Cs  Cs24  1  0.66766360  0.66272310  0.00024565  1
  Cs  Cs25  1  0.66528376  0.66919195  0.33330386  1
  Cs  Cs26  1  0.66605510  0.66408815  0.66648537  1
  Sn  Sn27  1  0.16627697  0.49899733  0.83265825  1
  Sn  Sn28  1  0.83194301  0.83388810  0.83226595  1
  Sn  Sn29  1  0.50029520  0.49876874  0.49922894  1
  Sn  Sn30  1  0.50075204  0.49979209  0.16759559  1
  Sn  Sn31  1  0.83268492  0.49915275  0.16670683  1
  Sn  Sn32  1  0.83429651  0.83392415  0.50096210  1
  Sn  Sn33  1  0.50129491  0.83435472  0.83356043  1
  Sn  Sn34  1  0.83259033  0.16632384  0.49991443  1
  Sn  Sn35  1  0.83324823  0.16632891  0.83314604  1
  Sn  Sn36  1  0.50063301  0.16763558  0.50051506  1
  Sn  Sn37  1  0.49996123  0.16574610  0.83275978  1
  Sn  Sn38  1  0.83326900  0.16772978  0.16696441  1
  Sn  Sn39  1  0.16659022  0.16768560  0.83312696  1
  Sn  Sn40  1  0.16603306  0.83371706  0.49980465  1
  Pb  Pb41  1  0.16628625  0.83407444  0.83207903  1
  Pb  Pb42  1  0.50065339  0.83400630  0.50144427  1
  Pb  Pb43  1  0.83537149  0.50027288  0.83519528  1
  Pb  Pb44  1  0.16662028  0.49983817  0.16461727  1
  Pb  Pb45  1  0.50187444  0.16832428  0.16667402  1
  Pb  Pb46  1  0.83167929  0.49994678  0.49795378  1
  Pb  Pb47  1  0.16668561  0.83363406  0.17058164  1
  Pb  Pb48  1  0.16965166  0.50220276  0.50227828  1
  Pb  Pb49  1  0.16695805  0.16498874  0.50190538  1
  Pb  Pb50  1  0.83326082  0.83346096  0.16692537  1
  Pb  Pb51  1  0.49853434  0.49965928  0.83343302  1
  Pb  Pb52  1  0.16338704  0.16642570  0.16380854  1
  Pb  Pb53  1  0.50016381  0.83048364  0.16290763  1
  I  I54  1  0.16590976  0.00027173  0.16238300  1
  I  I55  1  0.16600543  -0.00272350  0.50495951  1
  I  I56  1  0.16612399  0.00293148  0.83157597  1
  I  I57  1  0.16740902  0.33316319  0.16838038  1
  I  I58  1  0.16474980  0.33319060  0.50021467  1
  I  I59  1  0.16722970  0.33189583  0.83301452  1
  I  I60  1  0.16425155  0.66642470  0.16159183  1
  I  I61  1  0.16106436  0.66988574  0.50400125  1
  I  I62  1  0.16819982  0.66525022  0.83267086  1
  I  I63  1  0.50116332  0.00023347  0.16924752  1
  I  I64  1  0.50121230  0.00304086  0.50350042  1
  I  I65  1  0.49890132  0.00155109  0.82708679  1
  I  I66  1  0.50325895  0.33626032  0.16472795  1
  I  I67  1  0.50574169  0.33191591  0.50374098  1
  I  I68  1  0.50278149  0.33015743  0.83241332  1
  I  I69  1  0.50665128  0.66245515  0.17228728  1
  I  I70  1  0.49966856  0.66483115  0.49857471  1
  I  I71  1  0.50208992  0.66886894  0.83244374  1
  I  I72  1  0.83366347  0.00321207  0.16549337  1
  I  I73  1  0.83153698  0.00110530  0.49940226  1
  I  I74  1  0.83495225  0.00124247  0.83487102  1
  I  I75  1  0.82881271  0.33243860  0.16456476  1
  I  I76  1  0.83058114  0.33002500  0.50376958  1
  I  I77  1  0.83069377  0.32996402  0.83127916  1
  I  I78  1  0.82983335  0.66397214  0.16591935  1
  I  I79  1  0.83496103  0.66941953  0.50374007  1
  I  I80  1  0.83046875  0.66970967  0.83016860  1
  I  I81  1  0.16888654  0.16962770  -0.00486099  1
  I  I82  1  0.16689279  0.16484152  0.33360728  1
  I  I83  1  0.16271354  0.16918479  0.67027484  1
  I  I84  1  0.16920905  0.49770172  -0.00341866  1
  I  I85  1  0.16572110  0.50231027  0.33359573  1
  I  I86  1  0.16756313  0.49590610  0.67000045  1
  I  I87  1  0.16647710  0.83195734  -0.00043591  1
  I  I88  1  0.15981123  0.83265409  0.33845100  1
  I  I89  1  0.16504654  0.83319034  0.66459339  1
  I  I90  1  0.50096815  0.16499269  -0.00326864  1
  I  I91  1  0.50460728  0.16786960  0.33634661  1
  I  I92  1  0.50453001  0.16898828  0.66719249  1
  I  I93  1  0.50277526  0.50031295  0.00206794  1
  I  I94  1  0.50388781  0.49598155  0.33387382  1
  I  I95  1  0.49821932  0.49923662  0.66458907  1
  I  I96  1  0.50542523  0.83885925  -0.00521429  1
  I  I97  1  0.49940816  0.83471754  0.33344066  1
  I  I98  1  0.50075932  0.83206225  0.66957881  1
  I  I99  1  0.83321231  0.16670763  -0.00142194  1
  I  I100  1  0.82777914  0.16518821  0.33461748  1
  I  I101  1  0.83273418  0.16180923  0.66712386  1
  I  I102  1  0.82703815  0.49569041  0.00303115  1
  I  I103  1  0.83176625  0.49649994  0.33002851  1
  I  I104  1  0.83252374  0.49863854  0.66662824  1
  I  I105  1  0.83013423  0.83658748  -0.00324511  1
  I  I106  1  0.83709099  0.83668199  0.33665926  1
  I  I107  1  0.83361735  0.84055853  0.66706689  1
  I  I108  1  -0.00513356  0.17292368  0.16825812  1
  I  I109  1  -0.00326316  0.16402631  0.50105697  1
  I  I110  1  -0.00147410  0.16637712  0.83382767  1
  I  I111  1  -0.00296521  0.49645552  0.16481903  1
  I  I112  1  -0.00005694  0.49864185  0.49901887  1
  I  I113  1  0.00286464  0.49639264  0.83494165  1
  I  I114  1  -0.00049358  0.83082965  0.16026484  1
  I  I115  1  -0.00216460  0.83828437  0.50676971  1
  I  I116  1  -0.00301636  0.83633822  0.83188906  1
  I  I117  1  0.33351812  0.16825842  0.16665765  1
  I  I118  1  0.33640313  0.16837537  0.50543404  1
  I  I119  1  0.33456201  0.16665507  0.82792595  1
  I  I120  1  0.33627139  0.50065165  0.16904931  1
  I  I121  1  0.33760740  0.49552058  0.49481386  1
  I  I122  1  0.33090341  0.49740619  0.83438702  1
  I  I123  1  0.33363711  0.83118190  0.16579603  1
  I  I124  1  0.33205123  0.83192490  0.50411943  1
  I  I125  1  0.33541389  0.83506141  0.83080459  1
  I  I126  1  0.67011418  0.16873380  0.16180698  1
  I  I127  1  0.66740413  0.16507858  0.50461144  1
  I  I128  1  0.66713865  0.16222070  0.83276237  1
  I  I129  1  0.66679833  0.49648747  0.16809191  1
  I  I130  1  0.66359844  0.50066740  0.50069673  1
  I  I131  1  0.66669815  0.49926310  0.83295966  1
  I  I132  1  0.66682594  0.83381505  0.17077091  1
  I  I133  1  0.66961481  0.83475109  0.50222766  1
  I  I134  1  0.66766663  0.83966139  0.82792171  1
