# generated using pymatgen
data_Cs27Sn14Pb13I81
_symmetry_space_group_name_H-M   'P 1'
_cell_length_a   18.98239996
_cell_length_b   18.97789572
_cell_length_c   18.96761188
_cell_angle_alpha   90.00012845
_cell_angle_beta   89.99976908
_cell_angle_gamma   89.99944013
_symmetry_Int_Tables_number   1
_chemical_formula_structural   Cs27Sn14Pb13I81
_chemical_formula_sum   'Cs27 Sn14 Pb13 I81'
_cell_volume   6833.00644213
_cell_formula_units_Z   1
loop_
 _symmetry_equiv_pos_site_id
 _symmetry_equiv_pos_as_xyz
  1  'x, y, z'
loop_
 _atom_site_type_symbol
 _atom_site_label
 _atom_site_symmetry_multiplicity
 _atom_site_fract_x
 _atom_site_fract_y
 _atom_site_fract_z
 _atom_site_occupancy
  Cs  Cs0  1  -0.00132920  -0.00122009  -0.00035704  1
  Cs  Cs1  1  0.00298428  -0.00049693  0.33137115  1
  Cs  Cs2  1  0.00009859  0.00015577  0.66872709  1
  Cs  Cs3  1  0.00259803  0.33487664  -0.00166495  1
  Cs  Cs4  1  0.00117535  0.33457138  0.33412722  1
  Cs  Cs5  1  -0.00211350  0.32932044  0.66528351  1
  Cs  Cs6  1  -0.00205306  0.66659284  -0.00041904  1
  Cs  Cs7  1  0.00001848  0.66569664  0.33451823  1
  Cs  Cs8  1  -0.00161799  0.66910326  0.66549192  1
  Cs  Cs9  1  0.33404207  -0.00040168  0.00106761  1
  Cs  Cs10  1  0.33139797  0.00005637  0.33448120  1
  Cs  Cs11  1  0.33422102  -0.00236893  0.66286347  1
  Cs  Cs12  1  0.33164095  0.33683378  -0.00361960  1
  Cs  Cs13  1  0.32898448  0.33174194  0.33014031  1
  Cs  Cs14  1  0.33901954  0.33482694  0.67672186  1
  Cs  Cs15  1  0.33325524  0.66467421  -0.00025772  1
  Cs  Cs16  1  0.33134582  0.66787633  0.33547963  1
  Cs  Cs17  1  0.33719577  0.66866445  0.66400947  1
  Cs  Cs18  1  0.66725633  -0.00275762  0.00228204  1
  Cs  Cs19  1  0.66470168  0.00152668  0.32920777  1
  Cs  Cs20  1  0.66668977  0.00743104  0.66541535  1
  Cs  Cs21  1  0.66582928  0.33375437  0.00091631  1
  Cs  Cs22  1  0.66789010  0.33469755  0.33693098  1
  Cs  Cs23  1  0.66227134  0.32853873  0.65895733  1
  Cs  Cs24  1  0.66881953  0.66916850  0.00043205  1
  Cs  Cs25  1  0.66824520  0.66425283  0.33365430  1
  Cs  Cs26  1  0.66794552  0.66367257  0.66609388  1
  Sn  Sn27  1  0.16682046  0.16818969  0.49981967  1
  Sn  Sn28  1  0.83319626  0.50000555  0.83351202  1
  Sn  Sn29  1  0.83283465  0.49896541  0.16584943  1
  Sn  Sn30  1  0.16694166  0.49863292  0.50069532  1
  Sn  Sn31  1  0.49875305  0.83284948  0.16608389  1
  Sn  Sn32  1  0.50068378  0.50026869  0.16670791  1
  Sn  Sn33  1  0.16653306  0.16592311  0.16681170  1
  Sn  Sn34  1  0.49960985  0.16699393  0.16655087  1
  Sn  Sn35  1  0.16741865  0.83372759  0.16573666  1
  Sn  Sn36  1  0.50030027  0.83335513  0.83403647  1
  Sn  Sn37  1  0.83295605  0.83367867  0.50097874  1
  Sn  Sn38  1  0.83288207  0.83273899  0.83201397  1
  Sn  Sn39  1  0.83378876  0.16811572  0.16644863  1
  Sn  Sn40  1  0.16684910  0.83324877  0.83427942  1
  Pb  Pb41  1  0.50300965  0.83334344  0.49960960  1
  Pb  Pb42  1  0.50273995  0.50224616  0.83550612  1
  Pb  Pb43  1  0.16672168  0.16443842  0.83364471  1
  Pb  Pb44  1  0.83320371  0.16693416  0.83553742  1
  Pb  Pb45  1  0.83544077  0.16421693  0.49715958  1
  Pb  Pb46  1  0.16431375  0.50269888  0.83035171  1
  Pb  Pb47  1  0.50005920  0.16412120  0.83595069  1
  Pb  Pb48  1  0.49691552  0.16673279  0.49747004  1
  Pb  Pb49  1  0.83343550  0.83310369  0.16627824  1
  Pb  Pb50  1  0.16645867  0.50023882  0.16735737  1
  Pb  Pb51  1  0.16524369  0.83374515  0.49984480  1
  Pb  Pb52  1  0.49720230  0.49993483  0.49744553  1
  Pb  Pb53  1  0.83472341  0.50118850  0.50015814  1
  I  I54  1  0.16820935  -0.00021341  0.16933293  1
  I  I55  1  0.16477160  0.00210424  0.49669135  1
  I  I56  1  0.16306074  -0.00419876  0.83353670  1
  I  I57  1  0.16820357  0.33075540  0.17031852  1
  I  I58  1  0.16427974  0.33246128  0.48966464  1
  I  I59  1  0.16445039  0.33356893  0.83570345  1
  I  I60  1  0.16876238  0.66952479  0.16529278  1
  I  I61  1  0.16400113  0.66533940  0.49843352  1
  I  I62  1  0.16765009  0.67088133  0.83949162  1
  I  I63  1  0.50026617  -0.00040346  0.16300079  1
  I  I64  1  0.49784063  -0.00016777  0.49757350  1
  I  I65  1  0.50264943  -0.00453849  0.83977915  1
  I  I66  1  0.50058959  0.33310409  0.16891904  1
  I  I67  1  0.50415997  0.33329472  0.49845608  1
  I  I68  1  0.50090603  0.33360329  0.83476883  1
  I  I69  1  0.50056677  0.66749186  0.16270687  1
  I  I70  1  0.49598271  0.66686638  0.49561319  1
  I  I71  1  0.49770033  0.67053660  0.84063354  1
  I  I72  1  0.83202104  0.00180822  0.16754704  1
  I  I73  1  0.83626650  -0.00348472  0.50506454  1
  I  I74  1  0.83418260  -0.00357695  0.83153750  1
  I  I75  1  0.83107259  0.33380991  0.16197781  1
  I  I76  1  0.83394580  0.33302323  0.50182306  1
  I  I77  1  0.83549898  0.33639059  0.83791509  1
  I  I78  1  0.83094741  0.66454634  0.16623554  1
  I  I79  1  0.83776367  0.66918348  0.49789562  1
  I  I80  1  0.83393009  0.66809571  0.83715562  1
  I  I81  1  0.16677216  0.16356831  0.00385039  1
  I  I82  1  0.16663143  0.16339422  0.33121753  1
  I  I83  1  0.16398206  0.16792527  0.66387506  1
  I  I84  1  0.16778873  0.49836458  -0.00023456  1
  I  I85  1  0.16433535  0.50224680  0.33503705  1
  I  I86  1  0.16327076  0.49572659  0.66287098  1
  I  I87  1  0.16452669  0.83854401  0.00113464  1
  I  I88  1  0.16904801  0.83449088  0.33037614  1
  I  I89  1  0.16774740  0.83270379  0.66932117  1
  I  I90  1  0.49676377  0.16810603  0.00487877  1
  I  I91  1  0.50288284  0.16195619  0.32849119  1
  I  I92  1  0.49899095  0.16471973  0.66668714  1
  I  I93  1  0.49960573  0.49798956  0.00412565  1
  I  I94  1  0.50757689  0.50358051  0.32853061  1
  I  I95  1  0.50027525  0.50278883  0.66697358  1
  I  I96  1  0.50172771  0.83406740  0.00137757  1
  I  I97  1  0.49623208  0.83433792  0.32934778  1
  I  I98  1  0.49580815  0.83213323  0.66986026  1
  I  I99  1  0.83617324  0.16406407  0.00434381  1
  I  I100  1  0.83107172  0.17005402  0.32875777  1
  I  I101  1  0.83595939  0.16758381  0.66643797  1
  I  I102  1  0.83095352  0.50399161  0.00118017  1
  I  I103  1  0.83078281  0.49882886  0.33022227  1
  I  I104  1  0.83738234  0.50655300  0.66934461  1
  I  I105  1  0.83384598  0.83270570  -0.00228427  1
  I  I106  1  0.83532502  0.83340487  0.33450497  1
  I  I107  1  0.83562638  0.82681218  0.66853021  1
  I  I108  1  0.00058506  0.16490268  0.17041121  1
  I  I109  1  0.00316563  0.16896894  0.49218527  1
  I  I110  1  -0.00001666  0.16268673  0.83719230  1
  I  I111  1  -0.00265847  0.49835738  0.16502284  1
  I  I112  1  0.00247951  0.49831648  0.49551191  1
  I  I113  1  -0.00337743  0.50757700  0.84207660  1
  I  I114  1  0.00229228  0.83651822  0.16487382  1
  I  I115  1  -0.00240386  0.83293123  0.50246090  1
  I  I116  1  -0.00028592  0.83024300  0.83415358  1
  I  I117  1  0.33295941  0.16420930  0.17154966  1
  I  I118  1  0.32899854  0.16666009  0.49229703  1
  I  I119  1  0.33325695  0.16571484  0.83512381  1
  I  I120  1  0.33566767  0.49914162  0.16953055  1
  I  I121  1  0.32930336  0.49924395  0.49680295  1
  I  I122  1  0.33343708  0.50122691  0.83383898  1
  I  I123  1  0.33321536  0.83581429  0.16050610  1
  I  I124  1  0.33332744  0.83344548  0.50204086  1
  I  I125  1  0.33326775  0.83496952  0.83943331  1
  I  I126  1  0.66648410  0.16450430  0.16435064  1
  I  I127  1  0.66674824  0.16480540  0.49887731  1
  I  I128  1  0.66674854  0.16260161  0.83596212  1
  I  I129  1  0.66715737  0.49875981  0.16328168  1
  I  I130  1  0.66672031  0.50289715  0.50043094  1
  I  I131  1  0.67054962  0.50805658  0.83618788  1
  I  I132  1  0.66440327  0.83594271  0.16441916  1
  I  I133  1  0.67071203  0.83134150  0.50182846  1
  I  I134  1  0.66694909  0.82929050  0.83613034  1
