# generated using pymatgen
data_Cs27Sn14Pb13I81
_symmetry_space_group_name_H-M   'P 1'
_cell_length_a   18.97620672
_cell_length_b   18.98075084
_cell_length_c   18.97083583
_cell_angle_alpha   90.00079418
_cell_angle_beta   90.00061074
_cell_angle_gamma   89.99929666
_symmetry_Int_Tables_number   1
_chemical_formula_structural   Cs27Sn14Pb13I81
_chemical_formula_sum   'Cs27 Sn14 Pb13 I81'
_cell_volume   6832.96594961
_cell_formula_units_Z   1
loop_
 _symmetry_equiv_pos_site_id
 _symmetry_equiv_pos_as_xyz
  1  'x, y, z'
loop_
 _atom_site_type_symbol
 _atom_site_label
 _atom_site_symmetry_multiplicity
 _atom_site_fract_x
 _atom_site_fract_y
 _atom_site_fract_z
 _atom_site_occupancy
  Cs  Cs0  1  0.00303146  0.00240545  0.00072397  1
  Cs  Cs1  1  -0.00033264  0.00041669  0.33294993  1
  Cs  Cs2  1  0.00074493  -0.00020312  0.66769751  1
  Cs  Cs3  1  -0.00192629  0.33000544  -0.00513149  1
  Cs  Cs4  1  -0.00020221  0.33227239  0.33359153  1
  Cs  Cs5  1  -0.00148829  0.33238774  0.67191171  1
  Cs  Cs6  1  0.00243633  0.66704649  -0.00069764  1
  Cs  Cs7  1  -0.00111761  0.66606414  0.33415810  1
  Cs  Cs8  1  0.00161065  0.66809768  0.66479706  1
  Cs  Cs9  1  0.33110130  -0.00005987  -0.00183794  1
  Cs  Cs10  1  0.33253788  0.00301307  0.33371521  1
  Cs  Cs11  1  0.33501914  -0.00153354  0.66710337  1
  Cs  Cs12  1  0.33610687  0.34546115  0.00115288  1
  Cs  Cs13  1  0.33180902  0.33136109  0.33023855  1
  Cs  Cs14  1  0.33366751  0.33608557  0.66699856  1
  Cs  Cs15  1  0.33406720  0.65623475  -0.00000972  1
  Cs  Cs16  1  0.33021160  0.66392642  0.33330907  1
  Cs  Cs17  1  0.33306533  0.66883511  0.66632862  1
  Cs  Cs18  1  0.66528866  -0.00292893  0.00185476  1
  Cs  Cs19  1  0.66623005  0.00063663  0.33213350  1
  Cs  Cs20  1  0.66496172  -0.00039234  0.66546298  1
  Cs  Cs21  1  0.66688576  0.33762174  -0.00445139  1
  Cs  Cs22  1  0.66831488  0.32995413  0.33527257  1
  Cs  Cs23  1  0.66794838  0.33425965  0.66784512  1
  Cs  Cs24  1  0.66369462  0.66745506  0.00144911  1
  Cs  Cs25  1  0.67006285  0.66925767  0.33441234  1
  Cs  Cs26  1  0.66640414  0.66808884  0.66520545  1
  Sn  Sn27  1  0.16583083  0.16587561  0.49960112  1
  Sn  Sn28  1  0.83416887  0.16645195  0.49961411  1
  Sn  Sn29  1  0.83372988  0.16746008  0.16725171  1
  Sn  Sn30  1  0.16698071  0.83392055  0.16754303  1
  Sn  Sn31  1  0.50007151  0.83272748  0.50002498  1
  Sn  Sn32  1  0.50086788  0.83443084  0.83283016  1
  Sn  Sn33  1  0.83327440  0.83368427  0.50065741  1
  Sn  Sn34  1  0.50075856  0.50072375  0.49961630  1
  Sn  Sn35  1  0.16602882  0.16585183  0.16729947  1
  Sn  Sn36  1  0.83264138  0.83371523  0.83275431  1
  Sn  Sn37  1  0.16662224  0.83446615  0.49892263  1
  Sn  Sn38  1  0.83262609  0.49983293  0.49934995  1
  Sn  Sn39  1  0.83353577  0.49892825  0.16743741  1
  Sn  Sn40  1  0.49988816  0.16586474  0.83352793  1
  Pb  Pb41  1  0.16366449  0.49923088  0.16708542  1
  Pb  Pb42  1  0.16629054  0.49988579  0.83311045  1
  Pb  Pb43  1  0.49676440  0.83342013  0.16692744  1
  Pb  Pb44  1  0.50000286  0.16661176  0.16382776  1
  Pb  Pb45  1  0.49990349  0.16657525  0.50117846  1
  Pb  Pb46  1  0.16939451  0.16667468  0.83342992  1
  Pb  Pb47  1  0.83334036  0.50315981  0.83292943  1
  Pb  Pb48  1  0.83507079  0.83373698  0.16672047  1
  Pb  Pb49  1  0.50331481  0.50003548  0.17024274  1
  Pb  Pb50  1  0.16716485  0.83331919  0.83319665  1
  Pb  Pb51  1  0.50037420  0.50104283  0.83048210  1
  Pb  Pb52  1  0.16604155  0.49951083  0.50009021  1
  Pb  Pb53  1  0.83149584  0.16423618  0.83339169  1
  I  I54  1  0.16018868  0.00061927  0.17090561  1
  I  I55  1  0.16392467  -0.00070075  0.49632060  1
  I  I56  1  0.16531639  -0.00012527  0.83373225  1
  I  I57  1  0.16566059  0.32969906  0.17238772  1
  I  I58  1  0.16499222  0.32976587  0.49565464  1
  I  I59  1  0.16893476  0.33267101  0.83222036  1
  I  I60  1  0.16573404  0.66929091  0.17053954  1
  I  I61  1  0.16464494  0.67000757  0.49722424  1
  I  I62  1  0.16818342  0.66740254  0.83379350  1
  I  I63  1  0.50556336  -0.00006335  0.17089325  1
  I  I64  1  0.50203475  -0.00296294  0.50280041  1
  I  I65  1  0.50341568  -0.00180798  0.82620412  1
  I  I66  1  0.49428880  0.33331824  0.16565217  1
  I  I67  1  0.50362589  0.33534472  0.50219548  1
  I  I68  1  0.49870727  0.33132846  0.83229077  1
  I  I69  1  0.49954853  0.66680127  0.16126473  1
  I  I70  1  0.50284045  0.66830520  0.50553615  1
  I  I71  1  0.50367446  0.67030632  0.83084741  1
  I  I72  1  0.83555686  0.00278125  0.16979449  1
  I  I73  1  0.83337749  -0.00026941  0.49995705  1
  I  I74  1  0.83130283  -0.00348924  0.82827474  1
  I  I75  1  0.83846041  0.33222762  0.17536718  1
  I  I76  1  0.83259795  0.33288059  0.49498616  1
  I  I77  1  0.83182819  0.33312680  0.83116993  1
  I  I78  1  0.83431341  0.66495162  0.17028664  1
  I  I79  1  0.83254836  0.66744010  0.49982676  1
  I  I80  1  0.82731997  0.67107597  0.82955474  1
  I  I81  1  0.16134385  0.16103195  0.00347863  1
  I  I82  1  0.16335427  0.16179532  0.33407543  1
  I  I83  1  0.16252201  0.16194908  0.66321766  1
  I  I84  1  0.16586256  0.50173655  0.00068014  1
  I  I85  1  0.17053363  0.50182581  0.33367799  1
  I  I86  1  0.16476357  0.50018802  0.66578220  1
  I  I87  1  0.16422794  0.83817355  0.00284287  1
  I  I88  1  0.16588838  0.83697784  0.33516356  1
  I  I89  1  0.16626014  0.83713150  0.66298214  1
  I  I90  1  0.50092319  0.15822610  -0.00390607  1
  I  I91  1  0.49999231  0.16667513  0.33345769  1
  I  I92  1  0.50053204  0.16434891  0.66880171  1
  I  I93  1  0.49950451  0.50027931  -0.00001109  1
  I  I94  1  0.50083755  0.50644091  0.33802238  1
  I  I95  1  0.50714519  0.50112975  0.66276311  1
  I  I96  1  0.50503315  0.83811353  -0.00309282  1
  I  I97  1  0.50413049  0.82960414  0.33711409  1
  I  I98  1  0.49904882  0.83330577  0.66515132  1
  I  I99  1  0.83707543  0.16989778  0.00296218  1
  I  I100  1  0.83607762  0.16538229  0.33466041  1
  I  I101  1  0.83672973  0.16911008  0.66323998  1
  I  I102  1  0.83599691  0.49566779  0.00287285  1
  I  I103  1  0.82947789  0.50203794  0.33502755  1
  I  I104  1  0.82943417  0.49722861  0.66280505  1
  I  I105  1  0.82995110  0.83325193  -0.00221390  1
  I  I106  1  0.83079037  0.83278625  0.33670521  1
  I  I107  1  0.83476324  0.83317960  0.66424104  1
  I  I108  1  -0.00046862  0.16609600  0.17086579  1
  I  I109  1  -0.00085741  0.16341646  0.49670113  1
  I  I110  1  -0.00014779  0.16562313  0.83324137  1
  I  I111  1  -0.00388308  0.50044330  0.17590310  1
  I  I112  1  -0.00365275  0.50354159  0.49578551  1
  I  I113  1  -0.00081979  0.50181996  0.83046065  1
  I  I114  1  0.00285086  0.83410558  0.17089352  1
  I  I115  1  -0.00067031  0.83293883  0.50050405  1
  I  I116  1  -0.00252976  0.83211314  0.82915863  1
  I  I117  1  0.32989567  0.16089755  0.17198776  1
  I  I118  1  0.33061626  0.16341025  0.49731241  1
  I  I119  1  0.33687038  0.15827025  0.83078889  1
  I  I120  1  0.33322382  0.49995097  0.16542749  1
  I  I121  1  0.33586549  0.50379661  0.50349427  1
  I  I122  1  0.33393772  0.50141845  0.83220818  1
  I  I123  1  0.32879283  0.84072998  0.17123454  1
  I  I124  1  0.33335696  0.83317083  0.50102571  1
  I  I125  1  0.33650274  0.83736529  0.82857229  1
  I  I126  1  0.67015361  0.16996495  0.17175820  1
  I  I127  1  0.66977341  0.16453606  0.49703728  1
  I  I128  1  0.66391397  0.16376547  0.83156887  1
  I  I129  1  0.67119749  0.49448783  0.16780597  1
  I  I130  1  0.66794029  0.50338724  0.49674714  1
  I  I131  1  0.66685100  0.49750771  0.83617335  1
  I  I132  1  0.66683432  0.83336673  0.16807045  1
  I  I133  1  0.66730212  0.83250752  0.50494423  1
  I  I134  1  0.66638517  0.83682490  0.82492021  1
