# generated using pymatgen
data_Cs27Sn14Pb13I81
_symmetry_space_group_name_H-M   'P 1'
_cell_length_a   18.98622836
_cell_length_b   18.96622699
_cell_length_c   18.97598467
_cell_angle_alpha   89.99941503
_cell_angle_beta   90.00016568
_cell_angle_gamma   90.00119169
_symmetry_Int_Tables_number   1
_chemical_formula_structural   Cs27Sn14Pb13I81
_chemical_formula_sum   'Cs27 Sn14 Pb13 I81'
_cell_volume   6833.19737007
_cell_formula_units_Z   1
loop_
 _symmetry_equiv_pos_site_id
 _symmetry_equiv_pos_as_xyz
  1  'x, y, z'
loop_
 _atom_site_type_symbol
 _atom_site_label
 _atom_site_symmetry_multiplicity
 _atom_site_fract_x
 _atom_site_fract_y
 _atom_site_fract_z
 _atom_site_occupancy
  Cs  Cs0  1  0.00203482  -0.00261647  0.00069246  1
  Cs  Cs1  1  0.00005309  -0.00014090  0.33342958  1
  Cs  Cs2  1  0.00214744  0.00026760  0.66683413  1
  Cs  Cs3  1  0.00038972  0.33447585  -0.00363850  1
  Cs  Cs4  1  0.00209522  0.33423155  0.33577562  1
  Cs  Cs5  1  -0.01248266  0.33199885  0.66893720  1
  Cs  Cs6  1  -0.00009114  0.66791008  0.00100887  1
  Cs  Cs7  1  0.00428496  0.66574924  0.33029546  1
  Cs  Cs8  1  -0.00033203  0.66618925  0.66727629  1
  Cs  Cs9  1  0.33353993  0.00105407  -0.00100754  1
  Cs  Cs10  1  0.33268218  0.00076857  0.33630543  1
  Cs  Cs11  1  0.33182660  0.00163133  0.66474739  1
  Cs  Cs12  1  0.33442427  0.33421577  -0.00101261  1
  Cs  Cs13  1  0.33115333  0.33477421  0.33420622  1
  Cs  Cs14  1  0.33450068  0.32971743  0.66825558  1
  Cs  Cs15  1  0.33415855  0.66568298  0.00030084  1
  Cs  Cs16  1  0.33283817  0.66374726  0.33790653  1
  Cs  Cs17  1  0.33558524  0.66758811  0.66338368  1
  Cs  Cs18  1  0.66384061  0.00014296  0.00331734  1
  Cs  Cs19  1  0.66830241  0.00161239  0.33070377  1
  Cs  Cs20  1  0.66651497  -0.00069780  0.66567257  1
  Cs  Cs21  1  0.66489179  0.32961483  0.00037138  1
  Cs  Cs22  1  0.66887640  0.32924354  0.33452216  1
  Cs  Cs23  1  0.67815888  0.33542670  0.66500878  1
  Cs  Cs24  1  0.66580169  0.66785171  -0.00007531  1
  Cs  Cs25  1  0.66386094  0.66805026  0.33073227  1
  Cs  Cs26  1  0.66444069  0.66417362  0.66707165  1
  Sn  Sn27  1  0.49937410  0.83269840  0.16627116  1
  Sn  Sn28  1  0.83309672  0.83309318  0.83340832  1
  Sn  Sn29  1  0.83327287  0.83261591  0.16664115  1
  Sn  Sn30  1  0.49922733  0.50066719  0.83401890  1
  Sn  Sn31  1  0.16725542  0.83225065  0.83400811  1
  Sn  Sn32  1  0.50089823  0.50069388  0.16603848  1
  Sn  Sn33  1  0.83330911  0.83284034  0.49964930  1
  Sn  Sn34  1  0.16688266  0.16606839  0.16721528  1
  Sn  Sn35  1  0.16753101  0.50102651  0.83305843  1
  Sn  Sn36  1  0.49970052  0.16687295  0.50006996  1
  Sn  Sn37  1  0.16733716  0.83400508  0.16627232  1
  Sn  Sn38  1  0.49960499  0.83273786  0.83397662  1
  Sn  Sn39  1  0.83224508  0.50068870  0.16651343  1
  Sn  Sn40  1  0.16729664  0.16685782  0.49940375  1
  Pb  Pb41  1  0.83267754  0.50240081  0.83572813  1
  Pb  Pb42  1  0.83376322  0.16434801  0.49970546  1
  Pb  Pb43  1  0.83610240  0.16667612  0.16648259  1
  Pb  Pb44  1  0.50180096  0.83478789  0.49985094  1
  Pb  Pb45  1  0.16661579  0.49699184  0.50399608  1
  Pb  Pb46  1  0.83323928  0.50326664  0.49656769  1
  Pb  Pb47  1  0.16493059  0.83449838  0.50013336  1
  Pb  Pb48  1  0.16708092  0.50035675  0.16512131  1
  Pb  Pb49  1  0.83306945  0.16326345  0.83398894  1
  Pb  Pb50  1  0.16673656  0.16666964  0.83344067  1
  Pb  Pb51  1  0.50017377  0.16692249  0.83111027  1
  Pb  Pb52  1  0.50002148  0.49753842  0.50014519  1
  Pb  Pb53  1  0.49777987  0.16683342  0.16819042  1
  I  I54  1  0.16592700  -0.00222928  0.16449642  1
  I  I55  1  0.16941452  0.00246672  0.50042277  1
  I  I56  1  0.16624251  -0.00355811  0.83431842  1
  I  I57  1  0.16661192  0.33128418  0.16908284  1
  I  I58  1  0.17091119  0.32903686  0.49188337  1
  I  I59  1  0.17280146  0.33625705  0.83479339  1
  I  I60  1  0.16490036  0.66998689  0.16385848  1
  I  I61  1  0.16495504  0.66667668  0.49719311  1
  I  I62  1  0.16631210  0.66854436  0.83998031  1
  I  I63  1  0.50302729  -0.00345887  0.16333038  1
  I  I64  1  0.49633258  0.00244191  0.49997782  1
  I  I65  1  0.49975134  -0.00378425  0.83720325  1
  I  I66  1  0.50340826  0.33649749  0.16290903  1
  I  I67  1  0.49466100  0.32973531  0.49884656  1
  I  I68  1  0.49317463  0.33695695  0.83816803  1
  I  I69  1  0.49966505  0.66795642  0.16334470  1
  I  I70  1  0.50189596  0.66670704  0.49999484  1
  I  I71  1  0.49950582  0.66794395  0.83687631  1
  I  I72  1  0.83063698  -0.00399956  0.16637001  1
  I  I73  1  0.83334768  -0.00358170  0.49763606  1
  I  I74  1  0.83457786  -0.00580175  0.83641850  1
  I  I75  1  0.82912751  0.33645712  0.16623661  1
  I  I76  1  0.83354675  0.33340646  0.49966120  1
  I  I77  1  0.83443817  0.33401872  0.83364409  1
  I  I78  1  0.83507743  0.66884342  0.16654567  1
  I  I79  1  0.83290872  0.67110490  0.50353294  1
  I  I80  1  0.83434761  0.67084763  0.83185574  1
  I  I81  1  0.16561121  0.16370392  0.00260308  1
  I  I82  1  0.16987228  0.16005818  0.33252675  1
  I  I83  1  0.17102735  0.16529762  0.66422472  1
  I  I84  1  0.16747407  0.49970550  -0.00274004  1
  I  I85  1  0.16650426  0.50180769  0.33319679  1
  I  I86  1  0.17312976  0.50722725  0.67191868  1
  I  I87  1  0.16251921  0.83593657  0.00042010  1
  I  I88  1  0.16576427  0.83590093  0.33016237  1
  I  I89  1  0.16612952  0.83190244  0.66995859  1
  I  I90  1  0.49871417  0.16611034  0.00013654  1
  I  I91  1  0.49769402  0.16507467  0.33584970  1
  I  I92  1  0.49192030  0.16404499  0.66348732  1
  I  I93  1  0.49958945  0.50425639  0.00021288  1
  I  I94  1  0.50360896  0.50456980  0.32982904  1
  I  I95  1  0.49506354  0.50485848  0.67024832  1
  I  I96  1  0.50366929  0.83112716  0.00031963  1
  I  I97  1  0.50028515  0.83067713  0.32983118  1
  I  I98  1  0.50026423  0.83088158  0.66994085  1
  I  I99  1  0.83520573  0.16500712  0.00049916  1
  I  I100  1  0.83174449  0.16347807  0.33308916  1
  I  I101  1  0.83567192  0.16567336  0.66656539  1
  I  I102  1  0.83346125  0.50697789  0.00336893  1
  I  I103  1  0.82786210  0.50563742  0.32858360  1
  I  I104  1  0.83363246  0.49988153  0.66700304  1
  I  I105  1  0.83445855  0.82969505  0.00061958  1
  I  I106  1  0.83329517  0.83101324  0.33164030  1
  I  I107  1  0.83377370  0.83633077  0.66773628  1
  I  I108  1  0.00403267  0.16191921  0.17256822  1
  I  I109  1  0.00287245  0.16462536  0.49612009  1
  I  I110  1  0.00028154  0.16851735  0.83034522  1
  I  I111  1  -0.00178120  0.50379477  0.16560461  1
  I  I112  1  -0.00004521  0.49720297  0.49961958  1
  I  I113  1  0.00205465  0.50301223  0.83492447  1
  I  I114  1  -0.00002362  0.83380880  0.16430142  1
  I  I115  1  -0.00297574  0.83664423  0.49972218  1
  I  I116  1  0.00051802  0.83080341  0.83624915  1
  I  I117  1  0.33004132  0.16176418  0.16831421  1
  I  I118  1  0.33247532  0.16410533  0.49627908  1
  I  I119  1  0.33333009  0.16209617  0.83385324  1
  I  I120  1  0.33612638  0.50262356  0.16422492  1
  I  I121  1  0.33327470  0.50284122  0.49481693  1
  I  I122  1  0.33408761  0.50773880  0.83978907  1
  I  I123  1  0.33343994  0.83420462  0.15968576  1
  I  I124  1  0.33334425  0.83420302  0.50003161  1
  I  I125  1  0.33337221  0.83029346  0.84039955  1
  I  I126  1  0.66643683  0.16405384  0.16908118  1
  I  I127  1  0.66449485  0.16508660  0.50071569  1
  I  I128  1  0.66639883  0.16706957  0.83009189  1
  I  I129  1  0.66568923  0.50875228  0.16166842  1
  I  I130  1  0.66666369  0.49582026  0.50537276  1
  I  I131  1  0.66364591  0.50414543  0.83463935  1
  I  I132  1  0.66649535  0.82940323  0.16450242  1
  I  I133  1  0.66965496  0.83694968  0.49974291  1
  I  I134  1  0.66612145  0.83059503  0.83549582  1
