# generated using pymatgen
data_Cs27Sn13Pb14I81
_symmetry_space_group_name_H-M   'P 1'
_cell_length_a   18.97030110
_cell_length_b   18.97986640
_cell_length_c   18.98117914
_cell_angle_alpha   90.00021229
_cell_angle_beta   90.00155474
_cell_angle_gamma   89.99842117
_symmetry_Int_Tables_number   1
_chemical_formula_structural   Cs27Sn13Pb14I81
_chemical_formula_sum   'Cs27 Sn13 Pb14 I81'
_cell_volume   6834.24530027
_cell_formula_units_Z   1
loop_
 _symmetry_equiv_pos_site_id
 _symmetry_equiv_pos_as_xyz
  1  'x, y, z'
loop_
 _atom_site_type_symbol
 _atom_site_label
 _atom_site_symmetry_multiplicity
 _atom_site_fract_x
 _atom_site_fract_y
 _atom_site_fract_z
 _atom_site_occupancy
  Cs  Cs0  1  -0.00113994  -0.00003669  0.00126457  1
  Cs  Cs1  1  0.00162687  -0.00260546  0.32873763  1
  Cs  Cs2  1  -0.00005180  -0.00053218  0.66920044  1
  Cs  Cs3  1  -0.00440090  0.32954607  0.00302905  1
  Cs  Cs4  1  -0.00569900  0.33320626  0.33386240  1
  Cs  Cs5  1  0.00072781  0.33276551  0.66471231  1
  Cs  Cs6  1  0.00032036  0.67009373  -0.00027850  1
  Cs  Cs7  1  0.00095279  0.66803343  0.33382599  1
  Cs  Cs8  1  0.00085622  0.66746933  0.66543566  1
  Cs  Cs9  1  0.33181164  -0.00022233  -0.00013911  1
  Cs  Cs10  1  0.33644195  0.00165637  0.33158178  1
  Cs  Cs11  1  0.33449445  0.00031676  0.66701193  1
  Cs  Cs12  1  0.33641522  0.33381600  -0.00101499  1
  Cs  Cs13  1  0.33498620  0.33268008  0.33223627  1
  Cs  Cs14  1  0.33076763  0.33456295  0.66845850  1
  Cs  Cs15  1  0.33419825  0.66641291  -0.00026311  1
  Cs  Cs16  1  0.33158261  0.66781625  0.33656525  1
  Cs  Cs17  1  0.33239817  0.66620831  0.66584477  1
  Cs  Cs18  1  0.66908454  -0.00181322  -0.00232141  1
  Cs  Cs19  1  0.66187875  0.00284809  0.33621147  1
  Cs  Cs20  1  0.66533454  0.00168438  0.66532219  1
  Cs  Cs21  1  0.66999864  0.34150330  0.00782210  1
  Cs  Cs22  1  0.67315811  0.32722567  0.32749270  1
  Cs  Cs23  1  0.67686397  0.33425767  0.66594605  1
  Cs  Cs24  1  0.66588577  0.66298697  -0.00063566  1
  Cs  Cs25  1  0.66794545  0.66806323  0.33219407  1
  Cs  Cs26  1  0.66762915  0.66581289  0.66912680  1
  Sn  Sn27  1  0.16700867  0.49984164  0.16674157  1
  Sn  Sn28  1  0.49983185  0.49940072  0.49992585  1
  Sn  Sn29  1  0.16702587  0.16635303  0.50033983  1
  Sn  Sn30  1  0.83398410  0.83331417  0.49936620  1
  Sn  Sn31  1  0.16686158  0.49989211  0.83373312  1
  Sn  Sn32  1  0.83186784  0.83315676  0.16762602  1
  Sn  Sn33  1  0.16615998  0.83401723  0.50065683  1
  Sn  Sn34  1  0.49896297  0.83402975  0.83400856  1
  Sn  Sn35  1  0.16769843  0.49964709  0.49975341  1
  Sn  Sn36  1  0.16749536  0.16652350  0.83252573  1
  Sn  Sn37  1  0.49964585  0.16673233  0.83323878  1
  Sn  Sn38  1  0.16767097  0.83348519  0.83251472  1
  Sn  Sn39  1  0.50061878  0.83316893  0.16582704  1
  Pb  Pb40  1  0.83621251  0.16341050  0.50012198  1
  Pb  Pb41  1  0.83362469  0.50218195  0.49993536  1
  Pb  Pb42  1  0.16713561  0.83200691  0.16656725  1
  Pb  Pb43  1  0.49801790  0.16986014  0.50247549  1
  Pb  Pb44  1  0.16684576  0.16962151  0.16639028  1
  Pb  Pb45  1  0.83307054  0.83331293  0.83306742  1
  Pb  Pb46  1  0.49799222  0.50215360  0.16928411  1
  Pb  Pb47  1  0.83319836  0.16343787  0.16663953  1
  Pb  Pb48  1  0.83595076  0.50269846  0.16684079  1
  Pb  Pb49  1  0.49848020  0.49972437  0.83149001  1
  Pb  Pb50  1  0.83661588  0.50007012  0.83328054  1
  Pb  Pb51  1  0.49969041  0.83214797  0.50065091  1
  Pb  Pb52  1  0.49976430  0.16439615  0.16368745  1
  Pb  Pb53  1  0.83306007  0.16664665  0.83336652  1
  I  I54  1  0.16559017  -0.00013828  0.16701428  1
  I  I55  1  0.16177490  -0.00090405  0.50696822  1
  I  I56  1  0.17005615  -0.00078856  0.82651895  1
  I  I57  1  0.16759578  0.33760568  0.16684627  1
  I  I58  1  0.17194704  0.33398493  0.50383163  1
  I  I59  1  0.17054126  0.33321122  0.82955766  1
  I  I60  1  0.16652727  0.66419992  0.16714929  1
  I  I61  1  0.16627627  0.66686775  0.50246237  1
  I  I62  1  0.16978840  0.66734428  0.83057201  1
  I  I63  1  0.50133710  -0.00424137  0.16770294  1
  I  I64  1  0.49951341  0.00004670  0.49797972  1
  I  I65  1  0.49110302  -0.00134731  0.83638620  1
  I  I66  1  0.49816013  0.33360336  0.16581386  1
  I  I67  1  0.49085364  0.33732640  0.50204661  1
  I  I68  1  0.49246769  0.33078856  0.82986486  1
  I  I69  1  0.50274057  0.67030246  0.15960193  1
  I  I70  1  0.49230813  0.66467316  0.50167511  1
  I  I71  1  0.49563397  0.66963240  0.83541638  1
  I  I72  1  0.83327640  -0.00483475  0.16999436  1
  I  I73  1  0.83771506  -0.00464657  0.49665008  1
  I  I74  1  0.83910009  -0.00036348  0.83418366  1
  I  I75  1  0.83453799  0.33356539  0.16586157  1
  I  I76  1  0.83421280  0.33320576  0.50079666  1
  I  I77  1  0.83312165  0.33327219  0.83291292  1
  I  I78  1  0.83066694  0.67059233  0.17063843  1
  I  I79  1  0.84057149  0.67024649  0.49714340  1
  I  I80  1  0.83378983  0.66715696  0.83287025  1
  I  I81  1  0.16963711  0.16519264  -0.00381136  1
  I  I82  1  0.16567379  0.16535080  0.33659095  1
  I  I83  1  0.16967797  0.16948078  0.66715340  1
  I  I84  1  0.16621621  0.50249542  -0.00107913  1
  I  I85  1  0.17020393  0.50274108  0.33481383  1
  I  I86  1  0.17016532  0.50119960  0.66634993  1
  I  I87  1  0.16687170  0.83275254  -0.00293192  1
  I  I88  1  0.16572538  0.83189692  0.33609233  1
  I  I89  1  0.16626133  0.82937063  0.66665493  1
  I  I90  1  0.49034852  0.16517874  -0.00449498  1
  I  I91  1  0.49805345  0.16533342  0.33358628  1
  I  I92  1  0.49577033  0.15711763  0.67025859  1
  I  I93  1  0.49751537  0.49944492  -0.00013776  1
  I  I94  1  0.49078598  0.50412305  0.33685298  1
  I  I95  1  0.49181830  0.50436078  0.66388466  1
  I  I96  1  0.49867803  0.83593591  -0.00110410  1
  I  I97  1  0.50004698  0.82960698  0.33166190  1
  I  I98  1  0.49798515  0.83523334  0.66954688  1
  I  I99  1  0.83814553  0.16342310  -0.00011883  1
  I  I100  1  0.83579930  0.16812228  0.33363307  1
  I  I101  1  0.83220171  0.16385558  0.66656786  1
  I  I102  1  0.83445547  0.50297962  0.00017833  1
  I  I103  1  0.83709968  0.50085583  0.33346804  1
  I  I104  1  0.83439449  0.50345819  0.66638011  1
  I  I105  1  0.83399515  0.83300715  0.00244269  1
  I  I106  1  0.83570648  0.83178932  0.33387441  1
  I  I107  1  0.83653689  0.83265934  0.66396552  1
  I  I108  1  0.00040971  0.16458570  0.16418718  1
  I  I109  1  0.00495611  0.17269124  0.50708943  1
  I  I110  1  0.00424650  0.16588167  0.82949801  1
  I  I111  1  0.00421678  0.50269142  0.16883549  1
  I  I112  1  0.00424498  0.49896780  0.50093012  1
  I  I113  1  0.00604291  0.50201945  0.82928401  1
  I  I114  1  -0.00157878  0.83073719  0.16802743  1
  I  I115  1  0.00224052  0.83093869  0.49979648  1
  I  I116  1  0.00354444  0.83304303  0.83277211  1
  I  I117  1  0.33309933  0.16269164  0.16892421  1
  I  I118  1  0.32925040  0.16095497  0.50208318  1
  I  I119  1  0.33147763  0.16469508  0.82963106  1
  I  I120  1  0.32983772  0.50393762  0.16497501  1
  I  I121  1  0.33021759  0.50430036  0.50065128  1
  I  I122  1  0.32935467  0.50142198  0.83378057  1
  I  I123  1  0.33560739  0.83129258  0.16525926  1
  I  I124  1  0.32995554  0.83319725  0.50082316  1
  I  I125  1  0.33201114  0.83336999  0.83342889  1
  I  I126  1  0.66640601  0.16939350  0.16542312  1
  I  I127  1  0.66657324  0.16689348  0.50193595  1
  I  I128  1  0.66312545  0.15799704  0.83254767  1
  I  I129  1  0.66655826  0.49983973  0.16800459  1
  I  I130  1  0.66400251  0.50461043  0.50203671  1
  I  I131  1  0.66625777  0.50111651  0.83052284  1
  I  I132  1  0.66640601  0.83291806  0.16691781  1
  I  I133  1  0.66865995  0.82951750  0.49920306  1
  I  I134  1  0.66334055  0.83798111  0.83340867  1
