# generated using pymatgen
data_Cs27Sn13Pb14I81
_symmetry_space_group_name_H-M   'P 1'
_cell_length_a   18.97765216
_cell_length_b   18.98723280
_cell_length_c   18.96951017
_cell_angle_alpha   89.99953198
_cell_angle_beta   89.99872408
_cell_angle_gamma   90.00067750
_symmetry_Int_Tables_number   1
_chemical_formula_structural   Cs27Sn13Pb14I81
_chemical_formula_sum   'Cs27 Sn13 Pb14 I81'
_cell_volume   6835.34239317
_cell_formula_units_Z   1
loop_
 _symmetry_equiv_pos_site_id
 _symmetry_equiv_pos_as_xyz
  1  'x, y, z'
loop_
 _atom_site_type_symbol
 _atom_site_label
 _atom_site_symmetry_multiplicity
 _atom_site_fract_x
 _atom_site_fract_y
 _atom_site_fract_z
 _atom_site_occupancy
  Cs  Cs0  1  -0.00054568  -0.00165924  0.00111838  1
  Cs  Cs1  1  0.00044929  -0.00172992  0.33256772  1
  Cs  Cs2  1  0.00030846  -0.00218033  0.66462306  1
  Cs  Cs3  1  0.00098070  0.33506896  0.00155523  1
  Cs  Cs4  1  -0.00029327  0.33307561  0.33358379  1
  Cs  Cs5  1  -0.00298253  0.33591416  0.66252502  1
  Cs  Cs6  1  0.00021512  0.66711946  -0.00016318  1
  Cs  Cs7  1  0.00130772  0.66799434  0.33144242  1
  Cs  Cs8  1  -0.00202253  0.66672838  0.66992976  1
  Cs  Cs9  1  0.33328667  0.00075174  -0.00138265  1
  Cs  Cs10  1  0.33534414  -0.00252153  0.33758618  1
  Cs  Cs11  1  0.33421869  0.00200517  0.66661990  1
  Cs  Cs12  1  0.33333746  0.33381130  -0.00132539  1
  Cs  Cs13  1  0.33471412  0.33545027  0.33580451  1
  Cs  Cs14  1  0.33261214  0.32974548  0.66849376  1
  Cs  Cs15  1  0.33153952  0.66508573  0.00034316  1
  Cs  Cs16  1  0.33480586  0.66752157  0.33234362  1
  Cs  Cs17  1  0.33184212  0.66713355  0.66709958  1
  Cs  Cs18  1  0.66635079  0.00324515  -0.00061081  1
  Cs  Cs19  1  0.66306176  0.00291362  0.33254121  1
  Cs  Cs20  1  0.66379396  -0.00109088  0.66981107  1
  Cs  Cs21  1  0.66401767  0.32870808  0.00125352  1
  Cs  Cs22  1  0.66436623  0.33031965  0.33957045  1
  Cs  Cs23  1  0.66977781  0.33739759  0.66241958  1
  Cs  Cs24  1  0.66805667  0.66707056  0.00065935  1
  Cs  Cs25  1  0.66172107  0.66667231  0.33532905  1
  Cs  Cs26  1  0.67009734  0.66356061  0.66415084  1
  Sn  Sn27  1  0.16574111  0.83214782  0.49934479  1
  Sn  Sn28  1  0.83398297  0.83350711  0.49891754  1
  Sn  Sn29  1  0.83343322  0.50031111  0.16672940  1
  Sn  Sn30  1  0.50018649  0.16706580  0.83355241  1
  Sn  Sn31  1  0.16673145  0.16653553  0.16616364  1
  Sn  Sn32  1  0.83372856  0.83262867  0.16762368  1
  Sn  Sn33  1  0.50005480  0.50007347  0.83357895  1
  Sn  Sn34  1  0.16599503  0.50010262  0.16740469  1
  Sn  Sn35  1  0.49987653  0.83274661  0.83375748  1
  Sn  Sn36  1  0.16569968  0.16659302  0.83395582  1
  Sn  Sn37  1  0.16613913  0.83341304  0.16720383  1
  Sn  Sn38  1  0.16651182  0.50109884  0.49939509  1
  Sn  Sn39  1  0.83399271  0.16677032  0.83318786  1
  Pb  Pb40  1  0.49706832  0.16668421  0.16517458  1
  Pb  Pb41  1  0.50008972  0.16673718  0.50248456  1
  Pb  Pb42  1  0.83564061  0.50240657  0.49711326  1
  Pb  Pb43  1  0.83146770  0.83473665  0.83380341  1
  Pb  Pb44  1  0.16653865  0.16638464  0.49948012  1
  Pb  Pb45  1  0.83524569  0.16650156  0.16539107  1
  Pb  Pb46  1  0.83126500  0.49776466  0.83593293  1
  Pb  Pb47  1  0.16805078  0.83520419  0.83334765  1
  Pb  Pb48  1  0.49710762  0.50019139  0.50241602  1
  Pb  Pb49  1  0.50009946  0.83328308  0.16462762  1
  Pb  Pb50  1  0.83358297  0.16377306  0.50214368  1
  Pb  Pb51  1  0.49986698  0.83319481  0.50230301  1
  Pb  Pb52  1  0.16769956  0.49785261  0.83337763  1
  Pb  Pb53  1  0.50010224  0.50000965  0.16513613  1
  I  I54  1  0.16294117  -0.00080103  0.16508126  1
  I  I55  1  0.16361564  -0.00323527  0.49794309  1
  I  I56  1  0.16976848  0.00328462  0.83697974  1
  I  I57  1  0.16332485  0.33387040  0.16500948  1
  I  I58  1  0.16835787  0.33594140  0.49790120  1
  I  I59  1  0.17008089  0.32977107  0.83722918  1
  I  I60  1  0.16347557  0.66691512  0.17051727  1
  I  I61  1  0.16456375  0.66752019  0.49311003  1
  I  I62  1  0.17045174  0.66667971  0.83526873  1
  I  I63  1  0.50035787  -0.00012856  0.16225241  1
  I  I64  1  0.49686990  -0.00035241  0.50350556  1
  I  I65  1  0.49963956  0.00086815  0.83335994  1
  I  I66  1  0.49987478  0.33337435  0.16172184  1
  I  I67  1  0.49800691  0.33362877  0.50241412  1
  I  I68  1  0.49803924  0.33239105  0.83468903  1
  I  I69  1  0.49562182  0.66673303  0.16032864  1
  I  I70  1  0.50096400  0.66678895  0.50562093  1
  I  I71  1  0.49850118  0.66667536  0.83395137  1
  I  I72  1  0.83805290  -0.00309642  0.16791830  1
  I  I73  1  0.84102757  -0.00427961  0.49426031  1
  I  I74  1  0.83115016  0.00274631  0.83529048  1
  I  I75  1  0.83868613  0.33580411  0.16173392  1
  I  I76  1  0.83418087  0.33364771  0.50071710  1
  I  I77  1  0.83225718  0.32978091  0.83563165  1
  I  I78  1  0.84174604  0.66751519  0.16737652  1
  I  I79  1  0.83529149  0.67024507  0.50158108  1
  I  I80  1  0.83027643  0.66665316  0.83197259  1
  I  I81  1  0.16785170  0.16635217  0.00001792  1
  I  I82  1  0.16464529  0.16669817  0.32994239  1
  I  I83  1  0.16956200  0.16626922  0.66963439  1
  I  I84  1  0.16513081  0.50236323  0.00316197  1
  I  I85  1  0.16335989  0.49819089  0.33194877  1
  I  I86  1  0.16986353  0.50343194  0.66423445  1
  I  I87  1  0.16376850  0.83120286  0.00314473  1
  I  I88  1  0.16342790  0.83523788  0.33239342  1
  I  I89  1  0.16412226  0.83035658  0.66388744  1
  I  I90  1  0.50158081  0.16621887  -0.00401462  1
  I  I91  1  0.49890915  0.16626616  0.33320032  1
  I  I92  1  0.49485697  0.16524567  0.67183603  1
  I  I93  1  0.49672080  0.49867360  -0.00328407  1
  I  I94  1  0.50097254  0.50068735  0.33339835  1
  I  I95  1  0.49868022  0.49853746  0.67077934  1
  I  I96  1  0.49923193  0.83519667  -0.00356212  1
  I  I97  1  0.49943856  0.83300730  0.33336647  1
  I  I98  1  0.49906707  0.83597713  0.67043810  1
  I  I99  1  0.83078317  0.16401443  -0.00298471  1
  I  I100  1  0.83600612  0.16845199  0.33314211  1
  I  I101  1  0.83490498  0.16538657  0.67088626  1
  I  I102  1  0.84131345  0.50724672  0.00353159  1
  I  I103  1  0.83549329  0.49988223  0.32910143  1
  I  I104  1  0.83360234  0.50027762  0.66656737  1
  I  I105  1  0.83756383  0.83117087  0.00316279  1
  I  I106  1  0.83894338  0.83018200  0.33233892  1
  I  I107  1  0.83693696  0.83631616  0.66437100  1
  I  I108  1  0.00359099  0.16643056  0.15888960  1
  I  I109  1  0.00031985  0.16832806  0.50624065  1
  I  I110  1  0.00086237  0.16528520  0.83799091  1
  I  I111  1  0.00159178  0.50055359  0.16828483  1
  I  I112  1  0.00371365  0.50066479  0.50075626  1
  I  I113  1  -0.00004717  0.49760702  0.83190257  1
  I  I114  1  0.00110402  0.83330568  0.16883964  1
  I  I115  1  0.00117931  0.83088324  0.49734129  1
  I  I116  1  -0.00000238  0.83644680  0.83296028  1
  I  I117  1  0.32834103  0.16661100  0.16026059  1
  I  I118  1  0.33283243  0.16416583  0.50277811  1
  I  I119  1  0.33324700  0.16659654  0.83747016  1
  I  I120  1  0.32954700  0.50067789  0.16834328  1
  I  I121  1  0.32897315  0.50599430  0.49311941  1
  I  I122  1  0.33579231  0.49747112  0.83499068  1
  I  I123  1  0.32960817  0.83284848  0.16918752  1
  I  I124  1  0.32982108  0.83071821  0.49637132  1
  I  I125  1  0.33601879  0.83646804  0.83358160  1
  I  I126  1  0.66692029  0.16592331  0.16311941  1
  I  I127  1  0.66695506  0.16507808  0.50148105  1
  I  I128  1  0.66603336  0.16504814  0.83314380  1
  I  I129  1  0.66981564  0.50605734  0.16224557  1
  I  I130  1  0.66693218  0.50113843  0.50033276  1
  I  I131  1  0.66326322  0.49822967  0.83520528  1
  I  I132  1  0.67019302  0.82831692  0.16902921  1
  I  I133  1  0.66972817  0.83458070  0.49714227  1
  I  I134  1  0.66354419  0.83695846  0.83355014  1
