# generated using pymatgen
data_Cs27Sn13Pb14I81
_symmetry_space_group_name_H-M   'P 1'
_cell_length_a   18.97387394
_cell_length_b   18.97846200
_cell_length_c   18.97887324
_cell_angle_alpha   89.99993538
_cell_angle_beta   89.99992045
_cell_angle_gamma   89.99972584
_symmetry_Int_Tables_number   1
_chemical_formula_structural   Cs27Sn13Pb14I81
_chemical_formula_sum   'Cs27 Sn13 Pb14 I81'
_cell_volume   6834.19632932
_cell_formula_units_Z   1
loop_
 _symmetry_equiv_pos_site_id
 _symmetry_equiv_pos_as_xyz
  1  'x, y, z'
loop_
 _atom_site_type_symbol
 _atom_site_label
 _atom_site_symmetry_multiplicity
 _atom_site_fract_x
 _atom_site_fract_y
 _atom_site_fract_z
 _atom_site_occupancy
  Cs  Cs0  1  -0.00088949  0.00123222  0.00049144  1
  Cs  Cs1  1  0.00002302  -0.00326530  0.33203313  1
  Cs  Cs2  1  0.00046684  0.00695916  0.66688955  1
  Cs  Cs3  1  -0.00029983  0.33289866  -0.00093013  1
  Cs  Cs4  1  -0.00157898  0.33258681  0.33467847  1
  Cs  Cs5  1  -0.00588679  0.32771510  0.66550726  1
  Cs  Cs6  1  0.00183446  0.66661842  0.00264812  1
  Cs  Cs7  1  0.00168186  0.66852318  0.33147961  1
  Cs  Cs8  1  -0.00074701  0.66525717  0.66513425  1
  Cs  Cs9  1  0.33204885  -0.00072580  -0.00077017  1
  Cs  Cs10  1  0.33357212  -0.00028004  0.33543878  1
  Cs  Cs11  1  0.33547135  0.00263822  0.66535703  1
  Cs  Cs12  1  0.33469539  0.33457820  -0.00152311  1
  Cs  Cs13  1  0.33940309  0.33336414  0.33346498  1
  Cs  Cs14  1  0.33196670  0.32982783  0.67080071  1
  Cs  Cs15  1  0.33204022  0.66485640  0.00041077  1
  Cs  Cs16  1  0.33174876  0.66639461  0.33228229  1
  Cs  Cs17  1  0.33396152  0.66754445  0.66736190  1
  Cs  Cs18  1  0.66900750  0.00045486  -0.00149625  1
  Cs  Cs19  1  0.66635408  0.00572271  0.33306985  1
  Cs  Cs20  1  0.66209470  -0.00470521  0.66911234  1
  Cs  Cs21  1  0.66374665  0.32941397  0.00192025  1
  Cs  Cs22  1  0.66080094  0.32729398  0.33862515  1
  Cs  Cs23  1  0.67526323  0.33661065  0.66042157  1
  Cs  Cs24  1  0.66868691  0.66843783  -0.00219356  1
  Cs  Cs25  1  0.66646956  0.66470581  0.33481611  1
  Cs  Cs26  1  0.66771744  0.66704593  0.66688066  1
  Sn  Sn27  1  0.16682216  0.16713228  0.16685459  1
  Sn  Sn28  1  0.16692766  0.50065663  0.83288753  1
  Sn  Sn29  1  0.16651625  0.83278731  0.83306060  1
  Sn  Sn30  1  0.83355730  0.50040249  0.16665230  1
  Sn  Sn31  1  0.83327091  0.83225377  0.16761116  1
  Sn  Sn32  1  0.83434962  0.83320580  0.49916612  1
  Sn  Sn33  1  0.16690109  0.50046029  0.50015748  1
  Sn  Sn34  1  0.50020577  0.83303713  0.16668189  1
  Sn  Sn35  1  0.16607350  0.49962744  0.16689845  1
  Sn  Sn36  1  0.16581076  0.83245507  0.50027052  1
  Sn  Sn37  1  0.49966787  0.49924979  0.83335320  1
  Sn  Sn38  1  0.50004232  0.16792013  0.83332372  1
  Sn  Sn39  1  0.16667438  0.83340200  0.16659188  1
  Pb  Pb40  1  0.83574119  0.50212510  0.49702172  1
  Pb  Pb41  1  0.16674668  0.16674687  0.49730890  1
  Pb  Pb42  1  0.49975498  0.16673549  0.50308468  1
  Pb  Pb43  1  0.83395882  0.50010660  0.83575805  1
  Pb  Pb44  1  0.49974137  0.83307848  0.49740731  1
  Pb  Pb45  1  0.50025800  0.50172492  0.16509148  1
  Pb  Pb46  1  0.83540444  0.16679791  0.16673497  1
  Pb  Pb47  1  0.83353567  0.16305543  0.49971359  1
  Pb  Pb48  1  0.83651274  0.83318022  0.83333890  1
  Pb  Pb49  1  0.49752830  0.16414864  0.16506010  1
  Pb  Pb50  1  0.16754051  0.16707163  0.83532345  1
  Pb  Pb51  1  0.82999596  0.16673490  0.83356573  1
  Pb  Pb52  1  0.49734170  0.50025961  0.50300560  1
  Pb  Pb53  1  0.49766738  0.83266348  0.83528768  1
  I  I54  1  0.16690425  -0.00217071  0.16580470  1
  I  I55  1  0.16332961  -0.00370616  0.49961718  1
  I  I56  1  0.16808605  -0.00280843  0.83475341  1
  I  I57  1  0.16200390  0.33488297  0.16516745  1
  I  I58  1  0.16804808  0.33676339  0.50006716  1
  I  I59  1  0.16941775  0.33670745  0.83497809  1
  I  I60  1  0.16627882  0.66723531  0.16599638  1
  I  I61  1  0.16394667  0.66759005  0.49619153  1
  I  I62  1  0.17229458  0.66631583  0.83801927  1
  I  I63  1  0.49918673  -0.00388800  0.16393280  1
  I  I64  1  0.49755105  -0.00044572  0.50232706  1
  I  I65  1  0.49790165  0.00154781  0.83568951  1
  I  I66  1  0.49910298  0.33339078  0.16623823  1
  I  I67  1  0.49780219  0.33364387  0.49538660  1
  I  I68  1  0.49084889  0.33449606  0.83601220  1
  I  I69  1  0.49434749  0.66972485  0.16380849  1
  I  I70  1  0.50097649  0.66680932  0.50300476  1
  I  I71  1  0.49610163  0.66398485  0.83535127  1
  I  I72  1  0.83491013  -0.00377649  0.16987157  1
  I  I73  1  0.84172983  -0.00519927  0.49203980  1
  I  I74  1  0.83381367  -0.00043398  0.83586310  1
  I  I75  1  0.84017979  0.33658186  0.16378096  1
  I  I76  1  0.83453559  0.33366691  0.49945616  1
  I  I77  1  0.83916690  0.33367200  0.83550595  1
  I  I78  1  0.83930051  0.66791091  0.16865281  1
  I  I79  1  0.83615256  0.67021022  0.49768958  1
  I  I80  1  0.82740619  0.66675032  0.83241793  1
  I  I81  1  0.16757437  0.16454492  0.00321501  1
  I  I82  1  0.16664146  0.16467106  0.32920882  1
  I  I83  1  0.16874591  0.16525487  0.66678775  1
  I  I84  1  0.16724081  0.50342024  0.00062189  1
  I  I85  1  0.16198189  0.50397746  0.33229031  1
  I  I86  1  0.17268839  0.50883968  0.66714149  1
  I  I87  1  0.16750149  0.83114465  0.00128941  1
  I  I88  1  0.16629540  0.83128856  0.33211792  1
  I  I89  1  0.16328769  0.82617718  0.66639933  1
  I  I90  1  0.49762769  0.17062608  -0.00260345  1
  I  I91  1  0.49950906  0.16511928  0.33306924  1
  I  I92  1  0.49541102  0.16779991  0.67113036  1
  I  I93  1  0.49245002  0.49820336  -0.00276785  1
  I  I94  1  0.49875308  0.50178832  0.33320993  1
  I  I95  1  0.49386728  0.49809965  0.67121669  1
  I  I96  1  0.49884344  0.83305144  0.00322974  1
  I  I97  1  0.49377722  0.83275786  0.32935373  1
  I  I98  1  0.49994498  0.83467591  0.66688852  1
  I  I99  1  0.83461901  0.16325021  0.00049181  1
  I  I100  1  0.83320889  0.16859790  0.33296941  1
  I  I101  1  0.83523284  0.16605309  0.66653625  1
  I  I102  1  0.84038552  0.50772064  0.00380692  1
  I  I103  1  0.83985421  0.50370242  0.32904258  1
  I  I104  1  0.83344133  0.50125596  0.66636985  1
  I  I105  1  0.83443749  0.83049915  0.00359162  1
  I  I106  1  0.83972828  0.82964003  0.33176409  1
  I  I107  1  0.83789068  0.83399375  0.66361508  1
  I  I108  1  0.00372269  0.16189358  0.16500249  1
  I  I109  1  0.00044991  0.16870990  0.50151221  1
  I  I110  1  0.00016594  0.16596734  0.83419964  1
  I  I111  1  0.00234756  0.50506773  0.16449640  1
  I  I112  1  0.00423874  0.50238919  0.50443346  1
  I  I113  1  0.00399464  0.50569739  0.83330765  1
  I  I114  1  0.00160646  0.83278587  0.16708012  1
  I  I115  1  0.00178713  0.82924742  0.49421407  1
  I  I116  1  0.00483573  0.82716273  0.83880415  1
  I  I117  1  0.32949806  0.16653747  0.16572894  1
  I  I118  1  0.33284442  0.16293036  0.49854722  1
  I  I119  1  0.33531903  0.16764583  0.83589551  1
  I  I120  1  0.32960454  0.50202666  0.16759615  1
  I  I121  1  0.32857443  0.50761617  0.49324126  1
  I  I122  1  0.33126287  0.50053328  0.83635154  1
  I  I123  1  0.33107657  0.83318609  0.16595706  1
  I  I124  1  0.32946703  0.83033398  0.49857096  1
  I  I125  1  0.32930856  0.83202058  0.83458338  1
  I  I126  1  0.66642712  0.16558582  0.16456629  1
  I  I127  1  0.66673347  0.16553921  0.49912409  1
  I  I128  1  0.66193068  0.17115923  0.83629389  1
  I  I129  1  0.66933194  0.50723067  0.16300670  1
  I  I130  1  0.66701952  0.50144526  0.50050235  1
  I  I131  1  0.66390709  0.49602294  0.83690284  1
  I  I132  1  0.66769705  0.82811844  0.16996205  1
  I  I133  1  0.66978318  0.83451429  0.49519169  1
  I  I134  1  0.66660180  0.83429963  0.83419490  1
