# generated using pymatgen
data_Cs27Sn13Pb14I81
_symmetry_space_group_name_H-M   'P 1'
_cell_length_a   18.96482421
_cell_length_b   18.97835216
_cell_length_c   18.98663349
_cell_angle_alpha   89.99972609
_cell_angle_beta   90.00112708
_cell_angle_gamma   90.00015949
_symmetry_Int_Tables_number   1
_chemical_formula_structural   Cs27Sn13Pb14I81
_chemical_formula_sum   'Cs27 Sn13 Pb14 I81'
_cell_volume   6833.69024976
_cell_formula_units_Z   1
loop_
 _symmetry_equiv_pos_site_id
 _symmetry_equiv_pos_as_xyz
  1  'x, y, z'
loop_
 _atom_site_type_symbol
 _atom_site_label
 _atom_site_symmetry_multiplicity
 _atom_site_fract_x
 _atom_site_fract_y
 _atom_site_fract_z
 _atom_site_occupancy
  Cs  Cs0  1  0.00165478  0.00286802  0.00117504  1
  Cs  Cs1  1  0.00174271  -0.00403862  0.33274667  1
  Cs  Cs2  1  -0.00015968  -0.00399121  0.66603417  1
  Cs  Cs3  1  -0.00070741  0.33465127  -0.00188042  1
  Cs  Cs4  1  0.00088397  0.33388066  0.33115004  1
  Cs  Cs5  1  0.00609730  0.33648443  0.66960047  1
  Cs  Cs6  1  -0.00327121  0.66068400  -0.00321503  1
  Cs  Cs7  1  -0.00059177  0.66857608  0.33795021  1
  Cs  Cs8  1  0.00796179  0.66572614  0.66410899  1
  Cs  Cs9  1  0.32762992  -0.00838796  0.00102224  1
  Cs  Cs10  1  0.32556966  0.00222081  0.33091108  1
  Cs  Cs11  1  0.32678317  0.00188730  0.66788430  1
  Cs  Cs12  1  0.33468854  0.33274379  0.00187491  1
  Cs  Cs13  1  0.33407121  0.33307034  0.33444279  1
  Cs  Cs14  1  0.33080410  0.33254886  0.66343045  1
  Cs  Cs15  1  0.33586625  0.67530615  0.00117056  1
  Cs  Cs16  1  0.33406359  0.66562230  0.33093103  1
  Cs  Cs17  1  0.32981946  0.66665313  0.66936157  1
  Cs  Cs18  1  0.66672952  0.00018471  -0.00100436  1
  Cs  Cs19  1  0.66797097  0.00147513  0.33448769  1
  Cs  Cs20  1  0.66786576  0.00161362  0.66677860  1
  Cs  Cs21  1  0.66742641  0.33336201  0.00021756  1
  Cs  Cs22  1  0.66545070  0.33286654  0.33295432  1
  Cs  Cs23  1  0.66503032  0.33107962  0.66660605  1
  Cs  Cs24  1  0.66614309  0.66619829  -0.00004772  1
  Cs  Cs25  1  0.66673825  0.66580668  0.33484383  1
  Cs  Cs26  1  0.66609631  0.66745222  0.66435426  1
  Sn  Sn27  1  0.83257813  0.83370691  0.83411356  1
  Sn  Sn28  1  0.49929852  0.49942073  0.16638311  1
  Sn  Sn29  1  0.50068192  0.16688889  0.16563844  1
  Sn  Sn30  1  0.50090113  0.50098688  0.50023943  1
  Sn  Sn31  1  0.16780792  0.49992605  0.16644176  1
  Sn  Sn32  1  0.83254998  0.49886780  0.50025783  1
  Sn  Sn33  1  0.83233400  0.16595963  0.16664231  1
  Sn  Sn34  1  0.50040572  0.16717120  0.83446254  1
  Sn  Sn35  1  0.83301713  0.16790801  0.50014643  1
  Sn  Sn36  1  0.50008211  0.83330103  0.49987539  1
  Sn  Sn37  1  0.83242252  0.83398214  0.16563775  1
  Sn  Sn38  1  0.83254273  0.16608024  0.83334386  1
  Sn  Sn39  1  0.50048394  0.49937071  0.83338876  1
  Pb  Pb40  1  0.17068189  0.49981452  0.83625974  1
  Pb  Pb41  1  0.50190655  0.83401063  0.16850193  1
  Pb  Pb42  1  0.50172682  0.83411769  0.83130412  1
  Pb  Pb43  1  0.16291110  0.83330225  0.83357252  1
  Pb  Pb44  1  0.16303886  0.83028859  0.16652907  1
  Pb  Pb45  1  0.16698161  0.16678234  0.83368134  1
  Pb  Pb46  1  0.83144601  0.49979479  0.83057571  1
  Pb  Pb47  1  0.16262288  0.16685467  0.49986949  1
  Pb  Pb48  1  0.16672330  0.16850567  0.16648029  1
  Pb  Pb49  1  0.83254630  0.49972775  0.16841938  1
  Pb  Pb50  1  0.50107124  0.16669356  0.49997564  1
  Pb  Pb51  1  0.16745819  0.49985735  0.49795414  1
  Pb  Pb52  1  0.83217922  0.83339498  0.50027210  1
  Pb  Pb53  1  0.17063498  0.83318081  0.49977733  1
  I  I54  1  0.16904064  -0.00012305  0.16715870  1
  I  I55  1  0.16739464  -0.00004052  0.49889614  1
  I  I56  1  0.17215540  0.00007507  0.83385630  1
  I  I57  1  0.16645646  0.33631452  0.16781416  1
  I  I58  1  0.17039552  0.33357014  0.49933216  1
  I  I59  1  0.16027187  0.33350874  0.83357924  1
  I  I60  1  0.17377094  0.66273298  0.16743705  1
  I  I61  1  0.15953472  0.66633961  0.49884435  1
  I  I62  1  0.16570668  0.66635515  0.83352916  1
  I  I63  1  0.50426470  0.00332159  0.16411409  1
  I  I64  1  0.50481731  -0.00167108  0.50003174  1
  I  I65  1  0.50388524  0.00339988  0.83607302  1
  I  I66  1  0.50250889  0.33364746  0.16821054  1
  I  I67  1  0.50284104  0.33621158  0.49929280  1
  I  I68  1  0.50660308  0.33310580  0.83292614  1
  I  I69  1  0.49832750  0.66380128  0.16529059  1
  I  I70  1  0.50731208  0.66436959  0.49911507  1
  I  I71  1  0.50197757  0.66406030  0.83532717  1
  I  I72  1  0.82751175  0.00163956  0.16863546  1
  I  I73  1  0.83026039  0.00272580  0.49978157  1
  I  I74  1  0.82703669  0.00158189  0.83186328  1
  I  I75  1  0.83231094  0.33041244  0.16485451  1
  I  I76  1  0.82629190  0.33309947  0.49834248  1
  I  I77  1  0.83089925  0.33021807  0.83641366  1
  I  I78  1  0.83322361  0.66860929  0.16444150  1
  I  I79  1  0.83014328  0.66427933  0.49817600  1
  I  I80  1  0.83082214  0.66877908  0.83763188  1
  I  I81  1  0.16169571  0.16896413  0.00015618  1
  I  I82  1  0.16821795  0.16777833  0.33302778  1
  I  I83  1  0.16886421  0.16787599  0.66680842  1
  I  I84  1  0.16791671  0.49870035  0.00390544  1
  I  I85  1  0.17177348  0.49910317  0.33036983  1
  I  I86  1  0.16580591  0.50052339  0.66682033  1
  I  I87  1  0.17134471  0.83255825  0.00026795  1
  I  I88  1  0.16276958  0.83316126  0.33303100  1
  I  I89  1  0.16382384  0.83222080  0.66661162  1
  I  I90  1  0.50927669  0.17614849  0.00039071  1
  I  I91  1  0.50555866  0.17044639  0.33064675  1
  I  I92  1  0.50601185  0.16994706  0.66918978  1
  I  I93  1  0.49661690  0.49517343  0.00050675  1
  I  I94  1  0.50037736  0.49977103  0.33304913  1
  I  I95  1  0.50700811  0.49982157  0.66637808  1
  I  I96  1  0.50030656  0.82992481  -0.00000803  1
  I  I97  1  0.50510302  0.82823815  0.33603211  1
  I  I98  1  0.50505119  0.82852132  0.66376596  1
  I  I99  1  0.82940102  0.16194120  0.00021976  1
  I  I100  1  0.82841674  0.16685841  0.33257278  1
  I  I101  1  0.82766381  0.16577227  0.66734082  1
  I  I102  1  0.83351343  0.49938608  -0.00010739  1
  I  I103  1  0.82791731  0.49717976  0.33615285  1
  I  I104  1  0.82685981  0.49695744  0.66286967  1
  I  I105  1  0.83166427  0.84011296  0.00017936  1
  I  I106  1  0.83154027  0.83606735  0.33129813  1
  I  I107  1  0.83010220  0.83748716  0.66888743  1
  I  I108  1  -0.00382519  0.16476171  0.16680700  1
  I  I109  1  -0.00618840  0.17203936  0.49936740  1
  I  I110  1  -0.00405976  0.16257956  0.83383539  1
  I  I111  1  0.00118635  0.50056042  0.17000551  1
  I  I112  1  -0.00290154  0.49617138  0.49776320  1
  I  I113  1  -0.00011619  0.50050601  0.83318038  1
  I  I114  1  -0.00505441  0.83916262  0.16513444  1
  I  I115  1  -0.00027629  0.83287796  0.50006754  1
  I  I116  1  -0.00554240  0.83961173  0.83570794  1
  I  I117  1  0.33710151  0.16942352  0.16347075  1
  I  I118  1  0.33356457  0.16635768  0.49978869  1
  I  I119  1  0.33751890  0.17169830  0.83689603  1
  I  I120  1  0.33617411  0.49401155  0.16942459  1
  I  I121  1  0.33738921  0.50394508  0.50159794  1
  I  I122  1  0.33893507  0.49366469  0.82634917  1
  I  I123  1  0.33350051  0.83569559  0.16903963  1
  I  I124  1  0.33864635  0.82607496  0.49980076  1
  I  I125  1  0.33365501  0.83329635  0.83114558  1
  I  I126  1  0.66709593  0.16973607  0.16613964  1
  I  I127  1  0.66956763  0.16813913  0.49949295  1
  I  I128  1  0.66723973  0.16720477  0.83430930  1
  I  I129  1  0.66345639  0.49877281  0.16620028  1
  I  I130  1  0.66557173  0.50019370  0.49674675  1
  I  I131  1  0.66323035  0.49852806  0.83853307  1
  I  I132  1  0.66998440  0.83244879  0.16424923  1
  I  I133  1  0.66460924  0.82986160  0.49946932  1
  I  I134  1  0.66977925  0.83527194  0.83651235  1
