# generated using pymatgen
data_Cs27Sn14Pb13I81
_symmetry_space_group_name_H-M   'P 1'
_cell_length_a   18.97442252
_cell_length_b   18.97496971
_cell_length_c   18.97757078
_cell_angle_alpha   90.00025992
_cell_angle_beta   89.99983047
_cell_angle_gamma   89.99991041
_symmetry_Int_Tables_number   1
_chemical_formula_structural   Cs27Sn14Pb13I81
_chemical_formula_sum   'Cs27 Sn14 Pb13 I81'
_cell_volume   6832.66736201
_cell_formula_units_Z   1
loop_
 _symmetry_equiv_pos_site_id
 _symmetry_equiv_pos_as_xyz
  1  'x, y, z'
loop_
 _atom_site_type_symbol
 _atom_site_label
 _atom_site_symmetry_multiplicity
 _atom_site_fract_x
 _atom_site_fract_y
 _atom_site_fract_z
 _atom_site_occupancy
  Cs  Cs0  1  -0.00730997  -0.00743884  0.00033643  1
  Cs  Cs1  1  0.00218531  -0.00192661  0.33548340  1
  Cs  Cs2  1  -0.00136790  0.00216349  0.66312449  1
  Cs  Cs3  1  0.00107920  0.33221030  -0.00067630  1
  Cs  Cs4  1  0.00024169  0.33409979  0.33438151  1
  Cs  Cs5  1  0.00255432  0.33335141  0.66602189  1
  Cs  Cs6  1  0.00041187  0.67653983  0.00004863  1
  Cs  Cs7  1  -0.00352867  0.66774663  0.33361332  1
  Cs  Cs8  1  0.00136911  0.66470731  0.66607142  1
  Cs  Cs9  1  0.33473740  -0.00377020  -0.00165527  1
  Cs  Cs10  1  0.33211702  0.00022564  0.33441987  1
  Cs  Cs11  1  0.33622396  0.00058126  0.66513523  1
  Cs  Cs12  1  0.33150798  0.33682427  0.00336334  1
  Cs  Cs13  1  0.33362877  0.33287892  0.33274984  1
  Cs  Cs14  1  0.33123505  0.33427704  0.66612757  1
  Cs  Cs15  1  0.33320725  0.66567992  -0.00013976  1
  Cs  Cs16  1  0.33519082  0.66595241  0.33352353  1
  Cs  Cs17  1  0.33414836  0.66524647  0.66803353  1
  Cs  Cs18  1  0.67491377  0.00800093  -0.00964058  1
  Cs  Cs19  1  0.66394229  0.00232458  0.33316245  1
  Cs  Cs20  1  0.66619024  0.00128347  0.67241775  1
  Cs  Cs21  1  0.67011520  0.32776818  0.00109575  1
  Cs  Cs22  1  0.66681974  0.33423346  0.32933379  1
  Cs  Cs23  1  0.66660377  0.33476799  0.66779142  1
  Cs  Cs24  1  0.66576264  0.66722624  0.00010227  1
  Cs  Cs25  1  0.66491860  0.66423838  0.33456451  1
  Cs  Cs26  1  0.66538510  0.66511460  0.66559107  1
  Sn  Sn27  1  0.16746846  0.50024916  0.49895134  1
  Sn  Sn28  1  0.49921653  0.50039948  0.49981560  1
  Sn  Sn29  1  0.16613493  0.16680916  0.49977346  1
  Sn  Sn30  1  0.16695512  0.83290798  0.49992697  1
  Sn  Sn31  1  0.83313597  0.50026933  0.83353475  1
  Sn  Sn32  1  0.50028836  0.83259370  0.49917962  1
  Sn  Sn33  1  0.50043376  0.83323839  0.16717547  1
  Sn  Sn34  1  0.16697388  0.16618251  0.83387789  1
  Sn  Sn35  1  0.16680285  0.49980530  0.16764572  1
  Sn  Sn36  1  0.49936495  0.50064012  0.16670956  1
  Sn  Sn37  1  0.16681466  0.16672469  0.16633636  1
  Sn  Sn38  1  0.83360605  0.16636314  0.49964652  1
  Sn  Sn39  1  0.50093648  0.49976886  0.83364498  1
  Sn  Sn40  1  0.83258539  0.83411193  0.49990435  1
  Pb  Pb41  1  0.16676610  0.83642006  0.83048488  1
  Pb  Pb42  1  0.83590319  0.16883295  0.83084523  1
  Pb  Pb43  1  0.82949630  0.83333351  0.16932530  1
  Pb  Pb44  1  0.16853700  0.83302294  0.16873735  1
  Pb  Pb45  1  0.83322790  0.83085983  0.83041009  1
  Pb  Pb46  1  0.49998698  0.16678934  0.50000719  1
  Pb  Pb47  1  0.49797403  0.16630079  0.16651628  1
  Pb  Pb48  1  0.49998159  0.83131571  0.83339396  1
  Pb  Pb49  1  0.83379779  0.50015092  0.16396523  1
  Pb  Pb50  1  0.83651957  0.16666029  0.16943297  1
  Pb  Pb51  1  0.83332527  0.49985382  0.50104756  1
  Pb  Pb52  1  0.16674603  0.49894774  0.83383265  1
  Pb  Pb53  1  0.49743396  0.16960282  0.83350241  1
  I  I54  1  0.16863494  0.00244994  0.16926573  1
  I  I55  1  0.16608710  0.00034441  0.50039287  1
  I  I56  1  0.16626986  0.00452872  0.83357440  1
  I  I57  1  0.17262590  0.33423530  0.17192408  1
  I  I58  1  0.16626881  0.33344309  0.50030902  1
  I  I59  1  0.16721512  0.33114010  0.82689335  1
  I  I60  1  0.16902983  0.66346680  0.17087622  1
  I  I61  1  0.16685211  0.66587581  0.49600064  1
  I  I62  1  0.16649596  0.66659492  0.83252281  1
  I  I63  1  0.49684723  -0.00312943  0.17578621  1
  I  I64  1  0.49684323  -0.00318090  0.49490710  1
  I  I65  1  0.49866827  0.00004376  0.83247700  1
  I  I66  1  0.49741267  0.33691850  0.16846868  1
  I  I67  1  0.49663449  0.33689374  0.49959752  1
  I  I68  1  0.50338545  0.33806335  0.83132033  1
  I  I69  1  0.49382669  0.66500425  0.16811328  1
  I  I70  1  0.49735459  0.66590873  0.50002127  1
  I  I71  1  0.50121616  0.66275035  0.83155589  1
  I  I72  1  0.83336835  -0.00005772  0.16448153  1
  I  I73  1  0.83843203  -0.00024639  0.49968265  1
  I  I74  1  0.83437751  0.00018549  0.83407049  1
  I  I75  1  0.82851204  0.33348009  0.16982943  1
  I  I76  1  0.83849099  0.33121442  0.50262825  1
  I  I77  1  0.82841419  0.33633535  0.82954756  1
  I  I78  1  0.83934964  0.66667517  0.16864254  1
  I  I79  1  0.83591804  0.66910606  0.50217067  1
  I  I80  1  0.83070021  0.66310358  0.83049749  1
  I  I81  1  0.17034785  0.17615971  0.00079842  1
  I  I82  1  0.16320751  0.16802639  0.33461842  1
  I  I83  1  0.16277984  0.16782821  0.66468967  1
  I  I84  1  0.17069612  0.49345203  0.00287753  1
  I  I85  1  0.17388961  0.49498505  0.33460344  1
  I  I86  1  0.16926467  0.49916824  0.66357824  1
  I  I87  1  0.16873990  0.83273308  0.00027893  1
  I  I88  1  0.16501837  0.83780390  0.33739010  1
  I  I89  1  0.16967119  0.83074656  0.66139018  1
  I  I90  1  0.49720543  0.16620940  0.00006842  1
  I  I91  1  0.49870317  0.17119011  0.33352658  1
  I  I92  1  0.49666412  0.16711896  0.66639628  1
  I  I93  1  0.49781455  0.50403309  0.00105237  1
  I  I94  1  0.49468047  0.50430002  0.33391604  1
  I  I95  1  0.49918644  0.50340358  0.66530328  1
  I  I96  1  0.49606695  0.82742685  0.00310061  1
  I  I97  1  0.49963480  0.82461639  0.33505265  1
  I  I98  1  0.49925480  0.82939152  0.66291981  1
  I  I99  1  0.83420954  0.16795336  -0.00022406  1
  I  I100  1  0.83886068  0.16499907  0.33762776  1
  I  I101  1  0.84011671  0.16324039  0.66297187  1
  I  I102  1  0.82934254  0.49797736  -0.00373741  1
  I  I103  1  0.83147606  0.49967355  0.33348063  1
  I  I104  1  0.82949607  0.50001426  0.66862814  1
  I  I105  1  0.83324372  0.83244363  -0.00003443  1
  I  I106  1  0.83751071  0.83489889  0.33781933  1
  I  I107  1  0.83127055  0.83738105  0.66196095  1
  I  I108  1  0.00496158  0.17455788  0.16575225  1
  I  I109  1  0.00203310  0.16415536  0.50032498  1
  I  I110  1  0.00362472  0.17200776  0.83316634  1
  I  I111  1  0.00371644  0.49452770  0.17152418  1
  I  I112  1  0.00313232  0.50147571  0.49841759  1
  I  I113  1  -0.00162084  0.49679654  0.82989148  1
  I  I114  1  0.00005726  0.83280645  0.16748720  1
  I  I115  1  0.00081823  0.83406089  0.50158857  1
  I  I116  1  0.00004766  0.82869105  0.83271239  1
  I  I117  1  0.32948382  0.16942386  0.17221395  1
  I  I118  1  0.32974006  0.16522401  0.49988307  1
  I  I119  1  0.32937513  0.16907184  0.82737120  1
  I  I120  1  0.33349876  0.49929116  0.16583553  1
  I  I121  1  0.33307830  0.50189066  0.50209070  1
  I  I122  1  0.33589002  0.49844955  0.83214043  1
  I  I123  1  0.33633777  0.83146587  0.17376948  1
  I  I124  1  0.33340293  0.83316030  0.49670264  1
  I  I125  1  0.33334553  0.83150084  0.82987923  1
  I  I126  1  0.66674261  0.16797853  0.16858459  1
  I  I127  1  0.66930035  0.16402367  0.50128344  1
  I  I128  1  0.66695967  0.16593878  0.83138871  1
  I  I129  1  0.66308523  0.50437811  0.17092904  1
  I  I130  1  0.66367293  0.50284731  0.49846038  1
  I  I131  1  0.66516516  0.50081462  0.83019459  1
  I  I132  1  0.66164016  0.82383624  0.17409204  1
  I  I133  1  0.66570632  0.83165008  0.49608112  1
  I  I134  1  0.66652495  0.83519175  0.83061938  1
