# generated using pymatgen
data_Cs27Sn13Pb14I81
_symmetry_space_group_name_H-M   'P 1'
_cell_length_a   18.98202468
_cell_length_b   18.97730584
_cell_length_c   18.97013359
_cell_angle_alpha   89.99696670
_cell_angle_beta   89.99896077
_cell_angle_gamma   89.99893902
_symmetry_Int_Tables_number   1
_chemical_formula_structural   Cs27Sn13Pb14I81
_chemical_formula_sum   'Cs27 Sn13 Pb14 I81'
_cell_volume   6833.56735076
_cell_formula_units_Z   1
loop_
 _symmetry_equiv_pos_site_id
 _symmetry_equiv_pos_as_xyz
  1  'x, y, z'
loop_
 _atom_site_type_symbol
 _atom_site_label
 _atom_site_symmetry_multiplicity
 _atom_site_fract_x
 _atom_site_fract_y
 _atom_site_fract_z
 _atom_site_occupancy
  Cs  Cs0  1  0.00021789  -0.00116510  0.00059328  1
  Cs  Cs1  1  -0.00032054  0.00075903  0.33258376  1
  Cs  Cs2  1  -0.00015129  -0.00244650  0.66776192  1
  Cs  Cs3  1  -0.00045284  0.33300700  0.00074825  1
  Cs  Cs4  1  -0.00263719  0.33043949  0.33826138  1
  Cs  Cs5  1  0.00292393  0.33605557  0.66077422  1
  Cs  Cs6  1  0.00114868  0.66784232  -0.00165495  1
  Cs  Cs7  1  -0.00084477  0.66916175  0.33249546  1
  Cs  Cs8  1  0.00170427  0.66543954  0.66997229  1
  Cs  Cs9  1  0.33255541  0.00128689  0.00126626  1
  Cs  Cs10  1  0.33126620  -0.00272244  0.33362029  1
  Cs  Cs11  1  0.34076623  0.00555519  0.66185084  1
  Cs  Cs12  1  0.33409455  0.33244235  0.00018246  1
  Cs  Cs13  1  0.33267982  0.33784655  0.33468662  1
  Cs  Cs14  1  0.32847276  0.32888465  0.66229326  1
  Cs  Cs15  1  0.33083158  0.66555650  0.00103149  1
  Cs  Cs16  1  0.33964015  0.66751453  0.33191181  1
  Cs  Cs17  1  0.33100509  0.66388915  0.66548044  1
  Cs  Cs18  1  0.66685608  0.00107112  -0.00053786  1
  Cs  Cs19  1  0.66973051  -0.00071790  0.33293994  1
  Cs  Cs20  1  0.65966942  -0.00111123  0.66883999  1
  Cs  Cs21  1  0.66632898  0.33406949  0.00016635  1
  Cs  Cs22  1  0.67214588  0.33799679  0.33705751  1
  Cs  Cs23  1  0.66668162  0.33077316  0.66605205  1
  Cs  Cs24  1  0.66746809  0.66522149  0.00003544  1
  Cs  Cs25  1  0.66421006  0.66612196  0.33378225  1
  Cs  Cs26  1  0.66835790  0.66887224  0.66624059  1
  Sn  Sn27  1  0.50097178  0.83433509  0.16534151  1
  Sn  Sn28  1  0.49958600  0.16631469  0.16669094  1
  Sn  Sn29  1  0.50043685  0.50058780  0.83349148  1
  Sn  Sn30  1  0.83263710  0.83256291  0.16700938  1
  Sn  Sn31  1  0.16541228  0.49910423  0.16639348  1
  Sn  Sn32  1  0.83446148  0.16765612  0.83361833  1
  Sn  Sn33  1  0.83268760  0.49894434  0.83416938  1
  Sn  Sn34  1  0.16590675  0.83321262  0.50002329  1
  Sn  Sn35  1  0.16549164  0.16648176  0.83408511  1
  Sn  Sn36  1  0.49967160  0.83205360  0.83460779  1
  Sn  Sn37  1  0.83438591  0.50075336  0.16578879  1
  Sn  Sn38  1  0.16736123  0.16770496  0.16599283  1
  Sn  Sn39  1  0.83435107  0.83330258  0.49935395  1
  Pb  Pb40  1  0.16646844  0.50269697  0.49646695  1
  Pb  Pb41  1  0.83332610  0.50241744  0.50035869  1
  Pb  Pb42  1  0.83344178  0.16680709  0.16534154  1
  Pb  Pb43  1  0.16654556  0.16461725  0.49927434  1
  Pb  Pb44  1  0.49991274  0.16716582  0.83496375  1
  Pb  Pb45  1  0.50017446  0.49994174  0.50405349  1
  Pb  Pb46  1  0.16666016  0.83343459  0.16763602  1
  Pb  Pb47  1  0.83328510  0.16370903  0.50369048  1
  Pb  Pb48  1  0.50044282  0.49990505  0.16528688  1
  Pb  Pb49  1  0.83199572  0.83313871  0.83372784  1
  Pb  Pb50  1  0.16994514  0.83608145  0.83105429  1
  Pb  Pb51  1  0.50022349  0.16687525  0.49550394  1
  Pb  Pb52  1  0.16649614  0.49796401  0.83508798  1
  Pb  Pb53  1  0.50036267  0.83323841  0.49959356  1
  I  I54  1  0.16784765  0.00248369  0.16457570  1
  I  I55  1  0.16296005  -0.00308720  0.49747860  1
  I  I56  1  0.16114678  0.00370942  0.84094083  1
  I  I57  1  0.16799608  0.33265833  0.16172906  1
  I  I58  1  0.16788471  0.33330311  0.50176546  1
  I  I59  1  0.16811803  0.33000157  0.83583778  1
  I  I60  1  0.16594785  0.66453154  0.16839062  1
  I  I61  1  0.16276731  0.67037827  0.49964431  1
  I  I62  1  0.16504263  0.66670562  0.83378964  1
  I  I63  1  0.49988110  -0.00119093  0.16038683  1
  I  I64  1  0.50016231  -0.00035667  0.50650898  1
  I  I65  1  0.50088370  -0.00204425  0.83483629  1
  I  I66  1  0.49822200  0.33116743  0.16309462  1
  I  I67  1  0.49925128  0.33332055  0.50031601  1
  I  I68  1  0.50229291  0.33565231  0.83664440  1
  I  I69  1  0.50038372  0.66931078  0.16521800  1
  I  I70  1  0.49911268  0.66703904  0.49484709  1
  I  I71  1  0.50603618  0.66699387  0.83925961  1
  I  I72  1  0.83230615  -0.00257389  0.16836626  1
  I  I73  1  0.83687162  -0.00420763  0.49322326  1
  I  I74  1  0.83500734  0.00198991  0.83381020  1
  I  I75  1  0.83326496  0.33594785  0.16291925  1
  I  I76  1  0.83269022  0.33342955  0.49696634  1
  I  I77  1  0.83009848  0.33434025  0.84084371  1
  I  I78  1  0.83349156  0.66676023  0.16462815  1
  I  I79  1  0.83649008  0.67041909  0.50009398  1
  I  I80  1  0.83022227  0.66412617  0.83447474  1
  I  I81  1  0.16709539  0.16879753  0.00093309  1
  I  I82  1  0.17132561  0.16893205  0.32962174  1
  I  I83  1  0.16350132  0.16517106  0.66948242  1
  I  I84  1  0.16534580  0.50009957  0.00324839  1
  I  I85  1  0.16138680  0.49274780  0.32823232  1
  I  I86  1  0.16739206  0.49914171  0.66677701  1
  I  I87  1  0.16501593  0.83261437  -0.00000498  1
  I  I88  1  0.16666910  0.83487708  0.33536100  1
  I  I89  1  0.16014844  0.83403397  0.66360070  1
  I  I90  1  0.49831629  0.16395196  0.00279687  1
  I  I91  1  0.49371714  0.15897162  0.32740413  1
  I  I92  1  0.49961944  0.16531867  0.66706452  1
  I  I93  1  0.50217717  0.50168358  -0.00257370  1
  I  I94  1  0.49965322  0.50054372  0.33286525  1
  I  I95  1  0.50641156  0.50708506  0.67241683  1
  I  I96  1  0.50584439  0.83402280  0.00109140  1
  I  I97  1  0.50057851  0.83737780  0.32988023  1
  I  I98  1  0.50089064  0.83014789  0.66946432  1
  I  I99  1  0.83395683  0.16514780  -0.00262442  1
  I  I100  1  0.83289669  0.16844025  0.33316314  1
  I  I101  1  0.83849111  0.17205244  0.67188703  1
  I  I102  1  0.83306881  0.50277793  0.00040244  1
  I  I103  1  0.83641126  0.50161739  0.32991550  1
  I  I104  1  0.82849270  0.49755704  0.67027868  1
  I  I105  1  0.83046765  0.83242293  0.00282855  1
  I  I106  1  0.83111636  0.82866190  0.33143100  1
  I  I107  1  0.83518596  0.83417082  0.66483642  1
  I  I108  1  0.00250100  0.16663377  0.16382037  1
  I  I109  1  -0.00010210  0.16612021  0.49570850  1
  I  I110  1  -0.00009175  0.17018484  0.83999926  1
  I  I111  1  -0.00119477  0.50152220  0.16049149  1
  I  I112  1  -0.00009058  0.50015483  0.50435092  1
  I  I113  1  -0.00296995  0.49848966  0.83600340  1
  I  I114  1  -0.00262698  0.83269388  0.16900642  1
  I  I115  1  -0.00107174  0.83405479  0.49338622  1
  I  I116  1  0.00011370  0.83210701  0.83488714  1
  I  I117  1  0.33264240  0.16574486  0.15983470  1
  I  I118  1  0.33319620  0.16218982  0.50663204  1
  I  I119  1  0.33120478  0.16543341  0.83616532  1
  I  I120  1  0.33146775  0.49960350  0.16502947  1
  I  I121  1  0.33311181  0.50370266  0.49893899  1
  I  I122  1  0.33567083  0.50363246  0.83618936  1
  I  I123  1  0.33582617  0.83392937  0.16519609  1
  I  I124  1  0.33130232  0.83439950  0.49945815  1
  I  I125  1  0.33764346  0.82856940  0.83926091  1
  I  I126  1  0.66463733  0.16417762  0.16329839  1
  I  I127  1  0.66687955  0.16335127  0.50135548  1
  I  I128  1  0.66872695  0.16695126  0.83524280  1
  I  I129  1  0.66949407  0.50125598  0.16397964  1
  I  I130  1  0.66696869  0.50310344  0.49393927  1
  I  I131  1  0.66779556  0.49847266  0.84027279  1
  I  I132  1  0.66693806  0.83365643  0.16852093  1
  I  I133  1  0.66943192  0.83296103  0.49855137  1
  I  I134  1  0.66404940  0.83507894  0.83306964  1
