# generated using pymatgen
data_Cs27Sn13Pb14I81
_symmetry_space_group_name_H-M   'P 1'
_cell_length_a   18.97805510
_cell_length_b   18.98050213
_cell_length_c   18.97242159
_cell_angle_alpha   90.00062014
_cell_angle_beta   89.99947221
_cell_angle_gamma   89.99924904
_symmetry_Int_Tables_number   1
_chemical_formula_structural   Cs27Sn13Pb14I81
_chemical_formula_sum   'Cs27 Sn13 Pb14 I81'
_cell_volume   6834.11318705
_cell_formula_units_Z   1
loop_
 _symmetry_equiv_pos_site_id
 _symmetry_equiv_pos_as_xyz
  1  'x, y, z'
loop_
 _atom_site_type_symbol
 _atom_site_label
 _atom_site_symmetry_multiplicity
 _atom_site_fract_x
 _atom_site_fract_y
 _atom_site_fract_z
 _atom_site_occupancy
  Cs  Cs0  1  0.00165197  0.00121230  -0.00233272  1
  Cs  Cs1  1  -0.00281601  0.00312177  0.33682020  1
  Cs  Cs2  1  0.00006676  -0.00096081  0.66618915  1
  Cs  Cs3  1  -0.00058035  0.33322958  0.00517438  1
  Cs  Cs4  1  -0.00173646  0.33584476  0.32679009  1
  Cs  Cs5  1  0.00275032  0.33655315  0.66804244  1
  Cs  Cs6  1  -0.00169276  0.66547411  -0.00086879  1
  Cs  Cs7  1  0.00137926  0.66402523  0.33424057  1
  Cs  Cs8  1  0.00056027  0.66734239  0.66680601  1
  Cs  Cs9  1  0.33414687  0.00461130  0.00667114  1
  Cs  Cs10  1  0.33513618  -0.00277223  0.32578922  1
  Cs  Cs11  1  0.33016655  -0.00106959  0.66809198  1
  Cs  Cs12  1  0.33413334  0.32312650  -0.00144292  1
  Cs  Cs13  1  0.33552235  0.33289429  0.33569179  1
  Cs  Cs14  1  0.33794255  0.33297291  0.66661997  1
  Cs  Cs15  1  0.33426313  0.66857520  0.00321279  1
  Cs  Cs16  1  0.33292912  0.66777340  0.33148972  1
  Cs  Cs17  1  0.33247583  0.66570008  0.66581340  1
  Cs  Cs18  1  0.66521563  -0.00241743  0.00169339  1
  Cs  Cs19  1  0.66802490  0.00789219  0.33415244  1
  Cs  Cs20  1  0.67007057  -0.00169062  0.66401868  1
  Cs  Cs21  1  0.66664242  0.33271379  0.00092673  1
  Cs  Cs22  1  0.66595567  0.32580398  0.33280126  1
  Cs  Cs23  1  0.65869912  0.33491107  0.66606520  1
  Cs  Cs24  1  0.66734567  0.66692684  -0.00085675  1
  Cs  Cs25  1  0.66606150  0.66651367  0.33227867  1
  Cs  Cs26  1  0.66670367  0.66665646  0.66766876  1
  Sn  Sn27  1  0.16630521  0.50063372  0.83296984  1
  Sn  Sn28  1  0.49947981  0.83306963  0.83261678  1
  Sn  Sn29  1  0.16712631  0.83256086  0.83296523  1
  Sn  Sn30  1  0.16657583  0.16683821  0.50018539  1
  Sn  Sn31  1  0.49989680  0.50018591  0.16639496  1
  Sn  Sn32  1  0.83326029  0.16711269  0.83267626  1
  Sn  Sn33  1  0.83390122  0.49967669  0.83233224  1
  Sn  Sn34  1  0.83356701  0.50006462  0.50074779  1
  Sn  Sn35  1  0.49933725  0.83304934  0.50065372  1
  Sn  Sn36  1  0.16584651  0.49981106  0.50097402  1
  Sn  Sn37  1  0.83380148  0.83302229  0.16631115  1
  Sn  Sn38  1  0.83350240  0.83329036  0.83417506  1
  Sn  Sn39  1  0.16754042  0.83340946  0.50069387  1
  Pb  Pb40  1  0.83546881  0.17023657  0.50261818  1
  Pb  Pb41  1  0.16407804  0.83315657  0.16656637  1
  Pb  Pb42  1  0.83176634  0.50151293  0.16640044  1
  Pb  Pb43  1  0.49942012  0.50192986  0.83501175  1
  Pb  Pb44  1  0.83355571  0.16376327  0.16395620  1
  Pb  Pb45  1  0.16891227  0.50010626  0.16596260  1
  Pb  Pb46  1  0.49725452  0.16315365  0.50038933  1
  Pb  Pb47  1  0.50218192  0.83234788  0.16689037  1
  Pb  Pb48  1  0.83369714  0.83176379  0.50038862  1
  Pb  Pb49  1  0.49971167  0.50200941  0.49849809  1
  Pb  Pb50  1  0.16487198  0.16682161  0.83175696  1
  Pb  Pb51  1  0.16632838  0.16668003  0.16999729  1
  Pb  Pb52  1  0.50018045  0.16980043  0.16666342  1
  Pb  Pb53  1  0.50274617  0.16316066  0.83294843  1
  I  I54  1  0.16725720  -0.00037497  0.16551790  1
  I  I55  1  0.17038785  -0.00167736  0.50456016  1
  I  I56  1  0.16464705  -0.00335000  0.82870549  1
  I  I57  1  0.16671079  0.33361650  0.16537764  1
  I  I58  1  0.16140616  0.33492788  0.50380749  1
  I  I59  1  0.16173384  0.33663777  0.82934508  1
  I  I60  1  0.16688605  0.66670133  0.17130425  1
  I  I61  1  0.16647676  0.66678604  0.50403857  1
  I  I62  1  0.16159626  0.66738659  0.82564525  1
  I  I63  1  0.50109870  -0.00014302  0.16686586  1
  I  I64  1  0.49746590  -0.00503651  0.50346373  1
  I  I65  1  0.49891728  -0.00535523  0.83046851  1
  I  I66  1  0.50138520  0.33741347  0.16702492  1
  I  I67  1  0.49986029  0.33345930  0.49717051  1
  I  I68  1  0.50008352  0.33343102  0.83602810  1
  I  I69  1  0.50103420  0.66491994  0.16673680  1
  I  I70  1  0.49522735  0.66985301  0.50350160  1
  I  I71  1  0.50480394  0.67013193  0.83039157  1
  I  I72  1  0.83191468  -0.00428078  0.16273495  1
  I  I73  1  0.83380203  -0.00004323  0.49983776  1
  I  I74  1  0.83335268  -0.00180668  0.83817647  1
  I  I75  1  0.83154363  0.33339849  0.16651589  1
  I  I76  1  0.83784818  0.33824448  0.50375490  1
  I  I77  1  0.83890205  0.33497826  0.82872906  1
  I  I78  1  0.83228632  0.66917369  0.16014483  1
  I  I79  1  0.83805635  0.66396583  0.50485521  1
  I  I80  1  0.83394392  0.66701651  0.83365244  1
  I  I81  1  0.16613458  0.16668948  -0.00038901  1
  I  I82  1  0.16571124  0.16612903  0.33837741  1
  I  I83  1  0.16479815  0.16548182  0.66385772  1
  I  I84  1  0.16177389  0.50668287  -0.00399637  1
  I  I85  1  0.16299681  0.50128538  0.33695493  1
  I  I86  1  0.16233106  0.50216280  0.66645239  1
  I  I87  1  0.16811468  0.82797844  -0.00388440  1
  I  I88  1  0.17026258  0.83212476  0.33702091  1
  I  I89  1  0.16511011  0.83248916  0.66697652  1
  I  I90  1  0.49890721  0.16429392  -0.00034079  1
  I  I91  1  0.50037991  0.16404024  0.33367597  1
  I  I92  1  0.50084801  0.17117208  0.66667937  1
  I  I93  1  0.50190056  0.50506503  0.00223167  1
  I  I94  1  0.50040747  0.50480640  0.33117477  1
  I  I95  1  0.50099360  0.49985181  0.66678126  1
  I  I96  1  0.49918787  0.83106462  -0.00303181  1
  I  I97  1  0.49555860  0.83055547  0.33610778  1
  I  I98  1  0.50168076  0.83154527  0.66740539  1
  I  I99  1  0.83509751  0.17176799  -0.00421198  1
  I  I100  1  0.83422210  0.16574213  0.33372079  1
  I  I101  1  0.83438121  0.15839890  0.67016036  1
  I  I102  1  0.83653870  0.49982234  -0.00377554  1
  I  I103  1  0.83752064  0.50401985  0.33602271  1
  I  I104  1  0.83701627  0.50375255  0.66798071  1
  I  I105  1  0.83241409  0.83086439  -0.00295599  1
  I  I106  1  0.83309683  0.82935658  0.33188335  1
  I  I107  1  0.83307088  0.83446447  0.67000105  1
  I  I108  1  -0.00033714  0.16753384  0.16654020  1
  I  I109  1  0.00314942  0.15902798  0.50183081  1
  I  I110  1  -0.00290999  0.16112381  0.83159591  1
  I  I111  1  -0.00003855  0.50084338  0.16753011  1
  I  I112  1  0.00100638  0.50360299  0.50346343  1
  I  I113  1  -0.00045868  0.50544067  0.82945764  1
  I  I114  1  -0.00355851  0.83118341  0.16152300  1
  I  I115  1  0.00314346  0.83431785  0.50282902  1
  I  I116  1  -0.00007024  0.83264318  0.83296208  1
  I  I117  1  0.33332564  0.16531367  0.16481428  1
  I  I118  1  0.32926122  0.17360198  0.50262744  1
  I  I119  1  0.33313539  0.16741553  0.83282449  1
  I  I120  1  0.33624086  0.50383155  0.16793385  1
  I  I121  1  0.32973667  0.49887282  0.50325201  1
  I  I122  1  0.32987758  0.50535304  0.82923544  1
  I  I123  1  0.33341104  0.83260438  0.16478785  1
  I  I124  1  0.33198566  0.83105588  0.50744313  1
  I  I125  1  0.33223398  0.82726396  0.82736509  1
  I  I126  1  0.66705209  0.16595113  0.16792226  1
  I  I127  1  0.66685972  0.16630578  0.49955785  1
  I  I128  1  0.67091159  0.16838928  0.83308559  1
  I  I129  1  0.66442240  0.50401431  0.16628373  1
  I  I130  1  0.66921416  0.50385443  0.50396396  1
  I  I131  1  0.66980917  0.50191870  0.83060778  1
  I  I132  1  0.66971375  0.83047329  0.16124629  1
  I  I133  1  0.66493732  0.82952956  0.50347636  1
  I  I134  1  0.66753002  0.83281949  0.83331516  1
