# generated using pymatgen
data_Cs27Sn13Pb14I81
_symmetry_space_group_name_H-M   'P 1'
_cell_length_a   19.00141113
_cell_length_b   18.99738151
_cell_length_c   18.97822107
_cell_angle_alpha   90.00177681
_cell_angle_beta   90.00082021
_cell_angle_gamma   90.00011356
_symmetry_Int_Tables_number   1
_chemical_formula_structural   Cs27Sn13Pb14I81
_chemical_formula_sum   'Cs27 Sn13 Pb14 I81'
_cell_volume   6850.70237454
_cell_formula_units_Z   1
loop_
 _symmetry_equiv_pos_site_id
 _symmetry_equiv_pos_as_xyz
  1  'x, y, z'
loop_
 _atom_site_type_symbol
 _atom_site_label
 _atom_site_symmetry_multiplicity
 _atom_site_fract_x
 _atom_site_fract_y
 _atom_site_fract_z
 _atom_site_occupancy
  Cs  Cs0  1  0.00175204  -0.00064192  0.00074400  1
  Cs  Cs1  1  -0.00090954  0.00037644  0.33166701  1
  Cs  Cs2  1  0.00382082  -0.00207946  0.67712091  1
  Cs  Cs3  1  -0.00350582  0.33409777  -0.00018151  1
  Cs  Cs4  1  -0.00056852  0.33336913  0.33523006  1
  Cs  Cs5  1  0.00284085  0.33188370  0.66549187  1
  Cs  Cs6  1  0.00060271  0.66663524  -0.00186284  1
  Cs  Cs7  1  0.00036453  0.66600365  0.33310031  1
  Cs  Cs8  1  -0.00167717  0.66894447  0.67132566  1
  Cs  Cs9  1  0.33188720  -0.00025054  -0.00147671  1
  Cs  Cs10  1  0.33436513  0.00051128  0.33273256  1
  Cs  Cs11  1  0.33103838  -0.00132219  0.67670393  1
  Cs  Cs12  1  0.33894365  0.33899508  0.00026593  1
  Cs  Cs13  1  0.33318620  0.33558856  0.33568294  1
  Cs  Cs14  1  0.32966217  0.32930022  0.66274048  1
  Cs  Cs15  1  0.33443473  0.66184536  -0.00097611  1
  Cs  Cs16  1  0.33165947  0.66449801  0.33245530  1
  Cs  Cs17  1  0.33402951  0.67159507  0.66829536  1
  Cs  Cs18  1  0.66597297  0.00491648  0.00314719  1
  Cs  Cs19  1  0.66656067  0.00083270  0.33313667  1
  Cs  Cs20  1  0.66473288  -0.00834285  0.66888875  1
  Cs  Cs21  1  0.66582210  0.33566026  -0.00653042  1
  Cs  Cs22  1  0.66755984  0.33101099  0.33444858  1
  Cs  Cs23  1  0.66708199  0.33427557  0.66747411  1
  Cs  Cs24  1  0.66533724  0.65958243  -0.00445106  1
  Cs  Cs25  1  0.66744693  0.66755760  0.33573324  1
  Cs  Cs26  1  0.66610539  0.67253354  0.66828675  1
  Sn  Sn27  1  0.16657983  0.49940528  0.83313859  1
  Sn  Sn28  1  0.83260870  0.16668166  0.49962354  1
  Sn  Sn29  1  0.83322456  0.16694981  0.16743259  1
  Sn  Sn30  1  0.83298658  0.83320837  0.16719729  1
  Sn  Sn31  1  0.83240330  0.49955624  0.49912725  1
  Sn  Sn32  1  0.16693356  0.16661959  0.16719349  1
  Sn  Sn33  1  0.49996571  0.16627000  0.16765293  1
  Sn  Sn34  1  0.49999717  0.83362354  0.16727573  1
  Sn  Sn35  1  0.50081367  0.49957632  0.49943636  1
  Sn  Sn36  1  0.16690918  0.83387521  0.16796325  1
  Sn  Sn37  1  0.16646182  0.83380976  0.49889184  1
  Sn  Sn38  1  0.50095420  0.16689527  0.49929068  1
  Sn  Sn39  1  0.83314588  0.49976306  0.16771335  1
  Pb  Pb40  1  0.50013433  0.83342462  0.83734800  1
  Pb  Pb41  1  0.16432521  0.49990896  0.16567058  1
  Pb  Pb42  1  0.50022419  0.16676709  0.83273654  1
  Pb  Pb43  1  0.16649424  0.16435840  0.49813922  1
  Pb  Pb44  1  0.49792107  0.49964908  0.82910301  1
  Pb  Pb45  1  0.50268798  0.49955295  0.16865903  1
  Pb  Pb46  1  0.83469774  0.49972947  0.83211751  1
  Pb  Pb47  1  0.83313405  0.16668494  0.83232922  1
  Pb  Pb48  1  0.16610160  0.50211615  0.50159294  1
  Pb  Pb49  1  0.16672812  0.16928900  0.83706725  1
  Pb  Pb50  1  0.83308102  0.83349606  0.83709169  1
  Pb  Pb51  1  0.83529537  0.83407391  0.49829313  1
  Pb  Pb52  1  0.49797304  0.83418056  0.49792993  1
  Pb  Pb53  1  0.16669681  0.83156646  0.83467415  1
  I  I54  1  0.16225292  -0.00030792  0.17025945  1
  I  I55  1  0.16638075  -0.00316795  0.49610567  1
  I  I56  1  0.16674722  0.00001208  0.83126312  1
  I  I57  1  0.16657591  0.33044077  0.16450381  1
  I  I58  1  0.16711752  0.33309893  0.50039864  1
  I  I59  1  0.16534931  0.33636047  0.83240039  1
  I  I60  1  0.16650331  0.66960476  0.16825678  1
  I  I61  1  0.16701237  0.66965304  0.49246221  1
  I  I62  1  0.16553022  0.66426808  0.83551134  1
  I  I63  1  0.50375585  0.00090701  0.17213445  1
  I  I64  1  0.50479947  0.00335413  0.49598492  1
  I  I65  1  0.49813691  0.00002355  0.82800925  1
  I  I66  1  0.49806090  0.33012238  0.16811252  1
  I  I67  1  0.50211252  0.33249647  0.49345595  1
  I  I68  1  0.49866301  0.33344207  0.84102412  1
  I  I69  1  0.49858551  0.66903779  0.16822436  1
  I  I70  1  0.50278854  0.66459588  0.49845480  1
  I  I71  1  0.49884875  0.66639016  0.83417460  1
  I  I72  1  0.83389037  0.00064522  0.17008559  1
  I  I73  1  0.82906982  0.00335744  0.49370984  1
  I  I74  1  0.83552680  0.00006140  0.83198323  1
  I  I75  1  0.83520042  0.33257859  0.17011099  1
  I  I76  1  0.83074436  0.33320140  0.49080828  1
  I  I77  1  0.83532013  0.33334994  0.84076079  1
  I  I78  1  0.83504599  0.66659713  0.17079765  1
  I  I79  1  0.83114304  0.66410192  0.49503678  1
  I  I80  1  0.83524831  0.66647295  0.83398370  1
  I  I81  1  0.16527104  0.15841947  0.00548033  1
  I  I82  1  0.16581982  0.16588917  0.32969216  1
  I  I83  1  0.16653408  0.16448249  0.66652820  1
  I  I84  1  0.16422966  0.50164830  -0.00190465  1
  I  I85  1  0.16777203  0.49982453  0.33338960  1
  I  I86  1  0.16524763  0.50282091  0.66906078  1
  I  I87  1  0.16558048  0.83712480  0.00426025  1
  I  I88  1  0.16619221  0.83490684  0.33086327  1
  I  I89  1  0.16660410  0.83152586  0.66441612  1
  I  I90  1  0.50037487  0.16155241  0.00408158  1
  I  I91  1  0.50122673  0.16651354  0.33219640  1
  I  I92  1  0.50450268  0.17224219  0.66252427  1
  I  I93  1  0.50060712  0.50087433  0.00014319  1
  I  I94  1  0.49941218  0.49885994  0.33630525  1
  I  I95  1  0.50678461  0.49425487  0.66132065  1
  I  I96  1  0.49701322  0.83962507  0.00598661  1
  I  I97  1  0.50196174  0.83510660  0.32963627  1
  I  I98  1  0.49651109  0.83328977  0.66625915  1
  I  I99  1  0.83324592  0.16638318  0.00440816  1
  I  I100  1  0.83273087  0.16769730  0.33178079  1
  I  I101  1  0.82935482  0.17383920  0.66234338  1
  I  I102  1  0.83556371  0.50038495  0.00305286  1
  I  I103  1  0.83172160  0.49930623  0.33300622  1
  I  I104  1  0.83153008  0.49422487  0.66255583  1
  I  I105  1  0.83772782  0.83374857  0.00623542  1
  I  I106  1  0.83234209  0.83335652  0.32951511  1
  I  I107  1  0.83700173  0.83261649  0.66626565  1
  I  I108  1  -0.00091688  0.16399381  0.16971904  1
  I  I109  1  -0.00300362  0.17184151  0.49390659  1
  I  I110  1  0.00012586  0.16688678  0.83306137  1
  I  I111  1  -0.00365790  0.49964238  0.17205148  1
  I  I112  1  -0.00326236  0.49615276  0.49655445  1
  I  I113  1  0.00219648  0.50151217  0.83322499  1
  I  I114  1  0.00003936  0.83611610  0.17028012  1
  I  I115  1  0.00280185  0.83187978  0.49233336  1
  I  I116  1  0.00023754  0.83222920  0.83417804  1
  I  I117  1  0.33391161  0.15878593  0.17014555  1
  I  I118  1  0.33608908  0.17143125  0.49440762  1
  I  I119  1  0.33327657  0.16725582  0.83259465  1
  I  I120  1  0.33355791  0.50031664  0.16607625  1
  I  I121  1  0.33566113  0.49610063  0.50138302  1
  I  I122  1  0.33057080  0.50135711  0.83638986  1
  I  I123  1  0.33301137  0.84085869  0.17049757  1
  I  I124  1  0.33047176  0.83139488  0.49248740  1
  I  I125  1  0.33312531  0.83186019  0.83404295  1
  I  I126  1  0.66696522  0.16220684  0.17027946  1
  I  I127  1  0.66690884  0.17190099  0.48961583  1
  I  I128  1  0.66666762  0.16835105  0.84054164  1
  I  I129  1  0.67062384  0.50135469  0.16722624  1
  I  I130  1  0.66751358  0.49650445  0.49444133  1
  I  I131  1  0.66658943  0.50006687  0.83671966  1
  I  I132  1  0.66695661  0.83729670  0.16664680  1
  I  I133  1  0.66667210  0.83188895  0.49925520  1
  I  I134  1  0.66656743  0.83118940  0.83064135  1
