# generated using pymatgen
data_Cs27Sn13Pb14I81
_symmetry_space_group_name_H-M   'P 1'
_cell_length_a   18.97665198
_cell_length_b   18.97745670
_cell_length_c   18.97652245
_cell_angle_alpha   89.99951833
_cell_angle_beta   89.99956137
_cell_angle_gamma   89.99944136
_symmetry_Int_Tables_number   1
_chemical_formula_structural   Cs27Sn13Pb14I81
_chemical_formula_sum   'Cs27 Sn13 Pb14 I81'
_cell_volume   6833.98829809
_cell_formula_units_Z   1
loop_
 _symmetry_equiv_pos_site_id
 _symmetry_equiv_pos_as_xyz
  1  'x, y, z'
loop_
 _atom_site_type_symbol
 _atom_site_label
 _atom_site_symmetry_multiplicity
 _atom_site_fract_x
 _atom_site_fract_y
 _atom_site_fract_z
 _atom_site_occupancy
  Cs  Cs0  1  -0.00342665  -0.00013037  -0.00498174  1
  Cs  Cs1  1  -0.00018146  0.00185451  0.33308688  1
  Cs  Cs2  1  -0.00052133  -0.00211942  0.67240155  1
  Cs  Cs3  1  0.00009525  0.33326134  0.00096028  1
  Cs  Cs4  1  -0.00317424  0.33607708  0.33370903  1
  Cs  Cs5  1  0.00462036  0.33494809  0.66389803  1
  Cs  Cs6  1  0.00345704  0.66706253  -0.00216238  1
  Cs  Cs7  1  -0.00087716  0.66050485  0.33543619  1
  Cs  Cs8  1  0.00719040  0.66783603  0.66636346  1
  Cs  Cs9  1  0.33306753  0.00034351  0.00383775  1
  Cs  Cs10  1  0.33292616  0.00028339  0.33404054  1
  Cs  Cs11  1  0.33191340  0.00290113  0.66245984  1
  Cs  Cs12  1  0.33248039  0.33396722  -0.00120915  1
  Cs  Cs13  1  0.33267318  0.33047224  0.33172046  1
  Cs  Cs14  1  0.33482646  0.32994824  0.67112542  1
  Cs  Cs15  1  0.33745862  0.66475223  0.00170999  1
  Cs  Cs16  1  0.33268226  0.66916948  0.33335725  1
  Cs  Cs17  1  0.32826906  0.66870106  0.66444766  1
  Cs  Cs18  1  0.67013516  -0.00128720  -0.00039675  1
  Cs  Cs19  1  0.66736694  -0.00041573  0.33413906  1
  Cs  Cs20  1  0.66689493  0.00295687  0.66510018  1
  Cs  Cs21  1  0.66786557  0.33280554  -0.00041196  1
  Cs  Cs22  1  0.67038161  0.33428322  0.33344668  1
  Cs  Cs23  1  0.66353417  0.33539080  0.66722820  1
  Cs  Cs24  1  0.66395190  0.66715676  -0.00254596  1
  Cs  Cs25  1  0.66705121  0.66742266  0.33380066  1
  Cs  Cs26  1  0.66682916  0.66451404  0.66964562  1
  Sn  Sn27  1  0.16693556  0.16572547  0.16742314  1
  Sn  Sn28  1  0.83312553  0.83375652  0.49959047  1
  Sn  Sn29  1  0.50017797  0.83361235  0.16619507  1
  Sn  Sn30  1  0.49973030  0.50022948  0.49987690  1
  Sn  Sn31  1  0.83353266  0.83309591  0.16743828  1
  Sn  Sn32  1  0.16639113  0.83402384  0.16690184  1
  Sn  Sn33  1  0.49988604  0.16640862  0.16675806  1
  Sn  Sn34  1  0.83308359  0.50000099  0.83328576  1
  Sn  Sn35  1  0.16557154  0.16644964  0.49902499  1
  Sn  Sn36  1  0.49988286  0.83328230  0.83343584  1
  Sn  Sn37  1  0.50031935  0.49987959  0.16707735  1
  Sn  Sn38  1  0.50073000  0.50110254  0.83317596  1
  Sn  Sn39  1  0.83415808  0.16602481  0.49991321  1
  Pb  Pb40  1  0.83324737  0.16940850  0.83015053  1
  Pb  Pb41  1  0.50165924  0.83170725  0.49996621  1
  Pb  Pb42  1  0.16965458  0.49712727  0.49972947  1
  Pb  Pb43  1  0.83174046  0.50032778  0.50195640  1
  Pb  Pb44  1  0.17010950  0.83354114  0.83615759  1
  Pb  Pb45  1  0.50012059  0.16630840  0.83621898  1
  Pb  Pb46  1  0.16742053  0.50009672  0.83342158  1
  Pb  Pb47  1  0.16876630  0.49982378  0.16678311  1
  Pb  Pb48  1  0.83141266  0.83164617  0.83310316  1
  Pb  Pb49  1  0.83361355  0.16483369  0.16803645  1
  Pb  Pb50  1  0.83107182  0.50280335  0.16466315  1
  Pb  Pb51  1  0.50018293  0.16857857  0.49761155  1
  Pb  Pb52  1  0.16664012  0.16641945  0.83404142  1
  Pb  Pb53  1  0.16394906  0.83540535  0.49753691  1
  I  I54  1  0.17380470  -0.00002430  0.17065342  1
  I  I55  1  0.16833930  0.00337483  0.49704464  1
  I  I56  1  0.16800838  -0.00021125  0.83155137  1
  I  I57  1  0.17225513  0.32988095  0.16994485  1
  I  I58  1  0.15964280  0.32925327  0.49242823  1
  I  I59  1  0.16912607  0.33330249  0.83530507  1
  I  I60  1  0.16806175  0.66991945  0.16529312  1
  I  I61  1  0.16579525  0.66682268  0.49930228  1
  I  I62  1  0.16493147  0.66694609  0.83441409  1
  I  I63  1  0.49904344  -0.00102325  0.16264872  1
  I  I64  1  0.49916440  0.00013685  0.50043422  1
  I  I65  1  0.50030575  -0.00315714  0.83894594  1
  I  I66  1  0.49498883  0.33344077  0.16697866  1
  I  I67  1  0.50178983  0.33657053  0.50064249  1
  I  I68  1  0.50318305  0.33663817  0.83377762  1
  I  I69  1  0.50017009  0.66723447  0.16535537  1
  I  I70  1  0.50345537  0.66370255  0.49570200  1
  I  I71  1  0.50424969  0.66596708  0.83970412  1
  I  I72  1  0.82741184  -0.00336832  0.16759680  1
  I  I73  1  0.83456077  -0.00018903  0.49527130  1
  I  I74  1  0.83163363  -0.00026722  0.83463393  1
  I  I75  1  0.83249071  0.33346230  0.16745447  1
  I  I76  1  0.83568763  0.33087752  0.50105684  1
  I  I77  1  0.82432278  0.33714262  0.83323671  1
  I  I78  1  0.83352525  0.67106094  0.17349194  1
  I  I79  1  0.82947037  0.66932804  0.49598270  1
  I  I80  1  0.82801793  0.66396005  0.83261320  1
  I  I81  1  0.17252349  0.16371563  0.00412915  1
  I  I82  1  0.16846477  0.16261085  0.33221033  1
  I  I83  1  0.16317738  0.16871085  0.66340329  1
  I  I84  1  0.16823537  0.49764203  0.00027729  1
  I  I85  1  0.16853476  0.50200246  0.33317780  1
  I  I86  1  0.16924799  0.49800532  0.66647630  1
  I  I87  1  0.16179163  0.83982267  0.00466538  1
  I  I88  1  0.17407846  0.83521414  0.32936262  1
  I  I89  1  0.16677829  0.83423896  0.66644452  1
  I  I90  1  0.49405733  0.17030089  0.00464352  1
  I  I91  1  0.49866476  0.16539173  0.32943110  1
  I  I92  1  0.49922077  0.16758777  0.66641314  1
  I  I93  1  0.50306337  0.50157134  0.00040337  1
  I  I94  1  0.49935018  0.50025403  0.33215691  1
  I  I95  1  0.50479241  0.50347219  0.66759519  1
  I  I96  1  0.50130178  0.82868385  0.00201045  1
  I  I97  1  0.49869243  0.83211558  0.32981830  1
  I  I98  1  0.50347974  0.82738370  0.66910471  1
  I  I99  1  0.83323719  0.16606323  0.00014158  1
  I  I100  1  0.83317779  0.16624684  0.33604204  1
  I  I101  1  0.83802264  0.15918803  0.66204579  1
  I  I102  1  0.82633748  0.50133899  -0.00295054  1
  I  I103  1  0.83072665  0.49907389  0.33335240  1
  I  I104  1  0.82412446  0.50070151  0.66945284  1
  I  I105  1  0.83375375  0.83206968  0.00297013  1
  I  I106  1  0.82961043  0.83667738  0.33237900  1
  I  I107  1  0.82983329  0.83638159  0.66400880  1
  I  I108  1  0.00290319  0.16190593  0.16884268  1
  I  I109  1  0.00003056  0.16401431  0.49338517  1
  I  I110  1  -0.00016955  0.16874399  0.83866087  1
  I  I111  1  -0.00030049  0.49974429  0.16462031  1
  I  I112  1  -0.00007640  0.50132803  0.50248609  1
  I  I113  1  -0.00277174  0.49977128  0.83250126  1
  I  I114  1  -0.00006375  0.83891699  0.17130164  1
  I  I115  1  -0.00404610  0.83302275  0.49549460  1
  I  I116  1  -0.00006197  0.83100057  0.83430453  1
  I  I117  1  0.33383015  0.16267258  0.17209871  1
  I  I118  1  0.33114731  0.16925136  0.49715854  1
  I  I119  1  0.33363421  0.16928380  0.82845898  1
  I  I120  1  0.33778271  0.50389703  0.16376973  1
  I  I121  1  0.33787579  0.50016961  0.50160804  1
  I  I122  1  0.33767676  0.50306037  0.83474294  1
  I  I123  1  0.33453271  0.83347160  0.16180747  1
  I  I124  1  0.33330553  0.83336554  0.50010503  1
  I  I125  1  0.33821046  0.82584719  0.83819189  1
  I  I126  1  0.66391748  0.16638651  0.16792630  1
  I  I127  1  0.66904580  0.16429322  0.49852471  1
  I  I128  1  0.66651355  0.16548074  0.83324717  1
  I  I129  1  0.66236882  0.49899128  0.16848293  1
  I  I130  1  0.66359715  0.49768013  0.49765689  1
  I  I131  1  0.66444800  0.50384632  0.83361984  1
  I  I132  1  0.66548413  0.83298993  0.16661987  1
  I  I133  1  0.66947571  0.83917470  0.49363023  1
  I  I134  1  0.66339193  0.83016412  0.84044394  1
