# generated using pymatgen
data_Cs27Sn14Pb13I81
_symmetry_space_group_name_H-M   'P 1'
_cell_length_a   18.97982021
_cell_length_b   18.96706856
_cell_length_c   18.97930741
_cell_angle_alpha   89.99910455
_cell_angle_beta   90.00065305
_cell_angle_gamma   90.00088312
_symmetry_Int_Tables_number   1
_chemical_formula_structural   Cs27Sn14Pb13I81
_chemical_formula_sum   'Cs27 Sn14 Pb13 I81'
_cell_volume   6832.39031033
_cell_formula_units_Z   1
loop_
 _symmetry_equiv_pos_site_id
 _symmetry_equiv_pos_as_xyz
  1  'x, y, z'
loop_
 _atom_site_type_symbol
 _atom_site_label
 _atom_site_symmetry_multiplicity
 _atom_site_fract_x
 _atom_site_fract_y
 _atom_site_fract_z
 _atom_site_occupancy
  Cs  Cs0  1  -0.00264921  -0.00229235  0.00619356  1
  Cs  Cs1  1  0.00690429  0.00344310  0.32645200  1
  Cs  Cs2  1  0.00043718  0.00179359  0.66556014  1
  Cs  Cs3  1  0.00171520  0.33591449  -0.00368860  1
  Cs  Cs4  1  -0.00107191  0.32871626  0.34046557  1
  Cs  Cs5  1  -0.00171454  0.33194811  0.66552555  1
  Cs  Cs6  1  -0.00072250  0.66645778  -0.00125929  1
  Cs  Cs7  1  -0.00256904  0.66877412  0.33103070  1
  Cs  Cs8  1  -0.00214640  0.66575600  0.66914614  1
  Cs  Cs9  1  0.33630474  0.00618660  -0.00022108  1
  Cs  Cs10  1  0.32425274  0.00089163  0.33618442  1
  Cs  Cs11  1  0.33542439  -0.00540726  0.66410677  1
  Cs  Cs12  1  0.33367447  0.33578693  0.00078135  1
  Cs  Cs13  1  0.33505871  0.33355221  0.33361909  1
  Cs  Cs14  1  0.33209658  0.33527593  0.66588354  1
  Cs  Cs15  1  0.33354948  0.66399610  -0.00100782  1
  Cs  Cs16  1  0.33507150  0.66691783  0.33412962  1
  Cs  Cs17  1  0.33402917  0.66801772  0.66673492  1
  Cs  Cs18  1  0.66600689  0.01055063  0.00088909  1
  Cs  Cs19  1  0.66885782  -0.00007860  0.32713481  1
  Cs  Cs20  1  0.66399287  -0.00307386  0.67021653  1
  Cs  Cs21  1  0.66526134  0.32944307  -0.00021213  1
  Cs  Cs22  1  0.66601274  0.33331910  0.33687381  1
  Cs  Cs23  1  0.66957703  0.33188852  0.66373788  1
  Cs  Cs24  1  0.66775557  0.66592879  0.00123878  1
  Cs  Cs25  1  0.66673266  0.66544463  0.33238773  1
  Cs  Cs26  1  0.66806026  0.66843949  0.66559372  1
  Sn  Sn27  1  0.16610441  0.83339011  0.83360123  1
  Sn  Sn28  1  0.50048317  0.50023525  0.83301020  1
  Sn  Sn29  1  0.16714007  0.50058265  0.50014194  1
  Sn  Sn30  1  0.49971696  0.83278869  0.16640174  1
  Sn  Sn31  1  0.49931959  0.49956721  0.50026468  1
  Sn  Sn32  1  0.16664779  0.16633679  0.83333011  1
  Sn  Sn33  1  0.83312356  0.50058056  0.83413317  1
  Sn  Sn34  1  0.83388385  0.83260145  0.83262788  1
  Sn  Sn35  1  0.50023594  0.50075438  0.16660535  1
  Sn  Sn36  1  0.83361762  0.83361855  0.50011603  1
  Sn  Sn37  1  0.83327798  0.49999372  0.16592661  1
  Sn  Sn38  1  0.50021191  0.16676634  0.50014561  1
  Sn  Sn39  1  0.16661981  0.50029212  0.83302944  1
  Sn  Sn40  1  0.16629805  0.50021355  0.16716701  1
  Pb  Pb41  1  0.50046601  0.83147633  0.83553301  1
  Pb  Pb42  1  0.50166444  0.83295823  0.49780287  1
  Pb  Pb43  1  0.16904544  0.83102470  0.16387863  1
  Pb  Pb44  1  0.83325993  0.50116775  0.50015587  1
  Pb  Pb45  1  0.49968267  0.16729777  0.16914052  1
  Pb  Pb46  1  0.16674004  0.16974653  0.16418456  1
  Pb  Pb47  1  0.16850906  0.16885897  0.50233529  1
  Pb  Pb48  1  0.83352456  0.17041597  0.16665788  1
  Pb  Pb49  1  0.83095617  0.16273357  0.50027146  1
  Pb  Pb50  1  0.49774177  0.16956113  0.83101643  1
  Pb  Pb51  1  0.83159794  0.83161589  0.16572806  1
  Pb  Pb52  1  0.16435181  0.83082413  0.50199118  1
  Pb  Pb53  1  0.83564007  0.16647035  0.83323243  1
  I  I54  1  0.16898564  -0.00019325  0.16553185  1
  I  I55  1  0.16860162  -0.00015938  0.50241877  1
  I  I56  1  0.16190633  -0.00080468  0.83217176  1
  I  I57  1  0.17061506  0.33861631  0.16351957  1
  I  I58  1  0.16696200  0.33767910  0.50199183  1
  I  I59  1  0.16738300  0.33610420  0.83402187  1
  I  I60  1  0.16530142  0.66226958  0.16374324  1
  I  I61  1  0.17437692  0.66236641  0.50241689  1
  I  I62  1  0.16579187  0.66467925  0.83350851  1
  I  I63  1  0.50225331  -0.00251342  0.16671240  1
  I  I64  1  0.50272990  0.00205810  0.49936630  1
  I  I65  1  0.49950342  0.00001851  0.83381566  1
  I  I66  1  0.49932742  0.33768154  0.16414415  1
  I  I67  1  0.49668201  0.33639049  0.49825496  1
  I  I68  1  0.49980565  0.33842212  0.83907429  1
  I  I69  1  0.50000201  0.66336499  0.16876579  1
  I  I70  1  0.49713358  0.66303752  0.50143427  1
  I  I71  1  0.49536142  0.66254468  0.82889717  1
  I  I72  1  0.82954277  -0.00033271  0.16601292  1
  I  I73  1  0.83040925  -0.00484502  0.50888373  1
  I  I74  1  0.83722603  -0.00352431  0.82849034  1
  I  I75  1  0.82988643  0.33919163  0.16029878  1
  I  I76  1  0.83495748  0.33352481  0.49943547  1
  I  I77  1  0.83393587  0.33707666  0.83758131  1
  I  I78  1  0.83471766  0.66292293  0.16476416  1
  I  I79  1  0.83099099  0.66854759  0.50259608  1
  I  I80  1  0.83816326  0.66507582  0.83322952  1
  I  I81  1  0.16772844  0.17020522  -0.00387504  1
  I  I82  1  0.16751487  0.16806384  0.33353311  1
  I  I83  1  0.16724571  0.17130847  0.67013773  1
  I  I84  1  0.16885123  0.49981816  -0.00106397  1
  I  I85  1  0.17034557  0.50031613  0.33317068  1
  I  I86  1  0.16966326  0.49991712  0.66797364  1
  I  I87  1  0.15973691  0.82954161  -0.00421151  1
  I  I88  1  0.16583748  0.83153953  0.33311997  1
  I  I89  1  0.16740631  0.82910593  0.67031999  1
  I  I90  1  0.49956379  0.16705601  -0.00013159  1
  I  I91  1  0.50004582  0.17475528  0.33653667  1
  I  I92  1  0.49936508  0.17307411  0.66357875  1
  I  I93  1  0.49747726  0.50491771  -0.00004569  1
  I  I94  1  0.49757737  0.49994124  0.33320464  1
  I  I95  1  0.49657847  0.49601484  0.66679661  1
  I  I96  1  0.50056558  0.82448081  0.00294653  1
  I  I97  1  0.50318479  0.82509771  0.33037977  1
  I  I98  1  0.49880634  0.83245369  0.66688875  1
  I  I99  1  0.83174888  0.16247158  -0.00026833  1
  I  I100  1  0.83305179  0.16719787  0.33358187  1
  I  I101  1  0.83342829  0.17327859  0.66678835  1
  I  I102  1  0.83389780  0.50571732  -0.00125477  1
  I  I103  1  0.83273159  0.50271885  0.33096545  1
  I  I104  1  0.83381457  0.50206963  0.66970436  1
  I  I105  1  0.83768174  0.82909792  -0.00332164  1
  I  I106  1  0.82857855  0.82940597  0.33490025  1
  I  I107  1  0.83516689  0.82556210  0.66843377  1
  I  I108  1  0.00027595  0.16611303  0.16780695  1
  I  I109  1  0.00024721  0.16905287  0.50126210  1
  I  I110  1  0.00344274  0.17465296  0.83169458  1
  I  I111  1  0.00029186  0.49995950  0.16205114  1
  I  I112  1  0.00251262  0.50246552  0.50085012  1
  I  I113  1  0.00070556  0.50034302  0.83601354  1
  I  I114  1  0.00004925  0.83169503  0.16845358  1
  I  I115  1  -0.00327168  0.82875617  0.50193750  1
  I  I116  1  -0.00003991  0.82630992  0.82961900  1
  I  I117  1  0.33331739  0.16876325  0.16548272  1
  I  I118  1  0.33635442  0.16944298  0.50031873  1
  I  I119  1  0.32991425  0.16763404  0.83348787  1
  I  I120  1  0.33362323  0.50300130  0.16361455  1
  I  I121  1  0.33388890  0.49707948  0.50089662  1
  I  I122  1  0.33266159  0.49994108  0.83527483  1
  I  I123  1  0.33654912  0.82499235  0.16654609  1
  I  I124  1  0.33330180  0.83456027  0.50076042  1
  I  I125  1  0.33078278  0.83057896  0.83495947  1
  I  I126  1  0.66631243  0.16812617  0.16563640  1
  I  I127  1  0.66328411  0.17749497  0.50055767  1
  I  I128  1  0.66645038  0.16695967  0.83297111  1
  I  I129  1  0.66599761  0.50437970  0.16438450  1
  I  I130  1  0.66381432  0.49813152  0.49987235  1
  I  I131  1  0.66689458  0.50522491  0.83564648  1
  I  I132  1  0.66396623  0.82467700  0.16645298  1
  I  I133  1  0.66924028  0.82945961  0.50757419  1
  I  I134  1  0.66952360  0.82641469  0.83007853  1
