# generated using pymatgen
data_Cs27Sn14Pb13I81
_symmetry_space_group_name_H-M   'P 1'
_cell_length_a   18.97431194
_cell_length_b   18.96904348
_cell_length_c   18.98248825
_cell_angle_alpha   89.99733823
_cell_angle_beta   89.99953966
_cell_angle_gamma   89.99954314
_symmetry_Int_Tables_number   1
_chemical_formula_structural   Cs27Sn14Pb13I81
_chemical_formula_sum   'Cs27 Sn14 Pb13 I81'
_cell_volume   6832.26349575
_cell_formula_units_Z   1
loop_
 _symmetry_equiv_pos_site_id
 _symmetry_equiv_pos_as_xyz
  1  'x, y, z'
loop_
 _atom_site_type_symbol
 _atom_site_label
 _atom_site_symmetry_multiplicity
 _atom_site_fract_x
 _atom_site_fract_y
 _atom_site_fract_z
 _atom_site_occupancy
  Cs  Cs0  1  -0.00239553  0.00261241  -0.00519266  1
  Cs  Cs1  1  -0.00195647  -0.00160659  0.33666631  1
  Cs  Cs2  1  -0.00020521  0.00283383  0.66805969  1
  Cs  Cs3  1  0.00053499  0.33185780  -0.00044728  1
  Cs  Cs4  1  0.00082247  0.33630925  0.33294184  1
  Cs  Cs5  1  -0.00060698  0.33009146  0.66743123  1
  Cs  Cs6  1  -0.00040222  0.66642636  0.00066192  1
  Cs  Cs7  1  -0.00068074  0.66433183  0.33561912  1
  Cs  Cs8  1  -0.00045094  0.66623025  0.66381090  1
  Cs  Cs9  1  0.33349386  -0.00026921  -0.00049565  1
  Cs  Cs10  1  0.33541022  0.00012630  0.33425722  1
  Cs  Cs11  1  0.33184205  -0.00214484  0.66588587  1
  Cs  Cs12  1  0.33032984  0.33079648  0.00290286  1
  Cs  Cs13  1  0.33165021  0.33077694  0.33253818  1
  Cs  Cs14  1  0.33970371  0.33685969  0.66533938  1
  Cs  Cs15  1  0.33485990  0.66743763  -0.00163057  1
  Cs  Cs16  1  0.32911090  0.66956227  0.33148902  1
  Cs  Cs17  1  0.33342044  0.66829213  0.67025456  1
  Cs  Cs18  1  0.66859374  -0.00068653  -0.00138297  1
  Cs  Cs19  1  0.66590093  0.00236581  0.33285012  1
  Cs  Cs20  1  0.66794272  -0.00017200  0.66896042  1
  Cs  Cs21  1  0.66828638  0.33756538  0.00133967  1
  Cs  Cs22  1  0.66630527  0.32905821  0.33360758  1
  Cs  Cs23  1  0.66141240  0.33700117  0.66473412  1
  Cs  Cs24  1  0.66577667  0.66523690  0.00133429  1
  Cs  Cs25  1  0.67200066  0.66747048  0.32957313  1
  Cs  Cs26  1  0.66696404  0.66295308  0.66484334  1
  Sn  Sn27  1  0.16735814  0.83408443  0.50013514  1
  Sn  Sn28  1  0.83357745  0.16722437  0.16710191  1
  Sn  Sn29  1  0.83444153  0.50020121  0.83383025  1
  Sn  Sn30  1  0.16695681  0.83271298  0.83351258  1
  Sn  Sn31  1  0.16699987  0.83365974  0.16636505  1
  Sn  Sn32  1  0.16578343  0.50054057  0.83329261  1
  Sn  Sn33  1  0.50010886  0.50046018  0.16696551  1
  Sn  Sn34  1  0.49933915  0.83262832  0.16668534  1
  Sn  Sn35  1  0.49968998  0.83302416  0.49994955  1
  Sn  Sn36  1  0.49976830  0.16589182  0.83367732  1
  Sn  Sn37  1  0.49953507  0.83421666  0.83328567  1
  Sn  Sn38  1  0.16632138  0.16627618  0.50002697  1
  Sn  Sn39  1  0.83281046  0.49905856  0.16591491  1
  Sn  Sn40  1  0.83392228  0.16666317  0.49936756  1
  Pb  Pb41  1  0.83327228  0.83074280  0.83320622  1
  Pb  Pb42  1  0.50169494  0.16611399  0.16482788  1
  Pb  Pb43  1  0.16649094  0.50193900  0.16470169  1
  Pb  Pb44  1  0.16875566  0.16658503  0.83115761  1
  Pb  Pb45  1  0.49980251  0.16451313  0.50182453  1
  Pb  Pb46  1  0.16686083  0.50033349  0.50261383  1
  Pb  Pb47  1  0.83340477  0.83321509  0.16654810  1
  Pb  Pb48  1  0.49967538  0.50067613  0.83521521  1
  Pb  Pb49  1  0.16422119  0.16371447  0.16886317  1
  Pb  Pb50  1  0.83346109  0.83552398  0.50020218  1
  Pb  Pb51  1  0.83111982  0.16921697  0.83314731  1
  Pb  Pb52  1  0.83329362  0.49726802  0.49956486  1
  Pb  Pb53  1  0.49975683  0.50344399  0.49617168  1
  I  I54  1  0.17266081  -0.00445948  0.16152765  1
  I  I55  1  0.16611842  -0.00159687  0.50195466  1
  I  I56  1  0.16949803  -0.00332248  0.83481461  1
  I  I57  1  0.16953646  0.33325361  0.16651582  1
  I  I58  1  0.16128473  0.33047066  0.50172882  1
  I  I59  1  0.16450116  0.33574473  0.83238330  1
  I  I60  1  0.16611186  0.67034360  0.17133263  1
  I  I61  1  0.17123439  0.67050073  0.49843392  1
  I  I62  1  0.16908143  0.66838896  0.83151823  1
  I  I63  1  0.49745853  -0.00352889  0.16805495  1
  I  I64  1  0.49853863  -0.00373350  0.49501175  1
  I  I65  1  0.49521617  -0.00234061  0.83543346  1
  I  I66  1  0.50337344  0.33561187  0.16256674  1
  I  I67  1  0.50014185  0.33317289  0.50224253  1
  I  I68  1  0.50075884  0.33185739  0.83411538  1
  I  I69  1  0.50285944  0.66799447  0.16408032  1
  I  I70  1  0.49328806  0.67162482  0.50736974  1
  I  I71  1  0.49851464  0.66990360  0.83200088  1
  I  I72  1  0.83297640  0.00245391  0.17144446  1
  I  I73  1  0.83429162  0.00339568  0.49376081  1
  I  I74  1  0.83484387  0.00025782  0.83423365  1
  I  I75  1  0.82712977  0.33423872  0.16654318  1
  I  I76  1  0.83943373  0.32936913  0.49898137  1
  I  I77  1  0.83775214  0.33691065  0.83542067  1
  I  I78  1  0.83130524  0.66391200  0.16176999  1
  I  I79  1  0.83354660  0.66653746  0.49939652  1
  I  I80  1  0.83214211  0.66291439  0.84068782  1
  I  I81  1  0.16581997  0.16567004  -0.00013114  1
  I  I82  1  0.16672809  0.16144442  0.33683461  1
  I  I83  1  0.15968726  0.16005613  0.66352312  1
  I  I84  1  0.16599991  0.50576984  -0.00320283  1
  I  I85  1  0.16587640  0.50154193  0.33315413  1
  I  I86  1  0.16143655  0.50578357  0.67069738  1
  I  I87  1  0.17292630  0.82787164  -0.00054591  1
  I  I88  1  0.17293893  0.83774945  0.33356155  1
  I  I89  1  0.17275972  0.83300970  0.66687925  1
  I  I90  1  0.50125998  0.16069914  -0.00285148  1
  I  I91  1  0.49974400  0.16629871  0.33332243  1
  I  I92  1  0.50187132  0.16230306  0.66967377  1
  I  I93  1  0.50226963  0.50617710  0.00279772  1
  I  I94  1  0.50697056  0.50369206  0.32826987  1
  I  I95  1  0.50127144  0.49968296  0.66682390  1
  I  I96  1  0.49430258  0.83298968  -0.00001269  1
  I  I97  1  0.49392709  0.82899115  0.33283833  1
  I  I98  1  0.49380634  0.83885768  0.66724883  1
  I  I99  1  0.83081102  0.16847173  0.00226600  1
  I  I100  1  0.83559746  0.17173672  0.33302388  1
  I  I101  1  0.83655159  0.16604015  0.66431240  1
  I  I102  1  0.83284759  0.49462583  0.00091203  1
  I  I103  1  0.82878800  0.49913977  0.32995233  1
  I  I104  1  0.83688214  0.50036853  0.66938866  1
  I  I105  1  0.83391680  0.83858077  0.00001073  1
  I  I106  1  0.83363010  0.82934017  0.33322518  1
  I  I107  1  0.83233432  0.83329006  0.66676268  1
  I  I108  1  -0.00367941  0.17190764  0.16660122  1
  I  I109  1  0.00030105  0.16003867  0.49767208  1
  I  I110  1  0.00003596  0.16459800  0.83428530  1
  I  I111  1  -0.00276768  0.49769673  0.16415027  1
  I  I112  1  0.00005089  0.50534535  0.49617309  1
  I  I113  1  0.00013154  0.50507873  0.83901449  1
  I  I114  1  0.00305399  0.83348446  0.16701483  1
  I  I115  1  0.00354026  0.83490530  0.49980042  1
  I  I116  1  0.00346633  0.83140143  0.83356968  1
  I  I117  1  0.33327082  0.17016554  0.16739725  1
  I  I118  1  0.33080665  0.16345887  0.50250948  1
  I  I119  1  0.33640153  0.16673585  0.83240292  1
  I  I120  1  0.33574158  0.50360365  0.16446332  1
  I  I121  1  0.33336154  0.49290689  0.50104346  1
  I  I122  1  0.33108320  0.50227273  0.83372705  1
  I  I123  1  0.33419136  0.82756002  0.16656743  1
  I  I124  1  0.33258482  0.83932921  0.49983188  1
  I  I125  1  0.33317876  0.83089101  0.83309579  1
  I  I126  1  0.66968545  0.16610474  0.17256563  1
  I  I127  1  0.66895826  0.16584758  0.49718383  1
  I  I128  1  0.66353916  0.16038121  0.83174624  1
  I  I129  1  0.66717202  0.50293606  0.16009952  1
  I  I130  1  0.66655260  0.50017141  0.50653505  1
  I  I131  1  0.66856490  0.49910939  0.83610009  1
  I  I132  1  0.66349263  0.83217441  0.16637727  1
  I  I133  1  0.66344479  0.83420969  0.49994087  1
  I  I134  1  0.66319766  0.83638328  0.83396662  1
