# generated using pymatgen
data_Cs27Sn13Pb14I81
_symmetry_space_group_name_H-M   'P 1'
_cell_length_a   18.97460865
_cell_length_b   18.97854409
_cell_length_c   18.97717015
_cell_angle_alpha   90.00020676
_cell_angle_beta   90.00149344
_cell_angle_gamma   90.00248360
_symmetry_Int_Tables_number   1
_chemical_formula_structural   Cs27Sn13Pb14I81
_chemical_formula_sum   'Cs27 Sn13 Pb14 I81'
_cell_volume   6833.87721219
_cell_formula_units_Z   1
loop_
 _symmetry_equiv_pos_site_id
 _symmetry_equiv_pos_as_xyz
  1  'x, y, z'
loop_
 _atom_site_type_symbol
 _atom_site_label
 _atom_site_symmetry_multiplicity
 _atom_site_fract_x
 _atom_site_fract_y
 _atom_site_fract_z
 _atom_site_occupancy
  Cs  Cs0  1  0.00008432  0.00029436  -0.00090251  1
  Cs  Cs1  1  -0.00215314  0.00361394  0.33146002  1
  Cs  Cs2  1  0.00013293  -0.00061812  0.66897910  1
  Cs  Cs3  1  0.00261080  0.33052387  -0.00018826  1
  Cs  Cs4  1  -0.00052173  0.33342096  0.34040319  1
  Cs  Cs5  1  -0.00185191  0.33326479  0.65938792  1
  Cs  Cs6  1  -0.00025714  0.66707587  0.00205936  1
  Cs  Cs7  1  -0.00342734  0.66209574  0.33007167  1
  Cs  Cs8  1  0.00225694  0.66693962  0.66495180  1
  Cs  Cs9  1  0.33142628  0.00102785  0.00066611  1
  Cs  Cs10  1  0.33734651  -0.00023300  0.33718426  1
  Cs  Cs11  1  0.33441770  -0.00527405  0.65801652  1
  Cs  Cs12  1  0.33335798  0.33340127  0.00098390  1
  Cs  Cs13  1  0.33218900  0.33544464  0.33135137  1
  Cs  Cs14  1  0.33437474  0.33296567  0.66825191  1
  Cs  Cs15  1  0.33212384  0.66664401  0.00089109  1
  Cs  Cs16  1  0.33516513  0.66537834  0.33367668  1
  Cs  Cs17  1  0.33157872  0.67102106  0.66312782  1
  Cs  Cs18  1  0.66787698  0.00032855  -0.00007767  1
  Cs  Cs19  1  0.66469848  0.00018396  0.33664994  1
  Cs  Cs20  1  0.66686553  -0.00048866  0.66456659  1
  Cs  Cs21  1  0.66427508  0.33345290  -0.00538732  1
  Cs  Cs22  1  0.66699830  0.33189732  0.33670361  1
  Cs  Cs23  1  0.66783173  0.33497346  0.67117733  1
  Cs  Cs24  1  0.66815625  0.66654534  -0.00011372  1
  Cs  Cs25  1  0.66582045  0.66777703  0.33076430  1
  Cs  Cs26  1  0.66630569  0.66667572  0.66969865  1
  Sn  Sn27  1  0.16590070  0.16672548  0.16612160  1
  Sn  Sn28  1  0.49922560  0.83280186  0.16550887  1
  Sn  Sn29  1  0.83274882  0.83384693  0.83272215  1
  Sn  Sn30  1  0.16608537  0.16734128  0.83376575  1
  Sn  Sn31  1  0.16718119  0.49987931  0.16574065  1
  Sn  Sn32  1  0.16642930  0.49918562  0.83398301  1
  Sn  Sn33  1  0.83424340  0.16589178  0.83445476  1
  Sn  Sn34  1  0.50008741  0.49990404  0.49942156  1
  Sn  Sn35  1  0.50039344  0.83363003  0.83439450  1
  Sn  Sn36  1  0.83375416  0.16698505  0.16570500  1
  Sn  Sn37  1  0.83369640  0.83306504  0.50079651  1
  Sn  Sn38  1  0.16735352  0.83349815  0.16658731  1
  Sn  Sn39  1  0.49966278  0.50065229  0.16713291  1
  Pb  Pb40  1  0.83059074  0.50265066  0.50004346  1
  Pb  Pb41  1  0.49971860  0.16684820  0.16659072  1
  Pb  Pb42  1  0.16382171  0.83320094  0.49604582  1
  Pb  Pb43  1  0.83298604  0.83507099  0.16603908  1
  Pb  Pb44  1  0.83313003  0.49667284  0.16634041  1
  Pb  Pb45  1  0.50007782  0.16993670  0.50021016  1
  Pb  Pb46  1  0.16646160  0.83371014  0.83492173  1
  Pb  Pb47  1  0.49930612  0.16380681  0.83331042  1
  Pb  Pb48  1  0.16853358  0.50003108  0.49979564  1
  Pb  Pb49  1  0.49743850  0.50240006  0.83402544  1
  Pb  Pb50  1  0.16679644  0.16655495  0.50023547  1
  Pb  Pb51  1  0.83627481  0.49987107  0.83359162  1
  Pb  Pb52  1  0.50182521  0.83165757  0.49952461  1
  Pb  Pb53  1  0.83338178  0.16481277  0.50072572  1
  I  I54  1  0.16604496  0.00037504  0.16204310  1
  I  I55  1  0.16823201  -0.00028660  0.50052366  1
  I  I56  1  0.16469510  0.00263884  0.83927912  1
  I  I57  1  0.16785418  0.33354015  0.16217435  1
  I  I58  1  0.16712887  0.33339452  0.49627398  1
  I  I59  1  0.16263952  0.33265094  0.84205475  1
  I  I60  1  0.17123406  0.66629661  0.16265660  1
  I  I61  1  0.16585441  0.66672603  0.50247105  1
  I  I62  1  0.16751487  0.66479270  0.83797087  1
  I  I63  1  0.49719337  -0.00308326  0.16260098  1
  I  I64  1  0.50084776  -0.00055274  0.49954363  1
  I  I65  1  0.49995640  -0.00423354  0.83996583  1
  I  I66  1  0.49663730  0.33643147  0.17105929  1
  I  I67  1  0.49907069  0.33792726  0.49225781  1
  I  I68  1  0.50278172  0.33351889  0.83282028  1
  I  I69  1  0.49276669  0.66703736  0.16701769  1
  I  I70  1  0.50048739  0.66407771  0.49733297  1
  I  I71  1  0.50481808  0.67022353  0.83520872  1
  I  I72  1  0.83794811  0.00282151  0.16520745  1
  I  I73  1  0.83101901  -0.00300997  0.50061920  1
  I  I74  1  0.83561827  -0.00000525  0.83387957  1
  I  I75  1  0.83682771  0.32873945  0.16064283  1
  I  I76  1  0.83219317  0.33331939  0.49989540  1
  I  I77  1  0.83441349  0.32994644  0.83813214  1
  I  I78  1  0.83613461  0.66676190  0.16724549  1
  I  I79  1  0.83398480  0.67052130  0.50526679  1
  I  I80  1  0.83044349  0.66983766  0.82963685  1
  I  I81  1  0.16225547  0.16735674  0.00083191  1
  I  I82  1  0.16220214  0.16767583  0.32928559  1
  I  I83  1  0.16176209  0.17185042  0.67065036  1
  I  I84  1  0.17233029  0.49917403  0.00154189  1
  I  I85  1  0.16859321  0.49977516  0.32952502  1
  I  I86  1  0.16741983  0.49528876  0.66972512  1
  I  I87  1  0.16615606  0.83296583  0.00319193  1
  I  I88  1  0.17213090  0.83315848  0.32778502  1
  I  I89  1  0.16967964  0.83332880  0.66680959  1
  I  I90  1  0.50133512  0.17050440  0.00003821  1
  I  I91  1  0.50092542  0.16099209  0.33285528  1
  I  I92  1  0.49991105  0.16650127  0.66707793  1
  I  I93  1  0.49718491  0.50230899  0.00311923  1
  I  I94  1  0.49429403  0.50610485  0.33109734  1
  I  I95  1  0.49911523  0.50169323  0.66500959  1
  I  I96  1  0.50237356  0.82784971  0.00100049  1
  I  I97  1  0.49766665  0.83170856  0.33008242  1
  I  I98  1  0.50192861  0.83233561  0.66909891  1
  I  I99  1  0.83770895  0.16000777  -0.00077993  1
  I  I100  1  0.83768894  0.16549056  0.33047506  1
  I  I101  1  0.83795566  0.16427873  0.67047722  1
  I  I102  1  0.82821238  0.50572962  0.00004186  1
  I  I103  1  0.83766912  0.50044201  0.33299770  1
  I  I104  1  0.83286096  0.49614315  0.66692235  1
  I  I105  1  0.83205371  0.83610936  -0.00267863  1
  I  I106  1  0.83350942  0.83482075  0.33460813  1
  I  I107  1  0.82746896  0.83871510  0.66869088  1
  I  I108  1  0.00120036  0.16471090  0.16242461  1
  I  I109  1  -0.00002613  0.16718597  0.49817847  1
  I  I110  1  -0.00010069  0.16373162  0.83877337  1
  I  I111  1  0.00350082  0.50442214  0.16237181  1
  I  I112  1  -0.00000981  0.50026208  0.49920843  1
  I  I113  1  0.00420279  0.50186590  0.84086346  1
  I  I114  1  0.00261383  0.83084292  0.16653242  1
  I  I115  1  -0.00371101  0.83417025  0.50714183  1
  I  I116  1  -0.00256405  0.83474168  0.83134821  1
  I  I117  1  0.32983184  0.16692833  0.16159461  1
  I  I118  1  0.33328815  0.16387535  0.50009637  1
  I  I119  1  0.32962601  0.17050766  0.83974129  1
  I  I120  1  0.33261563  0.49915455  0.16683891  1
  I  I121  1  0.33626845  0.50302599  0.49744873  1
  I  I122  1  0.32968979  0.49488566  0.83593221  1
  I  I123  1  0.33361064  0.83405266  0.16080192  1
  I  I124  1  0.33354946  0.83263773  0.50307389  1
  I  I125  1  0.33540654  0.83226834  0.83644944  1
  I  I126  1  0.66944845  0.16519556  0.16283581  1
  I  I127  1  0.66701330  0.16608800  0.49799641  1
  I  I128  1  0.66980183  0.16425929  0.83763738  1
  I  I129  1  0.66339865  0.50493470  0.17089413  1
  I  I130  1  0.66278692  0.50044610  0.49256163  1
  I  I131  1  0.66641475  0.49792016  0.83304243  1
  I  I132  1  0.66397249  0.82984687  0.16600457  1
  I  I133  1  0.66948091  0.83283526  0.49944484  1
  I  I134  1  0.66717051  0.83752311  0.83541344  1
