# generated using pymatgen
data_Cs27Sn14Pb13I81
_symmetry_space_group_name_H-M   'P 1'
_cell_length_a   18.97337899
_cell_length_b   18.97530686
_cell_length_c   18.98018239
_cell_angle_alpha   89.99980350
_cell_angle_beta   89.99905438
_cell_angle_gamma   89.99863228
_symmetry_Int_Tables_number   1
_chemical_formula_structural   Cs27Sn14Pb13I81
_chemical_formula_sum   'Cs27 Sn14 Pb13 I81'
_cell_volume   6833.35322582
_cell_formula_units_Z   1
loop_
 _symmetry_equiv_pos_site_id
 _symmetry_equiv_pos_as_xyz
  1  'x, y, z'
loop_
 _atom_site_type_symbol
 _atom_site_label
 _atom_site_symmetry_multiplicity
 _atom_site_fract_x
 _atom_site_fract_y
 _atom_site_fract_z
 _atom_site_occupancy
  Cs  Cs0  1  -0.00039304  0.00057014  -0.00273757  1
  Cs  Cs1  1  0.00166052  0.00201105  0.33371296  1
  Cs  Cs2  1  -0.00134068  0.00202641  0.66932651  1
  Cs  Cs3  1  -0.00005962  0.33200745  0.00132825  1
  Cs  Cs4  1  -0.00204765  0.33309628  0.33459470  1
  Cs  Cs5  1  0.00145221  0.33136673  0.66352153  1
  Cs  Cs6  1  -0.00258766  0.66699285  -0.00052657  1
  Cs  Cs7  1  0.00147161  0.66533396  0.33652897  1
  Cs  Cs8  1  0.00342013  0.66567682  0.66378708  1
  Cs  Cs9  1  0.33214356  0.00005984  0.00666113  1
  Cs  Cs10  1  0.33871009  -0.00870376  0.32867199  1
  Cs  Cs11  1  0.33433976  -0.00051131  0.66411347  1
  Cs  Cs12  1  0.33574450  0.33432305  -0.00221615  1
  Cs  Cs13  1  0.33758724  0.33080829  0.32867100  1
  Cs  Cs14  1  0.33430854  0.33408885  0.67233504  1
  Cs  Cs15  1  0.33372084  0.66429584  -0.00228749  1
  Cs  Cs16  1  0.33381022  0.67468576  0.33535703  1
  Cs  Cs17  1  0.32878976  0.66566327  0.66730631  1
  Cs  Cs18  1  0.66851469  -0.00182880  -0.00171914  1
  Cs  Cs19  1  0.66255004  -0.00101250  0.33586177  1
  Cs  Cs20  1  0.66623384  0.00038886  0.66609738  1
  Cs  Cs21  1  0.66625580  0.33445714  0.00005699  1
  Cs  Cs22  1  0.66845519  0.33634017  0.33402102  1
  Cs  Cs23  1  0.66442661  0.33243920  0.66595331  1
  Cs  Cs24  1  0.66887227  0.66685742  0.00000432  1
  Cs  Cs25  1  0.66637639  0.66331098  0.33267069  1
  Cs  Cs26  1  0.66840920  0.66833667  0.66759376  1
  Sn  Sn27  1  0.16648041  0.50006254  0.16686069  1
  Sn  Sn28  1  0.83361768  0.83416901  0.49893923  1
  Sn  Sn29  1  0.83335095  0.16637131  0.16674048  1
  Sn  Sn30  1  0.16600190  0.16583044  0.83263906  1
  Sn  Sn31  1  0.83369608  0.50005089  0.16594782  1
  Sn  Sn32  1  0.83381533  0.16567847  0.49998427  1
  Sn  Sn33  1  0.49962632  0.49986233  0.49964949  1
  Sn  Sn34  1  0.83390359  0.16800036  0.83321403  1
  Sn  Sn35  1  0.83361007  0.83336359  0.16819325  1
  Sn  Sn36  1  0.16781698  0.83428662  0.83351009  1
  Sn  Sn37  1  0.49991750  0.50021099  0.16756915  1
  Sn  Sn38  1  0.83364581  0.49880234  0.83351557  1
  Sn  Sn39  1  0.16677169  0.16663186  0.50001208  1
  Sn  Sn40  1  0.49853663  0.83360801  0.83340432  1
  Pb  Pb41  1  0.16439556  0.83587612  0.50197287  1
  Pb  Pb42  1  0.16497622  0.16818022  0.16667129  1
  Pb  Pb43  1  0.83246711  0.49958862  0.50002292  1
  Pb  Pb44  1  0.16960385  0.49710484  0.49733720  1
  Pb  Pb45  1  0.49973749  0.16428684  0.83337898  1
  Pb  Pb46  1  0.50225770  0.83112396  0.50201699  1
  Pb  Pb47  1  0.50244131  0.50172745  0.83349329  1
  Pb  Pb48  1  0.16418389  0.49929978  0.83492326  1
  Pb  Pb49  1  0.49959166  0.16841788  0.49999272  1
  Pb  Pb50  1  0.50247355  0.83093465  0.16466900  1
  Pb  Pb51  1  0.83397719  0.83358058  0.83310720  1
  Pb  Pb52  1  0.16412502  0.83119517  0.16453355  1
  Pb  Pb53  1  0.50290758  0.16873689  0.16657224  1
  I  I54  1  0.16434103  0.00000550  0.16728677  1
  I  I55  1  0.16333166  0.00386513  0.50136502  1
  I  I56  1  0.16216026  0.00107419  0.83033666  1
  I  I57  1  0.16343457  0.33626820  0.16435059  1
  I  I58  1  0.15648368  0.32971664  0.50789753  1
  I  I59  1  0.16291708  0.33028649  0.83074248  1
  I  I60  1  0.16315638  0.66314302  0.16425014  1
  I  I61  1  0.16527809  0.66664313  0.50145233  1
  I  I62  1  0.16775393  0.66862312  0.83616942  1
  I  I63  1  0.50131710  -0.00045049  0.16563166  1
  I  I64  1  0.50016586  -0.00019425  0.50196090  1
  I  I65  1  0.50406182  -0.00337989  0.83224513  1
  I  I66  1  0.50282506  0.33729588  0.16865510  1
  I  I67  1  0.50461902  0.33627216  0.49618249  1
  I  I68  1  0.49877494  0.33351963  0.83374430  1
  I  I69  1  0.50422089  0.66287152  0.16956917  1
  I  I70  1  0.50364012  0.66347123  0.49508807  1
  I  I71  1  0.49759871  0.66937893  0.83380756  1
  I  I72  1  0.83436547  0.00050912  0.16501504  1
  I  I73  1  0.83603271  0.00108782  0.49830159  1
  I  I74  1  0.83407858  0.00274906  0.83597235  1
  I  I75  1  0.83305726  0.33383514  0.16562189  1
  I  I76  1  0.83542054  0.33035175  0.49839677  1
  I  I77  1  0.83745182  0.33234378  0.83678209  1
  I  I78  1  0.83241641  0.66553011  0.16453769  1
  I  I79  1  0.83003062  0.66857584  0.49838736  1
  I  I80  1  0.83218755  0.66486456  0.83740329  1
  I  I81  1  0.16120406  0.16419667  -0.00293709  1
  I  I82  1  0.15980432  0.17155991  0.33577019  1
  I  I83  1  0.15670257  0.16376690  0.66755219  1
  I  I84  1  0.16960740  0.49810686  0.00285278  1
  I  I85  1  0.15810983  0.49797752  0.32966774  1
  I  I86  1  0.16655594  0.50222934  0.66669140  1
  I  I87  1  0.16689436  0.84008532  -0.00340492  1
  I  I88  1  0.16705036  0.83356066  0.33328520  1
  I  I89  1  0.16661602  0.83254929  0.67009091  1
  I  I90  1  0.50051251  0.16961253  -0.00010879  1
  I  I91  1  0.49976108  0.16569784  0.33327483  1
  I  I92  1  0.50626915  0.17050320  0.66676753  1
  I  I93  1  0.50062018  0.50144936  0.00282868  1
  I  I94  1  0.50525002  0.49885642  0.33195926  1
  I  I95  1  0.50413618  0.50096857  0.66478587  1
  I  I96  1  0.50022655  0.83092460  -0.00297052  1
  I  I97  1  0.49991365  0.83382878  0.33320759  1
  I  I98  1  0.50066104  0.83017129  0.66969116  1
  I  I99  1  0.83677966  0.16773947  -0.00027589  1
  I  I100  1  0.83723041  0.16780262  0.33341371  1
  I  I101  1  0.83694990  0.16623782  0.66694297  1
  I  I102  1  0.83087813  0.49817038  0.00140710  1
  I  I103  1  0.83376250  0.49795536  0.33022605  1
  I  I104  1  0.83045997  0.49856242  0.66900619  1
  I  I105  1  0.83288728  0.83381162  0.00207328  1
  I  I106  1  0.83269548  0.83484261  0.33273369  1
  I  I107  1  0.83250516  0.83571769  0.66474927  1
  I  I108  1  -0.00393403  0.17005981  0.16599834  1
  I  I109  1  -0.00194424  0.16415062  0.50139893  1
  I  I110  1  -0.00137880  0.16417561  0.83323961  1
  I  I111  1  -0.00197502  0.49958658  0.16071911  1
  I  I112  1  0.00012204  0.50223018  0.49976377  1
  I  I113  1  -0.00386022  0.50169405  0.83932440  1
  I  I114  1  -0.00432109  0.83050532  0.16666688  1
  I  I115  1  -0.00382609  0.83219869  0.49872120  1
  I  I116  1  0.00191910  0.83466980  0.83413639  1
  I  I117  1  0.33316200  0.17021442  0.16582917  1
  I  I118  1  0.33007377  0.17140654  0.50774811  1
  I  I119  1  0.32980429  0.16583778  0.82752342  1
  I  I120  1  0.33367634  0.49870091  0.17046550  1
  I  I121  1  0.33701292  0.49882873  0.49587945  1
  I  I122  1  0.33323690  0.49833075  0.83515272  1
  I  I123  1  0.33327798  0.83151934  0.16673717  1
  I  I124  1  0.33321284  0.83388513  0.49992096  1
  I  I125  1  0.33245747  0.83679694  0.83301181  1
  I  I126  1  0.67200527  0.16892283  0.16604915  1
  I  I127  1  0.67032951  0.16444630  0.50056335  1
  I  I128  1  0.67035117  0.16900117  0.83327666  1
  I  I129  1  0.66826131  0.49976316  0.16656858  1
  I  I130  1  0.66491468  0.49870850  0.49479890  1
  I  I131  1  0.67047763  0.49697734  0.83879634  1
  I  I132  1  0.67090059  0.83144531  0.16626707  1
  I  I133  1  0.67040162  0.83948915  0.49962924  1
  I  I134  1  0.66572377  0.83125025  0.83382067  1
