# generated using pymatgen
data_Cs27Sn14Pb13I81
_symmetry_space_group_name_H-M   'P 1'
_cell_length_a   18.97274353
_cell_length_b   18.97352632
_cell_length_c   18.97958617
_cell_angle_alpha   90.00106267
_cell_angle_beta   90.00025866
_cell_angle_gamma   89.99780843
_symmetry_Int_Tables_number   1
_chemical_formula_structural   Cs27Sn14Pb13I81
_chemical_formula_sum   'Cs27 Sn14 Pb13 I81'
_cell_volume   6832.26855086
_cell_formula_units_Z   1
loop_
 _symmetry_equiv_pos_site_id
 _symmetry_equiv_pos_as_xyz
  1  'x, y, z'
loop_
 _atom_site_type_symbol
 _atom_site_label
 _atom_site_symmetry_multiplicity
 _atom_site_fract_x
 _atom_site_fract_y
 _atom_site_fract_z
 _atom_site_occupancy
  Cs  Cs0  1  0.00092670  0.00152954  0.00023061  1
  Cs  Cs1  1  -0.00331028  0.00161449  0.33477019  1
  Cs  Cs2  1  -0.00022780  -0.00171555  0.66533991  1
  Cs  Cs3  1  -0.00272336  0.33213789  -0.00040022  1
  Cs  Cs4  1  -0.00016292  0.33123256  0.33333847  1
  Cs  Cs5  1  0.00115079  0.33625091  0.66756374  1
  Cs  Cs6  1  0.00708365  0.66463241  -0.00443885  1
  Cs  Cs7  1  -0.00173941  0.66685653  0.33442341  1
  Cs  Cs8  1  0.00195727  0.66645950  0.67099286  1
  Cs  Cs9  1  0.33159660  -0.00163938  -0.00010249  1
  Cs  Cs10  1  0.33172894  -0.00108375  0.33390027  1
  Cs  Cs11  1  0.33533243  0.00073087  0.66591167  1
  Cs  Cs12  1  0.33396259  0.33068256  0.00169590  1
  Cs  Cs13  1  0.33308314  0.34139035  0.34275103  1
  Cs  Cs14  1  0.33741650  0.33202965  0.65458687  1
  Cs  Cs15  1  0.32708693  0.66728288  0.00611294  1
  Cs  Cs16  1  0.33485865  0.65973824  0.32609906  1
  Cs  Cs17  1  0.33190926  0.66747687  0.66747006  1
  Cs  Cs18  1  0.66613881  0.00126744  -0.00038570  1
  Cs  Cs19  1  0.67091306  -0.00202607  0.33093813  1
  Cs  Cs20  1  0.66477279  -0.00283841  0.66774535  1
  Cs  Cs21  1  0.66902462  0.33094113  -0.00155986  1
  Cs  Cs22  1  0.66761373  0.33527760  0.33244021  1
  Cs  Cs23  1  0.66351628  0.33427835  0.66932797  1
  Cs  Cs24  1  0.66545951  0.66602721  -0.00199523  1
  Cs  Cs25  1  0.66566095  0.66708860  0.33374805  1
  Cs  Cs26  1  0.66736335  0.66991122  0.66824485  1
  Sn  Sn27  1  0.49958580  0.50099418  0.83373265  1
  Sn  Sn28  1  0.16812851  0.83323021  0.49970042  1
  Sn  Sn29  1  0.83326224  0.50028509  0.16702675  1
  Sn  Sn30  1  0.83314540  0.49912465  0.49977100  1
  Sn  Sn31  1  0.83405612  0.16571707  0.83282875  1
  Sn  Sn32  1  0.83284226  0.83415240  0.83459420  1
  Sn  Sn33  1  0.49959127  0.16678382  0.16733781  1
  Sn  Sn34  1  0.50029131  0.83218390  0.83321875  1
  Sn  Sn35  1  0.16616458  0.16685464  0.83339537  1
  Sn  Sn36  1  0.83340022  0.83281089  0.16495387  1
  Sn  Sn37  1  0.83292934  0.16769214  0.50065447  1
  Sn  Sn38  1  0.83333141  0.16658708  0.16654377  1
  Sn  Sn39  1  0.49855932  0.83332077  0.50000251  1
  Sn  Sn40  1  0.16693172  0.16675767  0.16641561  1
  Pb  Pb41  1  0.49977428  0.16610621  0.83469533  1
  Pb  Pb42  1  0.83304821  0.83317519  0.50045925  1
  Pb  Pb43  1  0.50221111  0.49752008  0.16451641  1
  Pb  Pb44  1  0.50283314  0.16442261  0.49718729  1
  Pb  Pb45  1  0.16688058  0.83535864  0.83201712  1
  Pb  Pb46  1  0.16390475  0.50302809  0.50003396  1
  Pb  Pb47  1  0.83238996  0.50000538  0.83352705  1
  Pb  Pb48  1  0.50170084  0.83487291  0.16612096  1
  Pb  Pb49  1  0.16378830  0.83544162  0.16886052  1
  Pb  Pb50  1  0.50255256  0.50281365  0.50184306  1
  Pb  Pb51  1  0.16388750  0.49685883  0.16653539  1
  Pb  Pb52  1  0.17037361  0.49633503  0.83320154  1
  Pb  Pb53  1  0.16452294  0.16531448  0.50002175  1
  I  I54  1  0.16283985  0.00360921  0.16307002  1
  I  I55  1  0.16631157  -0.00242497  0.50018800  1
  I  I56  1  0.16550612  0.00326947  0.83724167  1
  I  I57  1  0.16321719  0.32855725  0.16286545  1
  I  I58  1  0.16719848  0.33324189  0.49993872  1
  I  I59  1  0.15838683  0.32846658  0.83790938  1
  I  I60  1  0.16500769  0.66672364  0.16791186  1
  I  I61  1  0.16675251  0.67083946  0.50180707  1
  I  I62  1  0.16286494  0.66676466  0.83082561  1
  I  I63  1  0.50517445  0.00299926  0.16418883  1
  I  I64  1  0.50010794  -0.00317373  0.50792338  1
  I  I65  1  0.50277055  -0.00266893  0.83053899  1
  I  I66  1  0.50416852  0.32946467  0.16305030  1
  I  I67  1  0.49935286  0.33333498  0.50147015  1
  I  I68  1  0.50242619  0.33467752  0.83696841  1
  I  I69  1  0.50335035  0.66665783  0.16867067  1
  I  I70  1  0.50059668  0.67066847  0.50098712  1
  I  I71  1  0.50934981  0.66840131  0.82885770  1
  I  I72  1  0.83294562  0.00137444  0.16734131  1
  I  I73  1  0.83366074  0.00220632  0.49696699  1
  I  I74  1  0.83083751  0.00047088  0.83573154  1
  I  I75  1  0.83334627  0.33159512  0.16703451  1
  I  I76  1  0.83393548  0.33217350  0.49620227  1
  I  I77  1  0.83446038  0.33029101  0.83589749  1
  I  I78  1  0.83115720  0.66708411  0.16912417  1
  I  I79  1  0.83284261  0.66477242  0.49590451  1
  I  I80  1  0.83017372  0.66952633  0.83478284  1
  I  I81  1  0.16057635  0.16543244  0.00037944  1
  I  I82  1  0.16306827  0.16364308  0.33067076  1
  I  I83  1  0.16094434  0.16441768  0.66918671  1
  I  I84  1  0.16387300  0.50348067  -0.00014767  1
  I  I85  1  0.16881186  0.49795172  0.33329217  1
  I  I86  1  0.16229721  0.49738321  0.66668124  1
  I  I87  1  0.16840030  0.83319032  0.00014230  1
  I  I88  1  0.16947473  0.83700735  0.33648102  1
  I  I89  1  0.16344348  0.83711424  0.66429690  1
  I  I90  1  0.50617269  0.16515997  0.00252347  1
  I  I91  1  0.50179568  0.16436068  0.32934145  1
  I  I92  1  0.50045064  0.16840046  0.66649843  1
  I  I93  1  0.50419304  0.50622905  -0.00305864  1
  I  I94  1  0.49991852  0.50021373  0.33331056  1
  I  I95  1  0.50420356  0.49877204  0.66961850  1
  I  I96  1  0.50464015  0.83220594  -0.00301140  1
  I  I97  1  0.50012425  0.83744491  0.33546397  1
  I  I98  1  0.50446347  0.83148985  0.66768005  1
  I  I99  1  0.83343496  0.16635529  0.00063317  1
  I  I100  1  0.83339596  0.16554064  0.33195548  1
  I  I101  1  0.83804054  0.16519874  0.66762059  1
  I  I102  1  0.83078771  0.49622190  0.00251638  1
  I  I103  1  0.83283035  0.49664646  0.33268808  1
  I  I104  1  0.83140398  0.49710900  0.66459026  1
  I  I105  1  0.82728464  0.83793222  -0.00065853  1
  I  I106  1  0.83367451  0.83697504  0.33130360  1
  I  I107  1  0.83224591  0.83700016  0.66925318  1
  I  I108  1  -0.00198889  0.16638490  0.16599923  1
  I  I109  1  -0.00390213  0.16583142  0.49536913  1
  I  I110  1  -0.00229590  0.16139043  0.83810905  1
  I  I111  1  -0.00472741  0.49824105  0.16922470  1
  I  I112  1  -0.00428797  0.49784603  0.49684243  1
  I  I113  1  -0.00002072  0.50243425  0.83303517  1
  I  I114  1  -0.00473252  0.83634955  0.16346090  1
  I  I115  1  0.00107766  0.83472321  0.49916810  1
  I  I116  1  -0.00306942  0.83598312  0.83474044  1
  I  I117  1  0.33291553  0.16359015  0.15831057  1
  I  I118  1  0.33353133  0.16643866  0.50017667  1
  I  I119  1  0.33099973  0.16602313  0.84002531  1
  I  I120  1  0.33345969  0.49846587  0.16555635  1
  I  I121  1  0.33364708  0.49809886  0.50166553  1
  I  I122  1  0.33790650  0.50676944  0.83391058  1
  I  I123  1  0.33319749  0.83696050  0.16515861  1
  I  I124  1  0.33423503  0.83674874  0.50753189  1
  I  I125  1  0.33622278  0.83232873  0.82964369  1
  I  I126  1  0.66900968  0.16624041  0.16594621  1
  I  I127  1  0.67116650  0.16700292  0.50079082  1
  I  I128  1  0.66972922  0.16566545  0.83492315  1
  I  I129  1  0.67062331  0.49672442  0.17013315  1
  I  I130  1  0.67037537  0.49759105  0.49560985  1
  I  I131  1  0.66476783  0.49917428  0.83331519  1
  I  I132  1  0.67034098  0.83774457  0.16850851  1
  I  I133  1  0.66502820  0.83394288  0.50178467  1
  I  I134  1  0.66761890  0.83624560  0.83046497  1
