# generated using pymatgen
data_Cs27Sn14Pb13I81
_symmetry_space_group_name_H-M   'P 1'
_cell_length_a   18.97194541
_cell_length_b   18.97102740
_cell_length_c   18.98116500
_cell_angle_alpha   90.00069430
_cell_angle_beta   90.00013660
_cell_angle_gamma   89.99999493
_symmetry_Int_Tables_number   1
_chemical_formula_structural   Cs27Sn14Pb13I81
_chemical_formula_sum   'Cs27 Sn14 Pb13 I81'
_cell_volume   6831.64958542
_cell_formula_units_Z   1
loop_
 _symmetry_equiv_pos_site_id
 _symmetry_equiv_pos_as_xyz
  1  'x, y, z'
loop_
 _atom_site_type_symbol
 _atom_site_label
 _atom_site_symmetry_multiplicity
 _atom_site_fract_x
 _atom_site_fract_y
 _atom_site_fract_z
 _atom_site_occupancy
  Cs  Cs0  1  0.00074289  -0.00017260  0.00100393  1
  Cs  Cs1  1  0.01131387  -0.00582211  0.33405314  1
  Cs  Cs2  1  0.00112888  -0.00235695  0.66494150  1
  Cs  Cs3  1  0.00238769  0.33462396  -0.00214804  1
  Cs  Cs4  1  0.00315868  0.33268035  0.33344714  1
  Cs  Cs5  1  0.00088868  0.33601129  0.66806958  1
  Cs  Cs6  1  -0.00922960  0.66415147  -0.00338719  1
  Cs  Cs7  1  -0.00562492  0.67342306  0.33512605  1
  Cs  Cs8  1  -0.00954081  0.66546823  0.66705730  1
  Cs  Cs9  1  0.33300971  -0.00114417  -0.00146590  1
  Cs  Cs10  1  0.32540584  -0.00267802  0.33297816  1
  Cs  Cs11  1  0.33488197  -0.00046538  0.66740233  1
  Cs  Cs12  1  0.33246113  0.33465500  -0.00137636  1
  Cs  Cs13  1  0.33156236  0.33466618  0.33435511  1
  Cs  Cs14  1  0.33436537  0.33492942  0.66622852  1
  Cs  Cs15  1  0.33422181  0.66627110  0.00092912  1
  Cs  Cs16  1  0.33369316  0.66563334  0.33079231  1
  Cs  Cs17  1  0.33440303  0.66501821  0.66764457  1
  Cs  Cs18  1  0.66680628  0.00275969  -0.00138372  1
  Cs  Cs19  1  0.66567836  0.00308279  0.33289631  1
  Cs  Cs20  1  0.66419812  0.00204987  0.66796110  1
  Cs  Cs21  1  0.66592125  0.32960500  0.00329720  1
  Cs  Cs22  1  0.66660824  0.33330597  0.33354390  1
  Cs  Cs23  1  0.66357711  0.33055415  0.66448172  1
  Cs  Cs24  1  0.67248971  0.66805224  0.00987351  1
  Cs  Cs25  1  0.67253048  0.66548350  0.32546756  1
  Cs  Cs26  1  0.66889897  0.66868881  0.66547613  1
  Sn  Sn27  1  0.16736744  0.83341307  0.83306415  1
  Sn  Sn28  1  0.83346880  0.16676668  0.83299713  1
  Sn  Sn29  1  0.49994435  0.83307376  0.50031492  1
  Sn  Sn30  1  0.16700963  0.16590050  0.83297867  1
  Sn  Sn31  1  0.49982730  0.16679473  0.83342552  1
  Sn  Sn32  1  0.16667876  0.50032508  0.16761505  1
  Sn  Sn33  1  0.50012254  0.16638226  0.49950894  1
  Sn  Sn34  1  0.16715254  0.50040188  0.49923506  1
  Sn  Sn35  1  0.50016533  0.50053695  0.83311366  1
  Sn  Sn36  1  0.83331205  0.16667709  0.16730110  1
  Sn  Sn37  1  0.83325165  0.16668139  0.49966394  1
  Sn  Sn38  1  0.49949688  0.83283749  0.83276630  1
  Sn  Sn39  1  0.49956448  0.50062764  0.50053023  1
  Sn  Sn40  1  0.49974282  0.16656450  0.16701405  1
  Pb  Pb41  1  0.16711634  0.16809610  0.50250138  1
  Pb  Pb42  1  0.16681692  0.16786802  0.16425313  1
  Pb  Pb43  1  0.16681227  0.82991931  0.16338820  1
  Pb  Pb44  1  0.83240650  0.83585592  0.83325264  1
  Pb  Pb45  1  0.83246128  0.49771476  0.50001221  1
  Pb  Pb46  1  0.83338945  0.83703008  0.16680980  1
  Pb  Pb47  1  0.83009242  0.83670389  0.50007282  1
  Pb  Pb48  1  0.49887243  0.49778812  0.16702361  1
  Pb  Pb49  1  0.82908729  0.49725836  0.83321116  1
  Pb  Pb50  1  0.83635708  0.49708984  0.16688739  1
  Pb  Pb51  1  0.16904314  0.83000802  0.50272823  1
  Pb  Pb52  1  0.16825672  0.50076349  0.83279392  1
  Pb  Pb53  1  0.49983272  0.83620778  0.16658446  1
  I  I54  1  0.16591052  -0.00001908  0.16726078  1
  I  I55  1  0.16637775  -0.00020221  0.49907688  1
  I  I56  1  0.17188594  0.00131242  0.83369411  1
  I  I57  1  0.16752685  0.33552985  0.16742035  1
  I  I58  1  0.17285211  0.33584268  0.49986251  1
  I  I59  1  0.16757908  0.33091470  0.83380019  1
  I  I60  1  0.17123315  0.66238993  0.16949030  1
  I  I61  1  0.17390730  0.66232857  0.49809573  1
  I  I62  1  0.17453402  0.66920106  0.83391732  1
  I  I63  1  0.50390492  0.00471879  0.16512456  1
  I  I64  1  0.50563510  0.00118197  0.50397914  1
  I  I65  1  0.49984551  0.00155728  0.83106462  1
  I  I66  1  0.50315898  0.32943171  0.16497534  1
  I  I67  1  0.50013870  0.33246561  0.50332959  1
  I  I68  1  0.49954815  0.33181186  0.83086924  1
  I  I69  1  0.49800923  0.66654734  0.16544403  1
  I  I70  1  0.49285425  0.66612210  0.50980186  1
  I  I71  1  0.49145705  0.66693291  0.82479220  1
  I  I72  1  0.82807492  0.00538858  0.16424780  1
  I  I73  1  0.82772805  0.00506940  0.50185978  1
  I  I74  1  0.82809167  0.00458307  0.83353240  1
  I  I75  1  0.82765578  0.32891168  0.16548414  1
  I  I76  1  0.82646860  0.32923473  0.50130072  1
  I  I77  1  0.83516539  0.32853337  0.83331250  1
  I  I78  1  0.83385745  0.66653421  0.16595818  1
  I  I79  1  0.83343547  0.66681534  0.50005732  1
  I  I80  1  0.83532359  0.66665722  0.83385128  1
  I  I81  1  0.16815660  0.16690252  -0.00381292  1
  I  I82  1  0.16655080  0.16726912  0.33352469  1
  I  I83  1  0.16792897  0.16641269  0.67054530  1
  I  I84  1  0.16904052  0.49747648  0.00121968  1
  I  I85  1  0.17432154  0.49592564  0.33441462  1
  I  I86  1  0.17068847  0.49766111  0.66435520  1
  I  I87  1  0.17498316  0.83777888  -0.00440904  1
  I  I88  1  0.16770066  0.83501804  0.33359873  1
  I  I89  1  0.17001065  0.83798854  0.67039824  1
  I  I90  1  0.50243093  0.16731945  -0.00160150  1
  I  I91  1  0.50773957  0.16813535  0.33432029  1
  I  I92  1  0.50211033  0.16707919  0.66713692  1
  I  I93  1  0.49701233  0.49775637  -0.00269908  1
  I  I94  1  0.49748732  0.49829301  0.33658323  1
  I  I95  1  0.49346117  0.49384376  0.66630853  1
  I  I96  1  0.49611785  0.83423237  -0.00360694  1
  I  I97  1  0.50090995  0.83383439  0.33659993  1
  I  I98  1  0.49643083  0.83834205  0.66752231  1
  I  I99  1  0.82891920  0.16694497  -0.00061963  1
  I  I100  1  0.82293754  0.16845659  0.33364976  1
  I  I101  1  0.82863147  0.16704029  0.66697244  1
  I  I102  1  0.83465123  0.49723943  -0.00011166  1
  I  I103  1  0.82860883  0.49591889  0.33346486  1
  I  I104  1  0.83988638  0.49707891  0.66672283  1
  I  I105  1  0.83151274  0.83508142  -0.00029688  1
  I  I106  1  0.83164170  0.83510561  0.33362458  1
  I  I107  1  0.83618667  0.83517961  0.66673475  1
  I  I108  1  -0.00262639  0.16951708  0.16515759  1
  I  I109  1  -0.00230805  0.17032162  0.50098154  1
  I  I110  1  0.00006363  0.16287258  0.83408685  1
  I  I111  1  0.00409963  0.49644133  0.17056929  1
  I  I112  1  0.00261130  0.49613651  0.49694222  1
  I  I113  1  -0.00011888  0.49910524  0.83365156  1
  I  I114  1  0.00031354  0.83596228  0.16536890  1
  I  I115  1  0.00015144  0.83337035  0.50092579  1
  I  I116  1  0.00258674  0.83820546  0.83487590  1
  I  I117  1  0.33612062  0.16847332  0.16611223  1
  I  I118  1  0.33702684  0.16583742  0.50050214  1
  I  I119  1  0.33501612  0.16665712  0.83356499  1
  I  I120  1  0.33123093  0.49508570  0.16713774  1
  I  I121  1  0.33520286  0.49572804  0.50059656  1
  I  I122  1  0.33645924  0.49354007  0.83208923  1
  I  I123  1  0.33337107  0.83767460  0.16770657  1
  I  I124  1  0.33724997  0.84076205  0.50247252  1
  I  I125  1  0.33501361  0.83989701  0.83018874  1
  I  I126  1  0.66577996  0.16747559  0.16198211  1
  I  I127  1  0.66470933  0.16832710  0.50405251  1
  I  I128  1  0.66510162  0.16721294  0.83347834  1
  I  I129  1  0.66676984  0.50070221  0.16595012  1
  I  I130  1  0.66258128  0.49990437  0.50575046  1
  I  I131  1  0.66100156  0.49969835  0.82613472  1
  I  I132  1  0.66630893  0.82954389  0.16423824  1
  I  I133  1  0.66176138  0.82955228  0.50834479  1
  I  I134  1  0.66271753  0.83512465  0.82868363  1
