# generated using pymatgen
data_Cs27Sn13Pb14I81
_symmetry_space_group_name_H-M   'P 1'
_cell_length_a   18.97787246
_cell_length_b   18.98250825
_cell_length_c   18.97170468
_cell_angle_alpha   90.00234255
_cell_angle_beta   90.00078140
_cell_angle_gamma   90.00180299
_symmetry_Int_Tables_number   1
_chemical_formula_structural   Cs27Sn13Pb14I81
_chemical_formula_sum   'Cs27 Sn13 Pb14 I81'
_cell_volume   6834.51145940
_cell_formula_units_Z   1
loop_
 _symmetry_equiv_pos_site_id
 _symmetry_equiv_pos_as_xyz
  1  'x, y, z'
loop_
 _atom_site_type_symbol
 _atom_site_label
 _atom_site_symmetry_multiplicity
 _atom_site_fract_x
 _atom_site_fract_y
 _atom_site_fract_z
 _atom_site_occupancy
  Cs  Cs0  1  0.00073998  0.00267297  0.00177239  1
  Cs  Cs1  1  -0.00371096  -0.00413630  0.33450740  1
  Cs  Cs2  1  0.00116864  -0.00115049  0.66598351  1
  Cs  Cs3  1  -0.00059363  0.32921914  0.00155370  1
  Cs  Cs4  1  -0.00210699  0.33592455  0.33349975  1
  Cs  Cs5  1  0.00271918  0.33413265  0.66627513  1
  Cs  Cs6  1  -0.00243570  0.66938214  0.00022103  1
  Cs  Cs7  1  0.00103891  0.66559434  0.33290149  1
  Cs  Cs8  1  0.00169681  0.66677805  0.66650126  1
  Cs  Cs9  1  0.33167306  0.00186169  0.00131786  1
  Cs  Cs10  1  0.33729362  0.00025163  0.32850442  1
  Cs  Cs11  1  0.33304117  -0.00270907  0.66821246  1
  Cs  Cs12  1  0.33337453  0.33240841  0.00713104  1
  Cs  Cs13  1  0.33575997  0.33283723  0.32948490  1
  Cs  Cs14  1  0.33091728  0.33390909  0.66623845  1
  Cs  Cs15  1  0.33617454  0.66553962  0.00557959  1
  Cs  Cs16  1  0.33153750  0.66668167  0.33326016  1
  Cs  Cs17  1  0.33281255  0.66850043  0.66552270  1
  Cs  Cs18  1  0.66706849  -0.00199205  -0.00015538  1
  Cs  Cs19  1  0.66728151  0.00297336  0.33325354  1
  Cs  Cs20  1  0.66590371  0.00077851  0.66521236  1
  Cs  Cs21  1  0.66800920  0.33623984  -0.00172872  1
  Cs  Cs22  1  0.66893283  0.32917429  0.33391873  1
  Cs  Cs23  1  0.66566267  0.33303761  0.66764560  1
  Cs  Cs24  1  0.66619082  0.66578947  -0.00327671  1
  Cs  Cs25  1  0.66678931  0.66890401  0.33242782  1
  Cs  Cs26  1  0.66506864  0.66636623  0.67066499  1
  Sn  Sn27  1  0.16766941  0.83348977  0.50067923  1
  Sn  Sn28  1  0.83333809  0.49964310  0.16716588  1
  Sn  Sn29  1  0.16691994  0.50076886  0.83317409  1
  Sn  Sn30  1  0.49885963  0.83412234  0.83248199  1
  Sn  Sn31  1  0.49986496  0.50048903  0.50032183  1
  Sn  Sn32  1  0.16767470  0.83217067  0.83286104  1
  Sn  Sn33  1  0.50035354  0.16633482  0.83289975  1
  Sn  Sn34  1  0.49926136  0.83262200  0.50081414  1
  Sn  Sn35  1  0.16690076  0.16644995  0.49973442  1
  Sn  Sn36  1  0.83265187  0.16662166  0.83347564  1
  Sn  Sn37  1  0.83333825  0.16727290  0.16593386  1
  Sn  Sn38  1  0.83302319  0.50013359  0.49974194  1
  Sn  Sn39  1  0.16707172  0.49985845  0.50063884  1
  Pb  Pb40  1  0.49995149  0.83328207  0.16660615  1
  Pb  Pb41  1  0.83519568  0.16868405  0.50038926  1
  Pb  Pb42  1  0.83300112  0.83050998  0.50026372  1
  Pb  Pb43  1  0.16676169  0.83326228  0.16657712  1
  Pb  Pb44  1  0.16461159  0.50006820  0.16671173  1
  Pb  Pb45  1  0.16417205  0.16662979  0.17018518  1
  Pb  Pb46  1  0.49784050  0.16641770  0.50183141  1
  Pb  Pb47  1  0.83324634  0.83316440  0.16663274  1
  Pb  Pb48  1  0.83574065  0.49812321  0.83307168  1
  Pb  Pb49  1  0.49738320  0.50010094  0.83158468  1
  Pb  Pb50  1  0.16699400  0.16649772  0.83205709  1
  Pb  Pb51  1  0.83353113  0.83586110  0.83310874  1
  Pb  Pb52  1  0.50294695  0.50005630  0.16994015  1
  Pb  Pb53  1  0.50257607  0.16669009  0.16349323  1
  I  I54  1  0.16274144  0.00005414  0.16631464  1
  I  I55  1  0.16964275  -0.00129607  0.50507066  1
  I  I56  1  0.16693480  -0.00271335  0.82791665  1
  I  I57  1  0.16745876  0.33336415  0.16561688  1
  I  I58  1  0.16542083  0.33492861  0.50492335  1
  I  I59  1  0.16519607  0.33544378  0.82698465  1
  I  I60  1  0.16266110  0.66655678  0.17004177  1
  I  I61  1  0.16648718  0.66632254  0.50393178  1
  I  I62  1  0.16991004  0.66719435  0.82449473  1
  I  I63  1  0.50368859  0.00009913  0.17234374  1
  I  I64  1  0.49520116  -0.00300747  0.50241288  1
  I  I65  1  0.49889548  -0.00097817  0.82718810  1
  I  I66  1  0.49794531  0.33338460  0.16669104  1
  I  I67  1  0.49902397  0.33597232  0.50158801  1
  I  I68  1  0.50319792  0.33118025  0.83109846  1
  I  I69  1  0.50372961  0.66652193  0.16200988  1
  I  I70  1  0.49649596  0.66682852  0.50522394  1
  I  I71  1  0.49828412  0.66951233  0.83054675  1
  I  I72  1  0.83409875  0.00337248  0.16225861  1
  I  I73  1  0.83457819  0.00010851  0.49853547  1
  I  I74  1  0.83472438  0.00390393  0.83905719  1
  I  I75  1  0.83418092  0.33350074  0.16753259  1
  I  I76  1  0.83396370  0.33686235  0.49912067  1
  I  I77  1  0.82951272  0.33025080  0.83372185  1
  I  I78  1  0.83463430  0.66322536  0.17248075  1
  I  I79  1  0.83813228  0.66230107  0.49441426  1
  I  I80  1  0.83144263  0.66644191  0.83427949  1
  I  I81  1  0.16759135  0.16687584  -0.00010876  1
  I  I82  1  0.16588352  0.16806861  0.33833230  1
  I  I83  1  0.16348242  0.16814095  0.66407266  1
  I  I84  1  0.16492431  0.50427730  -0.00313284  1
  I  I85  1  0.16757923  0.50096018  0.33726760  1
  I  I86  1  0.16357256  0.50036852  0.66485836  1
  I  I87  1  0.17033072  0.82890895  -0.00398116  1
  I  I88  1  0.16986050  0.83184127  0.33748571  1
  I  I89  1  0.17007266  0.83224583  0.66585894  1
  I  I90  1  0.49905317  0.16084077  -0.00473377  1
  I  I91  1  0.50038652  0.16615544  0.33359882  1
  I  I92  1  0.50704958  0.16536443  0.66963811  1
  I  I93  1  0.49991740  0.50051094  -0.00021707  1
  I  I94  1  0.49354995  0.50536355  0.33852662  1
  I  I95  1  0.50486487  0.50070398  0.66316466  1
  I  I96  1  0.49589151  0.83786451  -0.00393770  1
  I  I97  1  0.49532252  0.82863232  0.33723968  1
  I  I98  1  0.49568283  0.83333944  0.66641642  1
  I  I99  1  0.83041771  0.17309792  -0.00028219  1
  I  I100  1  0.83660535  0.16973046  0.33131198  1
  I  I101  1  0.83116007  0.16764161  0.66920770  1
  I  I102  1  0.83597443  0.49700451  0.00216001  1
  I  I103  1  0.83530844  0.49410860  0.33448397  1
  I  I104  1  0.83334269  0.49854350  0.66373573  1
  I  I105  1  0.83339743  0.82869503  -0.00032725  1
  I  I106  1  0.83358312  0.83780839  0.33372096  1
  I  I107  1  0.83392603  0.83423411  0.66662786  1
  I  I108  1  -0.00367790  0.17138134  0.15857985  1
  I  I109  1  0.00319381  0.16645874  0.50250460  1
  I  I110  1  -0.00200099  0.16780622  0.83595199  1
  I  I111  1  -0.00326612  0.49545098  0.17321818  1
  I  I112  1  0.00096719  0.49931889  0.49953392  1
  I  I113  1  0.00352831  0.50389882  0.82671258  1
  I  I114  1  0.00002316  0.83369603  0.16710998  1
  I  I115  1  0.00345543  0.83326267  0.50399712  1
  I  I116  1  0.00350482  0.83051681  0.82825862  1
  I  I117  1  0.33338620  0.16631017  0.16580571  1
  I  I118  1  0.32998027  0.17158057  0.50392222  1
  I  I119  1  0.33557552  0.16510203  0.82876790  1
  I  I120  1  0.33340417  0.50015066  0.16693024  1
  I  I121  1  0.33242142  0.50085975  0.50586625  1
  I  I122  1  0.32956635  0.49859500  0.82608355  1
  I  I123  1  0.33333603  0.83348180  0.16726873  1
  I  I124  1  0.33270583  0.82818330  0.50484223  1
  I  I125  1  0.33324509  0.83605168  0.82739791  1
  I  I126  1  0.67060442  0.17123589  0.16806677  1
  I  I127  1  0.66662351  0.16701653  0.49864744  1
  I  I128  1  0.66651932  0.16221871  0.83568521  1
  I  I129  1  0.67097898  0.49548779  0.17080156  1
  I  I130  1  0.66650108  0.50378548  0.49558576  1
  I  I131  1  0.66657427  0.50166627  0.83228197  1
  I  I132  1  0.66659636  0.83308743  0.16740493  1
  I  I133  1  0.66309158  0.82908687  0.50425618  1
  I  I134  1  0.66336050  0.83535312  0.82892742  1
