# generated using pymatgen
data_Cs27Sn13Pb14I81
_symmetry_space_group_name_H-M   'P 1'
_cell_length_a   18.98073244
_cell_length_b   18.97167220
_cell_length_c   18.97509203
_cell_angle_alpha   90.00005386
_cell_angle_beta   89.99988380
_cell_angle_gamma   89.99885299
_symmetry_Int_Tables_number   1
_chemical_formula_structural   Cs27Sn13Pb14I81
_chemical_formula_sum   'Cs27 Sn13 Pb14 I81'
_cell_volume   6832.85917898
_cell_formula_units_Z   1
loop_
 _symmetry_equiv_pos_site_id
 _symmetry_equiv_pos_as_xyz
  1  'x, y, z'
loop_
 _atom_site_type_symbol
 _atom_site_label
 _atom_site_symmetry_multiplicity
 _atom_site_fract_x
 _atom_site_fract_y
 _atom_site_fract_z
 _atom_site_occupancy
  Cs  Cs0  1  -0.00130896  0.00137908  -0.00297063  1
  Cs  Cs1  1  0.00131037  -0.00288600  0.33557012  1
  Cs  Cs2  1  -0.00197606  0.00135967  0.66701303  1
  Cs  Cs3  1  0.00200127  0.33282536  -0.00398354  1
  Cs  Cs4  1  -0.00370177  0.33498159  0.33430301  1
  Cs  Cs5  1  0.00075330  0.33248150  0.66868063  1
  Cs  Cs6  1  -0.00275382  0.66541214  0.00003089  1
  Cs  Cs7  1  -0.00089553  0.66777294  0.33031968  1
  Cs  Cs8  1  0.00409645  0.66570467  0.66701978  1
  Cs  Cs9  1  0.33472221  0.00248595  0.01094178  1
  Cs  Cs10  1  0.33348822  -0.00150125  0.33009652  1
  Cs  Cs11  1  0.33387890  0.00074881  0.66351314  1
  Cs  Cs12  1  0.33191546  0.33265471  0.00302177  1
  Cs  Cs13  1  0.33442397  0.33291646  0.33141052  1
  Cs  Cs14  1  0.33439154  0.33408627  0.66658426  1
  Cs  Cs15  1  0.33610625  0.66534982  -0.00344343  1
  Cs  Cs16  1  0.32959852  0.66795429  0.33342662  1
  Cs  Cs17  1  0.33279447  0.66567842  0.66853598  1
  Cs  Cs18  1  0.66637851  -0.00924547  -0.00053329  1
  Cs  Cs19  1  0.66521989  0.00306157  0.33482860  1
  Cs  Cs20  1  0.66739831  0.00081872  0.66655818  1
  Cs  Cs21  1  0.66630012  0.33317978  0.00145727  1
  Cs  Cs22  1  0.66947390  0.33381926  0.33474966  1
  Cs  Cs23  1  0.66321272  0.33370244  0.66449583  1
  Cs  Cs24  1  0.66710930  0.67564897  -0.00128014  1
  Cs  Cs25  1  0.67282857  0.66294775  0.33331071  1
  Cs  Cs26  1  0.66139891  0.66542796  0.66742488  1
  Sn  Sn27  1  0.16675797  0.16749509  0.50000973  1
  Sn  Sn28  1  0.83337490  0.16609920  0.49936846  1
  Sn  Sn29  1  0.83338046  0.16642761  0.16675176  1
  Sn  Sn30  1  0.83315506  0.49991383  0.83303222  1
  Sn  Sn31  1  0.83237936  0.83365488  0.50036643  1
  Sn  Sn32  1  0.16697303  0.83359996  0.83353425  1
  Sn  Sn33  1  0.16730925  0.49978752  0.16662511  1
  Sn  Sn34  1  0.50090532  0.83364371  0.49999595  1
  Sn  Sn35  1  0.16665727  0.49917820  0.49980090  1
  Sn  Sn36  1  0.16604841  0.50065231  0.83339912  1
  Sn  Sn37  1  0.49995821  0.50029058  0.16671642  1
  Sn  Sn38  1  0.49988194  0.16648855  0.83336895  1
  Sn  Sn39  1  0.49983142  0.16607484  0.50064978  1
  Pb  Pb40  1  0.16427036  0.16871382  0.16939880  1
  Pb  Pb41  1  0.50005394  0.83045411  0.16986897  1
  Pb  Pb42  1  0.16656775  0.83080838  0.16339128  1
  Pb  Pb43  1  0.83119409  0.16809113  0.83282007  1
  Pb  Pb44  1  0.16665379  0.83350827  0.50125257  1
  Pb  Pb45  1  0.49957679  0.49842190  0.83534223  1
  Pb  Pb46  1  0.83348030  0.83625307  0.16919463  1
  Pb  Pb47  1  0.16876439  0.16677641  0.83163712  1
  Pb  Pb48  1  0.83355128  0.49844841  0.16428384  1
  Pb  Pb49  1  0.49747542  0.83603280  0.83126561  1
  Pb  Pb50  1  0.83511440  0.83111601  0.83057780  1
  Pb  Pb51  1  0.49771730  0.49992644  0.49818511  1
  Pb  Pb52  1  0.83551016  0.49989430  0.50194893  1
  Pb  Pb53  1  0.50198942  0.16805644  0.16728356  1
  I  I54  1  0.16616329  0.00030403  0.16651219  1
  I  I55  1  0.16623219  0.00278299  0.50327527  1
  I  I56  1  0.16767389  -0.00196468  0.82783873  1
  I  I57  1  0.16989842  0.33698383  0.16191618  1
  I  I58  1  0.16657629  0.33326568  0.50227580  1
  I  I59  1  0.16412373  0.33642862  0.83401538  1
  I  I60  1  0.16872767  0.66206917  0.17369840  1
  I  I61  1  0.16679133  0.66396302  0.49929442  1
  I  I62  1  0.16371412  0.66451606  0.82994769  1
  I  I63  1  0.50125487  0.00007064  0.16450941  1
  I  I64  1  0.49860920  0.00155444  0.50391424  1
  I  I65  1  0.50008942  0.00377788  0.83070853  1
  I  I66  1  0.49578737  0.33585967  0.16842209  1
  I  I67  1  0.50209422  0.33032799  0.50215041  1
  I  I68  1  0.49882883  0.33068600  0.82560262  1
  I  I69  1  0.49548828  0.66259173  0.16626578  1
  I  I70  1  0.50311896  0.66904895  0.49825346  1
  I  I71  1  0.50125497  0.66675468  0.83256469  1
  I  I72  1  0.83194365  0.00427031  0.16762837  1
  I  I73  1  0.83525406  0.00148991  0.49686852  1
  I  I74  1  0.83493151  -0.00001936  0.83504800  1
  I  I75  1  0.83270787  0.33079801  0.17487814  1
  I  I76  1  0.83121145  0.33034362  0.49758367  1
  I  I77  1  0.84077147  0.33594869  0.83162661  1
  I  I78  1  0.83353505  0.66654209  0.16778423  1
  I  I79  1  0.83010629  0.66896941  0.50260610  1
  I  I80  1  0.83525184  0.66311948  0.83299789  1
  I  I81  1  0.16691089  0.16744653  0.00007766  1
  I  I82  1  0.17140134  0.17079398  0.33787125  1
  I  I83  1  0.16272238  0.17206010  0.66307668  1
  I  I84  1  0.16654019  0.50449101  -0.00054117  1
  I  I85  1  0.17134389  0.49460639  0.33381200  1
  I  I86  1  0.16215899  0.49986141  0.66676746  1
  I  I87  1  0.16654310  0.82854187  -0.00451639  1
  I  I88  1  0.16657684  0.83201739  0.33352679  1
  I  I89  1  0.16680451  0.82603359  0.66873873  1
  I  I90  1  0.50052966  0.17091460  -0.00192875  1
  I  I91  1  0.49844240  0.16446595  0.33693989  1
  I  I92  1  0.50175779  0.16550750  0.66446793  1
  I  I93  1  0.49425526  0.49537408  0.00283030  1
  I  I94  1  0.49477646  0.49786121  0.33061017  1
  I  I95  1  0.49901837  0.50056897  0.66644078  1
  I  I96  1  0.49879767  0.83473020  -0.00010531  1
  I  I97  1  0.50108182  0.84141398  0.33787386  1
  I  I98  1  0.50302410  0.83395466  0.66314189  1
  I  I99  1  0.83197524  0.17183205  0.00189786  1
  I  I100  1  0.83137990  0.16555938  0.33563693  1
  I  I101  1  0.83508970  0.16440917  0.66313605  1
  I  I102  1  0.83950707  0.49626771  -0.00320399  1
  I  I103  1  0.83470982  0.50121911  0.33356714  1
  I  I104  1  0.83953996  0.49769760  0.66949693  1
  I  I105  1  0.83452976  0.83406645  -0.00036376  1
  I  I106  1  0.83155482  0.83278745  0.33760237  1
  I  I107  1  0.83091468  0.84095505  0.66280046  1
  I  I108  1  -0.00334400  0.16969003  0.17174418  1
  I  I109  1  -0.00025391  0.16703436  0.49600264  1
  I  I110  1  0.00016432  0.16641226  0.83217416  1
  I  I111  1  0.00300460  0.49826792  0.16823485  1
  I  I112  1  0.00371720  0.49670556  0.49681515  1
  I  I113  1  0.00181914  0.50174583  0.83456974  1
  I  I114  1  0.00003060  0.83080196  0.17060344  1
  I  I115  1  -0.00212410  0.83694870  0.50178275  1
  I  I116  1  0.00298626  0.83149708  0.82967536  1
  I  I117  1  0.33322504  0.16714815  0.16716295  1
  I  I118  1  0.33362369  0.16732611  0.50554918  1
  I  I119  1  0.33636308  0.16932307  0.82653883  1
  I  I120  1  0.33195406  0.49793781  0.16536097  1
  I  I121  1  0.32957158  0.49678293  0.50467033  1
  I  I122  1  0.33007645  0.50234712  0.83124968  1
  I  I123  1  0.33329071  0.83643679  0.16999200  1
  I  I124  1  0.33547621  0.83639362  0.50189460  1
  I  I125  1  0.33010066  0.82426599  0.82873373  1
  I  I126  1  0.66942717  0.17178177  0.17321069  1
  I  I127  1  0.66664709  0.16238262  0.49999114  1
  I  I128  1  0.66367047  0.17049704  0.82689576  1
  I  I129  1  0.66468235  0.49679255  0.16657419  1
  I  I130  1  0.66666886  0.49811200  0.49989527  1
  I  I131  1  0.66861579  0.49628604  0.83391309  1
  I  I132  1  0.66672099  0.82930135  0.16338604  1
  I  I133  1  0.66668094  0.84162408  0.50054016  1
  I  I134  1  0.66648089  0.83166382  0.83384709  1
