# generated using pymatgen
data_Cs27Sn14Pb13I81
_symmetry_space_group_name_H-M   'P 1'
_cell_length_a   18.97630309
_cell_length_b   18.97331180
_cell_length_c   18.97709626
_cell_angle_alpha   90.00065867
_cell_angle_beta   90.00006648
_cell_angle_gamma   90.00192146
_symmetry_Int_Tables_number   1
_chemical_formula_structural   Cs27Sn14Pb13I81
_chemical_formula_sum   'Cs27 Sn14 Pb13 I81'
_cell_volume   6832.57665106
_cell_formula_units_Z   1
loop_
 _symmetry_equiv_pos_site_id
 _symmetry_equiv_pos_as_xyz
  1  'x, y, z'
loop_
 _atom_site_type_symbol
 _atom_site_label
 _atom_site_symmetry_multiplicity
 _atom_site_fract_x
 _atom_site_fract_y
 _atom_site_fract_z
 _atom_site_occupancy
  Cs  Cs0  1  0.00085688  -0.00135929  0.00079606  1
  Cs  Cs1  1  -0.00037710  0.00109299  0.33324507  1
  Cs  Cs2  1  0.00153867  -0.00064492  0.66469534  1
  Cs  Cs3  1  0.00282499  0.33453047  0.01169268  1
  Cs  Cs4  1  -0.00672229  0.33331930  0.32513859  1
  Cs  Cs5  1  0.00255933  0.33272681  0.66479307  1
  Cs  Cs6  1  0.00003770  0.66723934  -0.00170137  1
  Cs  Cs7  1  -0.00598420  0.66685652  0.33502286  1
  Cs  Cs8  1  -0.00062374  0.66829291  0.66842325  1
  Cs  Cs9  1  0.33278128  -0.00070748  -0.00004384  1
  Cs  Cs10  1  0.33411382  -0.00020783  0.33423191  1
  Cs  Cs11  1  0.33089563  0.00263391  0.66566361  1
  Cs  Cs12  1  0.33212187  0.33461774  0.00199513  1
  Cs  Cs13  1  0.33381126  0.33142514  0.33537303  1
  Cs  Cs14  1  0.33362416  0.33361831  0.66504747  1
  Cs  Cs15  1  0.33273615  0.66632354  -0.00111681  1
  Cs  Cs16  1  0.33802964  0.66925193  0.33707878  1
  Cs  Cs17  1  0.33240368  0.66434324  0.66662849  1
  Cs  Cs18  1  0.66758595  -0.00137485  -0.00378596  1
  Cs  Cs19  1  0.66419244  -0.00279899  0.33589170  1
  Cs  Cs20  1  0.67110013  0.00404489  0.67000549  1
  Cs  Cs21  1  0.66574521  0.33022056  -0.00123356  1
  Cs  Cs22  1  0.66887811  0.33576842  0.33389680  1
  Cs  Cs23  1  0.66560285  0.33083132  0.66663838  1
  Cs  Cs24  1  0.66665247  0.66901218  -0.00171298  1
  Cs  Cs25  1  0.66503265  0.66607296  0.33472097  1
  Cs  Cs26  1  0.66797184  0.66581174  0.66882739  1
  Sn  Sn27  1  0.83296612  0.49972232  0.83339683  1
  Sn  Sn28  1  0.16656200  0.16653934  0.83327553  1
  Sn  Sn29  1  0.16717861  0.16809064  0.50043379  1
  Sn  Sn30  1  0.49969568  0.49925981  0.16644998  1
  Sn  Sn31  1  0.83408366  0.83326318  0.16594917  1
  Sn  Sn32  1  0.83358090  0.83261290  0.83403892  1
  Sn  Sn33  1  0.49919794  0.49910863  0.50019072  1
  Sn  Sn34  1  0.16689368  0.49913855  0.49963962  1
  Sn  Sn35  1  0.16614767  0.83295470  0.16625651  1
  Sn  Sn36  1  0.50066526  0.50063071  0.83343311  1
  Sn  Sn37  1  0.16683592  0.83407923  0.83396262  1
  Sn  Sn38  1  0.49988980  0.16726867  0.16737070  1
  Sn  Sn39  1  0.49965078  0.83290816  0.83298171  1
  Sn  Sn40  1  0.49934187  0.16750637  0.49919339  1
  Pb  Pb41  1  0.16894796  0.50287720  0.16992933  1
  Pb  Pb42  1  0.50001507  0.83335741  0.16462882  1
  Pb  Pb43  1  0.83696876  0.16725495  0.83352805  1
  Pb  Pb44  1  0.83058266  0.50226352  0.16394635  1
  Pb  Pb45  1  0.83302612  0.49983138  0.50246447  1
  Pb  Pb46  1  0.16855998  0.16475291  0.16724135  1
  Pb  Pb47  1  0.49815062  0.16722859  0.83308292  1
  Pb  Pb48  1  0.16670964  0.83332944  0.49997745  1
  Pb  Pb49  1  0.83323349  0.83335151  0.50043512  1
  Pb  Pb50  1  0.82992498  0.16377588  0.16652624  1
  Pb  Pb51  1  0.50011770  0.83369184  0.50341174  1
  Pb  Pb52  1  0.83341760  0.16697185  0.49995870  1
  Pb  Pb53  1  0.16660790  0.49990377  0.83215950  1
  I  I54  1  0.16624001  -0.00323692  0.16604628  1
  I  I55  1  0.17194598  0.00293260  0.50181265  1
  I  I56  1  0.16783142  -0.00126361  0.83082095  1
  I  I57  1  0.16632281  0.33346100  0.16296148  1
  I  I58  1  0.17293536  0.33271098  0.50868832  1
  I  I59  1  0.16860564  0.33106029  0.82921907  1
  I  I60  1  0.16584868  0.67047714  0.15898348  1
  I  I61  1  0.17255722  0.66393082  0.50078966  1
  I  I62  1  0.16704290  0.66941092  0.83514946  1
  I  I63  1  0.49931442  0.00212430  0.17047815  1
  I  I64  1  0.49502620  0.00330887  0.49540710  1
  I  I65  1  0.50222714  -0.00238021  0.83447369  1
  I  I66  1  0.49868668  0.33402566  0.16432233  1
  I  I67  1  0.49537727  0.33406316  0.50202541  1
  I  I68  1  0.50326864  0.33642986  0.83312099  1
  I  I69  1  0.49978069  0.66415674  0.16917291  1
  I  I70  1  0.49571819  0.66334734  0.49726754  1
  I  I71  1  0.49861767  0.66614819  0.83386057  1
  I  I72  1  0.83540786  -0.00414605  0.15853719  1
  I  I73  1  0.83245058  0.00007865  0.50275914  1
  I  I74  1  0.82916804  -0.00335636  0.83674955  1
  I  I75  1  0.83493027  0.33359691  0.16536047  1
  I  I76  1  0.83364486  0.33359970  0.50319379  1
  I  I77  1  0.82630853  0.33639366  0.83022107  1
  I  I78  1  0.83546946  0.67015217  0.16401985  1
  I  I79  1  0.83358803  0.66645260  0.49840715  1
  I  I80  1  0.83371277  0.66782606  0.83634697  1
  I  I81  1  0.16853810  0.16317324  -0.00217413  1
  I  I82  1  0.17029573  0.16805949  0.33634422  1
  I  I83  1  0.17262549  0.16378529  0.66632444  1
  I  I84  1  0.16776046  0.49759716  0.00018461  1
  I  I85  1  0.17260668  0.49522395  0.33769038  1
  I  I86  1  0.17267810  0.50085833  0.66428303  1
  I  I87  1  0.16658953  0.83884523  -0.00183404  1
  I  I88  1  0.16247996  0.83306518  0.33058473  1
  I  I89  1  0.16631623  0.83427154  0.66989263  1
  I  I90  1  0.49842830  0.16896981  0.00176072  1
  I  I91  1  0.49409035  0.17290684  0.33420660  1
  I  I92  1  0.49719813  0.16909881  0.66417831  1
  I  I93  1  0.50444014  0.50068672  -0.00075316  1
  I  I94  1  0.49460771  0.49632874  0.33386576  1
  I  I95  1  0.49983038  0.50067505  0.66683239  1
  I  I96  1  0.49960455  0.82995774  -0.00343226  1
  I  I97  1  0.50019663  0.83120522  0.33329690  1
  I  I98  1  0.49923509  0.82917666  0.67159705  1
  I  I99  1  0.83204473  0.16873927  -0.00013777  1
  I  I100  1  0.83808471  0.16392610  0.33310096  1
  I  I101  1  0.82837416  0.16321669  0.66706168  1
  I  I102  1  0.82890231  0.50273802  -0.00399839  1
  I  I103  1  0.83288831  0.50230326  0.33302034  1
  I  I104  1  0.82744039  0.50861299  0.67040346  1
  I  I105  1  0.83380308  0.82940847  -0.00164998  1
  I  I106  1  0.83859435  0.83464040  0.33009536  1
  I  I107  1  0.83385752  0.82951803  0.67084583  1
  I  I108  1  0.00014012  0.16709251  0.16675488  1
  I  I109  1  0.00386892  0.16884744  0.50584135  1
  I  I110  1  0.00481807  0.16178118  0.82616056  1
  I  I111  1  -0.00000212  0.49908597  0.16675463  1
  I  I112  1  0.00294243  0.49718220  0.50337872  1
  I  I113  1  -0.00208927  0.50465803  0.82962900  1
  I  I114  1  0.00036055  0.83364122  0.15803469  1
  I  I115  1  0.00030263  0.83300314  0.50417986  1
  I  I116  1  0.00019726  0.83269684  0.83697345  1
  I  I117  1  0.33645836  0.16735941  0.16730610  1
  I  I118  1  0.33360992  0.17062619  0.50086193  1
  I  I119  1  0.33049040  0.16139684  0.83183785  1
  I  I120  1  0.33710670  0.49937556  0.15996563  1
  I  I121  1  0.33476970  0.49684150  0.50338712  1
  I  I122  1  0.33631018  0.50377736  0.83407121  1
  I  I123  1  0.33135854  0.83360966  0.16145786  1
  I  I124  1  0.33343536  0.83253317  0.49938891  1
  I  I125  1  0.33295057  0.83282880  0.83739478  1
  I  I126  1  0.66187590  0.16911927  0.17197675  1
  I  I127  1  0.66282499  0.17072719  0.49681257  1
  I  I128  1  0.66651211  0.16320781  0.83262899  1
  I  I129  1  0.66238749  0.49899866  0.17223696  1
  I  I130  1  0.66283100  0.49634242  0.49846581  1
  I  I131  1  0.66501011  0.50875141  0.83175796  1
  I  I132  1  0.66863847  0.83361478  0.16119588  1
  I  I133  1  0.66632872  0.83348500  0.49850277  1
  I  I134  1  0.66668275  0.82850944  0.83718476  1
