# generated using pymatgen
data_Cs27Sn14Pb13I81
_symmetry_space_group_name_H-M   'P 1'
_cell_length_a   18.97988378
_cell_length_b   18.97183748
_cell_length_c   18.97988376
_cell_angle_alpha   89.99919536
_cell_angle_beta   90.00010412
_cell_angle_gamma   89.99919525
_symmetry_Int_Tables_number   1
_chemical_formula_structural   Cs27Sn14Pb13I81
_chemical_formula_sum   'Cs27 Sn14 Pb13 I81'
_cell_volume   6834.33861740
_cell_formula_units_Z   1
loop_
 _symmetry_equiv_pos_site_id
 _symmetry_equiv_pos_as_xyz
  1  'x, y, z'
loop_
 _atom_site_type_symbol
 _atom_site_label
 _atom_site_symmetry_multiplicity
 _atom_site_fract_x
 _atom_site_fract_y
 _atom_site_fract_z
 _atom_site_occupancy
  Cs  Cs0  1  0.00185732  -0.00710113  0.00055643  1
  Cs  Cs1  1  -0.00250408  -0.00664128  0.33897449  1
  Cs  Cs2  1  -0.00992384  -0.00310989  0.65674283  1
  Cs  Cs3  1  0.00182750  0.33364007  -0.00076762  1
  Cs  Cs4  1  0.00152598  0.33366880  0.33457663  1
  Cs  Cs5  1  -0.00111924  0.33044889  0.66554735  1
  Cs  Cs6  1  -0.00025198  0.67234250  -0.00067686  1
  Cs  Cs7  1  0.00137995  0.67033999  0.33307318  1
  Cs  Cs8  1  0.00196998  0.67183737  0.66863684  1
  Cs  Cs9  1  0.33201167  0.00380387  -0.00132168  1
  Cs  Cs10  1  0.33346933  0.00137518  0.33351025  1
  Cs  Cs11  1  0.33388970  -0.00710108  0.66852414  1
  Cs  Cs12  1  0.33388066  0.33275115  0.00054731  1
  Cs  Cs13  1  0.33415530  0.33405263  0.33188437  1
  Cs  Cs14  1  0.33256582  0.33364010  0.66849407  1
  Cs  Cs15  1  0.33233326  0.66530693  -0.00100001  1
  Cs  Cs16  1  0.33244805  0.66458733  0.33498547  1
  Cs  Cs17  1  0.33265624  0.67234253  0.66641482  1
  Cs  Cs18  1  0.66684356  0.00137516  0.00013601  1
  Cs  Cs19  1  0.66720618  -0.00138919  0.33387290  1
  Cs  Cs20  1  0.67230809  -0.00664124  0.66416255  1
  Cs  Cs21  1  0.66521772  0.33405267  0.00082197  1
  Cs  Cs22  1  0.66467473  0.33490378  0.33134141  1
  Cs  Cs23  1  0.66791000  0.33366881  0.66819257  1
  Cs  Cs24  1  0.66831881  0.66458734  -0.00088523  1
  Cs  Cs25  1  0.66606315  0.66387053  0.33272998  1
  Cs  Cs26  1  0.66640657  0.67033995  0.66804663  1
  Sn  Sn27  1  0.83396152  0.16765349  0.16634029  1
  Sn  Sn28  1  0.49995446  0.16666696  0.16662114  1
  Sn  Sn29  1  0.49953601  0.16752969  0.83277134  1
  Sn  Sn30  1  0.49967362  0.16765347  0.50062818  1
  Sn  Sn31  1  0.50068468  0.49873986  0.50042610  1
  Sn  Sn32  1  0.16610467  0.16752971  0.16620273  1
  Sn  Sn33  1  0.49962186  0.83328152  0.16628858  1
  Sn  Sn34  1  0.83273841  0.49943682  0.49940509  1
  Sn  Sn35  1  0.16747371  0.49870551  0.83414033  1
  Sn  Sn36  1  0.83375942  0.49873986  0.16735135  1
  Sn  Sn37  1  0.16704964  0.16733992  0.83371626  1
  Sn  Sn38  1  0.49910127  0.49899046  0.83319998  1
  Sn  Sn39  1  0.16653332  0.49899046  0.16576793  1
  Sn  Sn40  1  0.49982627  0.50005377  0.16649294  1
  Pb  Pb41  1  0.50004428  0.83356963  0.83596719  1
  Pb  Pb42  1  0.83272257  0.82925062  0.49938923  1
  Pb  Pb43  1  0.16690000  0.49988718  0.50038495  1
  Pb  Pb44  1  0.16915317  0.16680658  0.50025836  1
  Pb  Pb45  1  0.83371829  0.49988719  0.83356663  1
  Pb  Pb46  1  0.83359160  0.16680657  0.83581979  1
  Pb  Pb47  1  0.16689106  0.83426488  0.83355770  1
  Pb  Pb48  1  0.83072786  0.83299051  0.16654790  1
  Pb  Pb49  1  0.83051784  0.16918226  0.49718447  1
  Pb  Pb50  1  0.16708912  0.83354426  0.49979732  1
  Pb  Pb51  1  0.83313060  0.83354420  0.83375581  1
  Pb  Pb52  1  0.49988123  0.83299055  0.49739455  1
  Pb  Pb53  1  0.16930054  0.83356967  0.16671094  1
  I  I54  1  0.16788338  0.00386661  0.16199073  1
  I  I55  1  0.16939385  0.00068764  0.49875279  1
  I  I56  1  0.17429280  0.00423577  0.84095962  1
  I  I57  1  0.17118418  0.33383241  0.16337149  1
  I  I58  1  0.16428312  0.33349887  0.49916444  1
  I  I59  1  0.17234558  0.33374309  0.83901240  1
  I  I60  1  0.16660315  0.66290593  0.16343189  1
  I  I61  1  0.16883160  0.66588600  0.49922328  1
  I  I62  1  0.17084101  0.66311940  0.83750729  1
  I  I63  1  0.50021287  0.00215399  0.16687945  1
  I  I64  1  0.49785588  0.00331525  0.49877723  1
  I  I65  1  0.49532373  0.00386658  0.83455013  1
  I  I66  1  0.50026004  0.33348411  0.16692676  1
  I  I67  1  0.50320367  0.33426536  0.49469344  1
  I  I68  1  0.49670501  0.33383239  0.83785072  1
  I  I69  1  0.50045674  0.66432189  0.16712358  1
  I  I70  1  0.50345982  0.66273229  0.49950909  1
  I  I71  1  0.49676533  0.66290595  0.83326989  1
  I  I72  1  0.83211064  0.00331526  0.16452258  1
  I  I73  1  0.83283864  0.00016972  0.49950558  1
  I  I74  1  0.83208690  0.00068769  0.83606016  1
  I  I75  1  0.82802664  0.33426535  0.16987012  1
  I  I76  1  0.83093042  0.33695877  0.49759751  1
  I  I77  1  0.83249757  0.33349892  0.83094982  1
  I  I78  1  0.83284276  0.66273225  0.17012657  1
  I  I79  1  0.82550288  0.66144441  0.49216892  1
  I  I80  1  0.83255603  0.66588602  0.83549862  1
  I  I81  1  0.17285389  0.17123809  0.00124145  1
  I  I82  1  0.16886958  0.17180519  0.32970289  1
  I  I83  1  0.17283725  0.17311281  0.67040918  1
  I  I84  1  0.17084302  0.49650052  0.00113318  1
  I  I85  1  0.16983645  0.49610284  0.32989869  1
  I  I86  1  0.17019933  0.49583477  0.67020144  1
  I  I87  1  0.16675324  0.83208457  0.00024157  1
  I  I88  1  0.16785547  0.83234430  0.33262960  1
  I  I89  1  0.16803319  0.83096454  0.66706435  1
  I  I90  1  0.49982447  0.16876834  0.00122226  1
  I  I91  1  0.50019027  0.16909885  0.33164029  1
  I  I92  1  0.49438082  0.17579846  0.66741017  1
  I  I93  1  0.50024450  0.49838330  0.00106975  1
  I  I94  1  0.50050552  0.49825779  0.33187700  1
  I  I95  1  0.50054035  0.49269178  0.66697943  1
  I  I96  1  0.50023383  0.83263286  0.00384644  1
  I  I97  1  0.50012026  0.83330390  0.32945547  1
  I  I98  1  0.50018252  0.83312598  0.66672453  1
  I  I99  1  0.82664066  0.17432692  0.00423902  1
  I  I100  1  0.83333733  0.16874558  0.32895660  1
  I  I101  1  0.83376691  0.16690479  0.66635367  1
  I  I102  1  0.82917656  0.49657596  0.00357310  1
  I  I103  1  0.82852540  0.49623387  0.33159509  1
  I  I104  1  0.82843455  0.50104521  0.66401995  1
  I  I105  1  0.83270070  0.83012607  0.00081906  1
  I  I106  1  0.83273968  0.83614793  0.33290340  1
  I  I107  1  0.83290143  0.83276013  0.66616351  1
  I  I108  1  0.00074348  0.17579854  0.16104802  1
  I  I109  1  -0.00031297  0.16690478  0.50043345  1
  I  I110  1  0.00374248  0.17311316  0.83950358  1
  I  I111  1  0.00031275  0.49269167  0.16720724  1
  I  I112  1  -0.00264675  0.50104469  0.49510129  1
  I  I113  1  0.00353479  0.49583496  0.83686549  1
  I  I114  1  0.00005787  0.83312616  0.16684922  1
  I  I115  1  -0.00050317  0.83276073  0.49956800  1
  I  I116  1  0.00039769  0.83096380  0.83469996  1
  I  I117  1  0.33455564  0.16876823  0.16649112  1
  I  I118  1  0.33757235  0.17432711  0.49330686  1
  I  I119  1  0.33457473  0.17123820  0.83952086  1
  I  I120  1  0.33440307  0.49838334  0.16691116  1
  I  I121  1  0.33690645  0.49657594  0.49584295  1
  I  I122  1  0.33446653  0.49650037  0.83750997  1
  I  I123  1  0.33717976  0.83263292  0.16690038  1
  I  I124  1  0.33415241  0.83012581  0.49936747  1
  I  I125  1  0.33357495  0.83208468  0.83341997  1
  I  I126  1  0.66497364  0.16909882  0.16685640  1
  I  I127  1  0.66228992  0.16874542  0.50000469  1
  I  I128  1  0.66303627  0.17180480  0.83553622  1
  I  I129  1  0.66521036  0.49825795  0.16717191  1
  I  I130  1  0.66492840  0.49623424  0.49519221  1
  I  I131  1  0.66323202  0.49610276  0.83650312  1
  I  I132  1  0.66278881  0.83330364  0.16678692  1
  I  I133  1  0.66623669  0.83614755  0.49940641  1
  I  I134  1  0.66596293  0.83234506  0.83452205  1
