# generated using pymatgen
data_Cs27Sn13Pb14I81
_symmetry_space_group_name_H-M   'P 1'
_cell_length_a   18.98090709
_cell_length_b   18.98014318
_cell_length_c   18.97154047
_cell_angle_alpha   90.00020384
_cell_angle_beta   90.00055077
_cell_angle_gamma   90.00041522
_symmetry_Int_Tables_number   1
_chemical_formula_structural   Cs27Sn13Pb14I81
_chemical_formula_sum   'Cs27 Sn13 Pb14 I81'
_cell_volume   6834.69351255
_cell_formula_units_Z   1
loop_
 _symmetry_equiv_pos_site_id
 _symmetry_equiv_pos_as_xyz
  1  'x, y, z'
loop_
 _atom_site_type_symbol
 _atom_site_label
 _atom_site_symmetry_multiplicity
 _atom_site_fract_x
 _atom_site_fract_y
 _atom_site_fract_z
 _atom_site_occupancy
  Cs  Cs0  1  0.00031604  0.00349234  0.00119325  1
  Cs  Cs1  1  0.00012012  0.00027105  0.33317869  1
  Cs  Cs2  1  -0.00113585  -0.00794444  0.67104670  1
  Cs  Cs3  1  -0.00166255  0.33334878  -0.00367367  1
  Cs  Cs4  1  0.00041976  0.33165443  0.33260548  1
  Cs  Cs5  1  0.00090736  0.33270242  0.66964568  1
  Cs  Cs6  1  -0.00216387  0.66291879  -0.00115276  1
  Cs  Cs7  1  0.00023685  0.66889541  0.33302530  1
  Cs  Cs8  1  0.00041700  0.67545869  0.67019464  1
  Cs  Cs9  1  0.34123947  -0.00184322  -0.00313586  1
  Cs  Cs10  1  0.33307843  0.00265913  0.33123088  1
  Cs  Cs11  1  0.33397325  -0.00112197  0.67494235  1
  Cs  Cs12  1  0.33091012  0.33363222  -0.00041447  1
  Cs  Cs13  1  0.33207140  0.33347373  0.33422566  1
  Cs  Cs14  1  0.33307834  0.33387135  0.66516649  1
  Cs  Cs15  1  0.33495052  0.66714251  -0.00049650  1
  Cs  Cs16  1  0.33305717  0.66514639  0.33338405  1
  Cs  Cs17  1  0.33188702  0.66584850  0.66570584  1
  Cs  Cs18  1  0.65919232  -0.00163114  -0.00446955  1
  Cs  Cs19  1  0.66631870  0.00249684  0.33210915  1
  Cs  Cs20  1  0.66708568  -0.00046416  0.67442858  1
  Cs  Cs21  1  0.67143815  0.33484115  -0.00218700  1
  Cs  Cs22  1  0.66777624  0.33302137  0.33474972  1
  Cs  Cs23  1  0.66595676  0.33112916  0.66333293  1
  Cs  Cs24  1  0.66700870  0.66594204  -0.00141628  1
  Cs  Cs25  1  0.66663863  0.66469686  0.33385384  1
  Cs  Cs26  1  0.66694154  0.66884624  0.66409211  1
  Sn  Sn27  1  0.16598308  0.16667137  0.16741022  1
  Sn  Sn28  1  0.16603049  0.83340119  0.16711110  1
  Sn  Sn29  1  0.83395095  0.16560573  0.16757986  1
  Sn  Sn30  1  0.49945134  0.49965828  0.16681440  1
  Sn  Sn31  1  0.49987778  0.50085597  0.49966722  1
  Sn  Sn32  1  0.83373907  0.83444870  0.16729306  1
  Sn  Sn33  1  0.16555238  0.16699236  0.49966472  1
  Sn  Sn34  1  0.83429621  0.49967568  0.49963691  1
  Sn  Sn35  1  0.16721593  0.49995261  0.16762018  1
  Sn  Sn36  1  0.49978417  0.83335472  0.49921999  1
  Sn  Sn37  1  0.83468273  0.16710814  0.49938329  1
  Sn  Sn38  1  0.49998303  0.49967122  0.83303351  1
  Sn  Sn39  1  0.16577750  0.49963228  0.49929051  1
  Pb  Pb40  1  0.50009121  0.83105021  0.16842706  1
  Pb  Pb41  1  0.50010391  0.16951392  0.16666935  1
  Pb  Pb42  1  0.16653664  0.16682003  0.83317901  1
  Pb  Pb43  1  0.83358851  0.16675648  0.83312607  1
  Pb  Pb44  1  0.83334439  0.83327723  0.83733729  1
  Pb  Pb45  1  0.83393967  0.49960547  0.16835037  1
  Pb  Pb46  1  0.83154867  0.83421466  0.49815448  1
  Pb  Pb47  1  0.49969064  0.16659353  0.50003874  1
  Pb  Pb48  1  0.49991628  0.16972893  0.83333914  1
  Pb  Pb49  1  0.49991689  0.83052356  0.83030022  1
  Pb  Pb50  1  0.83109749  0.49998970  0.82928001  1
  Pb  Pb51  1  0.16852983  0.83395798  0.49822863  1
  Pb  Pb52  1  0.16667769  0.83315920  0.83736430  1
  Pb  Pb53  1  0.16829587  0.50003813  0.83295254  1
  I  I54  1  0.16121047  0.00079900  0.17185086  1
  I  I55  1  0.16382298  0.00320754  0.49458608  1
  I  I56  1  0.16804348  0.00002071  0.83079582  1
  I  I57  1  0.16780391  0.33366042  0.17081729  1
  I  I58  1  0.16909524  0.33445454  0.49254281  1
  I  I59  1  0.16875254  0.33350263  0.83773832  1
  I  I60  1  0.16721364  0.66568561  0.17095499  1
  I  I61  1  0.16625855  0.66355483  0.49553796  1
  I  I62  1  0.16753192  0.66642234  0.83233795  1
  I  I63  1  0.49760544  -0.00008992  0.16866622  1
  I  I64  1  0.50012499  -0.00246449  0.49737288  1
  I  I65  1  0.50011821  -0.00037489  0.83205316  1
  I  I66  1  0.49643254  0.33791470  0.17104898  1
  I  I67  1  0.50025938  0.33697811  0.49990258  1
  I  I68  1  0.49950560  0.33785620  0.82979613  1
  I  I69  1  0.49668164  0.66274773  0.16647280  1
  I  I70  1  0.50032882  0.66385330  0.49969082  1
  I  I71  1  0.49955942  0.66274400  0.83603118  1
  I  I72  1  0.84158766  0.00097745  0.17349419  1
  I  I73  1  0.83643155  0.00333557  0.49663394  1
  I  I74  1  0.83186768  0.00003661  0.82755039  1
  I  I75  1  0.83500845  0.33074838  0.16918181  1
  I  I76  1  0.83054478  0.33362799  0.49390670  1
  I  I77  1  0.83151162  0.33353262  0.83896755  1
  I  I78  1  0.83573219  0.66823384  0.16869751  1
  I  I79  1  0.83343845  0.66407703  0.49780829  1
  I  I80  1  0.83284717  0.66644191  0.83395363  1
  I  I81  1  0.16214964  0.16876688  0.00425838  1
  I  I82  1  0.16314501  0.16880643  0.33283513  1
  I  I83  1  0.16434347  0.17372953  0.66258115  1
  I  I84  1  0.17115762  0.49969309  0.00380236  1
  I  I85  1  0.17218063  0.49921400  0.33331971  1
  I  I86  1  0.16859412  0.49448986  0.66263605  1
  I  I87  1  0.16410504  0.83221216  0.00595062  1
  I  I88  1  0.16407062  0.83187687  0.32997611  1
  I  I89  1  0.16882383  0.83293860  0.66636136  1
  I  I90  1  0.49975292  0.16761640  0.00041730  1
  I  I91  1  0.50067309  0.16909252  0.33338536  1
  I  I92  1  0.50006270  0.16819400  0.66615226  1
  I  I93  1  0.49455146  0.49888602  0.00114003  1
  I  I94  1  0.49881051  0.50381745  0.33425126  1
  I  I95  1  0.50035321  0.50349902  0.66489033  1
  I  I96  1  0.50006948  0.83172245  0.00016525  1
  I  I97  1  0.50003174  0.82486585  0.33592858  1
  I  I98  1  0.50026051  0.82793034  0.66240612  1
  I  I99  1  0.83786769  0.16420839  0.00385166  1
  I  I100  1  0.83695173  0.16755081  0.33336822  1
  I  I101  1  0.83573194  0.17275406  0.66266699  1
  I  I102  1  0.83204785  0.50012350  0.00017082  1
  I  I103  1  0.82765295  0.49918100  0.33642029  1
  I  I104  1  0.83323316  0.49378074  0.66082552  1
  I  I105  1  0.83652983  0.83778049  0.00564432  1
  I  I106  1  0.83663377  0.83366955  0.33024992  1
  I  I107  1  0.83087349  0.83307110  0.66638123  1
  I  I108  1  0.00067274  0.16778939  0.17101922  1
  I  I109  1  0.00024272  0.17641974  0.49415078  1
  I  I110  1  0.00004136  0.16905112  0.83402256  1
  I  I111  1  0.00317144  0.50083474  0.17168338  1
  I  I112  1  0.00092590  0.49497251  0.49268078  1
  I  I113  1  -0.00007426  0.49935329  0.83490381  1
  I  I114  1  0.00066306  0.83126786  0.16912106  1
  I  I115  1  0.00008636  0.82929727  0.50053190  1
  I  I116  1  -0.00002121  0.83182635  0.82751693  1
  I  I117  1  0.32974060  0.16524968  0.17162741  1
  I  I118  1  0.32995170  0.17109168  0.49408336  1
  I  I119  1  0.33314764  0.16648189  0.83317586  1
  I  I120  1  0.33245218  0.50031628  0.17103862  1
  I  I121  1  0.33323343  0.49974578  0.49917527  1
  I  I122  1  0.33640022  0.50038008  0.82934924  1
  I  I123  1  0.33051565  0.83500051  0.16877104  1
  I  I124  1  0.33612295  0.82692375  0.49681057  1
  I  I125  1  0.33358739  0.83354314  0.83518754  1
  I  I126  1  0.67004205  0.16394592  0.17166363  1
  I  I127  1  0.66966533  0.17133495  0.49487759  1
  I  I128  1  0.66684840  0.16732351  0.83325216  1
  I  I129  1  0.66446547  0.50063055  0.16838023  1
  I  I130  1  0.66613746  0.49976468  0.49935751  1
  I  I131  1  0.66285571  0.50022619  0.83653948  1
  I  I132  1  0.66913714  0.83632574  0.16916278  1
  I  I133  1  0.66395025  0.82649947  0.49660522  1
  I  I134  1  0.66640232  0.83270726  0.83524744  1
