# generated using pymatgen
data_Cs27Sn14Pb13I81
_symmetry_space_group_name_H-M   'P 1'
_cell_length_a   18.97621234
_cell_length_b   18.98112561
_cell_length_c   18.97205906
_cell_angle_alpha   90.00128733
_cell_angle_beta   89.99738493
_cell_angle_gamma   89.99943406
_symmetry_Int_Tables_number   1
_chemical_formula_structural   Cs27Sn14Pb13I81
_chemical_formula_sum   'Cs27 Sn14 Pb13 I81'
_cell_volume   6833.54347712
_cell_formula_units_Z   1
loop_
 _symmetry_equiv_pos_site_id
 _symmetry_equiv_pos_as_xyz
  1  'x, y, z'
loop_
 _atom_site_type_symbol
 _atom_site_label
 _atom_site_symmetry_multiplicity
 _atom_site_fract_x
 _atom_site_fract_y
 _atom_site_fract_z
 _atom_site_occupancy
  Cs  Cs0  1  -0.00125968  -0.00062073  -0.00107091  1
  Cs  Cs1  1  -0.00074029  -0.00080397  0.33495488  1
  Cs  Cs2  1  -0.00058132  -0.00063718  0.66513454  1
  Cs  Cs3  1  -0.00084969  0.33392691  -0.00159235  1
  Cs  Cs4  1  0.00082474  0.33451154  0.33467811  1
  Cs  Cs5  1  -0.00193416  0.33605957  0.66327574  1
  Cs  Cs6  1  -0.00059484  0.66631652  0.00029427  1
  Cs  Cs7  1  0.00036989  0.66625843  0.33265708  1
  Cs  Cs8  1  0.00116089  0.66690353  0.66669347  1
  Cs  Cs9  1  0.33231445  0.00671891  -0.00171601  1
  Cs  Cs10  1  0.33375150  0.00083173  0.33246830  1
  Cs  Cs11  1  0.33405064  -0.00234648  0.67002287  1
  Cs  Cs12  1  0.33458866  0.32190158  -0.00299330  1
  Cs  Cs13  1  0.33088090  0.33476689  0.32986594  1
  Cs  Cs14  1  0.34245504  0.33423886  0.67597479  1
  Cs  Cs15  1  0.33247712  0.66815397  0.00191439  1
  Cs  Cs16  1  0.33223904  0.66626532  0.33404575  1
  Cs  Cs17  1  0.33454833  0.66727501  0.66630972  1
  Cs  Cs18  1  0.66899339  -0.00309040  0.00014996  1
  Cs  Cs19  1  0.66745082  0.00177865  0.33683001  1
  Cs  Cs20  1  0.66799231  0.00034240  0.66358967  1
  Cs  Cs21  1  0.66693720  0.33363024  -0.00221181  1
  Cs  Cs22  1  0.66763275  0.33092060  0.33464251  1
  Cs  Cs23  1  0.66058396  0.33214425  0.66844498  1
  Cs  Cs24  1  0.66798144  0.66840504  0.00222015  1
  Cs  Cs25  1  0.66569374  0.66736518  0.33044129  1
  Cs  Cs26  1  0.66349562  0.66596253  0.66724640  1
  Sn  Sn27  1  0.16703609  0.16721637  0.50032700  1
  Sn  Sn28  1  0.16693008  0.50054571  0.16661754  1
  Sn  Sn29  1  0.16756947  0.83292203  0.16727513  1
  Sn  Sn30  1  0.83396047  0.83202802  0.50094057  1
  Sn  Sn31  1  0.83350796  0.50109542  0.49920112  1
  Sn  Sn32  1  0.83381645  0.16605890  0.83376555  1
  Sn  Sn33  1  0.16588227  0.83331306  0.49897670  1
  Sn  Sn34  1  0.49960473  0.50042766  0.16663259  1
  Sn  Sn35  1  0.83342902  0.49892325  0.16754100  1
  Sn  Sn36  1  0.49872086  0.83286113  0.16591640  1
  Sn  Sn37  1  0.83367858  0.16785955  0.16610492  1
  Sn  Sn38  1  0.16621218  0.49980847  0.49967356  1
  Sn  Sn39  1  0.50087353  0.83301365  0.83450291  1
  Sn  Sn40  1  0.83274022  0.83370787  0.83202450  1
  Pb  Pb41  1  0.49986310  0.50004997  0.49752835  1
  Pb  Pb42  1  0.49995730  0.50283465  0.83681467  1
  Pb  Pb43  1  0.16362971  0.16672955  0.83019992  1
  Pb  Pb44  1  0.83335652  0.50046875  0.83283995  1
  Pb  Pb45  1  0.16427885  0.16660409  0.16810035  1
  Pb  Pb46  1  0.83446380  0.16715469  0.50019878  1
  Pb  Pb47  1  0.49620305  0.16681661  0.49974654  1
  Pb  Pb48  1  0.50301243  0.16351036  0.83346250  1
  Pb  Pb49  1  0.49985469  0.83327582  0.49936254  1
  Pb  Pb50  1  0.50272506  0.16623471  0.16688513  1
  Pb  Pb51  1  0.16635868  0.83317723  0.83363632  1
  Pb  Pb52  1  0.16672218  0.49996943  0.83357969  1
  Pb  Pb53  1  0.83362478  0.83292004  0.16707624  1
  I  I54  1  0.16945706  -0.00300095  0.17110080  1
  I  I55  1  0.16144053  -0.00175432  0.49600787  1
  I  I56  1  0.16843921  -0.00024931  0.83365299  1
  I  I57  1  0.16815059  0.33653966  0.17160205  1
  I  I58  1  0.15959988  0.33495091  0.49414090  1
  I  I59  1  0.16470104  0.33322065  0.83397081  1
  I  I60  1  0.16517528  0.66662651  0.17374701  1
  I  I61  1  0.16160849  0.66686475  0.49517060  1
  I  I62  1  0.16353965  0.66693079  0.82957427  1
  I  I63  1  0.49611084  -0.00363855  0.16279108  1
  I  I64  1  0.50205885  -0.00044754  0.49700282  1
  I  I65  1  0.50073946  -0.00423054  0.84071329  1
  I  I66  1  0.49721601  0.33653204  0.16946357  1
  I  I67  1  0.50283718  0.33365299  0.49825831  1
  I  I68  1  0.50048801  0.33320572  0.83308225  1
  I  I69  1  0.50204839  0.66704251  0.16311364  1
  I  I70  1  0.49743799  0.66680585  0.50313181  1
  I  I71  1  0.50789294  0.67064095  0.83397611  1
  I  I72  1  0.83363392  0.00138457  0.16620472  1
  I  I73  1  0.83731613  -0.00254347  0.50009881  1
  I  I74  1  0.82968797  -0.00123143  0.83400095  1
  I  I75  1  0.83363265  0.33497433  0.16721828  1
  I  I76  1  0.83855969  0.33618971  0.49793877  1
  I  I77  1  0.83562103  0.33102086  0.83499199  1
  I  I78  1  0.83329675  0.66408556  0.16733128  1
  I  I79  1  0.84104128  0.66694469  0.49943493  1
  I  I80  1  0.82985874  0.66992494  0.83281511  1
  I  I81  1  0.16740019  0.16652250  0.00002060  1
  I  I82  1  0.16173786  0.16585082  0.33601428  1
  I  I83  1  0.16309668  0.16456127  0.66207538  1
  I  I84  1  0.16415372  0.50687228  0.00443668  1
  I  I85  1  0.16526025  0.50134133  0.33303071  1
  I  I86  1  0.15913901  0.50191796  0.66254873  1
  I  I87  1  0.16624586  0.82765568  0.00336993  1
  I  I88  1  0.16581265  0.83231248  0.33365788  1
  I  I89  1  0.16538142  0.83257355  0.66333313  1
  I  I90  1  0.49670828  0.16929185  0.00019602  1
  I  I91  1  0.50585404  0.16250091  0.33291231  1
  I  I92  1  0.50252870  0.16552240  0.66689672  1
  I  I93  1  0.50186299  0.50245271  0.00504270  1
  I  I94  1  0.50065276  0.50859203  0.32939156  1
  I  I95  1  0.50009576  0.49989772  0.66676357  1
  I  I96  1  0.50210749  0.82826578  0.00097213  1
  I  I97  1  0.49947110  0.82876650  0.33000731  1
  I  I98  1  0.50134058  0.83576736  0.66900725  1
  I  I99  1  0.83371742  0.16560023  0.00034557  1
  I  I100  1  0.83435084  0.16716534  0.33118258  1
  I  I101  1  0.83580518  0.16389587  0.66884121  1
  I  I102  1  0.83396028  0.49978641  0.00334937  1
  I  I103  1  0.83452765  0.50043070  0.33265479  1
  I  I104  1  0.84027530  0.50110614  0.66321970  1
  I  I105  1  0.83256625  0.83442348  -0.00165768  1
  I  I106  1  0.83446879  0.83323959  0.33581940  1
  I  I107  1  0.83375851  0.83449615  0.66600662  1
  I  I108  1  -0.00365951  0.16942047  0.16364907  1
  I  I109  1  0.00233276  0.16571161  0.49931620  1
  I  I110  1  -0.00405921  0.15849364  0.83849625  1
  I  I111  1  0.00001194  0.50085496  0.17096049  1
  I  I112  1  -0.00003291  0.50103099  0.49219555  1
  I  I113  1  -0.00033233  0.50258693  0.83867660  1
  I  I114  1  0.00239473  0.83083150  0.16782412  1
  I  I115  1  0.00014238  0.83288649  0.49969761  1
  I  I116  1  -0.00313952  0.83730654  0.83240131  1
  I  I117  1  0.33308407  0.16880816  0.16869191  1
  I  I118  1  0.32797838  0.16479649  0.49691173  1
  I  I119  1  0.33343207  0.16613999  0.83181880  1
  I  I120  1  0.33232406  0.50702957  0.17216040  1
  I  I121  1  0.32954420  0.50207566  0.49556180  1
  I  I122  1  0.33349725  0.50254243  0.83033505  1
  I  I123  1  0.33266520  0.82534302  0.16753422  1
  I  I124  1  0.32984102  0.83224377  0.49939592  1
  I  I125  1  0.33580290  0.83144221  0.83387004  1
  I  I126  1  0.67092119  0.16960361  0.16410655  1
  I  I127  1  0.66709644  0.16579356  0.50020087  1
  I  I128  1  0.67083796  0.16566441  0.83632342  1
  I  I129  1  0.66744570  0.50145999  0.17005001  1
  I  I130  1  0.67006811  0.50509384  0.49580001  1
  I  I131  1  0.66687199  0.49791132  0.83244372  1
  I  I132  1  0.66496217  0.83025989  0.16548351  1
  I  I133  1  0.66989413  0.82972189  0.50031684  1
  I  I134  1  0.66773115  0.83699027  0.83460367  1
