# generated using pymatgen
data_Cs27Sn13Pb14I81
_symmetry_space_group_name_H-M   'P 1'
_cell_length_a   19.00385323
_cell_length_b   18.98591409
_cell_length_c   18.98379437
_cell_angle_alpha   89.99778172
_cell_angle_beta   90.00024785
_cell_angle_gamma   89.99954619
_symmetry_Int_Tables_number   1
_chemical_formula_structural   Cs27Sn13Pb14I81
_chemical_formula_sum   'Cs27 Sn13 Pb14 I81'
_cell_volume   6849.45788384
_cell_formula_units_Z   1
loop_
 _symmetry_equiv_pos_site_id
 _symmetry_equiv_pos_as_xyz
  1  'x, y, z'
loop_
 _atom_site_type_symbol
 _atom_site_label
 _atom_site_symmetry_multiplicity
 _atom_site_fract_x
 _atom_site_fract_y
 _atom_site_fract_z
 _atom_site_occupancy
  Cs  Cs0  1  0.00899932  0.00558662  -0.00068307  1
  Cs  Cs1  1  0.00156590  0.00165837  0.33664588  1
  Cs  Cs2  1  0.00181919  -0.00078920  0.66160282  1
  Cs  Cs3  1  -0.00334867  0.32662164  -0.00750810  1
  Cs  Cs4  1  -0.00141967  0.33490907  0.33292206  1
  Cs  Cs5  1  -0.00001092  0.33604633  0.67213808  1
  Cs  Cs6  1  0.00151941  0.66727563  0.00101325  1
  Cs  Cs7  1  -0.00367021  0.66505521  0.33139919  1
  Cs  Cs8  1  0.00051744  0.66511620  0.66966583  1
  Cs  Cs9  1  0.32595586  0.00378409  -0.00130930  1
  Cs  Cs10  1  0.33303194  0.00080196  0.33438707  1
  Cs  Cs11  1  0.33304516  -0.00047150  0.66384977  1
  Cs  Cs12  1  0.33588848  0.32296066  -0.00587255  1
  Cs  Cs13  1  0.33331164  0.33604622  0.33517493  1
  Cs  Cs14  1  0.33407922  0.34302582  0.66893653  1
  Cs  Cs15  1  0.33121896  0.66986377  0.00295794  1
  Cs  Cs16  1  0.33408305  0.66438523  0.33173853  1
  Cs  Cs17  1  0.33246606  0.66025989  0.66754741  1
  Cs  Cs18  1  0.66581924  0.00222768  -0.00047743  1
  Cs  Cs19  1  0.66636911  -0.00068478  0.33519151  1
  Cs  Cs20  1  0.66621826  -0.00401977  0.66367693  1
  Cs  Cs21  1  0.66776557  0.32570660  -0.00685744  1
  Cs  Cs22  1  0.66799293  0.33412219  0.33213430  1
  Cs  Cs23  1  0.66556977  0.33568401  0.67395950  1
  Cs  Cs24  1  0.66756996  0.66733258  0.00283273  1
  Cs  Cs25  1  0.66787468  0.66695217  0.33134791  1
  Cs  Cs26  1  0.66657796  0.66954294  0.66907736  1
  Sn  Sn27  1  0.83306699  0.50020975  0.16701220  1
  Sn  Sn28  1  0.83302727  0.83353380  0.83525590  1
  Sn  Sn29  1  0.50000554  0.16674553  0.49969907  1
  Sn  Sn30  1  0.49880127  0.83340846  0.49984246  1
  Sn  Sn31  1  0.16793106  0.83290651  0.49938582  1
  Sn  Sn32  1  0.83287564  0.49917089  0.49966478  1
  Sn  Sn33  1  0.50057871  0.83311391  0.16629128  1
  Sn  Sn34  1  0.16707253  0.16687586  0.49966986  1
  Sn  Sn35  1  0.16648070  0.49941876  0.16636626  1
  Sn  Sn36  1  0.50044270  0.83319745  0.83382843  1
  Sn  Sn37  1  0.83291194  0.16839727  0.49966619  1
  Sn  Sn38  1  0.83299901  0.83347512  0.16544504  1
  Sn  Sn39  1  0.50037095  0.50004914  0.16653940  1
  Pb  Pb40  1  0.16682233  0.16658715  0.82958423  1
  Pb  Pb41  1  0.50009443  0.16606488  0.16881591  1
  Pb  Pb42  1  0.16665463  0.16990569  0.16928125  1
  Pb  Pb43  1  0.16690744  0.83317177  0.83059737  1
  Pb  Pb44  1  0.50009179  0.50294114  0.83731982  1
  Pb  Pb45  1  0.83323336  0.16288291  0.82994976  1
  Pb  Pb46  1  0.50003791  0.16349212  0.82988580  1
  Pb  Pb47  1  0.16429709  0.50005113  0.49862576  1
  Pb  Pb48  1  0.16652816  0.83223153  0.16901656  1
  Pb  Pb49  1  0.83308362  0.83301012  0.49947819  1
  Pb  Pb50  1  0.16673166  0.50024955  0.83741165  1
  Pb  Pb51  1  0.83317279  0.50248592  0.83439614  1
  Pb  Pb52  1  0.50245379  0.50046787  0.49835578  1
  Pb  Pb53  1  0.83325461  0.16616446  0.16839672  1
  I  I54  1  0.16649185  0.00010699  0.16605911  1
  I  I55  1  0.16422486  -0.00022702  0.49913689  1
  I  I56  1  0.16592441  -0.00035101  0.83703397  1
  I  I57  1  0.16601324  0.33792825  0.17143000  1
  I  I58  1  0.16901250  0.33062685  0.49700045  1
  I  I59  1  0.16623977  0.33335276  0.83097648  1
  I  I60  1  0.16642545  0.66432333  0.17178519  1
  I  I61  1  0.17048528  0.66917104  0.49892000  1
  I  I62  1  0.16612996  0.66703081  0.82743742  1
  I  I63  1  0.50612681  -0.00402903  0.16655588  1
  I  I64  1  0.50193800  -0.00137680  0.49806747  1
  I  I65  1  0.50505802  -0.00458790  0.83816141  1
  I  I66  1  0.50073180  0.33637557  0.17159602  1
  I  I67  1  0.49753129  0.33093728  0.49609717  1
  I  I68  1  0.49899515  0.33325331  0.83320501  1
  I  I69  1  0.50096355  0.66793978  0.17015596  1
  I  I70  1  0.49688366  0.67018139  0.50130887  1
  I  I71  1  0.50430081  0.67102541  0.82545342  1
  I  I72  1  0.82661773  -0.00374070  0.16571069  1
  I  I73  1  0.83373200  0.00181617  0.50053426  1
  I  I74  1  0.82781070  -0.00475159  0.83769115  1
  I  I75  1  0.83282823  0.33668180  0.17174372  1
  I  I76  1  0.83395034  0.33334504  0.49208549  1
  I  I77  1  0.83443971  0.33306808  0.83514800  1
  I  I78  1  0.83242007  0.66667953  0.17074418  1
  I  I79  1  0.83372129  0.66466936  0.49805443  1
  I  I80  1  0.82882639  0.67027521  0.82988087  1
  I  I81  1  0.16647627  0.16766038  -0.00002602  1
  I  I82  1  0.16637148  0.16121890  0.33750966  1
  I  I83  1  0.16542568  0.16088434  0.66125176  1
  I  I84  1  0.16331072  0.50519101  0.00540603  1
  I  I85  1  0.16803069  0.50093082  0.33080858  1
  I  I86  1  0.16471358  0.49964387  0.66644080  1
  I  I87  1  0.16856387  0.83096487  0.00025371  1
  I  I88  1  0.16990202  0.83711822  0.33697916  1
  I  I89  1  0.16844237  0.83770507  0.66229652  1
  I  I90  1  0.50014565  0.16765433  -0.00020086  1
  I  I91  1  0.50032244  0.15952597  0.33718812  1
  I  I92  1  0.50085448  0.16077737  0.66156120  1
  I  I93  1  0.50322783  0.50609989  0.00545618  1
  I  I94  1  0.49905580  0.50647675  0.33037642  1
  I  I95  1  0.50107889  0.50000125  0.66673438  1
  I  I96  1  0.50645028  0.82583752  0.00103460  1
  I  I97  1  0.50100481  0.83341671  0.33337516  1
  I  I98  1  0.50181334  0.83961990  0.66578772  1
  I  I99  1  0.83340474  0.16996135  -0.00032697  1
  I  I100  1  0.83325022  0.16454285  0.33710021  1
  I  I101  1  0.83364164  0.17122285  0.66156617  1
  I  I102  1  0.83358556  0.50434522  0.00402834  1
  I  I103  1  0.83353247  0.50307430  0.33238013  1
  I  I104  1  0.83435225  0.49744564  0.66407413  1
  I  I105  1  0.82412673  0.82514639  0.00144850  1
  I  I106  1  0.83014649  0.83160152  0.33091708  1
  I  I107  1  0.83013205  0.83422434  0.66802127  1
  I  I108  1  -0.00008668  0.16493864  0.17118072  1
  I  I109  1  -0.00005860  0.16384377  0.49847536  1
  I  I110  1  -0.00022457  0.16445548  0.83178857  1
  I  I111  1  -0.00146019  0.50583874  0.17354146  1
  I  I112  1  -0.00341770  0.49861791  0.49335770  1
  I  I113  1  -0.00029264  0.50364011  0.83266862  1
  I  I114  1  -0.00300160  0.82809301  0.16524037  1
  I  I115  1  0.00151726  0.83658257  0.49952019  1
  I  I116  1  -0.00292899  0.83212859  0.83576383  1
  I  I117  1  0.33342561  0.16658404  0.16997418  1
  I  I118  1  0.33363317  0.15877412  0.49842776  1
  I  I119  1  0.33356442  0.16384145  0.83338854  1
  I  I120  1  0.33416769  0.50646191  0.16876770  1
  I  I121  1  0.33350749  0.49789748  0.49776189  1
  I  I122  1  0.33358028  0.50286672  0.83108070  1
  I  I123  1  0.33649012  0.82854402  0.16586904  1
  I  I124  1  0.33475260  0.84151531  0.49933857  1
  I  I125  1  0.33675866  0.83344894  0.83594155  1
  I  I126  1  0.66665814  0.17032152  0.17157828  1
  I  I127  1  0.66645040  0.16359498  0.49828151  1
  I  I128  1  0.66669439  0.16886297  0.83084586  1
  I  I129  1  0.66721028  0.50694491  0.17329994  1
  I  I130  1  0.67009644  0.49791762  0.49319427  1
  I  I131  1  0.66662077  0.49872146  0.83242559  1
  I  I132  1  0.66620965  0.82534770  0.16988714  1
  I  I133  1  0.66405755  0.83637019  0.49972699  1
  I  I134  1  0.66615330  0.83262202  0.82998499  1
