# generated using pymatgen
data_Cs27Sn13Pb14I81
_symmetry_space_group_name_H-M   'P 1'
_cell_length_a   19.02035947
_cell_length_b   19.01746850
_cell_length_c   19.02455873
_cell_angle_alpha   89.99969339
_cell_angle_beta   89.99863851
_cell_angle_gamma   89.99905671
_symmetry_Int_Tables_number   1
_chemical_formula_structural   Cs27Sn13Pb14I81
_chemical_formula_sum   'Cs27 Sn13 Pb14 I81'
_cell_volume   6881.54601422
_cell_formula_units_Z   1
loop_
 _symmetry_equiv_pos_site_id
 _symmetry_equiv_pos_as_xyz
  1  'x, y, z'
loop_
 _atom_site_type_symbol
 _atom_site_label
 _atom_site_symmetry_multiplicity
 _atom_site_fract_x
 _atom_site_fract_y
 _atom_site_fract_z
 _atom_site_occupancy
  Cs  Cs0  1  -0.00297461  0.00027980  0.00045532  1
  Cs  Cs1  1  -0.00098689  -0.00091491  0.33299533  1
  Cs  Cs2  1  -0.00254760  -0.00297150  0.66742699  1
  Cs  Cs3  1  0.00329234  0.33299095  -0.00479024  1
  Cs  Cs4  1  0.00518034  0.33257317  0.33771425  1
  Cs  Cs5  1  -0.00064887  0.33684918  0.66555281  1
  Cs  Cs6  1  -0.00561834  0.66274044  0.00090930  1
  Cs  Cs7  1  0.00145054  0.66870393  0.32905427  1
  Cs  Cs8  1  0.00132295  0.67039512  0.67135526  1
  Cs  Cs9  1  0.33474133  0.00266877  0.00202593  1
  Cs  Cs10  1  0.33327466  0.00082842  0.33205201  1
  Cs  Cs11  1  0.33349681  -0.00842852  0.66773133  1
  Cs  Cs12  1  0.33153552  0.33169314  0.00013459  1
  Cs  Cs13  1  0.33055827  0.33212370  0.33220340  1
  Cs  Cs14  1  0.32948830  0.33246240  0.66851399  1
  Cs  Cs15  1  0.33672375  0.66564710  -0.00715678  1
  Cs  Cs16  1  0.33164298  0.66605336  0.33693167  1
  Cs  Cs17  1  0.34348301  0.67966831  0.67214699  1
  Cs  Cs18  1  0.66792771  0.00048392  -0.00031270  1
  Cs  Cs19  1  0.66832332  0.00186891  0.33164950  1
  Cs  Cs20  1  0.66948235  0.00006449  0.66837090  1
  Cs  Cs21  1  0.66445171  0.33480036  -0.00034484  1
  Cs  Cs22  1  0.66641567  0.33756402  0.33911564  1
  Cs  Cs23  1  0.67116604  0.33730641  0.66192676  1
  Cs  Cs24  1  0.66944485  0.65532429  0.00152105  1
  Cs  Cs25  1  0.66714467  0.65483376  0.33181935  1
  Cs  Cs26  1  0.65666257  0.66114770  0.66620715  1
  Sn  Sn27  1  0.16707439  0.50002279  0.16723255  1
  Sn  Sn28  1  0.49895635  0.16598430  0.50022613  1
  Sn  Sn29  1  0.49995131  0.83392144  0.16700641  1
  Sn  Sn30  1  0.83247177  0.16604880  0.83409794  1
  Sn  Sn31  1  0.16701543  0.50031443  0.49988549  1
  Sn  Sn32  1  0.16632319  0.16627771  0.16746197  1
  Sn  Sn33  1  0.50038629  0.16598894  0.16701791  1
  Sn  Sn34  1  0.83265652  0.83403616  0.83245890  1
  Sn  Sn35  1  0.16747474  0.16658324  0.49955995  1
  Sn  Sn36  1  0.16785633  0.83352251  0.16626642  1
  Sn  Sn37  1  0.83279862  0.83316603  0.50054480  1
  Sn  Sn38  1  0.50089052  0.16627341  0.83282272  1
  Sn  Sn39  1  0.83326844  0.16668355  0.16630476  1
  Pb  Pb40  1  0.16698861  0.50027669  0.83250216  1
  Pb  Pb41  1  0.16429528  0.83362173  0.83682848  1
  Pb  Pb42  1  0.83334781  0.49948974  0.83309005  1
  Pb  Pb43  1  0.16533146  0.83357606  0.49805843  1
  Pb  Pb44  1  0.50260163  0.83598975  0.49694327  1
  Pb  Pb45  1  0.50297911  0.83587250  0.83657591  1
  Pb  Pb46  1  0.49698136  0.49948420  0.16677627  1
  Pb  Pb47  1  0.49974015  0.49649486  0.83320098  1
  Pb  Pb48  1  0.16653050  0.16642136  0.83273788  1
  Pb  Pb49  1  0.83634618  0.49578391  0.16690240  1
  Pb  Pb50  1  0.83372492  0.16570562  0.50012790  1
  Pb  Pb51  1  0.49639787  0.49728327  0.50000736  1
  Pb  Pb52  1  0.83245648  0.83486240  0.16642013  1
  Pb  Pb53  1  0.83660971  0.50351476  0.50010877  1
  I  I54  1  0.16691094  0.00167805  0.17075169  1
  I  I55  1  0.16924980  0.00318470  0.49450419  1
  I  I56  1  0.16794101  0.00026531  0.83235313  1
  I  I57  1  0.16578941  0.33160457  0.17079286  1
  I  I58  1  0.16997806  0.33166007  0.49006439  1
  I  I59  1  0.16481268  0.33283463  0.83898454  1
  I  I60  1  0.17040873  0.66687304  0.17249565  1
  I  I61  1  0.16025425  0.66420966  0.49195567  1
  I  I62  1  0.16300296  0.66692066  0.83376136  1
  I  I63  1  0.49364067  0.00236359  0.16644105  1
  I  I64  1  0.49112508  0.00406731  0.50151720  1
  I  I65  1  0.50126550  0.00381485  0.83200639  1
  I  I66  1  0.50014067  0.32924310  0.16562434  1
  I  I67  1  0.50227563  0.32862189  0.49548651  1
  I  I68  1  0.50695799  0.32774596  0.83835598  1
  I  I69  1  0.49637560  0.66953878  0.16633693  1
  I  I70  1  0.50073693  0.66688938  0.49882582  1
  I  I71  1  0.50069801  0.66721647  0.83485839  1
  I  I72  1  0.83908003  0.00310630  0.16578769  1
  I  I73  1  0.83715600  -0.00162255  0.50041050  1
  I  I74  1  0.83020026  0.00145382  0.83406363  1
  I  I75  1  0.83050130  0.32767158  0.16002492  1
  I  I76  1  0.83059316  0.33338478  0.49980697  1
  I  I77  1  0.82928858  0.32949629  0.83936591  1
  I  I78  1  0.83333564  0.66630959  0.16550358  1
  I  I79  1  0.83554768  0.67122557  0.50541601  1
  I  I80  1  0.83749566  0.66979090  0.83029282  1
  I  I81  1  0.16859061  0.16744185  0.00330415  1
  I  I82  1  0.16874183  0.16739242  0.33173320  1
  I  I83  1  0.16888920  0.17370686  0.66328525  1
  I  I84  1  0.16600407  0.49726855  0.00343659  1
  I  I85  1  0.16600048  0.49670797  0.33232275  1
  I  I86  1  0.16381007  0.48886006  0.66284962  1
  I  I87  1  0.16864262  0.83632167  0.00514381  1
  I  I88  1  0.16595355  0.83522609  0.32999380  1
  I  I89  1  0.16640031  0.83285736  0.66675463  1
  I  I90  1  0.50003984  0.16253114  0.00125482  1
  I  I91  1  0.49894715  0.16233312  0.33228118  1
  I  I92  1  0.50043401  0.16881659  0.66647803  1
  I  I93  1  0.49745524  0.49866937  0.00035684  1
  I  I94  1  0.50444285  0.49822131  0.33323925  1
  I  I95  1  0.49711877  0.49966822  0.66643839  1
  I  I96  1  0.49561050  0.84161798  0.00387231  1
  I  I97  1  0.49760861  0.84219378  0.32963170  1
  I  I98  1  0.49830566  0.83395174  0.66681284  1
  I  I99  1  0.83175093  0.15944125  0.00047627  1
  I  I100  1  0.83201770  0.16328229  0.33065896  1
  I  I101  1  0.82997696  0.16399181  0.66921391  1
  I  I102  1  0.83681518  0.50643177  0.00027349  1
  I  I103  1  0.82996392  0.50141864  0.33332769  1
  I  I104  1  0.83794648  0.49234596  0.66648442  1
  I  I105  1  0.83522120  0.83805962  -0.00200445  1
  I  I106  1  0.83574093  0.83720103  0.33456732  1
  I  I107  1  0.83629810  0.84336170  0.66733588  1
  I  I108  1  0.00095664  0.16575215  0.16687385  1
  I  I109  1  0.00281321  0.16928626  0.49508317  1
  I  I110  1  -0.00291003  0.16319001  0.83845559  1
  I  I111  1  0.00404990  0.50300305  0.17067829  1
  I  I112  1  0.00382568  0.48780953  0.49383825  1
  I  I113  1  0.00002654  0.49634112  0.83491752  1
  I  I114  1  0.00230636  0.83478010  0.16718520  1
  I  I115  1  -0.00221679  0.83758319  0.50113054  1
  I  I116  1  -0.00351310  0.84220455  0.83101118  1
  I  I117  1  0.33305003  0.16660722  0.16657416  1
  I  I118  1  0.33290523  0.17100537  0.49485064  1
  I  I119  1  0.33605630  0.16875073  0.83748551  1
  I  I120  1  0.32945809  0.49333404  0.17132919  1
  I  I121  1  0.32894831  0.49771044  0.49129014  1
  I  I122  1  0.33334334  0.49727319  0.83553841  1
  I  I123  1  0.33275825  0.84097902  0.16838461  1
  I  I124  1  0.33353136  0.83069811  0.50134709  1
  I  I125  1  0.33382219  0.83309841  0.83119567  1
  I  I126  1  0.66593045  0.15837862  0.16597786  1
  I  I127  1  0.66439141  0.16257371  0.49622112  1
  I  I128  1  0.66690557  0.16139544  0.83846673  1
  I  I129  1  0.66660515  0.50229737  0.16505184  1
  I  I130  1  0.66655064  0.49911782  0.50119754  1
  I  I131  1  0.66670284  0.50284164  0.83423309  1
  I  I132  1  0.66406728  0.84296884  0.16665094  1
  I  I133  1  0.66998106  0.83941213  0.50210058  1
  I  I134  1  0.67027673  0.83878260  0.83124533  1
