# generated using pymatgen
data_Cs27Sn13Pb14I81
_symmetry_space_group_name_H-M   'P 1'
_cell_length_a   18.98232872
_cell_length_b   18.96820234
_cell_length_c   18.98217745
_cell_angle_alpha   90.00091330
_cell_angle_beta   89.99969776
_cell_angle_gamma   90.00303854
_symmetry_Int_Tables_number   1
_chemical_formula_structural   Cs27Sn13Pb14I81
_chemical_formula_sum   'Cs27 Sn13 Pb14 I81'
_cell_volume   6834.73518115
_cell_formula_units_Z   1
loop_
 _symmetry_equiv_pos_site_id
 _symmetry_equiv_pos_as_xyz
  1  'x, y, z'
loop_
 _atom_site_type_symbol
 _atom_site_label
 _atom_site_symmetry_multiplicity
 _atom_site_fract_x
 _atom_site_fract_y
 _atom_site_fract_z
 _atom_site_occupancy
  Cs  Cs0  1  -0.00086933  0.00042640  0.00035212  1
  Cs  Cs1  1  -0.00047922  -0.00107943  0.33359292  1
  Cs  Cs2  1  0.00219308  -0.00118911  0.66604726  1
  Cs  Cs3  1  0.00005883  0.33575341  -0.00137566  1
  Cs  Cs4  1  -0.00016474  0.33363935  0.33116099  1
  Cs  Cs5  1  -0.00972967  0.33730563  0.66981794  1
  Cs  Cs6  1  0.00076825  0.66507298  -0.00158051  1
  Cs  Cs7  1  0.00227863  0.66861743  0.33313463  1
  Cs  Cs8  1  0.00035388  0.66632884  0.66830653  1
  Cs  Cs9  1  0.33589777  0.00108359  -0.00196201  1
  Cs  Cs10  1  0.33234391  0.00211117  0.33588265  1
  Cs  Cs11  1  0.33230606  0.00036737  0.66699708  1
  Cs  Cs12  1  0.33258480  0.33282552  0.00150237  1
  Cs  Cs13  1  0.33189945  0.33358059  0.33125253  1
  Cs  Cs14  1  0.33531042  0.32962134  0.66740935  1
  Cs  Cs15  1  0.33516958  0.66663048  -0.00172949  1
  Cs  Cs16  1  0.33080201  0.66455450  0.33762984  1
  Cs  Cs17  1  0.33370640  0.66719652  0.66540155  1
  Cs  Cs18  1  0.66580005  -0.00128917  0.00804119  1
  Cs  Cs19  1  0.66847388  0.00066801  0.32782802  1
  Cs  Cs20  1  0.66579234  0.00055910  0.66692352  1
  Cs  Cs21  1  0.66676683  0.33389202  -0.00089774  1
  Cs  Cs22  1  0.66839741  0.33524455  0.33487215  1
  Cs  Cs23  1  0.67139268  0.33335091  0.66641471  1
  Cs  Cs24  1  0.66408106  0.66785438  0.00369492  1
  Cs  Cs25  1  0.66674045  0.66486071  0.33070938  1
  Cs  Cs26  1  0.66537921  0.66667227  0.66569682  1
  Sn  Sn27  1  0.16702293  0.16621068  0.50134031  1
  Sn  Sn28  1  0.83358756  0.83374312  0.83293623  1
  Sn  Sn29  1  0.16606693  0.83409074  0.83340152  1
  Sn  Sn30  1  0.50015208  0.83436055  0.49996298  1
  Sn  Sn31  1  0.49950990  0.16565095  0.50084367  1
  Sn  Sn32  1  0.83308571  0.50005546  0.16652257  1
  Sn  Sn33  1  0.49964616  0.49905582  0.83368623  1
  Sn  Sn34  1  0.50034812  0.49986595  0.16599434  1
  Sn  Sn35  1  0.83323433  0.83347314  0.50076054  1
  Sn  Sn36  1  0.16709237  0.16601777  0.83216697  1
  Sn  Sn37  1  0.49957999  0.16727192  0.83267414  1
  Sn  Sn38  1  0.16673149  0.83393849  0.50032149  1
  Sn  Sn39  1  0.16728175  0.83361802  0.16627906  1
  Pb  Pb40  1  0.83344215  0.50285874  0.49793986  1
  Pb  Pb41  1  0.49994747  0.83397733  0.83177346  1
  Pb  Pb42  1  0.49748198  0.83132581  0.16992041  1
  Pb  Pb43  1  0.49995345  0.16898117  0.16699920  1
  Pb  Pb44  1  0.16699871  0.50210169  0.16650525  1
  Pb  Pb45  1  0.49979539  0.49904004  0.50028062  1
  Pb  Pb46  1  0.16654522  0.49871380  0.50056827  1
  Pb  Pb47  1  0.83535098  0.83193335  0.16654699  1
  Pb  Pb48  1  0.83355608  0.16432072  0.50003865  1
  Pb  Pb49  1  0.83355536  0.16961541  0.16654747  1
  Pb  Pb50  1  0.16883596  0.49948521  0.83295327  1
  Pb  Pb51  1  0.16674742  0.16435216  0.16643278  1
  Pb  Pb52  1  0.83316594  0.16409721  0.83341345  1
  Pb  Pb53  1  0.83051777  0.50288493  0.83503035  1
  I  I54  1  0.16575343  -0.00390090  0.16773070  1
  I  I55  1  0.16792937  -0.00147819  0.50035659  1
  I  I56  1  0.16926601  -0.00095302  0.83243584  1
  I  I57  1  0.16594107  0.33327702  0.16754365  1
  I  I58  1  0.17417764  0.32886078  0.50338537  1
  I  I59  1  0.16955698  0.32957801  0.82893076  1
  I  I60  1  0.16673011  0.67046990  0.16802495  1
  I  I61  1  0.16781484  0.67064956  0.49980402  1
  I  I62  1  0.16427524  0.67016965  0.83261532  1
  I  I63  1  0.49943212  -0.00017465  0.16388668  1
  I  I64  1  0.49814409  -0.00013179  0.50622366  1
  I  I65  1  0.49816214  0.00273918  0.82990154  1
  I  I66  1  0.50311872  0.33697611  0.16739182  1
  I  I67  1  0.49366692  0.32970471  0.50018768  1
  I  I68  1  0.49401774  0.33222640  0.83191899  1
  I  I69  1  0.50312689  0.66361070  0.16111035  1
  I  I70  1  0.49892963  0.66955812  0.50005806  1
  I  I71  1  0.50046523  0.66508602  0.83577633  1
  I  I72  1  0.83413641  -0.00060102  0.16675323  1
  I  I73  1  0.83412804  -0.00418303  0.50279780  1
  I  I74  1  0.83351154  -0.00404548  0.82949944  1
  I  I75  1  0.82934391  0.33778782  0.16660843  1
  I  I76  1  0.83326428  0.33320687  0.49780757  1
  I  I77  1  0.83636989  0.33347627  0.83554210  1
  I  I78  1  0.82853038  0.66427811  0.16713869  1
  I  I79  1  0.83356012  0.67151849  0.50365241  1
  I  I80  1  0.83913299  0.67073050  0.82913880  1
  I  I81  1  0.17117317  0.16217091  -0.00366384  1
  I  I82  1  0.17151752  0.16228124  0.33685665  1
  I  I83  1  0.17321770  0.15629516  0.66672961  1
  I  I84  1  0.16579338  0.50151739  -0.00021350  1
  I  I85  1  0.16907339  0.50149896  0.33330125  1
  I  I86  1  0.16907028  0.50712807  0.66691316  1
  I  I87  1  0.16146588  0.83581625  -0.00151121  1
  I  I88  1  0.16642011  0.83523642  0.33504042  1
  I  I89  1  0.16585508  0.83681073  0.66637898  1
  I  I90  1  0.49534987  0.16860205  -0.00323566  1
  I  I91  1  0.49525727  0.16330873  0.33689907  1
  I  I92  1  0.49533104  0.16815445  0.66676030  1
  I  I93  1  0.50312948  0.49601179  -0.00063109  1
  I  I94  1  0.50398620  0.50215322  0.33097899  1
  I  I95  1  0.49814690  0.50012270  0.66931173  1
  I  I96  1  0.50002742  0.83463955  0.00003404  1
  I  I97  1  0.50069752  0.83734288  0.33803234  1
  I  I98  1  0.49650849  0.83118028  0.66367704  1
  I  I99  1  0.83333656  0.16226846  -0.00038403  1
  I  I100  1  0.83323334  0.16387663  0.33364466  1
  I  I101  1  0.83235732  0.17005866  0.66670930  1
  I  I102  1  0.83146749  0.50360664  0.00273141  1
  I  I103  1  0.82562595  0.50206258  0.33008502  1
  I  I104  1  0.83243256  0.49932456  0.66697668  1
  I  I105  1  0.83821523  0.83192967  -0.00264144  1
  I  I106  1  0.83455994  0.83176906  0.33621099  1
  I  I107  1  0.83826816  0.83290387  0.66615838  1
  I  I108  1  0.00047229  0.16909360  0.16737388  1
  I  I109  1  0.00367108  0.16178636  0.50349418  1
  I  I110  1  0.00347020  0.16344316  0.82901898  1
  I  I111  1  -0.00239737  0.50268423  0.16819361  1
  I  I112  1  -0.00010967  0.50020665  0.49674974  1
  I  I113  1  -0.00023486  0.49815000  0.83577651  1
  I  I114  1  0.00313712  0.83050138  0.17101979  1
  I  I115  1  0.00123125  0.83609660  0.49968758  1
  I  I116  1  0.00161201  0.83736342  0.82927109  1
  I  I117  1  0.33336794  0.16954768  0.16701652  1
  I  I118  1  0.33336644  0.15790487  0.50387824  1
  I  I119  1  0.33319101  0.16439392  0.82966402  1
  I  I120  1  0.33629066  0.50107155  0.16347018  1
  I  I121  1  0.33354768  0.50736424  0.49645431  1
  I  I122  1  0.33685512  0.50204348  0.83971445  1
  I  I123  1  0.32972422  0.83103719  0.16493044  1
  I  I124  1  0.33259630  0.83579752  0.49984287  1
  I  I125  1  0.33045983  0.83313988  0.83275384  1
  I  I126  1  0.66633332  0.16250738  0.16655357  1
  I  I127  1  0.66332643  0.16320687  0.50398971  1
  I  I128  1  0.66321499  0.17025754  0.82840826  1
  I  I129  1  0.66575509  0.50245691  0.16289509  1
  I  I130  1  0.66639803  0.50126766  0.50121270  1
  I  I131  1  0.66270722  0.49562328  0.83425857  1
  I  I132  1  0.66646040  0.83338563  0.16657369  1
  I  I133  1  0.66643721  0.83574028  0.50555197  1
  I  I134  1  0.66862583  0.83172213  0.82791301  1
