# generated using pymatgen
data_Cs27Sn13Pb14I81
_symmetry_space_group_name_H-M   'P 1'
_cell_length_a   18.97785983
_cell_length_b   18.98259520
_cell_length_c   18.97164482
_cell_angle_alpha   89.99853961
_cell_angle_beta   90.00013328
_cell_angle_gamma   89.99991786
_symmetry_Int_Tables_number   1
_chemical_formula_structural   Cs27Sn13Pb14I81
_chemical_formula_sum   'Cs27 Sn13 Pb14 I81'
_cell_volume   6834.51666030
_cell_formula_units_Z   1
loop_
 _symmetry_equiv_pos_site_id
 _symmetry_equiv_pos_as_xyz
  1  'x, y, z'
loop_
 _atom_site_type_symbol
 _atom_site_label
 _atom_site_symmetry_multiplicity
 _atom_site_fract_x
 _atom_site_fract_y
 _atom_site_fract_z
 _atom_site_occupancy
  Cs  Cs0  1  -0.00126791  0.00057577  -0.00085727  1
  Cs  Cs1  1  0.00035338  -0.00134479  0.33323276  1
  Cs  Cs2  1  0.00147826  -0.00061184  0.66852493  1
  Cs  Cs3  1  0.00056124  0.33282999  0.00085366  1
  Cs  Cs4  1  0.00262722  0.33180305  0.33172142  1
  Cs  Cs5  1  0.00027666  0.33312759  0.66728157  1
  Cs  Cs6  1  -0.00139174  0.66641700  -0.00064755  1
  Cs  Cs7  1  -0.00171347  0.66883731  0.33547611  1
  Cs  Cs8  1  -0.00042263  0.66765866  0.66571659  1
  Cs  Cs9  1  0.33434023  0.00010417  -0.00039530  1
  Cs  Cs10  1  0.33270515  -0.00026412  0.33483222  1
  Cs  Cs11  1  0.33223572  -0.00007122  0.66654513  1
  Cs  Cs12  1  0.33084974  0.33438306  -0.00002379  1
  Cs  Cs13  1  0.33091241  0.33197904  0.33253692  1
  Cs  Cs14  1  0.33265001  0.33426692  0.66743883  1
  Cs  Cs15  1  0.33414518  0.66475369  -0.00170566  1
  Cs  Cs16  1  0.33171053  0.66946323  0.33220577  1
  Cs  Cs17  1  0.34016834  0.66589329  0.66904358  1
  Cs  Cs18  1  0.66735349  -0.00145936  -0.00041724  1
  Cs  Cs19  1  0.66592655  0.00276008  0.33693884  1
  Cs  Cs20  1  0.66402217  0.00329892  0.66030362  1
  Cs  Cs21  1  0.66874543  0.33225103  0.00048253  1
  Cs  Cs22  1  0.66658887  0.33461510  0.33944302  1
  Cs  Cs23  1  0.66772613  0.33248063  0.65637620  1
  Cs  Cs24  1  0.66731654  0.66773373  0.00091666  1
  Cs  Cs25  1  0.66995245  0.66347950  0.33160878  1
  Cs  Cs26  1  0.66069596  0.66403169  0.66248246  1
  Sn  Sn27  1  0.50032965  0.83339225  0.16617357  1
  Sn  Sn28  1  0.50006978  0.16682693  0.16557428  1
  Sn  Sn29  1  0.16672511  0.49979109  0.50023657  1
  Sn  Sn30  1  0.16631098  0.83372416  0.83444796  1
  Sn  Sn31  1  0.49961132  0.16695361  0.83416845  1
  Sn  Sn32  1  0.16645361  0.83337740  0.16534541  1
  Sn  Sn33  1  0.16666844  0.16749383  0.50094538  1
  Sn  Sn34  1  0.83278208  0.50041911  0.16552774  1
  Sn  Sn35  1  0.83326306  0.83282262  0.16571827  1
  Sn  Sn36  1  0.83311060  0.50077040  0.83381279  1
  Sn  Sn37  1  0.50048277  0.49981850  0.16614499  1
  Sn  Sn38  1  0.16746333  0.16615919  0.83303167  1
  Sn  Sn39  1  0.83352376  0.83241643  0.83367883  1
  Pb  Pb40  1  0.83316915  0.16635150  0.83334956  1
  Pb  Pb41  1  0.83327942  0.83321529  0.50055203  1
  Pb  Pb42  1  0.16488570  0.50042040  0.83178549  1
  Pb  Pb43  1  0.50056481  0.83505191  0.83501603  1
  Pb  Pb44  1  0.49745665  0.16672688  0.50007523  1
  Pb  Pb45  1  0.83552137  0.50016745  0.49973865  1
  Pb  Pb46  1  0.16617999  0.50251852  0.16808784  1
  Pb  Pb47  1  0.83063185  0.16652480  0.16673313  1
  Pb  Pb48  1  0.50293036  0.49717006  0.83544762  1
  Pb  Pb49  1  0.16855198  0.16428982  0.16604966  1
  Pb  Pb50  1  0.50005588  0.83320096  0.49691350  1
  Pb  Pb51  1  0.83678784  0.16650927  0.49997539  1
  Pb  Pb52  1  0.16668871  0.83331745  0.50099326  1
  Pb  Pb53  1  0.49722165  0.50005982  0.49700237  1
  I  I54  1  0.16565145  -0.00382306  0.16792484  1
  I  I55  1  0.16781123  0.00256902  0.50086433  1
  I  I56  1  0.16460918  -0.00022729  0.83162437  1
  I  I57  1  0.16702816  0.33329242  0.16590175  1
  I  I58  1  0.16684542  0.33231672  0.50440609  1
  I  I59  1  0.16875490  0.33069228  0.83072544  1
  I  I60  1  0.17113314  0.67053842  0.16333170  1
  I  I61  1  0.16506507  0.66454400  0.49719993  1
  I  I62  1  0.16421212  0.66978583  0.83619923  1
  I  I63  1  0.49905946  -0.00040022  0.16277146  1
  I  I64  1  0.49787106  0.00028872  0.49738262  1
  I  I65  1  0.49956891  0.00294811  0.83988904  1
  I  I66  1  0.50377043  0.33337140  0.16298404  1
  I  I67  1  0.50108240  0.33329591  0.49713221  1
  I  I68  1  0.49376888  0.32951593  0.84019464  1
  I  I69  1  0.50057126  0.66711555  0.16815011  1
  I  I70  1  0.49593665  0.66640132  0.50060062  1
  I  I71  1  0.49637939  0.66657613  0.83423348  1
  I  I72  1  0.83375491  -0.00365072  0.16209639  1
  I  I73  1  0.83477616  -0.00018047  0.49887331  1
  I  I74  1  0.83573422  -0.00330040  0.83951123  1
  I  I75  1  0.82985750  0.33668653  0.16279350  1
  I  I76  1  0.83225064  0.33356785  0.50007535  1
  I  I77  1  0.83408573  0.33604423  0.83857852  1
  I  I78  1  0.82899828  0.66725795  0.16344658  1
  I  I79  1  0.83815052  0.66656728  0.49905070  1
  I  I80  1  0.84059872  0.66764396  0.83901388  1
  I  I81  1  0.16878190  0.16395163  -0.00296353  1
  I  I82  1  0.16806014  0.16889320  0.33513689  1
  I  I83  1  0.17195595  0.16426675  0.66810772  1
  I  I84  1  0.16805081  0.49748093  0.00007979  1
  I  I85  1  0.16606181  0.49447589  0.33581059  1
  I  I86  1  0.16356294  0.49962530  0.66404683  1
  I  I87  1  0.16572152  0.83862903  -0.00019120  1
  I  I88  1  0.16684204  0.83326180  0.33038375  1
  I  I89  1  0.16077762  0.83538107  0.67037323  1
  I  I90  1  0.49354496  0.16590651  0.00067064  1
  I  I91  1  0.49943031  0.16543991  0.33001812  1
  I  I92  1  0.49852005  0.16554028  0.66972348  1
  I  I93  1  0.49935219  0.50263403  0.00385012  1
  I  I94  1  0.50708819  0.49826200  0.32846794  1
  I  I95  1  0.50143681  0.49830682  0.66690112  1
  I  I96  1  0.49945210  0.83216758  0.00373035  1
  I  I97  1  0.49863623  0.83661979  0.32751762  1
  I  I98  1  0.49907370  0.83567318  0.66720884  1
  I  I99  1  0.83825573  0.16778705  0.00002948  1
  I  I100  1  0.83307114  0.16637008  0.33298712  1
  I  I101  1  0.82780832  0.16693908  0.66708387  1
  I  I102  1  0.83107889  0.50440555  0.00099035  1
  I  I103  1  0.82971610  0.50485898  0.32970052  1
  I  I104  1  0.83643602  0.50376739  0.66966851  1
  I  I105  1  0.83476177  0.82934750  0.00089442  1
  I  I106  1  0.83426689  0.82898232  0.32927756  1
  I  I107  1  0.84105997  0.83013564  0.67078158  1
  I  I108  1  0.00021563  0.16691116  0.16737684  1
  I  I109  1  0.00491215  0.16997451  0.50567234  1
  I  I110  1  0.00305280  0.16497694  0.82862061  1
  I  I111  1  -0.00301951  0.50463512  0.16505865  1
  I  I112  1  0.00307329  0.49526834  0.49715913  1
  I  I113  1  -0.00297343  0.49907552  0.84006897  1
  I  I114  1  -0.00035362  0.82875892  0.16383060  1
  I  I115  1  0.00026024  0.83447687  0.49373499  1
  I  I116  1  0.00059378  0.83573891  0.84097481  1
  I  I117  1  0.33665694  0.16697932  0.16603968  1
  I  I118  1  0.32974568  0.16986383  0.50073189  1
  I  I119  1  0.33222064  0.16108946  0.83348665  1
  I  I120  1  0.33585809  0.50105159  0.16971591  1
  I  I121  1  0.32961617  0.49617430  0.49930779  1
  I  I122  1  0.33350091  0.50180871  0.83322678  1
  I  I123  1  0.33332624  0.83362220  0.16422424  1
  I  I124  1  0.33292769  0.83302538  0.49833319  1
  I  I125  1  0.33059836  0.83640262  0.83714366  1
  I  I126  1  0.66242479  0.16203537  0.15991089  1
  I  I127  1  0.66625883  0.16616384  0.50072793  1
  I  I128  1  0.66389448  0.16605939  0.84007732  1
  I  I129  1  0.66688697  0.50498696  0.16301619  1
  I  I130  1  0.66668559  0.50004946  0.50126932  1
  I  I131  1  0.67071495  0.50621189  0.83576311  1
  I  I132  1  0.66707257  0.83258421  0.16244615  1
  I  I133  1  0.66674060  0.83383214  0.50132336  1
  I  I134  1  0.66971352  0.83121451  0.83907748  1
