# generated using pymatgen
data_Cs27Sn13Pb14I81
_symmetry_space_group_name_H-M   'P 1'
_cell_length_a   18.97225892
_cell_length_b   18.98100406
_cell_length_c   18.97625229
_cell_angle_alpha   90.00036951
_cell_angle_beta   89.99798372
_cell_angle_gamma   89.99991635
_symmetry_Int_Tables_number   1
_chemical_formula_structural   Cs27Sn13Pb14I81
_chemical_formula_sum   'Cs27 Sn13 Pb14 I81'
_cell_volume   6833.58609241
_cell_formula_units_Z   1
loop_
 _symmetry_equiv_pos_site_id
 _symmetry_equiv_pos_as_xyz
  1  'x, y, z'
loop_
 _atom_site_type_symbol
 _atom_site_label
 _atom_site_symmetry_multiplicity
 _atom_site_fract_x
 _atom_site_fract_y
 _atom_site_fract_z
 _atom_site_occupancy
  Cs  Cs0  1  -0.00135024  0.00101929  -0.00028521  1
  Cs  Cs1  1  -0.00050140  0.00030638  0.33366577  1
  Cs  Cs2  1  0.00320122  -0.00311875  0.66654600  1
  Cs  Cs3  1  0.00310368  0.33358909  0.00081374  1
  Cs  Cs4  1  -0.00051363  0.33215184  0.33078925  1
  Cs  Cs5  1  -0.00352564  0.33639045  0.66850491  1
  Cs  Cs6  1  0.00345270  0.66502647  -0.00401587  1
  Cs  Cs7  1  -0.00107294  0.66669346  0.33188424  1
  Cs  Cs8  1  0.00185784  0.66671352  0.67521230  1
  Cs  Cs9  1  0.33715264  0.00248301  0.00300137  1
  Cs  Cs10  1  0.33335470  0.00138911  0.33431436  1
  Cs  Cs11  1  0.32928297  0.00066520  0.66267103  1
  Cs  Cs12  1  0.33100669  0.33488665  -0.00012918  1
  Cs  Cs13  1  0.33296018  0.33290699  0.33854938  1
  Cs  Cs14  1  0.33684925  0.32949389  0.65948450  1
  Cs  Cs15  1  0.33440389  0.66385507  -0.00066189  1
  Cs  Cs16  1  0.33290711  0.66652435  0.33245842  1
  Cs  Cs17  1  0.33322956  0.66898929  0.66803016  1
  Cs  Cs18  1  0.66515862  0.00205979  -0.00024115  1
  Cs  Cs19  1  0.66932148  -0.00326275  0.32987261  1
  Cs  Cs20  1  0.66774161  -0.00031952  0.67116409  1
  Cs  Cs21  1  0.66567159  0.32989142  -0.00212396  1
  Cs  Cs22  1  0.66778679  0.33557938  0.33622092  1
  Cs  Cs23  1  0.66583596  0.33551965  0.66686673  1
  Cs  Cs24  1  0.66364833  0.66823161  0.00048930  1
  Cs  Cs25  1  0.66695802  0.66764068  0.33450005  1
  Cs  Cs26  1  0.66640298  0.66451579  0.66515098  1
  Sn  Sn27  1  0.50066955  0.83353212  0.50073994  1
  Sn  Sn28  1  0.16662983  0.16651961  0.83390370  1
  Sn  Sn29  1  0.83435254  0.83312280  0.16697637  1
  Sn  Sn30  1  0.83398407  0.16660729  0.16738707  1
  Sn  Sn31  1  0.16613015  0.50049246  0.50000874  1
  Sn  Sn32  1  0.50008921  0.83300991  0.83236156  1
  Sn  Sn33  1  0.83278511  0.83400538  0.49968820  1
  Sn  Sn34  1  0.83334274  0.16582441  0.49944556  1
  Sn  Sn35  1  0.50001596  0.50031153  0.83393199  1
  Sn  Sn36  1  0.16591131  0.83402357  0.16670138  1
  Sn  Sn37  1  0.83243241  0.50014659  0.16642242  1
  Sn  Sn38  1  0.50078827  0.49973748  0.16627508  1
  Sn  Sn39  1  0.16606528  0.16564858  0.16601698  1
  Pb  Pb40  1  0.83512427  0.50073852  0.49823801  1
  Pb  Pb41  1  0.50021385  0.16965150  0.16695862  1
  Pb  Pb42  1  0.16402249  0.16820335  0.49935944  1
  Pb  Pb43  1  0.49763500  0.16664450  0.83325645  1
  Pb  Pb44  1  0.50338627  0.16346011  0.49974809  1
  Pb  Pb45  1  0.16943426  0.49774229  0.83061449  1
  Pb  Pb46  1  0.83545276  0.16653092  0.83340804  1
  Pb  Pb47  1  0.50017054  0.83176432  0.16679628  1
  Pb  Pb48  1  0.49860205  0.50213742  0.49989276  1
  Pb  Pb49  1  0.83089513  0.49998934  0.83645321  1
  Pb  Pb50  1  0.16933558  0.83528867  0.83634531  1
  Pb  Pb51  1  0.83134154  0.83329475  0.83360012  1
  Pb  Pb52  1  0.16657383  0.49968771  0.16762736  1
  Pb  Pb53  1  0.16583980  0.83173007  0.49800044  1
  I  I54  1  0.15992482  0.00034248  0.16424747  1
  I  I55  1  0.16905741  -0.00005971  0.50129333  1
  I  I56  1  0.16812655  0.00301034  0.83396719  1
  I  I57  1  0.16337165  0.33067156  0.16455733  1
  I  I58  1  0.16688247  0.33569843  0.49714785  1
  I  I59  1  0.16723208  0.33026722  0.84144185  1
  I  I60  1  0.16398342  0.66877140  0.17014539  1
  I  I61  1  0.16618975  0.66436504  0.49602478  1
  I  I62  1  0.16605951  0.66674022  0.83392712  1
  I  I63  1  0.50124447  -0.00013054  0.16575260  1
  I  I64  1  0.49863015  -0.00457408  0.50492661  1
  I  I65  1  0.49972618  -0.00298427  0.82993621  1
  I  I66  1  0.50305441  0.33767875  0.16062814  1
  I  I67  1  0.49955117  0.33347166  0.50068991  1
  I  I68  1  0.49893880  0.33620414  0.83873555  1
  I  I69  1  0.50301061  0.66394349  0.16594162  1
  I  I70  1  0.50622645  0.66986968  0.50004160  1
  I  I71  1  0.49977171  0.66672426  0.83437837  1
  I  I72  1  0.83818285  -0.00020552  0.17118610  1
  I  I73  1  0.83015200  -0.00072006  0.49112177  1
  I  I74  1  0.82961737  -0.00011862  0.83760610  1
  I  I75  1  0.83398625  0.33259820  0.17063801  1
  I  I76  1  0.83686724  0.33115576  0.49500428  1
  I  I77  1  0.83088320  0.33327173  0.83193854  1
  I  I78  1  0.83290709  0.66751035  0.17147841  1
  I  I79  1  0.82980932  0.66993719  0.49407244  1
  I  I80  1  0.83614706  0.66667467  0.83277744  1
  I  I81  1  0.16139979  0.16415889  0.00209641  1
  I  I82  1  0.16423649  0.16475079  0.33015013  1
  I  I83  1  0.16711297  0.16948973  0.66841878  1
  I  I84  1  0.16579308  0.50103431  0.00002572  1
  I  I85  1  0.16922011  0.49845380  0.33502361  1
  I  I86  1  0.16703662  0.49942956  0.66339924  1
  I  I87  1  0.16133216  0.83289451  0.00430898  1
  I  I88  1  0.16798923  0.83848833  0.32994544  1
  I  I89  1  0.16511515  0.83368967  0.66676343  1
  I  I90  1  0.50411675  0.16217512  0.00021568  1
  I  I91  1  0.49361897  0.16774114  0.33327561  1
  I  I92  1  0.49910508  0.17162836  0.66648848  1
  I  I93  1  0.50302439  0.50666429  0.00040005  1
  I  I94  1  0.50238272  0.50143446  0.33078577  1
  I  I95  1  0.49649004  0.50236718  0.66902439  1
  I  I96  1  0.49917397  0.83019497  -0.00182556  1
  I  I97  1  0.50155693  0.83134689  0.33536823  1
  I  I98  1  0.50521815  0.82704137  0.66636969  1
  I  I99  1  0.83481727  0.16588825  0.00375277  1
  I  I100  1  0.83904019  0.16594169  0.33168703  1
  I  I101  1  0.83462857  0.16166602  0.66358603  1
  I  I102  1  0.83382837  0.49998984  0.00507358  1
  I  I103  1  0.82773944  0.49991105  0.32972433  1
  I  I104  1  0.83363643  0.49894335  0.66651495  1
  I  I105  1  0.83537429  0.83425723  0.00382491  1
  I  I106  1  0.83037545  0.83421786  0.33247759  1
  I  I107  1  0.83088125  0.83835863  0.66340412  1
  I  I108  1  -0.00069065  0.16818541  0.16671714  1
  I  I109  1  -0.00362046  0.16053438  0.49730237  1
  I  I110  1  0.00320044  0.16681705  0.83606511  1
  I  I111  1  -0.00271913  0.49987546  0.17068674  1
  I  I112  1  0.00250560  0.50048079  0.49601096  1
  I  I113  1  0.00035112  0.49918675  0.83322304  1
  I  I114  1  -0.00132741  0.83213027  0.17285219  1
  I  I115  1  -0.00331577  0.83644096  0.49558419  1
  I  I116  1  0.00031207  0.83422606  0.83085184  1
  I  I117  1  0.33017312  0.16309739  0.16254934  1
  I  I118  1  0.33305870  0.16735198  0.49982574  1
  I  I119  1  0.32985998  0.16685967  0.84079997  1
  I  I120  1  0.33555818  0.50167198  0.16448260  1
  I  I121  1  0.33097140  0.50024294  0.49658377  1
  I  I122  1  0.33699656  0.50462965  0.84157419  1
  I  I123  1  0.33113318  0.83585703  0.16674543  1
  I  I124  1  0.33542120  0.82963566  0.50183638  1
  I  I125  1  0.33709388  0.82927986  0.82881994  1
  I  I126  1  0.67034658  0.16342459  0.17037721  1
  I  I127  1  0.67131678  0.16792790  0.49281424  1
  I  I128  1  0.66660918  0.16698825  0.83394835  1
  I  I129  1  0.66738965  0.50100125  0.16438088  1
  I  I130  1  0.66686517  0.49813056  0.50100502  1
  I  I131  1  0.66276311  0.50295698  0.83319987  1
  I  I132  1  0.66962751  0.83528235  0.16766351  1
  I  I133  1  0.66755150  0.83562040  0.49668107  1
  I  I134  1  0.66324289  0.83022682  0.83464308  1
