# generated using pymatgen
data_Cs27Sn13Pb14I81
_symmetry_space_group_name_H-M   'P 1'
_cell_length_a   18.97640022
_cell_length_b   18.98123684
_cell_length_c   18.97254490
_cell_angle_alpha   90.00034753
_cell_angle_beta   90.00068109
_cell_angle_gamma   90.00041280
_symmetry_Int_Tables_number   1
_chemical_formula_structural   Cs27Sn13Pb14I81
_chemical_formula_sum   'Cs27 Sn13 Pb14 I81'
_cell_volume   6833.82618703
_cell_formula_units_Z   1
loop_
 _symmetry_equiv_pos_site_id
 _symmetry_equiv_pos_as_xyz
  1  'x, y, z'
loop_
 _atom_site_type_symbol
 _atom_site_label
 _atom_site_symmetry_multiplicity
 _atom_site_fract_x
 _atom_site_fract_y
 _atom_site_fract_z
 _atom_site_occupancy
  Cs  Cs0  1  -0.00631220  -0.00484228  0.00690404  1
  Cs  Cs1  1  -0.00333147  0.00033227  0.32586970  1
  Cs  Cs2  1  -0.00273700  -0.00374700  0.66778129  1
  Cs  Cs3  1  -0.00152952  0.33015864  0.00060213  1
  Cs  Cs4  1  0.00164638  0.33403295  0.33241927  1
  Cs  Cs5  1  0.00054988  0.33417177  0.66705283  1
  Cs  Cs6  1  0.00543047  0.67526721  0.00136581  1
  Cs  Cs7  1  -0.00101158  0.66593955  0.33438854  1
  Cs  Cs8  1  0.00027728  0.66720783  0.66490083  1
  Cs  Cs9  1  0.33319981  -0.00292991  -0.00266841  1
  Cs  Cs10  1  0.33545479  0.00410290  0.33553277  1
  Cs  Cs11  1  0.33256260  0.00258772  0.66640546  1
  Cs  Cs12  1  0.33329183  0.33332286  -0.00026587  1
  Cs  Cs13  1  0.33278354  0.33238845  0.33420809  1
  Cs  Cs14  1  0.33224505  0.33123479  0.66576084  1
  Cs  Cs15  1  0.33255309  0.67048478  -0.00149588  1
  Cs  Cs16  1  0.33490274  0.66486000  0.33317157  1
  Cs  Cs17  1  0.33285690  0.66661144  0.66738833  1
  Cs  Cs18  1  0.67106587  0.00276757  0.00048776  1
  Cs  Cs19  1  0.66566701  -0.00233879  0.33325425  1
  Cs  Cs20  1  0.67026858  -0.00125781  0.66663290  1
  Cs  Cs21  1  0.66814280  0.33295458  -0.00221885  1
  Cs  Cs22  1  0.66498359  0.33533042  0.33501046  1
  Cs  Cs23  1  0.66848482  0.33475096  0.66742187  1
  Cs  Cs24  1  0.66356336  0.66412876  -0.00744269  1
  Cs  Cs25  1  0.66579547  0.66535454  0.33462035  1
  Cs  Cs26  1  0.66757463  0.66616399  0.67032010  1
  Sn  Sn27  1  0.50004157  0.83288034  0.16735559  1
  Sn  Sn28  1  0.49967908  0.16703716  0.16571572  1
  Sn  Sn29  1  0.49939264  0.16707078  0.83395400  1
  Sn  Sn30  1  0.16683873  0.16709838  0.83348661  1
  Sn  Sn31  1  0.49994549  0.50065585  0.49971318  1
  Sn  Sn32  1  0.83314233  0.49891310  0.49938490  1
  Sn  Sn33  1  0.16701935  0.50043476  0.50069372  1
  Sn  Sn34  1  0.83259702  0.50011472  0.16699854  1
  Sn  Sn35  1  0.50078214  0.50009404  0.16713556  1
  Sn  Sn36  1  0.49891975  0.83229494  0.49948826  1
  Sn  Sn37  1  0.16759944  0.83299093  0.49967508  1
  Sn  Sn38  1  0.16675172  0.49908416  0.83290721  1
  Sn  Sn39  1  0.83346575  0.16737348  0.49979413  1
  Pb  Pb40  1  0.83653843  0.50016487  0.83380950  1
  Pb  Pb41  1  0.16424748  0.16635641  0.50145193  1
  Pb  Pb42  1  0.83376921  0.16687719  0.83140441  1
  Pb  Pb43  1  0.83296211  0.83246759  0.49983841  1
  Pb  Pb44  1  0.50148379  0.16669958  0.50015693  1
  Pb  Pb45  1  0.83001456  0.82976938  0.16696218  1
  Pb  Pb46  1  0.16936103  0.83338528  0.16998349  1
  Pb  Pb47  1  0.16693519  0.49991185  0.16676347  1
  Pb  Pb48  1  0.50006695  0.83615311  0.83282563  1
  Pb  Pb49  1  0.83070989  0.16912437  0.16904047  1
  Pb  Pb50  1  0.16683967  0.83378920  0.83095472  1
  Pb  Pb51  1  0.49800719  0.49814670  0.83322348  1
  Pb  Pb52  1  0.16883581  0.16659674  0.16379715  1
  Pb  Pb53  1  0.83330780  0.83305083  0.83364829  1
  I  I54  1  0.16815446  -0.00005713  0.16750618  1
  I  I55  1  0.17181778  -0.00260071  0.50177568  1
  I  I56  1  0.17251489  0.00302862  0.83068142  1
  I  I57  1  0.17007626  0.33351607  0.17132494  1
  I  I58  1  0.16944203  0.33651116  0.50197432  1
  I  I59  1  0.17106857  0.33389506  0.82647602  1
  I  I60  1  0.16806221  0.66640969  0.16115450  1
  I  I61  1  0.16591010  0.66485522  0.50559215  1
  I  I62  1  0.16617814  0.66379279  0.83091282  1
  I  I63  1  0.49723964  -0.00010468  0.16804530  1
  I  I64  1  0.49726389  -0.00243941  0.49740178  1
  I  I65  1  0.49371419  0.00409239  0.83552245  1
  I  I66  1  0.50333223  0.33432166  0.16758420  1
  I  I67  1  0.49781533  0.33638009  0.49709063  1
  I  I68  1  0.49771597  0.33035462  0.83619102  1
  I  I69  1  0.50347863  0.66573096  0.17298573  1
  I  I70  1  0.50047754  0.66544082  0.49303711  1
  I  I71  1  0.49853234  0.66648491  0.83561880  1
  I  I72  1  0.83265120  -0.00000128  0.16773164  1
  I  I73  1  0.83200949  0.00210941  0.50279165  1
  I  I74  1  0.83434910  0.00050042  0.82941021  1
  I  I75  1  0.82732771  0.33689003  0.16936894  1
  I  I76  1  0.83217971  0.33554934  0.49740809  1
  I  I77  1  0.83152706  0.33356727  0.83346033  1
  I  I78  1  0.82960817  0.66200538  0.17524533  1
  I  I79  1  0.83378607  0.66285530  0.49622839  1
  I  I80  1  0.83337075  0.66594320  0.83011749  1
  I  I81  1  0.16851547  0.17506318  -0.00438543  1
  I  I82  1  0.16755078  0.16743029  0.33355399  1
  I  I83  1  0.17446916  0.16893693  0.66927066  1
  I  I84  1  0.16751869  0.49482227  -0.00275151  1
  I  I85  1  0.16679802  0.50390007  0.33685957  1
  I  I86  1  0.16733395  0.49978666  0.66481991  1
  I  I87  1  0.16758107  0.83191869  0.00005215  1
  I  I88  1  0.16797701  0.82560481  0.33795683  1
  I  I89  1  0.17348057  0.83121734  0.66283260  1
  I  I90  1  0.49603564  0.16759227  0.00071227  1
  I  I91  1  0.50273095  0.16683374  0.33099958  1
  I  I92  1  0.49748580  0.16725869  0.66874238  1
  I  I93  1  0.50331821  0.50188256  0.00304855  1
  I  I94  1  0.49885389  0.49848770  0.33403119  1
  I  I95  1  0.50232265  0.50284513  0.66332897  1
  I  I96  1  0.50114719  0.82959511  0.00313859  1
  I  I97  1  0.49610065  0.83445913  0.33399576  1
  I  I98  1  0.49675743  0.82951999  0.66300703  1
  I  I99  1  0.83430521  0.16797350  0.00035273  1
  I  I100  1  0.83231564  0.16897746  0.33683749  1
  I  I101  1  0.82994197  0.17319591  0.66342124  1
  I  I102  1  0.82689180  0.49980768  0.00317678  1
  I  I103  1  0.83362370  0.49610427  0.33493637  1
  I  I104  1  0.83036093  0.49689945  0.66317973  1
  I  I105  1  0.83250849  0.83274706  0.00076128  1
  I  I106  1  0.83618764  0.83670027  0.33356046  1
  I  I107  1  0.83069212  0.83266630  0.66584457  1
  I  I108  1  -0.00050897  0.16821260  0.16628953  1
  I  I109  1  -0.00321894  0.17169938  0.50280164  1
  I  I110  1  0.00310350  0.17207958  0.82852561  1
  I  I111  1  -0.00264244  0.49826175  0.17103954  1
  I  I112  1  0.00019890  0.49987945  0.50024230  1
  I  I113  1  0.00430390  0.49316596  0.82766186  1
  I  I114  1  -0.00022933  0.83286974  0.16628661  1
  I  I115  1  0.00267809  0.82976439  0.50369767  1
  I  I116  1  0.00058812  0.83459866  0.83052456  1
  I  I117  1  0.33773083  0.17061607  0.16840975  1
  I  I118  1  0.33348051  0.16859587  0.49888598  1
  I  I119  1  0.33369532  0.17072762  0.83540347  1
  I  I120  1  0.33708458  0.49979036  0.17032030  1
  I  I121  1  0.33386164  0.50416448  0.49956570  1
  I  I122  1  0.33028838  0.49765855  0.82846856  1
  I  I123  1  0.33772636  0.82909059  0.16763552  1
  I  I124  1  0.33431461  0.82572460  0.49684847  1
  I  I125  1  0.33352152  0.83191943  0.83515423  1
  I  I126  1  0.66242055  0.16455524  0.16065081  1
  I  I127  1  0.66903052  0.17141807  0.50136522  1
  I  I128  1  0.66383852  0.16617572  0.83651795  1
  I  I129  1  0.66512080  0.49967453  0.17552837  1
  I  I130  1  0.66592160  0.49959684  0.49516474  1
  I  I131  1  0.66651970  0.49855476  0.83074433  1
  I  I132  1  0.66198097  0.83665910  0.17537551  1
  I  I133  1  0.66317060  0.83124814  0.49597674  1
  I  I134  1  0.66597925  0.83446699  0.82942412  1
