# generated using pymatgen
data_Cs27Sn14Pb13I81
_symmetry_space_group_name_H-M   'P 1'
_cell_length_a   18.96908913
_cell_length_b   18.97520322
_cell_length_c   18.98112538
_cell_angle_alpha   90.00155867
_cell_angle_beta   90.00041026
_cell_angle_gamma   89.99810223
_symmetry_Int_Tables_number   1
_chemical_formula_structural   Cs27Sn14Pb13I81
_chemical_formula_sum   'Cs27 Sn14 Pb13 I81'
_cell_volume   6832.11032220
_cell_formula_units_Z   1
loop_
 _symmetry_equiv_pos_site_id
 _symmetry_equiv_pos_as_xyz
  1  'x, y, z'
loop_
 _atom_site_type_symbol
 _atom_site_label
 _atom_site_symmetry_multiplicity
 _atom_site_fract_x
 _atom_site_fract_y
 _atom_site_fract_z
 _atom_site_occupancy
  Cs  Cs0  1  0.00093472  -0.00350511  0.00309504  1
  Cs  Cs1  1  0.00050745  -0.00009969  0.33167257  1
  Cs  Cs2  1  0.00098722  -0.00129793  0.66516091  1
  Cs  Cs3  1  -0.00110839  0.33616711  0.00077598  1
  Cs  Cs4  1  0.00001643  0.33274405  0.33055753  1
  Cs  Cs5  1  -0.00250859  0.33360354  0.66777331  1
  Cs  Cs6  1  -0.00014504  0.66907397  -0.00055457  1
  Cs  Cs7  1  -0.00054332  0.66810676  0.33078885  1
  Cs  Cs8  1  0.00186157  0.66842662  0.66893588  1
  Cs  Cs9  1  0.33435714  0.00031017  -0.00015639  1
  Cs  Cs10  1  0.33166982  0.00360571  0.33198585  1
  Cs  Cs11  1  0.33237335  0.00074100  0.66873753  1
  Cs  Cs12  1  0.33203019  0.33283327  -0.00069453  1
  Cs  Cs13  1  0.33279274  0.33087404  0.33339132  1
  Cs  Cs14  1  0.33211119  0.33412105  0.66672469  1
  Cs  Cs15  1  0.33509423  0.66592229  -0.00012272  1
  Cs  Cs16  1  0.33957946  0.66272779  0.33258298  1
  Cs  Cs17  1  0.33226443  0.66457278  0.66785915  1
  Cs  Cs18  1  0.66429786  0.00021743  -0.00045633  1
  Cs  Cs19  1  0.66873514  -0.00103911  0.33313582  1
  Cs  Cs20  1  0.66775592  0.00032890  0.66696383  1
  Cs  Cs21  1  0.67279438  0.33324432  -0.00455744  1
  Cs  Cs22  1  0.66530735  0.33843577  0.33523335  1
  Cs  Cs23  1  0.67710035  0.33311660  0.66950665  1
  Cs  Cs24  1  0.66632950  0.66687455  0.00282255  1
  Cs  Cs25  1  0.65617560  0.65925994  0.34272131  1
  Cs  Cs26  1  0.66483172  0.66591417  0.65536231  1
  Sn  Sn27  1  0.16657040  0.83389776  0.16676121  1
  Sn  Sn28  1  0.16689286  0.83313486  0.49952476  1
  Sn  Sn29  1  0.49960808  0.49989153  0.83344834  1
  Sn  Sn30  1  0.16712478  0.16675708  0.50012424  1
  Sn  Sn31  1  0.50019958  0.16672587  0.16716564  1
  Sn  Sn32  1  0.49940193  0.16654915  0.49992745  1
  Sn  Sn33  1  0.83351807  0.83369972  0.16628655  1
  Sn  Sn34  1  0.16736063  0.50003556  0.83271251  1
  Sn  Sn35  1  0.83340252  0.16595361  0.16669510  1
  Sn  Sn36  1  0.16643688  0.83336583  0.83361132  1
  Sn  Sn37  1  0.16655199  0.16590583  0.16642009  1
  Sn  Sn38  1  0.16656019  0.49978993  0.50050601  1
  Sn  Sn39  1  0.16658841  0.16660493  0.83344916  1
  Sn  Sn40  1  0.83367132  0.83330616  0.83382539  1
  Pb  Pb41  1  0.49740269  0.49663199  0.50251244  1
  Pb  Pb42  1  0.83378666  0.16658260  0.49739421  1
  Pb  Pb43  1  0.50017746  0.83533839  0.16670335  1
  Pb  Pb44  1  0.49681687  0.83630638  0.50006537  1
  Pb  Pb45  1  0.83633229  0.16398539  0.83571111  1
  Pb  Pb46  1  0.49990952  0.49663360  0.16407591  1
  Pb  Pb47  1  0.83384805  0.50340207  0.83338523  1
  Pb  Pb48  1  0.49832562  0.16838148  0.83299784  1
  Pb  Pb49  1  0.16664266  0.50043940  0.16649483  1
  Pb  Pb50  1  0.83537354  0.83341041  0.49917221  1
  Pb  Pb51  1  0.83672157  0.49998434  0.49997515  1
  Pb  Pb52  1  0.83328254  0.50125663  0.16678795  1
  Pb  Pb53  1  0.50014422  0.83119852  0.83327256  1
  I  I54  1  0.16639672  0.00090365  0.16651931  1
  I  I55  1  0.16977159  0.00041596  0.50206489  1
  I  I56  1  0.16301667  -0.00010659  0.83145456  1
  I  I57  1  0.16648912  0.32980951  0.16667084  1
  I  I58  1  0.17073071  0.33231082  0.50234586  1
  I  I59  1  0.17187091  0.33304558  0.83140885  1
  I  I60  1  0.16048760  0.67026086  0.16628013  1
  I  I61  1  0.16386705  0.66716549  0.50399010  1
  I  I62  1  0.16636716  0.66724262  0.83046393  1
  I  I63  1  0.49755369  0.00374221  0.16840136  1
  I  I64  1  0.49321125  0.00414124  0.49693493  1
  I  I65  1  0.49855446  0.00029050  0.83362647  1
  I  I66  1  0.49660604  0.32840537  0.17130993  1
  I  I67  1  0.49148369  0.32931345  0.49410086  1
  I  I68  1  0.49132848  0.33602516  0.83426341  1
  I  I69  1  0.49968380  0.66651718  0.16570235  1
  I  I70  1  0.49981633  0.66619727  0.50051399  1
  I  I71  1  0.49171459  0.66351834  0.83369871  1
  I  I72  1  0.83607693  0.00009373  0.16299728  1
  I  I73  1  0.83526733  0.00001909  0.50302013  1
  I  I74  1  0.83946012  -0.00366593  0.83450550  1
  I  I75  1  0.83572229  0.33006887  0.16755920  1
  I  I76  1  0.83591232  0.33295047  0.49867219  1
  I  I77  1  0.83410881  0.33328240  0.83465189  1
  I  I78  1  0.84307830  0.67105297  0.16050897  1
  I  I79  1  0.83454080  0.66694931  0.49810340  1
  I  I80  1  0.84203973  0.67087394  0.84169117  1
  I  I81  1  0.16724390  0.16469903  0.00061723  1
  I  I82  1  0.16705568  0.16453882  0.33284492  1
  I  I83  1  0.17205986  0.16430325  0.66640839  1
  I  I84  1  0.16944356  0.49907180  -0.00329939  1
  I  I85  1  0.16596797  0.49918699  0.33624443  1
  I  I86  1  0.17047221  0.49999804  0.66742703  1
  I  I87  1  0.16306073  0.83612685  -0.00005498  1
  I  I88  1  0.16243544  0.83727506  0.33279405  1
  I  I89  1  0.16342618  0.83571487  0.66717537  1
  I  I90  1  0.49775521  0.16766868  0.00271461  1
  I  I91  1  0.49292872  0.16591194  0.33279889  1
  I  I92  1  0.49201200  0.16742789  0.66408246  1
  I  I93  1  0.49070055  0.49904112  -0.00342724  1
  I  I94  1  0.49958251  0.50161093  0.33374252  1
  I  I95  1  0.49530619  0.49917789  0.66984026  1
  I  I96  1  0.49443433  0.83555540  0.00000782  1
  I  I97  1  0.50027960  0.83024774  0.33336701  1
  I  I98  1  0.50059922  0.83624207  0.66666570  1
  I  I99  1  0.83256563  0.16580647  0.00376699  1
  I  I100  1  0.83941526  0.15942529  0.32929242  1
  I  I101  1  0.83263083  0.16621832  0.66686938  1
  I  I102  1  0.83612555  0.49652087  -0.00015592  1
  I  I103  1  0.83496245  0.50119503  0.33331144  1
  I  I104  1  0.83125350  0.50048152  0.66704801  1
  I  I105  1  0.84388218  0.83741861  0.00053623  1
  I  I106  1  0.84046808  0.83981671  0.32958417  1
  I  I107  1  0.83916006  0.83183838  0.66922452  1
  I  I108  1  0.00158212  0.16289096  0.16675839  1
  I  I109  1  0.00425597  0.16630495  0.50008508  1
  I  I110  1  0.00501426  0.17221596  0.83093745  1
  I  I111  1  0.00039129  0.49393067  0.16569006  1
  I  I112  1  0.00538623  0.49643908  0.50709819  1
  I  I113  1  0.00383086  0.49781971  0.82930086  1
  I  I114  1  0.00171244  0.84160909  0.16553979  1
  I  I115  1  0.00460333  0.83702442  0.50070213  1
  I  I116  1  0.00273053  0.83182970  0.83422301  1
  I  I117  1  0.33153621  0.16332140  0.16740036  1
  I  I118  1  0.33073211  0.16634323  0.49456839  1
  I  I119  1  0.32919697  0.16189002  0.83753801  1
  I  I120  1  0.33297048  0.50089628  0.16767835  1
  I  I121  1  0.32917322  0.50251997  0.50211566  1
  I  I122  1  0.33035195  0.50162222  0.83000510  1
  I  I123  1  0.32972040  0.83757678  0.16541866  1
  I  I124  1  0.32798522  0.83128220  0.50082251  1
  I  I125  1  0.32922826  0.83543578  0.83392695  1
  I  I126  1  0.66679564  0.16230029  0.17110357  1
  I  I127  1  0.66380410  0.16734573  0.49554112  1
  I  I128  1  0.66698696  0.16806010  0.83318609  1
  I  I129  1  0.66649837  0.49983797  0.16378919  1
  I  I130  1  0.66605204  0.49898853  0.50139197  1
  I  I131  1  0.66433502  0.49859808  0.83581171  1
  I  I132  1  0.67010308  0.83929558  0.15845011  1
  I  I133  1  0.66652258  0.83416432  0.50096553  1
  I  I134  1  0.66986277  0.83266490  0.84081386  1
