# generated using pymatgen
data_Cs27Sn14Pb13I81
_symmetry_space_group_name_H-M   'P 1'
_cell_length_a   18.95973250
_cell_length_b   18.95786547
_cell_length_c   18.96368555
_cell_angle_alpha   90.00019131
_cell_angle_beta   89.99930100
_cell_angle_gamma   89.99721520
_symmetry_Int_Tables_number   1
_chemical_formula_structural   Cs27Sn14Pb13I81
_chemical_formula_sum   'Cs27 Sn14 Pb13 I81'
_cell_volume   6816.23236907
_cell_formula_units_Z   1
loop_
 _symmetry_equiv_pos_site_id
 _symmetry_equiv_pos_as_xyz
  1  'x, y, z'
loop_
 _atom_site_type_symbol
 _atom_site_label
 _atom_site_symmetry_multiplicity
 _atom_site_fract_x
 _atom_site_fract_y
 _atom_site_fract_z
 _atom_site_occupancy
  Cs  Cs0  1  0.00055523  0.00055128  0.00233191  1
  Cs  Cs1  1  0.00502001  0.00311607  0.33370325  1
  Cs  Cs2  1  -0.00240635  0.00147955  0.66468257  1
  Cs  Cs3  1  0.00014626  0.33264192  -0.00221089  1
  Cs  Cs4  1  -0.00015292  0.33116528  0.33637718  1
  Cs  Cs5  1  -0.00126935  0.33159428  0.66603529  1
  Cs  Cs6  1  0.00069181  0.66961854  -0.00046793  1
  Cs  Cs7  1  -0.00338810  0.66600295  0.33329694  1
  Cs  Cs8  1  0.00164955  0.66714174  0.66754906  1
  Cs  Cs9  1  0.33150084  -0.00622875  -0.00077500  1
  Cs  Cs10  1  0.33038014  -0.00043251  0.33163646  1
  Cs  Cs11  1  0.33848483  -0.00265769  0.66835777  1
  Cs  Cs12  1  0.33543313  0.33436350  0.00132358  1
  Cs  Cs13  1  0.33337213  0.33343300  0.33258537  1
  Cs  Cs14  1  0.33491800  0.33561532  0.66669591  1
  Cs  Cs15  1  0.32851081  0.66816365  -0.00152146  1
  Cs  Cs16  1  0.33620370  0.66476459  0.33658858  1
  Cs  Cs17  1  0.33015577  0.66674989  0.66509724  1
  Cs  Cs18  1  0.66621327  0.00238234  -0.00219196  1
  Cs  Cs19  1  0.66427030  -0.00217958  0.33180782  1
  Cs  Cs20  1  0.66619355  -0.00097598  0.66856831  1
  Cs  Cs21  1  0.66537851  0.33204476  -0.00018275  1
  Cs  Cs22  1  0.66673449  0.33487222  0.33298569  1
  Cs  Cs23  1  0.66669657  0.33275845  0.66686559  1
  Cs  Cs24  1  0.66956625  0.66607469  0.00483980  1
  Cs  Cs25  1  0.66739885  0.66645527  0.33042586  1
  Cs  Cs26  1  0.66709950  0.66734286  0.66513032  1
  Sn  Sn27  1  0.83320991  0.83332158  0.83270573  1
  Sn  Sn28  1  0.50081072  0.50012255  0.83346210  1
  Sn  Sn29  1  0.83259459  0.50009272  0.83317656  1
  Sn  Sn30  1  0.49958659  0.49913228  0.49999895  1
  Sn  Sn31  1  0.16696439  0.50036177  0.49902722  1
  Sn  Sn32  1  0.50006284  0.16733751  0.49911583  1
  Sn  Sn33  1  0.49912864  0.49926904  0.16663010  1
  Sn  Sn34  1  0.16703541  0.49964375  0.16757308  1
  Sn  Sn35  1  0.83412253  0.83335378  0.50031481  1
  Sn  Sn36  1  0.16652112  0.16678780  0.83323052  1
  Sn  Sn37  1  0.83420844  0.16667969  0.83401285  1
  Sn  Sn38  1  0.83281183  0.16702240  0.16634526  1
  Sn  Sn39  1  0.16569508  0.83270197  0.50005311  1
  Sn  Sn40  1  0.50064266  0.16716971  0.16744316  1
  Pb  Pb41  1  0.50257751  0.82966547  0.83355964  1
  Pb  Pb42  1  0.16659026  0.49878307  0.83303522  1
  Pb  Pb43  1  0.49986222  0.83312285  0.16647855  1
  Pb  Pb44  1  0.83093274  0.16450402  0.50000461  1
  Pb  Pb45  1  0.50019844  0.16815890  0.83373038  1
  Pb  Pb46  1  0.16434144  0.83608444  0.83108022  1
  Pb  Pb47  1  0.16727476  0.16868455  0.16472713  1
  Pb  Pb48  1  0.83352237  0.49789228  0.16451876  1
  Pb  Pb49  1  0.16657760  0.83016986  0.16947089  1
  Pb  Pb50  1  0.16930661  0.16695994  0.50202570  1
  Pb  Pb51  1  0.50006731  0.83299514  0.49991272  1
  Pb  Pb52  1  0.83342806  0.83644428  0.16680084  1
  Pb  Pb53  1  0.83325190  0.50165081  0.50198456  1
  I  I54  1  0.16668876  0.00024608  0.16664798  1
  I  I55  1  0.16371969  -0.00215404  0.50317574  1
  I  I56  1  0.16291459  0.00383003  0.83275688  1
  I  I57  1  0.16847830  0.33672457  0.17242983  1
  I  I58  1  0.16952960  0.33637103  0.49804574  1
  I  I59  1  0.16047083  0.33114593  0.83126607  1
  I  I60  1  0.17277041  0.66194417  0.16527939  1
  I  I61  1  0.16916546  0.66532594  0.49793189  1
  I  I62  1  0.16619413  0.66664302  0.83481988  1
  I  I63  1  0.50470788  0.00375137  0.17132246  1
  I  I64  1  0.50054439  0.00272904  0.49635697  1
  I  I65  1  0.50011403  0.00011805  0.83233045  1
  I  I66  1  0.50055859  0.33407379  0.16743111  1
  I  I67  1  0.49549342  0.33478691  0.49987564  1
  I  I68  1  0.50504405  0.33646265  0.83256536  1
  I  I69  1  0.49718186  0.66242887  0.16805436  1
  I  I70  1  0.49911286  0.66307082  0.49985563  1
  I  I71  1  0.50315883  0.66123506  0.83206521  1
  I  I72  1  0.82738069  0.00441296  0.16109264  1
  I  I73  1  0.83753715  -0.00328556  0.50571130  1
  I  I74  1  0.83807364  0.00072910  0.83288192  1
  I  I75  1  0.83123803  0.32995947  0.16113673  1
  I  I76  1  0.83538411  0.33323366  0.50177401  1
  I  I77  1  0.83309686  0.33292365  0.83732379  1
  I  I78  1  0.83262670  0.66639402  0.16512067  1
  I  I79  1  0.83274624  0.66960827  0.50563621  1
  I  I80  1  0.82814123  0.66632856  0.82856059  1
  I  I81  1  0.16580745  0.16992256  -0.00306109  1
  I  I82  1  0.16411576  0.16509309  0.33344891  1
  I  I83  1  0.16095318  0.16934251  0.66961294  1
  I  I84  1  0.17016926  0.49619525  0.00195441  1
  I  I85  1  0.17434683  0.50266303  0.33415214  1
  I  I86  1  0.17015569  0.50243126  0.66394845  1
  I  I87  1  0.16580503  0.83255405  -0.00019632  1
  I  I88  1  0.16036381  0.83415295  0.33760335  1
  I  I89  1  0.16566206  0.82590606  0.66325638  1
  I  I90  1  0.50216880  0.17238753  0.00259780  1
  I  I91  1  0.50509028  0.17416921  0.33277280  1
  I  I92  1  0.49954799  0.17105512  0.66472292  1
  I  I93  1  0.50036944  0.49512992  0.00061666  1
  I  I94  1  0.49494870  0.49616905  0.33354225  1
  I  I95  1  0.49993248  0.49578675  0.66592007  1
  I  I96  1  0.50199034  0.83479925  -0.00016676  1
  I  I97  1  0.50341611  0.83021470  0.33356521  1
  I  I98  1  0.49912258  0.83498556  0.66660417  1
  I  I99  1  0.83091372  0.16565552  -0.00117183  1
  I  I100  1  0.83068000  0.16587333  0.33097505  1
  I  I101  1  0.83506969  0.16810640  0.66957733  1
  I  I102  1  0.82996492  0.50324650  -0.00378365  1
  I  I103  1  0.83149517  0.50064805  0.33332047  1
  I  I104  1  0.82982221  0.49527417  0.67028535  1
  I  I105  1  0.83192875  0.83137516  -0.00320312  1
  I  I106  1  0.83606114  0.83356160  0.33629407  1
  I  I107  1  0.83651704  0.83490200  0.66738324  1
  I  I108  1  -0.00222665  0.16766857  0.16293782  1
  I  I109  1  -0.00001337  0.16839404  0.49872548  1
  I  I110  1  -0.00208317  0.16942389  0.83751387  1
  I  I111  1  0.00246166  0.49865041  0.16977608  1
  I  I112  1  0.00267427  0.50245312  0.49754492  1
  I  I113  1  -0.00271214  0.50055804  0.83324257  1
  I  I114  1  -0.00009906  0.83264568  0.16500792  1
  I  I115  1  0.00010179  0.82800864  0.50456983  1
  I  I116  1  -0.00393219  0.82773751  0.83133079  1
  I  I117  1  0.33648055  0.17010703  0.16922498  1
  I  I118  1  0.33713459  0.16700286  0.49634530  1
  I  I119  1  0.33164716  0.17060909  0.83203766  1
  I  I120  1  0.33476087  0.49417447  0.16554750  1
  I  I121  1  0.33391727  0.50202355  0.50177041  1
  I  I122  1  0.33589465  0.49578520  0.83309144  1
  I  I123  1  0.33315045  0.83884156  0.16777824  1
  I  I124  1  0.33079504  0.83136138  0.49942661  1
  I  I125  1  0.33310894  0.83481511  0.83182854  1
  I  I126  1  0.66601335  0.17194014  0.16445196  1
  I  I127  1  0.66311894  0.17214996  0.50121524  1
  I  I128  1  0.66947915  0.16547595  0.83416427  1
  I  I129  1  0.66372278  0.49803991  0.16885447  1
  I  I130  1  0.66366891  0.49777533  0.49831298  1
  I  I131  1  0.66654886  0.49764982  0.83269599  1
  I  I132  1  0.66689830  0.82866206  0.16951799  1
  I  I133  1  0.66933403  0.83403133  0.50498512  1
  I  I134  1  0.67098152  0.83940754  0.82612934  1
