# generated using pymatgen
data_Cs27Sn13Pb14I81
_symmetry_space_group_name_H-M   'P 1'
_cell_length_a   18.98161919
_cell_length_b   18.97180910
_cell_length_c   18.97698613
_cell_angle_alpha   89.99797701
_cell_angle_beta   90.00110644
_cell_angle_gamma   89.99938453
_symmetry_Int_Tables_number   1
_chemical_formula_structural   Cs27Sn13Pb14I81
_chemical_formula_sum   'Cs27 Sn13 Pb14 I81'
_cell_volume   6833.90979938
_cell_formula_units_Z   1
loop_
 _symmetry_equiv_pos_site_id
 _symmetry_equiv_pos_as_xyz
  1  'x, y, z'
loop_
 _atom_site_type_symbol
 _atom_site_label
 _atom_site_symmetry_multiplicity
 _atom_site_fract_x
 _atom_site_fract_y
 _atom_site_fract_z
 _atom_site_occupancy
  Cs  Cs0  1  0.00035567  0.00137749  0.00121002  1
  Cs  Cs1  1  0.00267641  0.00231365  0.33643852  1
  Cs  Cs2  1  -0.00004646  0.00090172  0.66287206  1
  Cs  Cs3  1  0.00137899  0.33422154  0.00071414  1
  Cs  Cs4  1  0.00099592  0.33082331  0.33039218  1
  Cs  Cs5  1  -0.00030411  0.33174387  0.66774301  1
  Cs  Cs6  1  -0.00096431  0.66631758  0.00597063  1
  Cs  Cs7  1  -0.00135766  0.66721473  0.32508194  1
  Cs  Cs8  1  -0.00229766  0.66662278  0.66785250  1
  Cs  Cs9  1  0.34209018  -0.00426704  -0.00112258  1
  Cs  Cs10  1  0.33282512  -0.00053353  0.33457672  1
  Cs  Cs11  1  0.33062642  -0.00553288  0.66611200  1
  Cs  Cs12  1  0.33164379  0.33261863  0.00087710  1
  Cs  Cs13  1  0.33562350  0.33383850  0.33361827  1
  Cs  Cs14  1  0.33213919  0.33696712  0.66610358  1
  Cs  Cs15  1  0.33131860  0.67209762  -0.00068478  1
  Cs  Cs16  1  0.33074644  0.66607402  0.33334000  1
  Cs  Cs17  1  0.33323128  0.66554902  0.66768035  1
  Cs  Cs18  1  0.65715533  0.00186817  0.00099348  1
  Cs  Cs19  1  0.66504650  -0.00116478  0.33183416  1
  Cs  Cs20  1  0.66902969  0.00077032  0.66805512  1
  Cs  Cs21  1  0.66512887  0.33054578  -0.00114997  1
  Cs  Cs22  1  0.66356062  0.33403446  0.33431638  1
  Cs  Cs23  1  0.66863538  0.33426054  0.66717038  1
  Cs  Cs24  1  0.66982747  0.66831274  0.00151996  1
  Cs  Cs25  1  0.66887190  0.66721004  0.33645197  1
  Cs  Cs26  1  0.66806702  0.66516899  0.66420889  1
  Sn  Sn27  1  0.83352822  0.83298770  0.83287063  1
  Sn  Sn28  1  0.83350500  0.16669167  0.16652796  1
  Sn  Sn29  1  0.16677139  0.16688877  0.83406043  1
  Sn  Sn30  1  0.83275657  0.83256775  0.50082844  1
  Sn  Sn31  1  0.50006294  0.16553612  0.50082074  1
  Sn  Sn32  1  0.83355180  0.50054717  0.83283310  1
  Sn  Sn33  1  0.16638219  0.16682585  0.16545268  1
  Sn  Sn34  1  0.16628349  0.49951787  0.83275204  1
  Sn  Sn35  1  0.50010323  0.49994238  0.83478433  1
  Sn  Sn36  1  0.50017569  0.50032531  0.16530100  1
  Sn  Sn37  1  0.83485347  0.50032811  0.50033390  1
  Sn  Sn38  1  0.16486803  0.49999433  0.50041792  1
  Sn  Sn39  1  0.50068578  0.83439591  0.50045049  1
  Pb  Pb40  1  0.16867506  0.16893269  0.50038896  1
  Pb  Pb41  1  0.16575981  0.83011082  0.50004712  1
  Pb  Pb42  1  0.49728482  0.16864981  0.83078645  1
  Pb  Pb43  1  0.83503284  0.16667390  0.83514744  1
  Pb  Pb44  1  0.16675236  0.83696150  0.16645336  1
  Pb  Pb45  1  0.16393995  0.83292122  0.83335296  1
  Pb  Pb46  1  0.50255716  0.83060808  0.83098989  1
  Pb  Pb47  1  0.49942822  0.16812628  0.16824284  1
  Pb  Pb48  1  0.83327672  0.83624727  0.16670528  1
  Pb  Pb49  1  0.50018272  0.83023970  0.16933640  1
  Pb  Pb50  1  0.83151939  0.49819378  0.16646774  1
  Pb  Pb51  1  0.83176973  0.16684995  0.49836489  1
  Pb  Pb52  1  0.16860810  0.49858735  0.16615104  1
  Pb  Pb53  1  0.50029875  0.50058491  0.50061016  1
  I  I54  1  0.16262854  0.00528864  0.16241379  1
  I  I55  1  0.16568339  0.00007980  0.49944975  1
  I  I56  1  0.16469033  0.00290308  0.83752042  1
  I  I57  1  0.16365664  0.33076398  0.16583404  1
  I  I58  1  0.16377831  0.33697330  0.50182839  1
  I  I59  1  0.16456258  0.33493298  0.83294371  1
  I  I60  1  0.16831866  0.66632104  0.16735587  1
  I  I61  1  0.16975923  0.66204907  0.50684959  1
  I  I62  1  0.16964637  0.66283348  0.82775369  1
  I  I63  1  0.49985688  -0.00002370  0.16707897  1
  I  I64  1  0.50512684  -0.00055101  0.49841444  1
  I  I65  1  0.50012483  -0.00015511  0.83402646  1
  I  I66  1  0.50031546  0.33600987  0.16715886  1
  I  I67  1  0.49942719  0.33227181  0.49879810  1
  I  I68  1  0.50517576  0.33708653  0.83301468  1
  I  I69  1  0.50053114  0.66234787  0.16469323  1
  I  I70  1  0.50197271  0.66870048  0.49993032  1
  I  I71  1  0.49429514  0.66226173  0.83411016  1
  I  I72  1  0.83763036  0.00385117  0.16765233  1
  I  I73  1  0.83024071  -0.00279403  0.50328813  1
  I  I74  1  0.83609449  -0.00255469  0.82864387  1
  I  I75  1  0.83635186  0.33067760  0.16727652  1
  I  I76  1  0.83410706  0.33649889  0.50374995  1
  I  I77  1  0.83184561  0.33678960  0.82948651  1
  I  I78  1  0.83134944  0.66655992  0.16732354  1
  I  I79  1  0.82982417  0.66586513  0.50364445  1
  I  I80  1  0.83403755  0.66488073  0.82887158  1
  I  I81  1  0.16190399  0.17479064  -0.00044307  1
  I  I82  1  0.16432918  0.16874533  0.33126345  1
  I  I83  1  0.16816775  0.17063908  0.66933341  1
  I  I84  1  0.16423732  0.49727413  -0.00336116  1
  I  I85  1  0.16541995  0.49887655  0.33576634  1
  I  I86  1  0.16860146  0.49417065  0.66769402  1
  I  I87  1  0.16394492  0.82767075  -0.00034945  1
  I  I88  1  0.16518294  0.83209010  0.33364887  1
  I  I89  1  0.16905917  0.83860985  0.66660131  1
  I  I90  1  0.50148518  0.16708285  -0.00032569  1
  I  I91  1  0.49869621  0.16771330  0.33611766  1
  I  I92  1  0.50044127  0.16662553  0.66316353  1
  I  I93  1  0.50042666  0.49724344  -0.00130933  1
  I  I94  1  0.49990011  0.49866423  0.33217756  1
  I  I95  1  0.49952617  0.49965679  0.66915364  1
  I  I96  1  0.50143028  0.83466209  -0.00037166  1
  I  I97  1  0.50691895  0.83426515  0.33740882  1
  I  I98  1  0.50164019  0.83456494  0.66308155  1
  I  I99  1  0.83487110  0.16837025  0.00281928  1
  I  I100  1  0.83906701  0.16796557  0.33066139  1
  I  I101  1  0.83362058  0.16713236  0.66673922  1
  I  I102  1  0.83580502  0.50317644  -0.00336109  1
  I  I103  1  0.83482819  0.50298783  0.33635929  1
  I  I104  1  0.83144897  0.50255901  0.66688817  1
  I  I105  1  0.83575763  0.82732590  -0.00305419  1
  I  I106  1  0.82919109  0.82867135  0.33681086  1
  I  I107  1  0.82928975  0.82874484  0.66585968  1
  I  I108  1  0.00062401  0.16913139  0.16471488  1
  I  I109  1  0.00014285  0.16507975  0.50006674  1
  I  I110  1  0.00294285  0.17313603  0.83390995  1
  I  I111  1  0.00002042  0.49970758  0.16603923  1
  I  I112  1  -0.00099377  0.50329839  0.50747809  1
  I  I113  1  -0.00021873  0.49929220  0.82744069  1
  I  I114  1  -0.00032688  0.82969107  0.16895184  1
  I  I115  1  -0.00367324  0.83180183  0.50438337  1
  I  I116  1  -0.00396907  0.82797665  0.82571661  1
  I  I117  1  0.33063782  0.17009788  0.16465103  1
  I  I118  1  0.33640918  0.16447197  0.49770601  1
  I  I119  1  0.32945065  0.17333004  0.83928583  1
  I  I120  1  0.33627122  0.49638169  0.16608539  1
  I  I121  1  0.33160210  0.49860662  0.50253742  1
  I  I122  1  0.33272681  0.49416933  0.83157694  1
  I  I123  1  0.33369479  0.83432038  0.16862462  1
  I  I124  1  0.33580945  0.83553943  0.49845140  1
  I  I125  1  0.33352736  0.83271812  0.83232937  1
  I  I126  1  0.66845192  0.16856174  0.16892312  1
  I  I127  1  0.66403116  0.16944937  0.49705173  1
  I  I128  1  0.66655753  0.16813827  0.83490865  1
  I  I129  1  0.66388130  0.49595004  0.16481540  1
  I  I130  1  0.66919465  0.50048574  0.50259916  1
  I  I131  1  0.66748375  0.50388083  0.83172486  1
  I  I132  1  0.66679080  0.83674399  0.16506821  1
  I  I133  1  0.66768138  0.82994729  0.50310651  1
  I  I134  1  0.67040992  0.82835469  0.83111491  1
