# generated using pymatgen
data_Cs27Sn13Pb14I81
_symmetry_space_group_name_H-M   'P 1'
_cell_length_a   18.97834174
_cell_length_b   18.98174670
_cell_length_c   18.97262003
_cell_angle_alpha   89.99856682
_cell_angle_beta   90.00118403
_cell_angle_gamma   89.99865480
_symmetry_Int_Tables_number   1
_chemical_formula_structural   Cs27Sn13Pb14I81
_chemical_formula_sum   'Cs27 Sn13 Pb14 I81'
_cell_volume   6834.73601465
_cell_formula_units_Z   1
loop_
 _symmetry_equiv_pos_site_id
 _symmetry_equiv_pos_as_xyz
  1  'x, y, z'
loop_
 _atom_site_type_symbol
 _atom_site_label
 _atom_site_symmetry_multiplicity
 _atom_site_fract_x
 _atom_site_fract_y
 _atom_site_fract_z
 _atom_site_occupancy
  Cs  Cs0  1  -0.00477147  -0.00145378  0.00017016  1
  Cs  Cs1  1  -0.00185474  0.00330571  0.33067093  1
  Cs  Cs2  1  -0.00164194  -0.00573344  0.66732333  1
  Cs  Cs3  1  0.00308317  0.33360913  0.00093258  1
  Cs  Cs4  1  -0.00131379  0.33459878  0.33891687  1
  Cs  Cs5  1  -0.00250308  0.33514475  0.65948279  1
  Cs  Cs6  1  0.00111656  0.66710900  -0.00090772  1
  Cs  Cs7  1  0.00023534  0.66358123  0.33638147  1
  Cs  Cs8  1  0.00101234  0.66826631  0.66360368  1
  Cs  Cs9  1  0.33065349  0.00574734  -0.00143473  1
  Cs  Cs10  1  0.33499019  0.00024025  0.33987777  1
  Cs  Cs11  1  0.33404938  -0.00202351  0.66134710  1
  Cs  Cs12  1  0.33261181  0.33338023  -0.00030752  1
  Cs  Cs13  1  0.33139044  0.33092288  0.33039647  1
  Cs  Cs14  1  0.33501212  0.33295763  0.66946181  1
  Cs  Cs15  1  0.33344375  0.66516348  0.00053240  1
  Cs  Cs16  1  0.33605050  0.67026177  0.33199614  1
  Cs  Cs17  1  0.33258842  0.66878618  0.66738607  1
  Cs  Cs18  1  0.67455174  -0.00011292  0.00064973  1
  Cs  Cs19  1  0.66775146  -0.00398798  0.33455435  1
  Cs  Cs20  1  0.66656925  0.00194625  0.66590769  1
  Cs  Cs21  1  0.66476182  0.33408888  -0.00123647  1
  Cs  Cs22  1  0.66914707  0.33229201  0.33644833  1
  Cs  Cs23  1  0.66704417  0.33392142  0.66626304  1
  Cs  Cs24  1  0.66549906  0.66604762  0.00234957  1
  Cs  Cs25  1  0.66423023  0.67018663  0.33121067  1
  Cs  Cs26  1  0.66654874  0.66439370  0.66677260  1
  Sn  Sn27  1  0.83329710  0.83311357  0.50003888  1
  Sn  Sn28  1  0.49978688  0.50009471  0.83265685  1
  Sn  Sn29  1  0.83406403  0.49971890  0.16580889  1
  Sn  Sn30  1  0.16702164  0.83354306  0.16640471  1
  Sn  Sn31  1  0.16633829  0.49923043  0.83381877  1
  Sn  Sn32  1  0.16704475  0.16739907  0.83360623  1
  Sn  Sn33  1  0.16753809  0.16657011  0.16568563  1
  Sn  Sn34  1  0.49996549  0.83374814  0.83411721  1
  Sn  Sn35  1  0.49931172  0.49976447  0.50041801  1
  Sn  Sn36  1  0.16589692  0.50010182  0.16590011  1
  Sn  Sn37  1  0.49931363  0.16633826  0.83444140  1
  Sn  Sn38  1  0.83378526  0.49984309  0.83414557  1
  Sn  Sn39  1  0.49971893  0.16660811  0.16580489  1
  Pb  Pb40  1  0.83323500  0.16366744  0.50015611  1
  Pb  Pb41  1  0.16843585  0.83354419  0.83498364  1
  Pb  Pb42  1  0.83391631  0.16915751  0.83326961  1
  Pb  Pb43  1  0.83561385  0.83055690  0.16808396  1
  Pb  Pb44  1  0.83116851  0.50119393  0.49984403  1
  Pb  Pb45  1  0.49959539  0.49830715  0.16619668  1
  Pb  Pb46  1  0.16929400  0.49998615  0.50012925  1
  Pb  Pb47  1  0.50145619  0.83115040  0.50231612  1
  Pb  Pb48  1  0.83100927  0.83054557  0.83211617  1
  Pb  Pb49  1  0.16665897  0.16677461  0.50074094  1
  Pb  Pb50  1  0.49988453  0.16878821  0.50035964  1
  Pb  Pb51  1  0.49797368  0.83659408  0.16418634  1
  Pb  Pb52  1  0.83373335  0.16926228  0.16648958  1
  Pb  Pb53  1  0.16473384  0.83327980  0.49711203  1
  I  I54  1  0.17149787  0.00129417  0.16311533  1
  I  I55  1  0.16637624  -0.00000246  0.50075736  1
  I  I56  1  0.17236645  0.00316636  0.83779065  1
  I  I57  1  0.16745415  0.33364274  0.16209775  1
  I  I58  1  0.16568552  0.33360052  0.49541680  1
  I  I59  1  0.17219574  0.33437274  0.84164923  1
  I  I60  1  0.16205304  0.66506745  0.16287756  1
  I  I61  1  0.16718350  0.66642847  0.50004157  1
  I  I62  1  0.16798943  0.66338428  0.83752972  1
  I  I63  1  0.49479308  0.00451296  0.16212774  1
  I  I64  1  0.50179879  -0.00005395  0.50061837  1
  I  I65  1  0.49464539  0.00131508  0.83761225  1
  I  I66  1  0.49503879  0.33062038  0.16158074  1
  I  I67  1  0.50174121  0.33657105  0.50632635  1
  I  I68  1  0.49944737  0.33391203  0.83311475  1
  I  I69  1  0.49926854  0.66655065  0.16658001  1
  I  I70  1  0.50059035  0.66328362  0.50502941  1
  I  I71  1  0.50006730  0.66493975  0.82823541  1
  I  I72  1  0.83388777  -0.00006041  0.16945964  1
  I  I73  1  0.83251018  -0.00394914  0.49980243  1
  I  I74  1  0.83291528  -0.00014949  0.83065651  1
  I  I75  1  0.83775287  0.33731459  0.16327379  1
  I  I76  1  0.83228614  0.33381447  0.49963987  1
  I  I77  1  0.82825736  0.33758715  0.83641624  1
  I  I78  1  0.83714769  0.66259606  0.16285971  1
  I  I79  1  0.83201929  0.66855091  0.50021936  1
  I  I80  1  0.83366118  0.66220517  0.83646574  1
  I  I81  1  0.17202533  0.16907309  0.00021770  1
  I  I82  1  0.17074172  0.16766031  0.32940157  1
  I  I83  1  0.17198414  0.17265020  0.67102389  1
  I  I84  1  0.16806405  0.49942855  -0.00030907  1
  I  I85  1  0.16291052  0.49871024  0.32970746  1
  I  I86  1  0.16438423  0.49537174  0.67054963  1
  I  I87  1  0.16681798  0.83197312  0.00297783  1
  I  I88  1  0.16750241  0.83213564  0.32877644  1
  I  I89  1  0.16669164  0.83309010  0.66695664  1
  I  I90  1  0.49511624  0.17042082  -0.00135200  1
  I  I91  1  0.49493162  0.16976641  0.33028653  1
  I  I92  1  0.49566496  0.16570057  0.67070313  1
  I  I93  1  0.50046583  0.50128999  -0.00333333  1
  I  I94  1  0.50091743  0.49821378  0.33482493  1
  I  I95  1  0.50107208  0.49816591  0.66963070  1
  I  I96  1  0.50051777  0.82497583  -0.00358588  1
  I  I97  1  0.50017999  0.83219755  0.33309489  1
  I  I98  1  0.49900029  0.83697648  0.67045858  1
  I  I99  1  0.83175002  0.16320728  -0.00009414  1
  I  I100  1  0.83318947  0.17073760  0.33293468  1
  I  I101  1  0.83274304  0.17041437  0.66707232  1
  I  I102  1  0.83164720  0.50062306  -0.00075487  1
  I  I103  1  0.83703162  0.50066798  0.33056389  1
  I  I104  1  0.83477843  0.50097254  0.66972223  1
  I  I105  1  0.83291167  0.83390040  0.00001834  1
  I  I106  1  0.83245014  0.82985329  0.33573144  1
  I  I107  1  0.83323841  0.83016979  0.66441408  1
  I  I108  1  0.00387643  0.16433317  0.16184617  1
  I  I109  1  0.00009535  0.16869879  0.49916541  1
  I  I110  1  0.00385927  0.17061751  0.83885363  1
  I  I111  1  0.00132108  0.49897023  0.15954297  1
  I  I112  1  -0.00008405  0.50138779  0.50197861  1
  I  I113  1  0.00101039  0.49595690  0.83871227  1
  I  I114  1  0.00362732  0.83834079  0.16544431  1
  I  I115  1  -0.00288610  0.82992686  0.50214060  1
  I  I116  1  0.00006362  0.83353952  0.83240846  1
  I  I117  1  0.33227629  0.17034556  0.16212472  1
  I  I118  1  0.33343694  0.16600583  0.49892400  1
  I  I119  1  0.33382292  0.17258047  0.83817683  1
  I  I120  1  0.33016489  0.50107829  0.16400950  1
  I  I121  1  0.33694209  0.50049093  0.50516128  1
  I  I122  1  0.33341205  0.49934619  0.83354298  1
  I  I123  1  0.33012649  0.82559303  0.16622232  1
  I  I124  1  0.33353249  0.83277156  0.49971519  1
  I  I125  1  0.33635273  0.82756873  0.83365169  1
  I  I126  1  0.66377808  0.16954152  0.16199293  1
  I  I127  1  0.66619784  0.16832278  0.49961961  1
  I  I128  1  0.66320488  0.16783985  0.83682450  1
  I  I129  1  0.66845289  0.49842431  0.16374715  1
  I  I130  1  0.66362807  0.50035713  0.50484811  1
  I  I131  1  0.66580857  0.50025348  0.83310741  1
  I  I132  1  0.66660808  0.83278304  0.16754263  1
  I  I133  1  0.66905469  0.83096326  0.49921947  1
  I  I134  1  0.66291041  0.83357928  0.83296495  1
