# generated using pymatgen
data_Cs27Sn13Pb14I81
_symmetry_space_group_name_H-M   'P 1'
_cell_length_a   18.98199961
_cell_length_b   18.97631574
_cell_length_c   18.97262781
_cell_angle_alpha   89.99774399
_cell_angle_beta   89.99846087
_cell_angle_gamma   89.99945284
_symmetry_Int_Tables_number   1
_chemical_formula_structural   Cs27Sn13Pb14I81
_chemical_formula_sum   'Cs27 Sn13 Pb14 I81'
_cell_volume   6834.10023953
_cell_formula_units_Z   1
loop_
 _symmetry_equiv_pos_site_id
 _symmetry_equiv_pos_as_xyz
  1  'x, y, z'
loop_
 _atom_site_type_symbol
 _atom_site_label
 _atom_site_symmetry_multiplicity
 _atom_site_fract_x
 _atom_site_fract_y
 _atom_site_fract_z
 _atom_site_occupancy
  Cs  Cs0  1  0.00012479  0.00121969  -0.00122432  1
  Cs  Cs1  1  -0.00081791  0.00056254  0.33393345  1
  Cs  Cs2  1  0.00195268  0.00016914  0.66901116  1
  Cs  Cs3  1  -0.00162367  0.33342470  -0.00689666  1
  Cs  Cs4  1  0.00183541  0.33202709  0.33572223  1
  Cs  Cs5  1  -0.00200543  0.33138340  0.66688579  1
  Cs  Cs6  1  -0.00269417  0.66386550  0.00143026  1
  Cs  Cs7  1  -0.00209469  0.66651201  0.33195882  1
  Cs  Cs8  1  0.00538089  0.66855373  0.66617564  1
  Cs  Cs9  1  0.33534902  -0.00086094  0.00083289  1
  Cs  Cs10  1  0.33261170  0.00231481  0.33111437  1
  Cs  Cs11  1  0.33391976  -0.00259062  0.66801329  1
  Cs  Cs12  1  0.33456457  0.33600687  0.00216246  1
  Cs  Cs13  1  0.33154318  0.33126983  0.33236910  1
  Cs  Cs14  1  0.33318418  0.33548674  0.66638970  1
  Cs  Cs15  1  0.33240674  0.66876174  -0.00307184  1
  Cs  Cs16  1  0.33280743  0.66568594  0.33626226  1
  Cs  Cs17  1  0.33510976  0.66782243  0.66705202  1
  Cs  Cs18  1  0.66341373  -0.00089970  -0.00226131  1
  Cs  Cs19  1  0.66973358  0.00043110  0.33348077  1
  Cs  Cs20  1  0.66552963  -0.00007223  0.66863330  1
  Cs  Cs21  1  0.66710569  0.34135202  0.00095746  1
  Cs  Cs22  1  0.66559816  0.33238803  0.33270323  1
  Cs  Cs23  1  0.66925375  0.33364645  0.66690629  1
  Cs  Cs24  1  0.67020603  0.66397142  0.00098954  1
  Cs  Cs25  1  0.66996009  0.66603077  0.33453396  1
  Cs  Cs26  1  0.66042525  0.66820886  0.66501821  1
  Sn  Sn27  1  0.83410348  0.49948412  0.50000350  1
  Sn  Sn28  1  0.83280584  0.83348663  0.83319484  1
  Sn  Sn29  1  0.49978654  0.83328234  0.16647037  1
  Sn  Sn30  1  0.83354356  0.16711619  0.49942878  1
  Sn  Sn31  1  0.49984404  0.16637283  0.50089992  1
  Sn  Sn32  1  0.50105046  0.83429846  0.83454080  1
  Sn  Sn33  1  0.83399006  0.16665001  0.16674067  1
  Sn  Sn34  1  0.16568538  0.49907319  0.49910444  1
  Sn  Sn35  1  0.16664833  0.49958255  0.16729891  1
  Sn  Sn36  1  0.16727704  0.83344774  0.16681635  1
  Sn  Sn37  1  0.49995380  0.16668145  0.83290298  1
  Sn  Sn38  1  0.16670350  0.16710449  0.49961305  1
  Sn  Sn39  1  0.16555708  0.16690942  0.16700282  1
  Pb  Pb40  1  0.16660163  0.83347890  0.49743703  1
  Pb  Pb41  1  0.50006140  0.50031227  0.83337152  1
  Pb  Pb42  1  0.83111865  0.16551519  0.83333842  1
  Pb  Pb43  1  0.16657962  0.49975058  0.83272362  1
  Pb  Pb44  1  0.16703223  0.83344422  0.83607576  1
  Pb  Pb45  1  0.16929942  0.16676055  0.83337403  1
  Pb  Pb46  1  0.49995143  0.83577000  0.49960420  1
  Pb  Pb47  1  0.50011312  0.16545629  0.16659756  1
  Pb  Pb48  1  0.83336564  0.83539062  0.16506870  1
  Pb  Pb49  1  0.49967447  0.49721914  0.49980421  1
  Pb  Pb50  1  0.83344727  0.83358461  0.50235731  1
  Pb  Pb51  1  0.83574682  0.49708938  0.16880964  1
  Pb  Pb52  1  0.83339410  0.50293285  0.82989164  1
  Pb  Pb53  1  0.49750091  0.50345146  0.16694466  1
  I  I54  1  0.16740325  0.00094806  0.17023228  1
  I  I55  1  0.16582689  0.00365647  0.49621345  1
  I  I56  1  0.16510899  0.00007936  0.83241833  1
  I  I57  1  0.16323408  0.33235433  0.17194205  1
  I  I58  1  0.16697829  0.33213986  0.49195844  1
  I  I59  1  0.16893730  0.33302762  0.83831255  1
  I  I60  1  0.17230977  0.66662947  0.17013525  1
  I  I61  1  0.16152664  0.66344619  0.49641662  1
  I  I62  1  0.16908047  0.66683438  0.83213804  1
  I  I63  1  0.49383208  -0.00236368  0.16528854  1
  I  I64  1  0.49971718  0.00426425  0.50104489  1
  I  I65  1  0.50329911  -0.00049828  0.83286562  1
  I  I66  1  0.49949998  0.33316993  0.16584053  1
  I  I67  1  0.49972211  0.32871113  0.50488109  1
  I  I68  1  0.49875420  0.33009783  0.82862834  1
  I  I69  1  0.49574630  0.67160961  0.15982352  1
  I  I70  1  0.49973864  0.66662683  0.50122036  1
  I  I71  1  0.50303091  0.67054865  0.83764125  1
  I  I72  1  0.83887665  0.00333473  0.17344986  1
  I  I73  1  0.83412181  0.00377019  0.49698700  1
  I  I74  1  0.83068792  -0.00235904  0.83184783  1
  I  I75  1  0.83611047  0.32893854  0.16720401  1
  I  I76  1  0.83406103  0.33163976  0.49687200  1
  I  I77  1  0.83191485  0.33329423  0.83524683  1
  I  I78  1  0.83389676  0.66656284  0.16712383  1
  I  I79  1  0.83901053  0.66369801  0.50147961  1
  I  I80  1  0.82643505  0.67064481  0.83477879  1
  I  I81  1  0.16328845  0.16656092  0.00368840  1
  I  I82  1  0.16867361  0.16665200  0.33343896  1
  I  I83  1  0.16379856  0.17147605  0.66305039  1
  I  I84  1  0.16835148  0.49943030  0.00358871  1
  I  I85  1  0.16368535  0.49906480  0.33362060  1
  I  I86  1  0.16312255  0.49436539  0.66251105  1
  I  I87  1  0.16856263  0.83459579  0.00435140  1
  I  I88  1  0.17228803  0.83460409  0.32921497  1
  I  I89  1  0.16747069  0.83295822  0.66666192  1
  I  I90  1  0.49933369  0.16228190  -0.00212789  1
  I  I91  1  0.49962593  0.16537085  0.33594136  1
  I  I92  1  0.50002502  0.16072530  0.66592654  1
  I  I93  1  0.49785848  0.49396512  0.00025446  1
  I  I94  1  0.50183942  0.50068126  0.33343071  1
  I  I95  1  0.49681943  0.50466813  0.66636290  1
  I  I96  1  0.49853786  0.84086936  -0.00044695  1
  I  I97  1  0.49455979  0.83512722  0.33029786  1
  I  I98  1  0.50430576  0.83553355  0.66961842  1
  I  I99  1  0.83790321  0.16330226  0.00258939  1
  I  I100  1  0.83185954  0.16819139  0.33439127  1
  I  I101  1  0.83573137  0.16897739  0.66335955  1
  I  I102  1  0.83449795  0.49881650  0.00012129  1
  I  I103  1  0.83471610  0.49956605  0.33685133  1
  I  I104  1  0.84024642  0.49135717  0.66210659  1
  I  I105  1  0.83177312  0.83665447  -0.00266274  1
  I  I106  1  0.83260088  0.83264851  0.33326159  1
  I  I107  1  0.82584899  0.83526565  0.67007231  1
  I  I108  1  0.00121777  0.16371218  0.17446297  1
  I  I109  1  0.00024102  0.17058071  0.49460480  1
  I  I110  1  -0.00014838  0.16415407  0.83167668  1
  I  I111  1  0.00389317  0.50640680  0.16871718  1
  I  I112  1  0.00083560  0.49168443  0.49623226  1
  I  I113  1  -0.00013722  0.50257852  0.83571004  1
  I  I114  1  0.00292067  0.83250057  0.16572810  1
  I  I115  1  0.00003551  0.83762446  0.50169134  1
  I  I116  1  -0.00235051  0.83355781  0.83308715  1
  I  I117  1  0.33037055  0.16752434  0.16991138  1
  I  I118  1  0.33234806  0.16953958  0.49886980  1
  I  I119  1  0.33714203  0.15920327  0.82976445  1
  I  I120  1  0.32894076  0.49340590  0.17325306  1
  I  I121  1  0.32977034  0.49615032  0.49592695  1
  I  I122  1  0.33330289  0.50219486  0.83105832  1
  I  I123  1  0.33281152  0.83620760  0.16138152  1
  I  I124  1  0.33326679  0.83298377  0.50414235  1
  I  I125  1  0.33659754  0.83744619  0.83545190  1
  I  I126  1  0.66890591  0.16285953  0.17070724  1
  I  I127  1  0.66734322  0.16940399  0.49934241  1
  I  I128  1  0.66332245  0.16278825  0.82930599  1
  I  I129  1  0.66708483  0.49971226  0.16759270  1
  I  I130  1  0.66952816  0.49604637  0.50152322  1
  I  I131  1  0.66684993  0.49781684  0.83186337  1
  I  I132  1  0.66426712  0.83760340  0.16414664  1
  I  I133  1  0.66667329  0.83306222  0.49548191  1
  I  I134  1  0.66516546  0.83841921  0.83840317  1
