# generated using pymatgen
data_Cs27Sn13Pb14I81
_symmetry_space_group_name_H-M   'P 1'
_cell_length_a   18.98129857
_cell_length_b   18.96705069
_cell_length_c   18.98129856
_cell_angle_alpha   89.99966593
_cell_angle_beta   90.00157164
_cell_angle_gamma   90.00033408
_symmetry_Int_Tables_number   1
_chemical_formula_structural   Cs27Sn13Pb14I81
_chemical_formula_sum   'Cs27 Sn13 Pb14 I81'
_cell_volume   6833.63290748
_cell_formula_units_Z   1
loop_
 _symmetry_equiv_pos_site_id
 _symmetry_equiv_pos_as_xyz
  1  'x, y, z'
loop_
 _atom_site_type_symbol
 _atom_site_label
 _atom_site_symmetry_multiplicity
 _atom_site_fract_x
 _atom_site_fract_y
 _atom_site_fract_z
 _atom_site_occupancy
  Cs  Cs0  1  0.00096333  0.00599266  -0.00181824  1
  Cs  Cs1  1  0.00817050  0.00528982  0.33309857  1
  Cs  Cs2  1  -0.00283742  0.00940726  0.66950417  1
  Cs  Cs3  1  -0.00087671  0.32930493  0.00370154  1
  Cs  Cs4  1  -0.00429618  0.33162911  0.33147143  1
  Cs  Cs5  1  0.00156708  0.33319626  0.66509948  1
  Cs  Cs6  1  -0.00035993  0.66682514  -0.00241321  1
  Cs  Cs7  1  -0.00023336  0.66545266  0.33391906  1
  Cs  Cs8  1  -0.00134109  0.66625844  0.66800775  1
  Cs  Cs9  1  0.33102406  -0.00075372  0.00267746  1
  Cs  Cs10  1  0.32864102  -0.00186836  0.33802554  1
  Cs  Cs11  1  0.33356799  0.00528975  0.65849608  1
  Cs  Cs12  1  0.33580007  0.33341859  -0.00269372  1
  Cs  Cs13  1  0.33392197  0.33689776  0.33274459  1
  Cs  Cs14  1  0.33519558  0.33162909  0.67096299  1
  Cs  Cs15  1  0.33371130  0.66638791  -0.00028322  1
  Cs  Cs16  1  0.33290858  0.66769393  0.33375800  1
  Cs  Cs17  1  0.33274755  0.66545279  0.66690012  1
  Cs  Cs18  1  0.66893805  -0.00569694  -0.00227152  1
  Cs  Cs19  1  0.66398932  -0.00075358  0.33564263  1
  Cs  Cs20  1  0.66848524  0.00599264  0.66570313  1
  Cs  Cs21  1  0.66387337  0.33148606  0.00279333  1
  Cs  Cs22  1  0.66936033  0.33341864  0.33086657  1
  Cs  Cs23  1  0.66296494  0.32930507  0.66754327  1
  Cs  Cs24  1  0.66622979  0.66852401  0.00043691  1
  Cs  Cs25  1  0.66694983  0.66638795  0.33295530  1
  Cs  Cs26  1  0.66907991  0.66682512  0.66702660  1
  Sn  Sn27  1  0.50031546  0.50064172  0.49945766  1
  Sn  Sn28  1  0.16556518  0.50078404  0.83352330  1
  Sn  Sn29  1  0.16720900  0.50064169  0.16635117  1
  Sn  Sn30  1  0.49991386  0.16596234  0.16675282  1
  Sn  Sn31  1  0.83350017  0.83296438  0.16794572  1
  Sn  Sn32  1  0.16655099  0.50075818  0.50011572  1
  Sn  Sn33  1  0.49933618  0.50025795  0.16733045  1
  Sn  Sn34  1  0.83379033  0.50029351  0.83287638  1
  Sn  Sn35  1  0.49872101  0.83296436  0.83316648  1
  Sn  Sn36  1  0.16765185  0.83277695  0.83293429  1
  Sn  Sn37  1  0.83373241  0.83277691  0.49901482  1
  Sn  Sn38  1  0.50037348  0.83356965  0.16629319  1
  Sn  Sn39  1  0.83314337  0.50078407  0.50110142  1
  Pb  Pb40  1  0.16658718  0.83141786  0.16508534  1
  Pb  Pb41  1  0.16674918  0.17006646  0.49991753  1
  Pb  Pb42  1  0.83086065  0.16260592  0.16685198  1
  Pb  Pb43  1  0.83317260  0.50143151  0.16655956  1
  Pb  Pb44  1  0.16366981  0.83145798  0.50299683  1
  Pb  Pb45  1  0.50010714  0.50143156  0.83349409  1
  Pb  Pb46  1  0.50158134  0.83141782  0.50007947  1
  Pb  Pb47  1  0.50002250  0.16984309  0.49729018  1
  Pb  Pb48  1  0.83324820  0.16694535  0.49968978  1
  Pb  Pb49  1  0.49981467  0.16260592  0.83580607  1
  Pb  Pb50  1  0.16937643  0.16984310  0.16664414  1
  Pb  Pb51  1  0.83306444  0.17081964  0.83360227  1
  Pb  Pb52  1  0.83361339  0.83204876  0.83305328  1
  Pb  Pb53  1  0.16697689  0.16694533  0.83341849  1
  I  I54  1  0.16643733  -0.00022362  0.16411443  1
  I  I55  1  0.16539454  -0.00039307  0.50127251  1
  I  I56  1  0.16999403  -0.00335342  0.83542223  1
  I  I57  1  0.17012610  0.33869480  0.16469880  1
  I  I58  1  0.16426977  0.33930020  0.50239625  1
  I  I59  1  0.16278631  0.33770328  0.83254287  1
  I  I60  1  0.17263705  0.66288467  0.16822359  1
  I  I61  1  0.16878231  0.66263936  0.49788427  1
  I  I62  1  0.16686466  0.66501612  0.83396557  1
  I  I63  1  0.50677781  -0.00143390  0.15988869  1
  I  I64  1  0.50255201  -0.00022361  0.50022915  1
  I  I65  1  0.49604323  -0.00558995  0.83849296  1
  I  I66  1  0.49544856  0.33518262  0.17121802  1
  I  I67  1  0.50196806  0.33869479  0.49654109  1
  I  I68  1  0.50044634  0.33350834  0.83364891  1
  I  I69  1  0.50023189  0.66639030  0.16643486  1
  I  I70  1  0.49844311  0.66288468  0.49402942  1
  I  I71  1  0.49938741  0.66909785  0.83989464  1
  I  I72  1  0.82817431  -0.00558999  0.17062344  1
  I  I73  1  0.83124405  -0.00335341  0.49667261  1
  I  I74  1  0.83357331  -0.00025545  0.83309331  1
  I  I75  1  0.83301742  0.33350835  0.16622024  1
  I  I76  1  0.83412404  0.33770330  0.50388011  1
  I  I77  1  0.83907998  0.33917730  0.82758714  1
  I  I78  1  0.82677215  0.66909785  0.16727929  1
  I  I79  1  0.83270119  0.66501617  0.49980231  1
  I  I80  1  0.83487491  0.66388722  0.83179137  1
  I  I81  1  0.16663137  0.16982782  0.00009917  1
  I  I82  1  0.16718058  0.16677140  0.33312062  1
  I  I83  1  0.16728065  0.16800403  0.66676826  1
  I  I84  1  0.16720774  0.50402615  -0.00025928  1
  I  I85  1  0.16805801  0.49951369  0.33338030  1
  I  I86  1  0.16566347  0.50425041  0.66679337  1
  I  I87  1  0.16640364  0.82529438  -0.00276980  1
  I  I88  1  0.16868417  0.83134988  0.33358366  1
  I  I89  1  0.17219894  0.82494895  0.67070302  1
  I  I90  1  0.49992368  0.17515880  0.00368399  1
  I  I91  1  0.50055132  0.16236810  0.32939781  1
  I  I92  1  0.50014639  0.16741274  0.66656796  1
  I  I93  1  0.49753326  0.49916267  0.00303773  1
  I  I94  1  0.49721227  0.50164171  0.33236957  1
  I  I95  1  0.49856372  0.50325162  0.66431969  1
  I  I96  1  0.50287631  0.82997797  0.00148451  1
  I  I97  1  0.50314418  0.83341189  0.33013395  1
  I  I98  1  0.49809562  0.82805335  0.66909968  1
  I  I99  1  0.83308191  0.16702870  0.00032872  1
  I  I100  1  0.83244009  0.17305134  0.33317479  1
  I  I101  1  0.83215112  0.16150505  0.66661224  1
  I  I102  1  0.83634767  0.50313226  -0.00208932  1
  I  I103  1  0.83518613  0.50217308  0.33591192  1
  I  I104  1  0.83594602  0.50667031  0.66569983  1
  I  I105  1  0.83017454  0.83019031  0.00202229  1
  I  I106  1  0.82599425  0.82519151  0.33314217  1
  I  I107  1  0.83301210  0.82812240  0.66431709  1
  I  I108  1  0.00009870  0.16741306  0.16652029  1
  I  I109  1  -0.00010154  0.16800359  0.49938569  1
  I  I110  1  0.00005445  0.16150481  0.83451583  1
  I  I111  1  0.00234698  0.50325134  0.16810290  1
  I  I112  1  -0.00012676  0.50425051  0.50100288  1
  I  I113  1  0.00096685  0.50667071  0.83072089  1
  I  I114  1  -0.00243300  0.82805335  0.16857114  1
  I  I115  1  -0.00403638  0.82494921  0.49446764  1
  I  I116  1  0.00234965  0.82812210  0.83365460  1
  I  I117  1  0.33726884  0.16236776  0.16611488  1
  I  I118  1  0.33354603  0.16677185  0.49948654  1
  I  I119  1  0.33349187  0.17305137  0.83422658  1
  I  I120  1  0.33429715  0.50164198  0.16945520  1
  I  I121  1  0.33328635  0.49951356  0.49860837  1
  I  I122  1  0.33075477  0.50217290  0.83148012  1
  I  I123  1  0.33653273  0.83341180  0.16352272  1
  I  I124  1  0.33308298  0.83134968  0.49798258  1
  I  I125  1  0.33352450  0.82519157  0.84067220  1
  I  I126  1  0.66298268  0.17515845  0.16674346  1
  I  I127  1  0.66656748  0.16982769  0.50003518  1
  I  I128  1  0.66633791  0.16702888  0.83358443  1
  I  I129  1  0.66362897  0.49916273  0.16913277  1
  I  I130  1  0.66692598  0.50402606  0.49945945  1
  I  I131  1  0.66875600  0.50313193  0.83031911  1
  I  I132  1  0.66518217  0.82997806  0.16379017  1
  I  I133  1  0.66943645  0.82529432  0.50026316  1
  I  I134  1  0.66464434  0.83019038  0.83649224  1
