# generated using pymatgen
data_Cs27Sn13Pb14I81
_symmetry_space_group_name_H-M   'P 1'
_cell_length_a   18.97811095
_cell_length_b   18.97808509
_cell_length_c   18.97276465
_cell_angle_alpha   90.00165166
_cell_angle_beta   90.00117323
_cell_angle_gamma   89.99920737
_symmetry_Int_Tables_number   1
_chemical_formula_structural   Cs27Sn13Pb14I81
_chemical_formula_sum   'Cs27 Sn13 Pb14 I81'
_cell_volume   6833.38657335
_cell_formula_units_Z   1
loop_
 _symmetry_equiv_pos_site_id
 _symmetry_equiv_pos_as_xyz
  1  'x, y, z'
loop_
 _atom_site_type_symbol
 _atom_site_label
 _atom_site_symmetry_multiplicity
 _atom_site_fract_x
 _atom_site_fract_y
 _atom_site_fract_z
 _atom_site_occupancy
  Cs  Cs0  1  0.00615679  0.00046168  0.00147826  1
  Cs  Cs1  1  -0.00003683  0.00129378  0.33287600  1
  Cs  Cs2  1  0.00055522  -0.00006345  0.66545045  1
  Cs  Cs3  1  -0.00166950  0.33328450  -0.00046590  1
  Cs  Cs4  1  -0.00009852  0.33153806  0.33428726  1
  Cs  Cs5  1  0.00036742  0.33432196  0.66570468  1
  Cs  Cs6  1  0.00084436  0.66711954  -0.00155401  1
  Cs  Cs7  1  0.00183162  0.66761009  0.33388762  1
  Cs  Cs8  1  -0.00578586  0.66571638  0.66628552  1
  Cs  Cs9  1  0.33059710  -0.00180727  -0.00506917  1
  Cs  Cs10  1  0.33090215  0.00016434  0.33227384  1
  Cs  Cs11  1  0.34041138  0.00198582  0.67469247  1
  Cs  Cs12  1  0.33378915  0.33423201  -0.00109887  1
  Cs  Cs13  1  0.33373867  0.33635904  0.33487754  1
  Cs  Cs14  1  0.33463570  0.33148457  0.66534570  1
  Cs  Cs15  1  0.33196090  0.66698826  0.00190061  1
  Cs  Cs16  1  0.33279018  0.66132091  0.33320987  1
  Cs  Cs17  1  0.33652373  0.66388991  0.66258353  1
  Cs  Cs18  1  0.66452390  0.00136012  0.00418517  1
  Cs  Cs19  1  0.66749340  -0.00043009  0.33321059  1
  Cs  Cs20  1  0.65901002  -0.00702449  0.66588860  1
  Cs  Cs21  1  0.66963378  0.33583585  0.00227956  1
  Cs  Cs22  1  0.66575125  0.33226351  0.33120555  1
  Cs  Cs23  1  0.66842230  0.33091116  0.66789287  1
  Cs  Cs24  1  0.66732640  0.66371951  -0.00109549  1
  Cs  Cs25  1  0.66402811  0.66803851  0.33288723  1
  Cs  Cs26  1  0.67156809  0.67830105  0.66970484  1
  Sn  Sn27  1  0.50035683  0.83409642  0.16685355  1
  Sn  Sn28  1  0.49941207  0.49988243  0.83308499  1
  Sn  Sn29  1  0.16625586  0.16552715  0.49958843  1
  Sn  Sn30  1  0.16685885  0.83467443  0.50024779  1
  Sn  Sn31  1  0.16757726  0.49972345  0.83380863  1
  Sn  Sn32  1  0.83430089  0.50099361  0.16777531  1
  Sn  Sn33  1  0.16776816  0.16768637  0.16726027  1
  Sn  Sn34  1  0.83300468  0.83221568  0.16673673  1
  Sn  Sn35  1  0.49836378  0.16606018  0.16684899  1
  Sn  Sn36  1  0.83340523  0.16617075  0.83196464  1
  Sn  Sn37  1  0.16561251  0.49899418  0.16591848  1
  Sn  Sn38  1  0.83297483  0.49940360  0.49901355  1
  Sn  Sn39  1  0.83371957  0.16711806  0.50126511  1
  Pb  Pb40  1  0.50405035  0.50003825  0.50317738  1
  Pb  Pb41  1  0.83390951  0.16680687  0.16722782  1
  Pb  Pb42  1  0.49995092  0.16682319  0.49786622  1
  Pb  Pb43  1  0.49993292  0.49992051  0.16569515  1
  Pb  Pb44  1  0.83475149  0.83396475  0.49788380  1
  Pb  Pb45  1  0.49982400  0.83071947  0.83624130  1
  Pb  Pb46  1  0.83355452  0.49889138  0.83330607  1
  Pb  Pb47  1  0.16522978  0.16848087  0.83302026  1
  Pb  Pb48  1  0.49693199  0.83343144  0.49731013  1
  Pb  Pb49  1  0.16664065  0.83027012  0.82988318  1
  Pb  Pb50  1  0.50243805  0.16850572  0.83610069  1
  Pb  Pb51  1  0.16511647  0.49937326  0.49996656  1
  Pb  Pb52  1  0.16675355  0.83317128  0.16780991  1
  Pb  Pb53  1  0.83361999  0.83693708  0.83648807  1
  I  I54  1  0.16584665  0.00269192  0.16946724  1
  I  I55  1  0.15912619  0.00199087  0.49137803  1
  I  I56  1  0.16440146  0.00027057  0.83683719  1
  I  I57  1  0.16602459  0.33330405  0.16875685  1
  I  I58  1  0.16324613  0.33053035  0.49794565  1
  I  I59  1  0.16841506  0.33650786  0.83429943  1
  I  I60  1  0.16574578  0.66385752  0.16544389  1
  I  I61  1  0.16491095  0.66801297  0.49863343  1
  I  I62  1  0.16841120  0.66213534  0.84045063  1
  I  I63  1  0.50224334  0.00038395  0.16726045  1
  I  I64  1  0.50493445  0.00019959  0.50088596  1
  I  I65  1  0.50173060  0.00007799  0.83305802  1
  I  I66  1  0.49999490  0.33110478  0.16507066  1
  I  I67  1  0.49583861  0.33346615  0.49624627  1
  I  I68  1  0.49660869  0.33613629  0.83722150  1
  I  I69  1  0.50144046  0.66862464  0.16484318  1
  I  I70  1  0.49775533  0.66657333  0.49671042  1
  I  I71  1  0.49756538  0.66289455  0.83602673  1
  I  I72  1  0.83223763  -0.00167716  0.16646271  1
  I  I73  1  0.83684086  0.00317073  0.50076449  1
  I  I74  1  0.83416925  0.00459632  0.82868157  1
  I  I75  1  0.83396606  0.33568190  0.16682935  1
  I  I76  1  0.83965236  0.33283015  0.49749454  1
  I  I77  1  0.83380071  0.33115250  0.83513769  1
  I  I78  1  0.83344191  0.66515207  0.17141665  1
  I  I79  1  0.83610843  0.66427212  0.49783491  1
  I  I80  1  0.83287628  0.66666706  0.83110921  1
  I  I81  1  0.16719474  0.16897414  0.00300507  1
  I  I82  1  0.16375381  0.16879317  0.33267717  1
  I  I83  1  0.16232324  0.16540588  0.66365963  1
  I  I84  1  0.16406263  0.49485355  0.00186742  1
  I  I85  1  0.16406539  0.49921082  0.33054642  1
  I  I86  1  0.16829141  0.50013439  0.66881605  1
  I  I87  1  0.16638454  0.83522958  0.00018343  1
  I  I88  1  0.16561296  0.83296445  0.33548141  1
  I  I89  1  0.16416507  0.83887677  0.66211592  1
  I  I90  1  0.49645276  0.16341850  0.00421380  1
  I  I91  1  0.50160089  0.16512235  0.32940801  1
  I  I92  1  0.49822393  0.16835138  0.66688609  1
  I  I93  1  0.50097006  0.49936203  -0.00195403  1
  I  I94  1  0.49802397  0.50039508  0.33319270  1
  I  I95  1  0.49196970  0.49770848  0.67069665  1
  I  I96  1  0.50299198  0.83765116  0.00426517  1
  I  I97  1  0.50502855  0.83565548  0.32925897  1
  I  I98  1  0.49993311  0.83198953  0.66672436  1
  I  I99  1  0.83271901  0.16836182  -0.00112682  1
  I  I100  1  0.83508245  0.16812283  0.33568708  1
  I  I101  1  0.84021231  0.17522464  0.66499678  1
  I  I102  1  0.83406700  0.50073336  0.00284078  1
  I  I103  1  0.83933756  0.49726541  0.33210226  1
  I  I104  1  0.83486378  0.49636047  0.66425923  1
  I  I105  1  0.83078106  0.82752004  0.00463917  1
  I  I106  1  0.83073888  0.83365721  0.32983255  1
  I  I107  1  0.83499991  0.82940910  0.66643234  1
  I  I108  1  0.00256304  0.16777015  0.16753525  1
  I  I109  1  0.00011311  0.16743916  0.49646031  1
  I  I110  1  -0.00258331  0.17107045  0.83580299  1
  I  I111  1  0.00015363  0.49933137  0.16448706  1
  I  I112  1  -0.00278940  0.49840126  0.49988447  1
  I  I113  1  0.00222259  0.49799270  0.83538227  1
  I  I114  1  -0.00214433  0.83245001  0.16870965  1
  I  I115  1  0.00245972  0.83415657  0.49541684  1
  I  I116  1  0.00000762  0.82988407  0.83718654  1
  I  I117  1  0.33188067  0.16762432  0.17184478  1
  I  I118  1  0.32983667  0.16387591  0.49654300  1
  I  I119  1  0.33334206  0.16711384  0.83177675  1
  I  I120  1  0.33056132  0.49949180  0.16473893  1
  I  I121  1  0.33324075  0.50027651  0.49754399  1
  I  I122  1  0.33215281  0.49916348  0.84080023  1
  I  I123  1  0.33545160  0.83393026  0.16868501  1
  I  I124  1  0.32901767  0.83792181  0.49702732  1
  I  I125  1  0.33320687  0.83610745  0.83608779  1
  I  I126  1  0.66522972  0.16637773  0.16573787  1
  I  I127  1  0.67007459  0.17207607  0.50116254  1
  I  I128  1  0.67020527  0.17110978  0.83023889  1
  I  I129  1  0.66933790  0.49962186  0.16762582  1
  I  I130  1  0.67190750  0.49330355  0.49307825  1
  I  I131  1  0.66510558  0.49703487  0.83554941  1
  I  I132  1  0.66709148  0.83395440  0.16731133  1
  I  I133  1  0.66674559  0.83257849  0.50031011  1
  I  I134  1  0.66683968  0.82982627  0.83093103  1
