# generated using pymatgen
data_Cs27Sn13Pb14I81
_symmetry_space_group_name_H-M   'P 1'
_cell_length_a   18.96893576
_cell_length_b   18.98158249
_cell_length_c   18.98158263
_cell_angle_alpha   89.99966938
_cell_angle_beta   89.99950872
_cell_angle_gamma   90.00049136
_symmetry_Int_Tables_number   1
_chemical_formula_structural   Cs27Sn13Pb14I81
_chemical_formula_sum   'Cs27 Sn13 Pb14 I81'
_cell_volume   6834.51659158
_cell_formula_units_Z   1
loop_
 _symmetry_equiv_pos_site_id
 _symmetry_equiv_pos_as_xyz
  1  'x, y, z'
loop_
 _atom_site_type_symbol
 _atom_site_label
 _atom_site_symmetry_multiplicity
 _atom_site_fract_x
 _atom_site_fract_y
 _atom_site_fract_z
 _atom_site_occupancy
  Cs  Cs0  1  -0.00059775  0.00081250  0.00071074  1
  Cs  Cs1  1  0.00005021  0.00012461  0.33320859  1
  Cs  Cs2  1  0.00059709  -0.00038477  0.66564743  1
  Cs  Cs3  1  0.00162017  0.33162075  0.00171256  1
  Cs  Cs4  1  -0.00059775  0.33262253  0.33252097  1
  Cs  Cs5  1  0.00063029  0.33465488  0.66560376  1
  Cs  Cs6  1  0.00063032  0.66772932  -0.00132141  1
  Cs  Cs7  1  0.00059708  0.66768611  0.33371809  1
  Cs  Cs8  1  -0.00338185  0.66447686  0.66885644  1
  Cs  Cs9  1  0.33211331  0.00108374  0.00067609  1
  Cs  Cs10  1  0.33238560  -0.00247411  0.33580740  1
  Cs  Cs11  1  0.33725805  0.00043250  0.66281702  1
  Cs  Cs12  1  0.33173370  0.33446567  -0.00113223  1
  Cs  Cs13  1  0.33211331  0.33265722  0.33224954  1
  Cs  Cs14  1  0.33687905  0.33137806  0.67011989  1
  Cs  Cs15  1  0.33687897  0.66321319  0.00195540  1
  Cs  Cs16  1  0.33725807  0.67051648  0.33290084  1
  Cs  Cs17  1  0.33741521  0.66857199  0.66476126  1
  Cs  Cs18  1  0.66738917  -0.00236220  -0.00306541  1
  Cs  Cs19  1  0.67020984  0.00072292  0.33261047  1
  Cs  Cs20  1  0.66175827  0.00016176  0.67066141  1
  Cs  Cs21  1  0.66221250  0.33146063  0.00187282  1
  Cs  Cs22  1  0.66738925  0.33639863  0.33569537  1
  Cs  Cs23  1  0.66021235  0.33800240  0.66335268  1
  Cs  Cs24  1  0.66021249  0.66998074  -0.00466902  1
  Cs  Cs25  1  0.66175818  0.66267212  0.33317182  1
  Cs  Cs26  1  0.66741812  0.65873613  0.67459749  1
  Sn  Sn27  1  0.83417319  0.16581624  0.50144797  1
  Sn  Sn28  1  0.16559854  0.50027512  0.16776876  1
  Sn  Sn29  1  0.16559852  0.16556463  0.83305825  1
  Sn  Sn30  1  0.16631649  0.83411308  0.83390239  1
  Sn  Sn31  1  0.83417315  0.83188538  0.16751709  1
  Sn  Sn32  1  0.83429398  0.16708835  0.83176705  1
  Sn  Sn33  1  0.16746264  0.16648314  0.16685017  1
  Sn  Sn34  1  0.83429396  0.50156628  0.16624503  1
  Sn  Sn35  1  0.49887585  0.16616512  0.16716821  1
  Sn  Sn36  1  0.83343591  0.83366511  0.49966826  1
  Sn  Sn37  1  0.16631653  0.49943095  0.49922017  1
  Sn  Sn38  1  0.16577081  0.16750431  0.50007382  1
  Sn  Sn39  1  0.16577084  0.83325950  0.16582899  1
  Pb  Pb40  1  0.49631147  0.83370067  0.83346791  1
  Pb  Pb41  1  0.49980066  0.49980010  0.83353320  1
  Pb  Pb42  1  0.16667128  0.50000100  0.83333229  1
  Pb  Pb43  1  0.49960424  0.16656545  0.83558495  1
  Pb  Pb44  1  0.83520075  0.49990649  0.49814670  1
  Pb  Pb45  1  0.83520078  0.83518659  0.83342682  1
  Pb  Pb46  1  0.16525535  0.83322729  0.50010605  1
  Pb  Pb47  1  0.83370552  0.49667515  0.83665816  1
  Pb  Pb48  1  0.49960427  0.49774839  0.16676791  1
  Pb  Pb49  1  0.83375338  0.16647054  0.16686277  1
  Pb  Pb50  1  0.50468499  0.83344494  0.49988842  1
  Pb  Pb51  1  0.49631151  0.49986539  0.49963265  1
  Pb  Pb52  1  0.50013967  0.16644334  0.49762655  1
  Pb  Pb53  1  0.50013969  0.83570681  0.16689002  1
  I  I54  1  0.16626446  0.00045101  0.16600928  1
  I  I55  1  0.16442644  0.00299030  0.49720494  1
  I  I56  1  0.16239442  0.00143954  0.83806538  1
  I  I57  1  0.16619775  0.33261106  0.16687963  1
  I  I58  1  0.16088823  0.33153873  0.49590037  1
  I  I59  1  0.16358279  0.32977694  0.83645184  1
  I  I60  1  0.16123301  0.66690627  0.16656888  1
  I  I61  1  0.16476468  0.66445299  0.49622667  1
  I  I62  1  0.16630344  0.66964396  0.83710476  1
  I  I63  1  0.49515391  0.00344392  0.16641541  1
  I  I64  1  0.49377469  0.00024962  0.49860414  1
  I  I65  1  0.50224186  0.00041123  0.83517000  1
  I  I66  1  0.49632056  0.32990145  0.16596121  1
  I  I67  1  0.50509596  0.33293829  0.49847448  1
  I  I68  1  0.49767468  0.33259558  0.83525939  1
  I  I69  1  0.49769270  0.66672700  0.16645024  1
  I  I70  1  0.49739306  0.66664354  0.49812334  1
  I  I71  1  0.49932243  0.66696018  0.83446041  1
  I  I72  1  0.83670866  -0.00224450  0.16756335  1
  I  I73  1  0.84059154  0.00116786  0.49601633  1
  I  I74  1  0.83682618  0.00328589  0.83580936  1
  I  I75  1  0.83691502  0.33499015  0.16628502  1
  I  I76  1  0.83613462  0.33024501  0.50099725  1
  I  I77  1  0.84161948  0.32855394  0.83000566  1
  I  I78  1  0.84300144  0.66760856  0.17262292  1
  I  I79  1  0.83677655  0.66919266  0.49624000  1
  I  I80  1  0.83476463  0.66675748  0.83046934  1
  I  I81  1  0.16619768  0.16645349  0.00072222  1
  I  I82  1  0.16626454  0.16732464  0.33288234  1
  I  I83  1  0.16123291  0.16676395  0.66642704  1
  I  I84  1  0.16358285  0.49688139  0.00355639  1
  I  I85  1  0.16239437  0.49526790  0.33189380  1
  I  I86  1  0.16630342  0.49622893  0.66368938  1
  I  I87  1  0.16088829  0.83743347  0.00179460  1
  I  I88  1  0.16442639  0.83612788  0.33034305  1
  I  I89  1  0.16476457  0.83710675  0.66888036  1
  I  I90  1  0.49632072  0.16737217  0.00343191  1
  I  I91  1  0.49515390  0.16691794  0.32988941  1
  I  I92  1  0.49769261  0.16688297  0.66660630  1
  I  I93  1  0.49767466  0.49807361  0.00073775  1
  I  I94  1  0.50224151  0.49816318  0.33292211  1
  I  I95  1  0.49932258  0.49887341  0.66637320  1
  I  I96  1  0.50509574  0.83485919  0.00039506  1
  I  I97  1  0.49377457  0.83472928  0.33308371  1
  I  I98  1  0.49739344  0.83520950  0.66668982  1
  I  I99  1  0.83691497  0.16704835  -0.00165680  1
  I  I100  1  0.83670852  0.16577041  0.33557782  1
  I  I101  1  0.84300170  0.16070997  0.66572474  1
  I  I102  1  0.84161933  0.50332731  0.00477932  1
  I  I103  1  0.83682659  0.49752391  0.33004744  1
  I  I104  1  0.83476447  0.50286436  0.66657584  1
  I  I105  1  0.83613465  0.83233650  0.00308834  1
  I  I106  1  0.84059171  0.83731655  0.33216542  1
  I  I107  1  0.83677626  0.83709330  0.66414061  1
  I  I108  1  0.00318714  0.16687285  0.16646046  1
  I  I109  1  0.00111167  0.16670736  0.49761765  1
  I  I110  1  0.00163284  0.16333036  0.83594398  1
  I  I111  1  0.00163287  0.49738954  0.17000269  1
  I  I112  1  0.00331326  0.49689897  0.49687075  1
  I  I113  1  0.00031308  0.50116453  0.83216885  1
  I  I114  1  0.00111169  0.83571553  0.16662607  1
  I  I115  1  -0.00250968  0.83626355  0.49706988  1
  I  I116  1  0.00331324  0.83646275  0.83643422  1
  I  I117  1  0.33004659  0.16729765  0.16603556  1
  I  I118  1  0.32951687  0.17056804  0.50220632  1
  I  I119  1  0.32928024  0.16381671  0.83145848  1
  I  I120  1  0.32928027  0.50187492  0.16951649  1
  I  I121  1  0.32776174  0.49373201  0.49316433  1
  I  I122  1  0.33244726  0.49764861  0.83568468  1
  I  I123  1  0.32951689  0.83112711  0.16276541  1
  I  I124  1  0.33297699  0.83330224  0.50003122  1
  I  I125  1  0.32776171  0.84016924  0.83960095  1
  I  I126  1  0.66537742  0.16705263  0.16628080  1
  I  I127  1  0.67030914  0.16201719  0.50182626  1
  I  I128  1  0.66975625  0.16661638  0.83193521  1
  I  I129  1  0.66975627  0.50139791  0.16671725  1
  I  I130  1  0.66705092  0.49898992  0.49772418  1
  I  I131  1  0.66725154  0.49823360  0.83509984  1
  I  I132  1  0.67030914  0.83150725  0.17131606  1
  I  I133  1  0.67271041  0.84181543  0.49151745  1
  I  I134  1  0.66705091  0.83560872  0.83434360  1
