# generated using pymatgen
data_Cs27Sn14Pb13I81
_symmetry_space_group_name_H-M   'P 1'
_cell_length_a   18.97560998
_cell_length_b   18.97752320
_cell_length_c   18.97462094
_cell_angle_alpha   90.00134968
_cell_angle_beta   90.00074762
_cell_angle_gamma   89.99976469
_symmetry_Int_Tables_number   1
_chemical_formula_structural   Cs27Sn14Pb13I81
_chemical_formula_sum   'Cs27 Sn14 Pb13 I81'
_cell_volume   6832.95223786
_cell_formula_units_Z   1
loop_
 _symmetry_equiv_pos_site_id
 _symmetry_equiv_pos_as_xyz
  1  'x, y, z'
loop_
 _atom_site_type_symbol
 _atom_site_label
 _atom_site_symmetry_multiplicity
 _atom_site_fract_x
 _atom_site_fract_y
 _atom_site_fract_z
 _atom_site_occupancy
  Cs  Cs0  1  -0.00045037  0.00132632  -0.00227440  1
  Cs  Cs1  1  0.00184452  -0.00117011  0.33543477  1
  Cs  Cs2  1  0.00017080  0.00280047  0.66542936  1
  Cs  Cs3  1  -0.00319435  0.33233594  -0.00073076  1
  Cs  Cs4  1  0.00136050  0.33255149  0.33543495  1
  Cs  Cs5  1  -0.00033861  0.33468487  0.66502000  1
  Cs  Cs6  1  -0.00053938  0.66593480  0.00030424  1
  Cs  Cs7  1  0.00057679  0.66781263  0.33346675  1
  Cs  Cs8  1  -0.00162099  0.66472307  0.66649122  1
  Cs  Cs9  1  0.33407776  -0.00262178  -0.00678886  1
  Cs  Cs10  1  0.33011426  0.00126619  0.33248042  1
  Cs  Cs11  1  0.34050356  -0.00017246  0.67651857  1
  Cs  Cs12  1  0.33375001  0.33291848  -0.00038321  1
  Cs  Cs13  1  0.33458362  0.33262538  0.33462888  1
  Cs  Cs14  1  0.33446454  0.33457964  0.66471079  1
  Cs  Cs15  1  0.33237989  0.66815092  -0.00105839  1
  Cs  Cs16  1  0.33076306  0.66573387  0.33178328  1
  Cs  Cs17  1  0.33581621  0.66536563  0.66989583  1
  Cs  Cs18  1  0.66766992  0.00736219  0.00002940  1
  Cs  Cs19  1  0.66305191  -0.00208164  0.33605854  1
  Cs  Cs20  1  0.65862811  -0.00155467  0.66553917  1
  Cs  Cs21  1  0.66869248  0.32702569  0.00749056  1
  Cs  Cs22  1  0.65873703  0.33216117  0.32603091  1
  Cs  Cs23  1  0.66668771  0.33329332  0.66672794  1
  Cs  Cs24  1  0.66981195  0.66481569  0.00094464  1
  Cs  Cs25  1  0.66384778  0.66816015  0.33349176  1
  Cs  Cs26  1  0.66892258  0.66811125  0.66551814  1
  Sn  Sn27  1  0.16618751  0.16641679  0.49964681  1
  Sn  Sn28  1  0.16617399  0.16640381  0.16696984  1
  Sn  Sn29  1  0.83391688  0.83302337  0.83390323  1
  Sn  Sn30  1  0.83305429  0.50050367  0.83294506  1
  Sn  Sn31  1  0.83375332  0.16788264  0.49979211  1
  Sn  Sn32  1  0.16590269  0.50023787  0.50002118  1
  Sn  Sn33  1  0.16670061  0.83342625  0.50029974  1
  Sn  Sn34  1  0.83380501  0.49888288  0.49994203  1
  Sn  Sn35  1  0.83350491  0.83328836  0.16593099  1
  Sn  Sn36  1  0.16638317  0.83371441  0.16699968  1
  Sn  Sn37  1  0.16622046  0.49968588  0.16676327  1
  Sn  Sn38  1  0.16642927  0.50010505  0.83319516  1
  Sn  Sn39  1  0.49984677  0.83312358  0.16657568  1
  Sn  Sn40  1  0.50097128  0.49992880  0.83368797  1
  Pb  Pb41  1  0.16654239  0.16959153  0.83279340  1
  Pb  Pb42  1  0.83345451  0.16695945  0.83061552  1
  Pb  Pb43  1  0.83503720  0.83319743  0.50009104  1
  Pb  Pb44  1  0.49620005  0.83300417  0.49791219  1
  Pb  Pb45  1  0.49724203  0.50186297  0.16437881  1
  Pb  Pb46  1  0.49671544  0.16381873  0.16671388  1
  Pb  Pb47  1  0.50022986  0.16987329  0.83350391  1
  Pb  Pb48  1  0.83513723  0.50135726  0.16742896  1
  Pb  Pb49  1  0.50328480  0.83115121  0.83591138  1
  Pb  Pb50  1  0.16472749  0.83131758  0.83324204  1
  Pb  Pb51  1  0.49943362  0.16681339  0.49989825  1
  Pb  Pb52  1  0.83568095  0.16378922  0.16965545  1
  Pb  Pb53  1  0.50030453  0.50017521  0.50167155  1
  I  I54  1  0.16619876  -0.00104854  0.17507718  1
  I  I55  1  0.16088738  0.00016689  0.48978806  1
  I  I56  1  0.16546991  -0.00011032  0.83329732  1
  I  I57  1  0.16636781  0.33401037  0.16904268  1
  I  I58  1  0.16298018  0.33413192  0.49770349  1
  I  I59  1  0.16381360  0.33824722  0.83400319  1
  I  I60  1  0.16675639  0.66705418  0.16937047  1
  I  I61  1  0.16276853  0.66583524  0.49646971  1
  I  I62  1  0.16779142  0.66284482  0.83344202  1
  I  I63  1  0.49866099  -0.00411679  0.16657302  1
  I  I64  1  0.50194766  -0.00018286  0.50058326  1
  I  I65  1  0.50037438  -0.00044427  0.83354437  1
  I  I66  1  0.49901167  0.33334681  0.16510322  1
  I  I67  1  0.49536023  0.33357573  0.50074468  1
  I  I68  1  0.49999312  0.33809713  0.83291063  1
  I  I69  1  0.49683027  0.66974516  0.16661953  1
  I  I70  1  0.50036589  0.66664766  0.49969060  1
  I  I71  1  0.49568939  0.66349003  0.83358271  1
  I  I72  1  0.83629571  -0.00432146  0.16135672  1
  I  I73  1  0.83964641  0.00194476  0.49860482  1
  I  I74  1  0.83492634  -0.00282806  0.83744107  1
  I  I75  1  0.83504311  0.33314082  0.16319833  1
  I  I76  1  0.84383117  0.33477057  0.50762332  1
  I  I77  1  0.83484116  0.33716234  0.83072687  1
  I  I78  1  0.83726352  0.66966164  0.16734684  1
  I  I79  1  0.83865205  0.66397805  0.50198131  1
  I  I80  1  0.83447192  0.66520530  0.83123893  1
  I  I81  1  0.16803948  0.16558516  0.00298891  1
  I  I82  1  0.16303732  0.16987527  0.33370897  1
  I  I83  1  0.16228631  0.16667094  0.66297445  1
  I  I84  1  0.16704192  0.50156793  0.00010117  1
  I  I85  1  0.16211192  0.50121608  0.33379762  1
  I  I86  1  0.16609596  0.50025661  0.66608986  1
  I  I87  1  0.16836255  0.83285994  0.00325211  1
  I  I88  1  0.16453302  0.82894764  0.33228833  1
  I  I89  1  0.16285353  0.83274966  0.66395958  1
  I  I90  1  0.49850247  0.16683857  0.00033938  1
  I  I91  1  0.50205708  0.16779283  0.33314522  1
  I  I92  1  0.49685954  0.16457055  0.66661546  1
  I  I93  1  0.49994353  0.50215592  -0.00350721  1
  I  I94  1  0.50007542  0.50066442  0.33293070  1
  I  I95  1  0.49417781  0.50143082  0.66976119  1
  I  I96  1  0.49135212  0.83172499  0.00344883  1
  I  I97  1  0.50582087  0.83204357  0.32980080  1
  I  I98  1  0.49979608  0.83345422  0.66712130  1
  I  I99  1  0.83394582  0.16849711  0.00033598  1
  I  I100  1  0.83720799  0.17239883  0.33730143  1
  I  I101  1  0.84248388  0.16639372  0.66285078  1
  I  I102  1  0.83543875  0.50404367  -0.00262008  1
  I  I103  1  0.84020933  0.49890195  0.33644836  1
  I  I104  1  0.83858766  0.50256582  0.66696138  1
  I  I105  1  0.83629872  0.82623035  0.00037462  1
  I  I106  1  0.83332403  0.83296876  0.33076558  1
  I  I107  1  0.83661478  0.83066680  0.66881198  1
  I  I108  1  0.00390733  0.16529775  0.16834954  1
  I  I109  1  0.00158458  0.16805860  0.49652493  1
  I  I110  1  0.00008642  0.16802121  0.83618907  1
  I  I111  1  0.00389632  0.50334355  0.16305874  1
  I  I112  1  0.00143696  0.49983167  0.50460129  1
  I  I113  1  -0.00001559  0.50409844  0.83198733  1
  I  I114  1  0.00143329  0.83223309  0.16708131  1
  I  I115  1  0.00324335  0.83217148  0.49374335  1
  I  I116  1  -0.00288656  0.82646372  0.83891578  1
  I  I117  1  0.32836387  0.16712173  0.17422627  1
  I  I118  1  0.32899258  0.16865659  0.49488626  1
  I  I119  1  0.33300115  0.16713060  0.83164480  1
  I  I120  1  0.32844348  0.50235706  0.16810393  1
  I  I121  1  0.32938715  0.49942486  0.50017539  1
  I  I122  1  0.33189370  0.49952733  0.83362939  1
  I  I123  1  0.33128227  0.83250082  0.17240677  1
  I  I124  1  0.32772101  0.83203628  0.49455910  1
  I  I125  1  0.33328257  0.83165769  0.83342308  1
  I  I126  1  0.66684381  0.16578482  0.16762972  1
  I  I127  1  0.66989152  0.17129510  0.50199848  1
  I  I128  1  0.66708219  0.16757984  0.83138990  1
  I  I129  1  0.66673254  0.50278172  0.16674106  1
  I  I130  1  0.67038326  0.49667130  0.50540812  1
  I  I131  1  0.66823034  0.50590720  0.82674935  1
  I  I132  1  0.66749212  0.83117032  0.16161575  1
  I  I133  1  0.66681146  0.83338133  0.49889786  1
  I  I134  1  0.67103046  0.82674616  0.83626873  1
