# generated using pymatgen
data_Cs27Sn14Pb13I81
_symmetry_space_group_name_H-M   'P 1'
_cell_length_a   18.98205527
_cell_length_b   18.97678873
_cell_length_c   18.96915952
_cell_angle_alpha   89.99862150
_cell_angle_beta   90.00077764
_cell_angle_gamma   89.99877855
_symmetry_Int_Tables_number   1
_chemical_formula_structural   Cs27Sn14Pb13I81
_chemical_formula_sum   'Cs27 Sn14 Pb13 I81'
_cell_volume   6833.04128276
_cell_formula_units_Z   1
loop_
 _symmetry_equiv_pos_site_id
 _symmetry_equiv_pos_as_xyz
  1  'x, y, z'
loop_
 _atom_site_type_symbol
 _atom_site_label
 _atom_site_symmetry_multiplicity
 _atom_site_fract_x
 _atom_site_fract_y
 _atom_site_fract_z
 _atom_site_occupancy
  Cs  Cs0  1  -0.00146489  -0.00105066  0.00013973  1
  Cs  Cs1  1  0.00466896  0.00243981  0.33745455  1
  Cs  Cs2  1  -0.00087791  -0.00380355  0.66126073  1
  Cs  Cs3  1  -0.00036239  0.33218859  -0.00066033  1
  Cs  Cs4  1  -0.00327387  0.33226817  0.33467248  1
  Cs  Cs5  1  -0.00066943  0.33264987  0.66854424  1
  Cs  Cs6  1  0.00199709  0.66922380  0.00166723  1
  Cs  Cs7  1  -0.00134703  0.66477628  0.33076693  1
  Cs  Cs8  1  0.00035801  0.67156232  0.66560857  1
  Cs  Cs9  1  0.33327181  0.00006025  0.00187841  1
  Cs  Cs10  1  0.33800791  0.00555718  0.33903620  1
  Cs  Cs11  1  0.33188075  -0.00135248  0.66305860  1
  Cs  Cs12  1  0.33208034  0.33322772  -0.00141431  1
  Cs  Cs13  1  0.33239087  0.32976988  0.33224527  1
  Cs  Cs14  1  0.33483028  0.33825345  0.66995491  1
  Cs  Cs15  1  0.33192313  0.66643639  -0.00020336  1
  Cs  Cs16  1  0.33393781  0.66804988  0.33335680  1
  Cs  Cs17  1  0.33203121  0.66310065  0.66659682  1
  Cs  Cs18  1  0.66822588  -0.00106453  -0.00097438  1
  Cs  Cs19  1  0.65562652  0.00084593  0.33753806  1
  Cs  Cs20  1  0.67003579  -0.00155310  0.66499167  1
  Cs  Cs21  1  0.66810198  0.33296962  -0.00090598  1
  Cs  Cs22  1  0.67098342  0.33652141  0.33808074  1
  Cs  Cs23  1  0.66564143  0.33253285  0.66814938  1
  Cs  Cs24  1  0.66717705  0.66788760  0.00092117  1
  Cs  Cs25  1  0.66653873  0.66342093  0.33306635  1
  Cs  Cs26  1  0.66885728  0.66890440  0.66749366  1
  Sn  Sn27  1  0.83314546  0.16503485  0.16613470  1
  Sn  Sn28  1  0.16639444  0.83334149  0.16630520  1
  Sn  Sn29  1  0.49995875  0.16618903  0.83382117  1
  Sn  Sn30  1  0.83351171  0.16723519  0.83399209  1
  Sn  Sn31  1  0.49908098  0.49971857  0.16640998  1
  Sn  Sn32  1  0.16761119  0.83450092  0.83425970  1
  Sn  Sn33  1  0.49896421  0.50005886  0.50001007  1
  Sn  Sn34  1  0.16647943  0.16509135  0.83368446  1
  Sn  Sn35  1  0.83378051  0.83510114  0.16657406  1
  Sn  Sn36  1  0.83266161  0.49979915  0.83378282  1
  Sn  Sn37  1  0.16748074  0.50028282  0.16757575  1
  Sn  Sn38  1  0.50110531  0.50026561  0.83379867  1
  Sn  Sn39  1  0.49889578  0.83328129  0.83372800  1
  Sn  Sn40  1  0.16716010  0.50002903  0.49850396  1
  Pb  Pb41  1  0.49987544  0.83062720  0.50309620  1
  Pb  Pb42  1  0.83337402  0.83335776  0.49530331  1
  Pb  Pb43  1  0.16679485  0.83109720  0.49924152  1
  Pb  Pb44  1  0.83361688  0.83370769  0.83443468  1
  Pb  Pb45  1  0.16513125  0.16647691  0.16493959  1
  Pb  Pb46  1  0.16678748  0.16974672  0.50323702  1
  Pb  Pb47  1  0.16645966  0.50038389  0.83378657  1
  Pb  Pb48  1  0.83326935  0.16649605  0.50006263  1
  Pb  Pb49  1  0.83368863  0.49986663  0.16467236  1
  Pb  Pb50  1  0.83362541  0.50015252  0.50329331  1
  Pb  Pb51  1  0.49991612  0.16947091  0.50297738  1
  Pb  Pb52  1  0.49945308  0.83167572  0.16493731  1
  Pb  Pb53  1  0.50254942  0.16947597  0.16458219  1
  I  I54  1  0.16276822  -0.00285155  0.16129665  1
  I  I55  1  0.16546431  0.00005837  0.49865379  1
  I  I56  1  0.16969648  -0.00057232  0.83974374  1
  I  I57  1  0.16915932  0.33626798  0.16757506  1
  I  I58  1  0.17101802  0.33773449  0.49553206  1
  I  I59  1  0.16812135  0.33159262  0.83304417  1
  I  I60  1  0.16412717  0.66637713  0.16302183  1
  I  I61  1  0.17140588  0.66306865  0.50320187  1
  I  I62  1  0.16929750  0.66891274  0.83404426  1
  I  I63  1  0.49867974  0.00016377  0.16420827  1
  I  I64  1  0.50086772  0.00007139  0.50039019  1
  I  I65  1  0.50016557  0.00015958  0.83543871  1
  I  I66  1  0.49488003  0.33779975  0.16294448  1
  I  I67  1  0.49637592  0.33771775  0.50287562  1
  I  I68  1  0.50054739  0.33418981  0.83277786  1
  I  I69  1  0.50141710  0.66319159  0.16284594  1
  I  I70  1  0.49593494  0.66228433  0.50284509  1
  I  I71  1  0.49993236  0.66546947  0.83325066  1
  I  I72  1  0.83965491  -0.00002280  0.15665744  1
  I  I73  1  0.83419867  -0.00001801  0.50769417  1
  I  I74  1  0.83038704  0.00281810  0.83618202  1
  I  I75  1  0.83289093  0.33134012  0.16254214  1
  I  I76  1  0.83366287  0.33365602  0.49571616  1
  I  I77  1  0.83112502  0.33277476  0.83858281  1
  I  I78  1  0.83464401  0.66843069  0.16352443  1
  I  I79  1  0.83298517  0.66632276  0.50257259  1
  I  I80  1  0.82975701  0.66459266  0.83486679  1
  I  I81  1  0.16861341  0.16962491  -0.00368454  1
  I  I82  1  0.16392890  0.16516730  0.33324751  1
  I  I83  1  0.16411900  0.16276672  0.67198209  1
  I  I84  1  0.16937585  0.50115542  0.00229899  1
  I  I85  1  0.17382645  0.50590574  0.33190510  1
  I  I86  1  0.16991907  0.49875541  0.66541224  1
  I  I87  1  0.16646535  0.82924286  -0.00039856  1
  I  I88  1  0.16020965  0.82879992  0.32965503  1
  I  I89  1  0.17036624  0.83508263  0.66989109  1
  I  I90  1  0.49815695  0.17065338  -0.00414353  1
  I  I91  1  0.50197369  0.16761690  0.33318868  1
  I  I92  1  0.50282382  0.16943340  0.67186372  1
  I  I93  1  0.49977951  0.50001024  -0.00128381  1
  I  I94  1  0.49581839  0.50124049  0.33281463  1
  I  I95  1  0.49881074  0.49911463  0.66814170  1
  I  I96  1  0.49889967  0.82956080  -0.00362760  1
  I  I97  1  0.50133503  0.83100219  0.33320170  1
  I  I98  1  0.49478582  0.83140541  0.67190073  1
  I  I99  1  0.83320151  0.16808186  -0.00169598  1
  I  I100  1  0.83522169  0.16424806  0.32988383  1
  I  I101  1  0.83245276  0.17268244  0.67079662  1
  I  I102  1  0.82894458  0.49801221  -0.00327170  1
  I  I103  1  0.83029437  0.50000014  0.33315234  1
  I  I104  1  0.82984413  0.49378458  0.67149584  1
  I  I105  1  0.83490312  0.83303508  0.00220084  1
  I  I106  1  0.84100043  0.83638217  0.32727479  1
  I  I107  1  0.83347446  0.83229656  0.66693745  1
  I  I108  1  -0.00279312  0.16913065  0.15830448  1
  I  I109  1  0.00014560  0.17065973  0.50345639  1
  I  I110  1  -0.00041867  0.16969046  0.83768486  1
  I  I111  1  0.00273189  0.50123574  0.16860549  1
  I  I112  1  0.00300195  0.50012828  0.49637795  1
  I  I113  1  -0.00198101  0.49625082  0.83430126  1
  I  I114  1  0.00110804  0.82908016  0.15847703  1
  I  I115  1  0.00029576  0.82925850  0.50787261  1
  I  I116  1  0.00276493  0.83415128  0.83555084  1
  I  I117  1  0.33351284  0.16572541  0.16420813  1
  I  I118  1  0.33334766  0.16531247  0.50058799  1
  I  I119  1  0.33361421  0.16895486  0.83272915  1
  I  I120  1  0.33301698  0.50544193  0.16371538  1
  I  I121  1  0.33402426  0.50047352  0.50400015  1
  I  I122  1  0.33598439  0.49773496  0.83316876  1
  I  I123  1  0.33030857  0.82824878  0.16225171  1
  I  I124  1  0.33337227  0.83418009  0.49694242  1
  I  I125  1  0.33289536  0.83432408  0.83899995  1
  I  I126  1  0.67038149  0.16257772  0.15875160  1
  I  I127  1  0.66650300  0.17022170  0.50166697  1
  I  I128  1  0.66669325  0.16955779  0.83725892  1
  I  I129  1  0.66428003  0.50014745  0.16737784  1
  I  I130  1  0.66351606  0.49952859  0.49768617  1
  I  I131  1  0.66495861  0.49741564  0.83364445  1
  I  I132  1  0.66885452  0.83436556  0.16290396  1
  I  I133  1  0.66649613  0.83018055  0.50189355  1
  I  I134  1  0.66433328  0.83314479  0.83494516  1
