# generated using pymatgen
data_Cs27Sn14Pb13I81
_symmetry_space_group_name_H-M   'P 1'
_cell_length_a   18.97539399
_cell_length_b   18.97539398
_cell_length_c   18.97998328
_cell_angle_alpha   89.99876692
_cell_angle_beta   89.99876685
_cell_angle_gamma   90.00355243
_symmetry_Int_Tables_number   1
_chemical_formula_structural   Cs27Sn14Pb13I81
_chemical_formula_sum   'Cs27 Sn14 Pb13 I81'
_cell_volume   6834.03861224
_cell_formula_units_Z   1
loop_
 _symmetry_equiv_pos_site_id
 _symmetry_equiv_pos_as_xyz
  1  'x, y, z'
loop_
 _atom_site_type_symbol
 _atom_site_label
 _atom_site_symmetry_multiplicity
 _atom_site_fract_x
 _atom_site_fract_y
 _atom_site_fract_z
 _atom_site_occupancy
  Cs  Cs0  1  -0.00060694  0.00073455  0.00134849  1
  Cs  Cs1  1  -0.00150016  -0.00220657  0.33203164  1
  Cs  Cs2  1  0.00126904  0.00069152  0.66658816  1
  Cs  Cs3  1  -0.00146697  0.33155641  -0.00046961  1
  Cs  Cs4  1  -0.00023404  0.33211577  0.33412728  1
  Cs  Cs5  1  0.00052805  0.33492073  0.66732650  1
  Cs  Cs6  1  -0.00153032  0.66513620  0.01376052  1
  Cs  Cs7  1  0.00311906  0.66978558  0.32702013  1
  Cs  Cs8  1  -0.00350510  0.66316164  0.66357155  1
  Cs  Cs9  1  0.33415869  0.00082538  -0.00635614  1
  Cs  Cs10  1  0.33550292  0.00216965  0.33558617  1
  Cs  Cs11  1  0.33173322  -0.00160011  0.66967755  1
  Cs  Cs12  1  0.33290135  0.33401577  -0.00011951  1
  Cs  Cs13  1  0.33443026  0.33282694  0.33407915  1
  Cs  Cs14  1  0.33286462  0.33245275  0.66576985  1
  Cs  Cs15  1  0.33406792  0.66605972  0.00134826  1
  Cs  Cs16  1  0.33112662  0.66516651  0.33203168  1
  Cs  Cs17  1  0.33402488  0.66793576  0.66658814  1
  Cs  Cs18  1  0.66734911  -0.00043199  -0.00011928  1
  Cs  Cs19  1  0.66616016  0.00109688  0.33407914  1
  Cs  Cs20  1  0.66578606  -0.00046885  0.66576970  1
  Cs  Cs21  1  0.66698650  0.33365329  0.00034383  1
  Cs  Cs22  1  0.66628003  0.33294687  0.33252154  1
  Cs  Cs23  1  0.66704667  0.33371317  0.66604589  1
  Cs  Cs24  1  0.66488992  0.66519985  -0.00046960  1
  Cs  Cs25  1  0.66544930  0.66643259  0.33412737  1
  Cs  Cs26  1  0.66825404  0.66719492  0.66732652  1
  Sn  Sn27  1  0.83243378  0.16570829  0.83210992  1
  Sn  Sn28  1  0.16771725  0.16656602  0.16757739  1
  Sn  Sn29  1  0.83445749  0.16591994  0.50101207  1
  Sn  Sn30  1  0.49925326  0.50112419  0.50101205  1
  Sn  Sn31  1  0.49989933  0.83438383  0.16757739  1
  Sn  Sn32  1  0.83383162  0.83393484  0.83254385  1
  Sn  Sn33  1  0.16754000  0.49928365  0.50097090  1
  Sn  Sn34  1  0.16562653  0.16710149  0.49938846  1
  Sn  Sn35  1  0.49904167  0.49910044  0.83210990  1
  Sn  Sn36  1  0.16726812  0.50049829  0.83254382  1
  Sn  Sn37  1  0.83261700  0.83420665  0.50097092  1
  Sn  Sn38  1  0.49909894  0.16576564  0.16541899  1
  Sn  Sn39  1  0.50043480  0.83229316  0.49938842  1
  Sn  Sn40  1  0.50078362  0.16745024  0.83403081  1
  Pb  Pb41  1  0.83319019  0.49985682  0.16696966  1
  Pb  Pb42  1  0.50131121  0.83313195  0.83294138  1
  Pb  Pb43  1  0.83291141  0.16661089  0.16679970  1
  Pb  Pb44  1  0.83331188  0.49997857  0.83334590  1
  Pb  Pb45  1  0.49994422  0.49957810  0.16679971  1
  Pb  Pb46  1  0.49998979  0.16665642  0.50044748  1
  Pb  Pb47  1  0.83060630  0.83366484  0.16711566  1
  Pb  Pb48  1  0.16655848  0.83322516  0.50019597  1
  Pb  Pb49  1  0.16285970  0.82952641  0.83321875  1
  Pb  Pb50  1  0.17001119  0.83667788  0.16657853  1
  Pb  Pb51  1  0.16646525  0.16797784  0.83294130  1
  Pb  Pb52  1  0.83348857  0.50015519  0.49978060  1
  Pb  Pb53  1  0.16699818  0.49727287  0.16711564  1
  I  I54  1  0.16709487  0.00459378  0.17344433  1
  I  I55  1  0.16607661  0.00312473  0.49552112  1
  I  I56  1  0.16974502  0.00008053  0.83310156  1
  I  I57  1  0.17435477  0.32960299  0.16838510  1
  I  I58  1  0.16732135  0.33298061  0.49984884  1
  I  I59  1  0.16660253  0.33588389  0.83174585  1
  I  I60  1  0.16564289  0.66658060  0.16669833  1
  I  I61  1  0.16786771  0.66359781  0.50515042  1
  I  I62  1  0.17459498  0.66165379  0.82527525  1
  I  I63  1  0.49666273  0.00099836  0.16750747  1
  I  I64  1  0.50138189  -0.00201810  0.49880829  1
  I  I65  1  0.50237422  0.00269580  0.83433134  1
  I  I66  1  0.49655279  0.33005060  0.16602949  1
  I  I67  1  0.49934990  0.33542190  0.50074891  1
  I  I68  1  0.50246540  0.33277504  0.83334657  1
  I  I69  1  0.50313447  0.66918368  0.16736169  1
  I  I70  1  0.50071511  0.66658825  0.49994308  1
  I  I71  1  0.49818660  0.66407188  0.83287600  1
  I  I72  1  0.83568255  0.00023548  0.16629689  1
  I  I73  1  0.83228435  0.00045395  0.50382795  1
  I  I74  1  0.82648578  0.00133048  0.82919736  1
  I  I75  1  0.83008480  0.33245127  0.16637352  1
  I  I76  1  0.83373736  0.33018845  0.50426802  1
  I  I77  1  0.83197926  0.33019856  0.82921890  1
  I  I78  1  0.83194890  0.66733737  0.16562289  1
  I  I79  1  0.83094362  0.66970972  0.50511760  1
  I  I80  1  0.83214551  0.66945776  0.82763468  1
  I  I81  1  0.16784592  0.16826859  0.00181827  1
  I  I82  1  0.16725371  0.17280905  0.33462639  1
  I  I83  1  0.16582772  0.16937326  0.66387691  1
  I  I84  1  0.17076069  0.49903114  -0.00285463  1
  I  I85  1  0.17113098  0.49787636  0.33683849  1
  I  I86  1  0.17109055  0.49272358  0.66559783  1
  I  I87  1  0.16652409  0.83319061  -0.00011653  1
  I  I88  1  0.16145763  0.82812446  0.33349524  1
  I  I89  1  0.17284021  0.83950677  0.66662042  1
  I  I90  1  0.49989643  0.16656306  -0.00055884  1
  I  I91  1  0.49946047  0.16612689  0.33169748  1
  I  I92  1  0.50105610  0.16772301  0.66915369  1
  I  I93  1  0.49682230  0.49931586  -0.00312288  1
  I  I94  1  0.49648125  0.50047960  0.33663429  1
  I  I95  1  0.49616445  0.49937992  0.66650486  1
  I  I96  1  0.50160183  0.83451263  0.00181829  1
  I  I97  1  0.50614266  0.83392046  0.33462633  1
  I  I98  1  0.50270647  0.83249439  0.66387698  1
  I  I99  1  0.83264922  0.16348888  -0.00312287  1
  I  I100  1  0.83381274  0.16314783  0.33663430  1
  I  I101  1  0.83271356  0.16283144  0.66650483  1
  I  I102  1  0.83348116  0.50014796  -0.00069832  1
  I  I103  1  0.83207348  0.49874068  0.33417941  1
  I  I104  1  0.83319557  0.49986191  0.66658527  1
  I  I105  1  0.83236435  0.83742740  -0.00285461  1
  I  I106  1  0.83120964  0.83779747  0.33683848  1
  I  I107  1  0.82605706  0.83775724  0.66559779  1
  I  I108  1  0.00251690  0.16980084  0.16736175  1
  I  I109  1  -0.00007836  0.16738147  0.49994285  1
  I  I110  1  -0.00259484  0.16485331  0.83287610  1
  I  I111  1  0.00067069  0.49861639  0.16562323  1
  I  I112  1  0.00304305  0.49761083  0.50511735  1
  I  I113  1  0.00279106  0.49881172  0.82763483  1
  I  I114  1  -0.00008605  0.83230936  0.16669820  1
  I  I115  1  -0.00306890  0.83453409  0.50515041  1
  I  I116  1  -0.00501285  0.84126232  0.82527527  1
  I  I117  1  0.33433173  0.16332948  0.16750759  1
  I  I118  1  0.33131525  0.16804874  0.49880810  1
  I  I119  1  0.33602910  0.16904074  0.83433151  1
  I  I120  1  0.33356882  0.50234904  0.16629692  1
  I  I121  1  0.33378727  0.49895098  0.50382788  1
  I  I122  1  0.33466377  0.49315288  0.82919751  1
  I  I123  1  0.33792719  0.83376148  0.17344454  1
  I  I124  1  0.33645808  0.83274309  0.49552089  1
  I  I125  1  0.33341386  0.83641147  0.83310163  1
  I  I126  1  0.66338391  0.16321958  0.16602934  1
  I  I127  1  0.66875527  0.16601676  0.50074927  1
  I  I128  1  0.66610834  0.16913232  0.83334636  1
  I  I129  1  0.66578460  0.49675041  0.16637348  1
  I  I130  1  0.66352181  0.50040361  0.50426830  1
  I  I131  1  0.66353190  0.49864591  0.82921863  1
  I  I132  1  0.66293631  0.84102183  0.16838487  1
  I  I133  1  0.66631399  0.83398842  0.49984907  1
  I  I134  1  0.66921718  0.83326875  0.83174572  1
