# generated using pymatgen
data_Cs27Sn14Pb13I81
_symmetry_space_group_name_H-M   'P 1'
_cell_length_a   18.97608915
_cell_length_b   18.97144282
_cell_length_c   18.97991630
_cell_angle_alpha   90.00078422
_cell_angle_beta   90.00134318
_cell_angle_gamma   90.00115920
_symmetry_Int_Tables_number   1
_chemical_formula_structural   Cs27Sn14Pb13I81
_chemical_formula_sum   'Cs27 Sn14 Pb13 I81'
_cell_volume   6832.84180246
_cell_formula_units_Z   1
loop_
 _symmetry_equiv_pos_site_id
 _symmetry_equiv_pos_as_xyz
  1  'x, y, z'
loop_
 _atom_site_type_symbol
 _atom_site_label
 _atom_site_symmetry_multiplicity
 _atom_site_fract_x
 _atom_site_fract_y
 _atom_site_fract_z
 _atom_site_occupancy
  Cs  Cs0  1  -0.00003774  0.00031395  0.00082330  1
  Cs  Cs1  1  0.00077112  0.00166533  0.33296233  1
  Cs  Cs2  1  -0.00306446  -0.00224038  0.66460672  1
  Cs  Cs3  1  0.00901251  0.33892202  -0.00171383  1
  Cs  Cs4  1  0.00076817  0.33319073  0.33356733  1
  Cs  Cs5  1  0.00153259  0.33449183  0.66600838  1
  Cs  Cs6  1  0.00032618  0.66190071  -0.00293848  1
  Cs  Cs7  1  -0.00174570  0.66384113  0.33632269  1
  Cs  Cs8  1  -0.00946339  0.66796224  0.66724783  1
  Cs  Cs9  1  0.33184277  -0.00187430  -0.00011709  1
  Cs  Cs10  1  0.33347440  -0.00252549  0.33392424  1
  Cs  Cs11  1  0.33559980  0.00059400  0.66505923  1
  Cs  Cs12  1  0.32684445  0.33294901  -0.00327512  1
  Cs  Cs13  1  0.33162667  0.33501063  0.33474472  1
  Cs  Cs14  1  0.33371230  0.33243868  0.66718070  1
  Cs  Cs15  1  0.33511257  0.66798315  -0.00030848  1
  Cs  Cs16  1  0.33430958  0.66833810  0.33430245  1
  Cs  Cs17  1  0.33315498  0.66663897  0.66627733  1
  Cs  Cs18  1  0.66686699  -0.00086372  0.00206554  1
  Cs  Cs19  1  0.66557323  0.00156022  0.33012851  1
  Cs  Cs20  1  0.66702027  0.00285471  0.66531700  1
  Cs  Cs21  1  0.66609705  0.33218207  0.00184861  1
  Cs  Cs22  1  0.66757722  0.33291161  0.33304513  1
  Cs  Cs23  1  0.66511017  0.32981721  0.66561634  1
  Cs  Cs24  1  0.66389075  0.66787879  -0.00014875  1
  Cs  Cs25  1  0.66624652  0.66431496  0.33273730  1
  Cs  Cs26  1  0.67371083  0.66730179  0.66874126  1
  Sn  Sn27  1  0.83330076  0.16644380  0.16594224  1
  Sn  Sn28  1  0.49930752  0.83290506  0.83378235  1
  Sn  Sn29  1  0.49971373  0.49966151  0.16639275  1
  Sn  Sn30  1  0.83413571  0.16675845  0.49962187  1
  Sn  Sn31  1  0.83343925  0.83355839  0.16661214  1
  Sn  Sn32  1  0.49946598  0.50027135  0.50025960  1
  Sn  Sn33  1  0.16640076  0.83306194  0.16593879  1
  Sn  Sn34  1  0.16628908  0.16700187  0.49987503  1
  Sn  Sn35  1  0.16715321  0.83343842  0.83374009  1
  Sn  Sn36  1  0.16731638  0.49974332  0.50019648  1
  Sn  Sn37  1  0.50000374  0.83347104  0.16605217  1
  Sn  Sn38  1  0.50003398  0.50045070  0.83333669  1
  Sn  Sn39  1  0.83354067  0.16697399  0.83436219  1
  Sn  Sn40  1  0.49984418  0.16674808  0.16649344  1
  Pb  Pb41  1  0.83285222  0.83513441  0.83577565  1
  Pb  Pb42  1  0.16928162  0.50293913  0.16855236  1
  Pb  Pb43  1  0.16654472  0.16492134  0.16822695  1
  Pb  Pb44  1  0.83316670  0.49753495  0.49997959  1
  Pb  Pb45  1  0.16894337  0.50265184  0.83065599  1
  Pb  Pb46  1  0.83057768  0.49714818  0.83363025  1
  Pb  Pb47  1  0.83300662  0.83605452  0.49685086  1
  Pb  Pb48  1  0.16443871  0.16408979  0.83079199  1
  Pb  Pb49  1  0.50025778  0.83072712  0.50036261  1
  Pb  Pb50  1  0.83150539  0.49958669  0.16642595  1
  Pb  Pb51  1  0.16668161  0.83299324  0.50041518  1
  Pb  Pb52  1  0.50128576  0.16620898  0.83583156  1
  Pb  Pb53  1  0.49985295  0.16868277  0.49761337  1
  I  I54  1  0.17179356  -0.00319521  0.16637015  1
  I  I55  1  0.16112515  0.00243327  0.49905114  1
  I  I56  1  0.17428708  -0.00357822  0.83586196  1
  I  I57  1  0.16684516  0.33356489  0.16695006  1
  I  I58  1  0.16672607  0.33317566  0.49880315  1
  I  I59  1  0.16686619  0.33338412  0.83378021  1
  I  I60  1  0.16619259  0.67110228  0.16542033  1
  I  I61  1  0.17393107  0.66402871  0.49830772  1
  I  I62  1  0.16799056  0.67043230  0.83677346  1
  I  I63  1  0.50158209  -0.00090489  0.16277902  1
  I  I64  1  0.49963526  0.00025206  0.49979514  1
  I  I65  1  0.49780439  -0.00304440  0.83869404  1
  I  I66  1  0.50694879  0.33332608  0.16817734  1
  I  I67  1  0.49954743  0.33671205  0.50011920  1
  I  I68  1  0.50342805  0.33590567  0.83386200  1
  I  I69  1  0.49983806  0.66733378  0.16685843  1
  I  I70  1  0.49238556  0.66260717  0.49419130  1
  I  I71  1  0.49642868  0.66717317  0.83844327  1
  I  I72  1  0.82740034  0.00057585  0.16763054  1
  I  I73  1  0.83947406  0.00428412  0.50219534  1
  I  I74  1  0.83072491  0.00301978  0.83080073  1
  I  I75  1  0.82674487  0.32955248  0.16860240  1
  I  I76  1  0.83350922  0.32937812  0.49585750  1
  I  I77  1  0.83103579  0.32903254  0.83555983  1
  I  I78  1  0.83201308  0.66979549  0.16616422  1
  I  I79  1  0.83448546  0.66655189  0.49900544  1
  I  I80  1  0.83512782  0.66692361  0.83394993  1
  I  I81  1  0.16585675  0.16748610  -0.00002474  1
  I  I82  1  0.16184262  0.16796619  0.33611463  1
  I  I83  1  0.16247719  0.16852946  0.66286887  1
  I  I84  1  0.16712890  0.49835034  -0.00015022  1
  I  I85  1  0.17250522  0.49825042  0.33631992  1
  I  I86  1  0.17372281  0.49672593  0.66305350  1
  I  I87  1  0.16880797  0.83485845  0.00094385  1
  I  I88  1  0.16825934  0.83402243  0.33043143  1
  I  I89  1  0.17341776  0.83424414  0.66953065  1
  I  I90  1  0.50609747  0.16944033  0.00396643  1
  I  I91  1  0.50531251  0.16490407  0.32951252  1
  I  I92  1  0.50203363  0.16662878  0.66663897  1
  I  I93  1  0.50297380  0.50221121  0.00051445  1
  I  I94  1  0.49677685  0.49988579  0.33266744  1
  I  I95  1  0.49560373  0.50385251  0.66677759  1
  I  I96  1  0.49986129  0.82884237  0.00136800  1
  I  I97  1  0.49927616  0.83343519  0.32969954  1
  I  I98  1  0.49411284  0.82996698  0.67015258  1
  I  I99  1  0.82568620  0.16107113  0.00148173  1
  I  I100  1  0.83255306  0.16245547  0.33250964  1
  I  I101  1  0.83721282  0.16799641  0.66621970  1
  I  I102  1  0.83220040  0.49699999  0.00008539  1
  I  I103  1  0.83012637  0.49939586  0.33323555  1
  I  I104  1  0.83039824  0.49915872  0.66667921  1
  I  I105  1  0.83179720  0.84062760  0.00367743  1
  I  I106  1  0.83242832  0.83837535  0.32857177  1
  I  I107  1  0.83379043  0.83490690  0.66696202  1
  I  I108  1  -0.00302369  0.16017653  0.16686031  1
  I  I109  1  -0.00040339  0.17198959  0.49718464  1
  I  I110  1  -0.00354102  0.16399157  0.83896173  1
  I  I111  1  0.00046356  0.50025763  0.16964849  1
  I  I112  1  0.00273455  0.49835852  0.49905352  1
  I  I113  1  0.00028824  0.50123906  0.83095366  1
  I  I114  1  -0.00012463  0.84088320  0.16427220  1
  I  I115  1  0.00000372  0.82852097  0.50049316  1
  I  I116  1  0.00220404  0.83641222  0.83663501  1
  I  I117  1  0.33613459  0.16569884  0.16901727  1
  I  I118  1  0.33106088  0.16851310  0.49781095  1
  I  I119  1  0.33332796  0.16809620  0.83286772  1
  I  I120  1  0.33779832  0.49874413  0.16511217  1
  I  I121  1  0.33410356  0.49346596  0.49889768  1
  I  I122  1  0.33720220  0.50014940  0.83655015  1
  I  I123  1  0.33453857  0.83335025  0.16348544  1
  I  I124  1  0.33341794  0.83878987  0.49500673  1
  I  I125  1  0.33450646  0.83039315  0.84188941  1
  I  I126  1  0.66683357  0.16223626  0.16916489  1
  I  I127  1  0.66921545  0.16744426  0.50071130  1
  I  I128  1  0.66929602  0.16502716  0.82815399  1
  I  I129  1  0.66252443  0.50421444  0.16987727  1
  I  I130  1  0.66335872  0.49959385  0.49867744  1
  I  I131  1  0.66213652  0.50793132  0.83114660  1
  I  I132  1  0.66547892  0.83450411  0.16357909  1
  I  I133  1  0.66657076  0.83302405  0.50078628  1
  I  I134  1  0.66355264  0.82986503  0.83764789  1
