# generated using pymatgen
data_Cs27Sn13Pb14I81
_symmetry_space_group_name_H-M   'P 1'
_cell_length_a   18.97790142
_cell_length_b   18.97590610
_cell_length_c   18.97800267
_cell_angle_alpha   90.00027418
_cell_angle_beta   89.99806071
_cell_angle_gamma   90.00067254
_symmetry_Int_Tables_number   1
_chemical_formula_structural   Cs27Sn13Pb14I81
_chemical_formula_sum   'Cs27 Sn13 Pb14 I81'
_cell_volume   6834.41288438
_cell_formula_units_Z   1
loop_
 _symmetry_equiv_pos_site_id
 _symmetry_equiv_pos_as_xyz
  1  'x, y, z'
loop_
 _atom_site_type_symbol
 _atom_site_label
 _atom_site_symmetry_multiplicity
 _atom_site_fract_x
 _atom_site_fract_y
 _atom_site_fract_z
 _atom_site_occupancy
  Cs  Cs0  1  0.00021384  -0.00141387  0.00171303  1
  Cs  Cs1  1  -0.00421046  -0.00144467  0.33241101  1
  Cs  Cs2  1  0.00094140  0.00402912  0.66664830  1
  Cs  Cs3  1  0.00206450  0.33406264  -0.00019447  1
  Cs  Cs4  1  -0.00210407  0.33434800  0.33507463  1
  Cs  Cs5  1  0.00128431  0.33339900  0.66584234  1
  Cs  Cs6  1  -0.00101650  0.66748961  -0.00095377  1
  Cs  Cs7  1  0.00135033  0.66507362  0.33380321  1
  Cs  Cs8  1  -0.00246374  0.66414504  0.66677288  1
  Cs  Cs9  1  0.33045153  0.00411861  -0.00100214  1
  Cs  Cs10  1  0.33259848  -0.00785909  0.33379241  1
  Cs  Cs11  1  0.33420283  -0.00003323  0.66642834  1
  Cs  Cs12  1  0.33320708  0.33231747  0.00051147  1
  Cs  Cs13  1  0.33414024  0.33443482  0.33175609  1
  Cs  Cs14  1  0.33165238  0.33211050  0.66647053  1
  Cs  Cs15  1  0.33808046  0.66601429  0.00291061  1
  Cs  Cs16  1  0.33422628  0.67531574  0.33383427  1
  Cs  Cs17  1  0.33364877  0.67149345  0.66331688  1
  Cs  Cs18  1  0.67138137  -0.00347475  0.00092552  1
  Cs  Cs19  1  0.67117450  -0.00076089  0.33221018  1
  Cs  Cs20  1  0.66447106  -0.00132761  0.66626320  1
  Cs  Cs21  1  0.66403258  0.33525991  -0.00013691  1
  Cs  Cs22  1  0.66767417  0.33348308  0.33401699  1
  Cs  Cs23  1  0.66663130  0.33393734  0.66592344  1
  Cs  Cs24  1  0.66155641  0.66997792  -0.00567276  1
  Cs  Cs25  1  0.66485635  0.66525131  0.33434067  1
  Cs  Cs26  1  0.66857754  0.66822455  0.67012722  1
  Sn  Sn27  1  0.16670606  0.83311033  0.83338528  1
  Sn  Sn28  1  0.83344762  0.49990762  0.16657720  1
  Sn  Sn29  1  0.83241836  0.50059976  0.49940900  1
  Sn  Sn30  1  0.16603182  0.49917673  0.16603243  1
  Sn  Sn31  1  0.16648659  0.16703134  0.83400677  1
  Sn  Sn32  1  0.83338052  0.16712153  0.83354001  1
  Sn  Sn33  1  0.83361263  0.83243625  0.50002155  1
  Sn  Sn34  1  0.50041924  0.49931186  0.50008718  1
  Sn  Sn35  1  0.50038275  0.16705294  0.83358337  1
  Sn  Sn36  1  0.49965372  0.16751859  0.49954815  1
  Sn  Sn37  1  0.16694285  0.50023732  0.83409127  1
  Sn  Sn38  1  0.49935046  0.16688350  0.16688293  1
  Sn  Sn39  1  0.16710886  0.16756734  0.16649789  1
  Pb  Pb40  1  0.49958024  0.49842045  0.16860883  1
  Pb  Pb41  1  0.16649968  0.83314074  0.16447137  1
  Pb  Pb42  1  0.83118293  0.16736539  0.50181874  1
  Pb  Pb43  1  0.16912251  0.16660951  0.49904579  1
  Pb  Pb44  1  0.83546492  0.83574786  0.83150939  1
  Pb  Pb45  1  0.49761969  0.83604501  0.83344256  1
  Pb  Pb46  1  0.49717637  0.49815098  0.83091217  1
  Pb  Pb47  1  0.50010159  0.83671170  0.16647171  1
  Pb  Pb48  1  0.83348387  0.82973843  0.16848224  1
  Pb  Pb49  1  0.50227651  0.83335398  0.50011421  1
  Pb  Pb50  1  0.83492232  0.49837810  0.83341340  1
  Pb  Pb51  1  0.83359688  0.16875803  0.16457718  1
  Pb  Pb52  1  0.16387351  0.83344220  0.50238519  1
  Pb  Pb53  1  0.16695920  0.49987718  0.49930062  1
  I  I54  1  0.17154554  0.00349672  0.16218668  1
  I  I55  1  0.16640263  0.00022729  0.50091691  1
  I  I56  1  0.16719430  0.00209487  0.83596219  1
  I  I57  1  0.16706541  0.33295026  0.15834628  1
  I  I58  1  0.16240447  0.33330876  0.50559734  1
  I  I59  1  0.16686729  0.33213763  0.83689880  1
  I  I60  1  0.16199391  0.66308835  0.16309850  1
  I  I61  1  0.17165753  0.66638247  0.50080900  1
  I  I62  1  0.16432337  0.66568356  0.83601276  1
  I  I63  1  0.49314361  0.00574509  0.16892735  1
  I  I64  1  0.50031074  0.00338324  0.50143255  1
  I  I65  1  0.49775860  0.00504190  0.82979473  1
  I  I66  1  0.49819991  0.32993710  0.16430074  1
  I  I67  1  0.50587984  0.33263539  0.50074266  1
  I  I68  1  0.49743117  0.32943859  0.83475458  1
  I  I69  1  0.49879758  0.66622268  0.16976126  1
  I  I70  1  0.50103489  0.66359151  0.49961754  1
  I  I71  1  0.49863855  0.66643987  0.83084135  1
  I  I72  1  0.83348660  0.00030489  0.16792619  1
  I  I73  1  0.83263289  -0.00152328  0.50355825  1
  I  I74  1  0.83464385  0.00400576  0.83146953  1
  I  I75  1  0.83546921  0.33636178  0.17369662  1
  I  I76  1  0.83129012  0.33629900  0.49760611  1
  I  I77  1  0.83572822  0.33022499  0.83067736  1
  I  I78  1  0.84096258  0.66159663  0.16787216  1
  I  I79  1  0.82840220  0.66478286  0.49713551  1
  I  I80  1  0.83649185  0.66646386  0.83387115  1
  I  I81  1  0.17123997  0.16749768  -0.00115872  1
  I  I82  1  0.17030012  0.17284911  0.32952882  1
  I  I83  1  0.16709017  0.16759497  0.67006465  1
  I  I84  1  0.16080403  0.49766945  0.00013082  1
  I  I85  1  0.16484071  0.49315692  0.33002476  1
  I  I86  1  0.16646229  0.49763108  0.66952059  1
  I  I87  1  0.16495726  0.83589183  -0.00352265  1
  I  I88  1  0.16686088  0.83381762  0.33316993  1
  I  I89  1  0.16722146  0.83488938  0.67055858  1
  I  I90  1  0.49721609  0.16642091  -0.00032630  1
  I  I91  1  0.49588582  0.17172696  0.33324105  1
  I  I92  1  0.49981901  0.17020759  0.66713953  1
  I  I93  1  0.50265893  0.49865002  0.00001617  1
  I  I94  1  0.50041089  0.49260340  0.33648288  1
  I  I95  1  0.50510001  0.49328414  0.66312386  1
  I  I96  1  0.50160198  0.83225133  -0.00023918  1
  I  I97  1  0.49854767  0.83588620  0.33361688  1
  I  I98  1  0.49852637  0.83653638  0.66669396  1
  I  I99  1  0.83046124  0.16832013  -0.00336515  1
  I  I100  1  0.83350373  0.16476064  0.33326003  1
  I  I101  1  0.83552205  0.16840987  0.66987406  1
  I  I102  1  0.83718095  0.49544328  0.00241073  1
  I  I103  1  0.83622244  0.50171814  0.33383837  1
  I  I104  1  0.83129469  0.50181926  0.66396288  1
  I  I105  1  0.83418683  0.83393417  -0.00025976  1
  I  I106  1  0.83331303  0.83511004  0.33672563  1
  I  I107  1  0.83379164  0.82608616  0.66371141  1
  I  I108  1  0.00301935  0.16859485  0.16068721  1
  I  I109  1  -0.00020428  0.16695879  0.50186111  1
  I  I110  1  0.00163490  0.16646949  0.83665904  1
  I  I111  1  0.00090143  0.49368959  0.16902012  1
  I  I112  1  -0.00272970  0.50381767  0.49958135  1
  I  I113  1  0.00325636  0.49582356  0.83180074  1
  I  I114  1  0.00004415  0.83930589  0.16753373  1
  I  I115  1  -0.00374222  0.82690467  0.50035160  1
  I  I116  1  0.00345250  0.83669185  0.83215737  1
  I  I117  1  0.33255671  0.17296035  0.16122143  1
  I  I118  1  0.33734005  0.17319808  0.50529813  1
  I  I119  1  0.33266196  0.16665850  0.83352323  1
  I  I120  1  0.33026457  0.49641079  0.16293261  1
  I  I121  1  0.33604328  0.49352207  0.50176770  1
  I  I122  1  0.32897303  0.49680784  0.83811280  1
  I  I123  1  0.33307030  0.82868312  0.16821484  1
  I  I124  1  0.33343612  0.83279804  0.50057217  1
  I  I125  1  0.32942265  0.83513615  0.83246298  1
  I  I126  1  0.66400843  0.16826754  0.16580176  1
  I  I127  1  0.66308105  0.16804710  0.50026321  1
  I  I128  1  0.66583394  0.16769443  0.83223741  1
  I  I129  1  0.66891752  0.49693778  0.17103237  1
  I  I130  1  0.66746449  0.49864808  0.49446525  1
  I  I131  1  0.66648310  0.49688517  0.83501245  1
  I  I132  1  0.66693777  0.83483459  0.16643141  1
  I  I133  1  0.66985086  0.83230142  0.50161073  1
  I  I134  1  0.66681992  0.83559758  0.83199969  1
