# generated using pymatgen
data_Cs27Sn14Pb13I81
_symmetry_space_group_name_H-M   'P 1'
_cell_length_a   18.97154243
_cell_length_b   18.98081411
_cell_length_c   18.97588149
_cell_angle_alpha   89.99892687
_cell_angle_beta   90.00164990
_cell_angle_gamma   89.99774104
_symmetry_Int_Tables_number   1
_chemical_formula_structural   Cs27Sn14Pb13I81
_chemical_formula_sum   'Cs27 Sn14 Pb13 I81'
_cell_volume   6833.12611054
_cell_formula_units_Z   1
loop_
 _symmetry_equiv_pos_site_id
 _symmetry_equiv_pos_as_xyz
  1  'x, y, z'
loop_
 _atom_site_type_symbol
 _atom_site_label
 _atom_site_symmetry_multiplicity
 _atom_site_fract_x
 _atom_site_fract_y
 _atom_site_fract_z
 _atom_site_occupancy
  Cs  Cs0  1  -0.00142969  -0.00078399  -0.00862051  1
  Cs  Cs1  1  0.00078936  -0.00111361  0.33257621  1
  Cs  Cs2  1  0.00539722  0.00108170  0.67654536  1
  Cs  Cs3  1  -0.00299862  0.33389428  0.00318792  1
  Cs  Cs4  1  -0.00066729  0.33283132  0.33210937  1
  Cs  Cs5  1  0.00422586  0.33713669  0.66561049  1
  Cs  Cs6  1  0.00256933  0.66721912  -0.00296531  1
  Cs  Cs7  1  0.00141957  0.66777719  0.33409433  1
  Cs  Cs8  1  -0.00069191  0.66381634  0.66860323  1
  Cs  Cs9  1  0.33152384  -0.00003727  0.00315558  1
  Cs  Cs10  1  0.33515613  -0.00021209  0.33120815  1
  Cs  Cs11  1  0.32958446  0.00421855  0.66894140  1
  Cs  Cs12  1  0.33564714  0.33526969  -0.00110904  1
  Cs  Cs13  1  0.33146409  0.33079026  0.33315696  1
  Cs  Cs14  1  0.33095228  0.33121161  0.66926058  1
  Cs  Cs15  1  0.33371826  0.66487202  0.00138903  1
  Cs  Cs16  1  0.33246422  0.66935920  0.33342879  1
  Cs  Cs17  1  0.33396525  0.66528788  0.66368469  1
  Cs  Cs18  1  0.66903819  0.00094935  -0.00155235  1
  Cs  Cs19  1  0.66472698  -0.00087605  0.33468629  1
  Cs  Cs20  1  0.66632369  -0.00266390  0.66424629  1
  Cs  Cs21  1  0.66731420  0.33417221  0.00083371  1
  Cs  Cs22  1  0.66860044  0.33254119  0.33240882  1
  Cs  Cs23  1  0.66470020  0.33371769  0.66577062  1
  Cs  Cs24  1  0.66458682  0.66461055  0.00167956  1
  Cs  Cs25  1  0.66615752  0.66797880  0.33469741  1
  Cs  Cs26  1  0.66799683  0.66782880  0.66485250  1
  Sn  Sn27  1  0.49994024  0.83348102  0.83325271  1
  Sn  Sn28  1  0.83262230  0.83330730  0.16715090  1
  Sn  Sn29  1  0.83305617  0.16618469  0.50018355  1
  Sn  Sn30  1  0.16622341  0.50004501  0.83444641  1
  Sn  Sn31  1  0.83242594  0.49995231  0.50053077  1
  Sn  Sn32  1  0.83333604  0.49982675  0.83287326  1
  Sn  Sn33  1  0.50038363  0.83363335  0.50017071  1
  Sn  Sn34  1  0.50111340  0.83417298  0.16653296  1
  Sn  Sn35  1  0.49974220  0.16621469  0.16724534  1
  Sn  Sn36  1  0.50082069  0.16657361  0.49920084  1
  Sn  Sn37  1  0.50066096  0.49972607  0.49969946  1
  Sn  Sn38  1  0.16701009  0.16735604  0.16690435  1
  Sn  Sn39  1  0.16677448  0.49927236  0.16620941  1
  Sn  Sn40  1  0.83327368  0.83388675  0.49947220  1
  Pb  Pb41  1  0.83293777  0.16965668  0.82991622  1
  Pb  Pb42  1  0.50025162  0.16427277  0.83336589  1
  Pb  Pb43  1  0.83140201  0.83130535  0.83291519  1
  Pb  Pb44  1  0.83521613  0.50239844  0.16731018  1
  Pb  Pb45  1  0.49833574  0.49987468  0.16916617  1
  Pb  Pb46  1  0.16673483  0.16946993  0.83669768  1
  Pb  Pb47  1  0.83296420  0.16413029  0.16853707  1
  Pb  Pb48  1  0.50023563  0.50175415  0.83084318  1
  Pb  Pb49  1  0.16969888  0.83073802  0.83327503  1
  Pb  Pb50  1  0.16663853  0.16649868  0.49793077  1
  Pb  Pb51  1  0.16625425  0.83364017  0.50021972  1
  Pb  Pb52  1  0.16645570  0.83373143  0.16667796  1
  Pb  Pb53  1  0.16642630  0.50001112  0.49971006  1
  I  I54  1  0.16981119  0.00261862  0.17032806  1
  I  I55  1  0.16671357  0.00015603  0.49707026  1
  I  I56  1  0.16664583  0.00009530  0.83364592  1
  I  I57  1  0.17233630  0.33327606  0.16374722  1
  I  I58  1  0.16747539  0.33343341  0.50133632  1
  I  I59  1  0.16445447  0.33734635  0.83293368  1
  I  I60  1  0.16676809  0.66423927  0.16300713  1
  I  I61  1  0.16876189  0.66648241  0.49703878  1
  I  I62  1  0.16245964  0.66293462  0.84002487  1
  I  I63  1  0.49697743  -0.00050874  0.17172633  1
  I  I64  1  0.50601538  -0.00036624  0.49852083  1
  I  I65  1  0.50135850  -0.00375412  0.82865860  1
  I  I66  1  0.49702263  0.33068765  0.17185173  1
  I  I67  1  0.50589775  0.33288314  0.49540414  1
  I  I68  1  0.49910229  0.33360361  0.83286978  1
  I  I69  1  0.50182716  0.66966246  0.16808498  1
  I  I70  1  0.50477957  0.66736451  0.50020386  1
  I  I71  1  0.49977642  0.66963756  0.83405197  1
  I  I72  1  0.83338116  -0.00371231  0.17244908  1
  I  I73  1  0.82548922  -0.00068448  0.49296826  1
  I  I74  1  0.83313282  -0.00021785  0.83337980  1
  I  I75  1  0.83201222  0.33333416  0.16715692  1
  I  I76  1  0.82710265  0.33377906  0.50423034  1
  I  I77  1  0.83632987  0.33785885  0.82937332  1
  I  I78  1  0.82784631  0.67007477  0.17243407  1
  I  I79  1  0.82738996  0.66673403  0.49997384  1
  I  I80  1  0.83678841  0.66357517  0.82706212  1
  I  I81  1  0.17386343  0.16728541  0.00460099  1
  I  I82  1  0.16878553  0.17405681  0.33009607  1
  I  I83  1  0.16739922  0.16766137  0.66682295  1
  I  I84  1  0.16162771  0.49680229  0.00007333  1
  I  I85  1  0.16721626  0.49667552  0.33073349  1
  I  I86  1  0.16537473  0.50202734  0.66880713  1
  I  I87  1  0.16646004  0.83445881  0.00019132  1
  I  I88  1  0.16980624  0.82898485  0.33308743  1
  I  I89  1  0.16686133  0.83098841  0.66685526  1
  I  I90  1  0.49487377  0.16214582  0.00352059  1
  I  I91  1  0.49915928  0.16212454  0.33395649  1
  I  I92  1  0.50439966  0.16632453  0.66290352  1
  I  I93  1  0.50131081  0.50108780  0.00010957  1
  I  I94  1  0.50486614  0.50442692  0.33723705  1
  I  I95  1  0.49909737  0.50023318  0.66260861  1
  I  I96  1  0.50335255  0.83685433  0.00149793  1
  I  I97  1  0.50348477  0.83375844  0.33375596  1
  I  I98  1  0.50420777  0.83168871  0.66477928  1
  I  I99  1  0.83362927  0.16633203  0.00016211  1
  I  I100  1  0.83191897  0.17255801  0.33678380  1
  I  I101  1  0.82592645  0.16072470  0.66148939  1
  I  I102  1  0.83650025  0.50309402  -0.00201416  1
  I  I103  1  0.83060346  0.49899556  0.33673307  1
  I  I104  1  0.83586176  0.50247786  0.66509672  1
  I  I105  1  0.82894538  0.83148042  0.00240588  1
  I  I106  1  0.82590655  0.83067680  0.33460613  1
  I  I107  1  0.82794427  0.83387358  0.66320485  1
  I  I108  1  0.00213607  0.17041923  0.16919165  1
  I  I109  1  -0.00330051  0.16831037  0.49798797  1
  I  I110  1  -0.00012346  0.16283760  0.83316741  1
  I  I111  1  0.00314136  0.49556620  0.16787079  1
  I  I112  1  -0.00337963  0.50059600  0.50093089  1
  I  I113  1  -0.00040727  0.50124468  0.82995753  1
  I  I114  1  -0.00294963  0.83177406  0.17332285  1
  I  I115  1  -0.00418821  0.83126485  0.49348840  1
  I  I116  1  -0.00021275  0.83391309  0.83388342  1
  I  I117  1  0.33483420  0.16444431  0.17301544  1
  I  I118  1  0.33701245  0.16656636  0.49827798  1
  I  I119  1  0.33351113  0.16868478  0.82749822  1
  I  I120  1  0.33041611  0.50117598  0.16238296  1
  I  I121  1  0.33635117  0.50124362  0.49966037  1
  I  I122  1  0.33108556  0.50222937  0.83611189  1
  I  I123  1  0.33677014  0.83370039  0.16850739  1
  I  I124  1  0.33760195  0.83189130  0.49806712  1
  I  I125  1  0.33775257  0.83136512  0.83280686  1
  I  I126  1  0.66355820  0.16407140  0.16951688  1
  I  I127  1  0.66561420  0.16711748  0.49406510  1
  I  I128  1  0.66658176  0.17061692  0.83968963  1
  I  I129  1  0.66667657  0.49768675  0.16331864  1
  I  I130  1  0.66722626  0.50089029  0.50531422  1
  I  I131  1  0.66918295  0.50208545  0.82970264  1
  I  I132  1  0.66512243  0.83761406  0.16854142  1
  I  I133  1  0.66592478  0.83234371  0.49904271  1
  I  I134  1  0.66355331  0.83002307  0.83272460  1
