# generated using pymatgen
data_Cs27Sn14Pb13I81
_symmetry_space_group_name_H-M   'P 1'
_cell_length_a   18.96078137
_cell_length_b   18.96078135
_cell_length_c   18.96239320
_cell_angle_alpha   90.00182780
_cell_angle_beta   90.00182773
_cell_angle_gamma   89.99830180
_symmetry_Int_Tables_number   1
_chemical_formula_structural   Cs27Sn14Pb13I81
_chemical_formula_sum   'Cs27 Sn14 Pb13 I81'
_cell_volume   6817.19329064
_cell_formula_units_Z   1
loop_
 _symmetry_equiv_pos_site_id
 _symmetry_equiv_pos_as_xyz
  1  'x, y, z'
loop_
 _atom_site_type_symbol
 _atom_site_label
 _atom_site_symmetry_multiplicity
 _atom_site_fract_x
 _atom_site_fract_y
 _atom_site_fract_z
 _atom_site_occupancy
  Cs  Cs0  1  -0.00026672  0.00060387  0.00027503  1
  Cs  Cs1  1  0.00033877  0.00014289  0.33201085  1
  Cs  Cs2  1  0.00735205  0.00185273  0.66673024  1
  Cs  Cs3  1  -0.00217651  0.33216741  0.00006870  1
  Cs  Cs4  1  0.00040767  0.33395283  0.33372797  1
  Cs  Cs5  1  0.00161541  0.33452137  0.66723842  1
  Cs  Cs6  1  0.00052968  0.66719636  0.00125127  1
  Cs  Cs7  1  -0.00075266  0.66591406  0.33228000  1
  Cs  Cs8  1  -0.00355233  0.66311434  0.66683018  1
  Cs  Cs9  1  0.33172023  -0.00161285  -0.00439274  1
  Cs  Cs10  1  0.33330295  -0.00003011  0.33362485  1
  Cs  Cs11  1  0.32841894  -0.00491450  0.67386097  1
  Cs  Cs12  1  0.33708713  0.33496324  0.00170134  1
  Cs  Cs13  1  0.33462888  0.33384700  0.33237407  1
  Cs  Cs14  1  0.33064536  0.32983658  0.66592545  1
  Cs  Cs15  1  0.33393718  0.66640001  0.00027500  1
  Cs  Cs16  1  0.33347632  0.66700544  0.33201084  1
  Cs  Cs17  1  0.33518593  0.67401906  0.66673025  1
  Cs  Cs18  1  0.66829656  0.00375389  0.00170154  1
  Cs  Cs19  1  0.66718035  0.00129559  0.33237401  1
  Cs  Cs20  1  0.66316988  -0.00268776  0.66592563  1
  Cs  Cs21  1  0.66553022  0.33219696  -0.00690186  1
  Cs  Cs22  1  0.66504405  0.33171058  0.33296092  1
  Cs  Cs23  1  0.66706423  0.33373076  0.66865049  1
  Cs  Cs24  1  0.66550068  0.66449017  0.00006864  1
  Cs  Cs25  1  0.66728606  0.66707442  0.33372793  1
  Cs  Cs26  1  0.66785449  0.66828203  0.66723846  1
  Sn  Sn27  1  0.50036606  0.16703281  0.49955872  1
  Sn  Sn28  1  0.50024056  0.49938703  0.49976102  1
  Sn  Sn29  1  0.83331958  0.83356448  0.83358202  1
  Sn  Sn30  1  0.16589588  0.49908524  0.16658479  1
  Sn  Sn31  1  0.83288414  0.49955083  0.49906445  1
  Sn  Sn32  1  0.83241860  0.83256249  0.16658480  1
  Sn  Sn33  1  0.83342247  0.83367411  0.49996735  1
  Sn  Sn34  1  0.83364137  0.50030806  0.16721979  1
  Sn  Sn35  1  0.50084024  0.83433619  0.16702851  1
  Sn  Sn36  1  0.49912024  0.16578694  0.16737703  1
  Sn  Sn37  1  0.16689779  0.49998630  0.83358202  1
  Sn  Sn38  1  0.83272038  0.16690722  0.49976101  1
  Sn  Sn39  1  0.16700746  0.50008912  0.49996737  1
  Sn  Sn40  1  0.16766953  0.16750696  0.16702852  1
  Pb  Pb41  1  0.16414983  0.83081652  0.83345899  1
  Pb  Pb42  1  0.50252273  0.83325801  0.83668135  1
  Pb  Pb43  1  0.16659130  0.16918934  0.83668127  1
  Pb  Pb44  1  0.16719293  0.16839912  0.49822505  1
  Pb  Pb45  1  0.83302690  0.16713935  0.16812355  1
  Pb  Pb46  1  0.49717642  0.50005323  0.82947334  1
  Pb  Pb47  1  0.83464391  0.50131054  0.83350893  1
  Pb  Pb48  1  0.50173248  0.83385963  0.49822507  1
  Pb  Pb49  1  0.83338659  0.16384314  0.82947340  1
  Pb  Pb50  1  0.49998133  0.16664799  0.83277292  1
  Pb  Pb51  1  0.16654625  0.83321292  0.16674074  1
  Pb  Pb52  1  0.50047269  0.49969357  0.16812356  1
  Pb  Pb53  1  0.16399144  0.83065813  0.49981935  1
  I  I54  1  0.16657720  0.00268535  0.16801063  1
  I  I55  1  0.16538811  0.00017355  0.49808046  1
  I  I56  1  0.16594905  -0.00003612  0.83401466  1
  I  I57  1  0.16617693  0.33488784  0.16765349  1
  I  I58  1  0.16152848  0.33710256  0.50079781  1
  I  I59  1  0.16392901  0.33723574  0.82954937  1
  I  I60  1  0.16524579  0.66310629  0.16745884  1
  I  I61  1  0.16738653  0.66165719  0.49611153  1
  I  I62  1  0.16573768  0.66277001  0.83575887  1
  I  I63  1  0.50095533  0.00063589  0.17280233  1
  I  I64  1  0.50666303  0.00294972  0.49602594  1
  I  I65  1  0.49987389  -0.00016571  0.82892175  1
  I  I66  1  0.49850189  0.33084004  0.17010345  1
  I  I67  1  0.50471454  0.33342301  0.49362025  1
  I  I68  1  0.50159357  0.33352115  0.83871776  1
  I  I69  1  0.50157007  0.66850576  0.16843782  1
  I  I70  1  0.50024314  0.66403080  0.49808871  1
  I  I71  1  0.49936070  0.66661261  0.83375138  1
  I  I72  1  0.83300220  -0.00250379  0.16813717  1
  I  I73  1  0.82770510  -0.00014215  0.49864767  1
  I  I74  1  0.83297132  -0.00425695  0.83714366  1
  I  I75  1  0.83541622  0.33624752  0.17221634  1
  I  I76  1  0.83333114  0.33469373  0.49439436  1
  I  I77  1  0.83453646  0.33336158  0.83410416  1
  I  I78  1  0.83390966  0.66648320  0.17108783  1
  I  I79  1  0.83420404  0.66584171  0.49924765  1
  I  I80  1  0.83506535  0.66932099  0.82960314  1
  I  I81  1  0.17100041  0.17151534  0.00490195  1
  I  I82  1  0.16717276  0.17285198  0.33018072  1
  I  I83  1  0.16605885  0.16825839  0.66645689  1
  I  I84  1  0.16083049  0.49693349  0.00168751  1
  I  I85  1  0.16435926  0.49655694  0.33308716  1
  I  I86  1  0.16470587  0.50110466  0.66528055  1
  I  I87  1  0.16417036  0.83083703  0.00043969  1
  I  I88  1  0.16388135  0.83054808  0.33306446  1
  I  I89  1  0.16556274  0.83222923  0.66651094  1
  I  I90  1  0.49646681  0.16313311  0.00366418  1
  I  I91  1  0.50065532  0.16732201  0.33334217  1
  I  I92  1  0.50550809  0.17217502  0.66255127  1
  I  I93  1  0.50019162  0.50005283  0.00017609  1
  I  I94  1  0.49745083  0.49907690  0.33634167  1
  I  I95  1  0.50310118  0.49492006  0.66107461  1
  I  I96  1  0.50484904  0.83766715  0.00490195  1
  I  I97  1  0.50618550  0.83383904  0.33018074  1
  I  I98  1  0.50159145  0.83272559  0.66645687  1
  I  I99  1  0.83338596  0.16685809  0.00017605  1
  I  I100  1  0.83240996  0.16411782  0.33634169  1
  I  I101  1  0.82825369  0.16976749  0.66107462  1
  I  I102  1  0.83795532  0.50462189  0.00325411  1
  I  I103  1  0.83805920  0.50472564  0.33407323  1
  I  I104  1  0.83439649  0.50106328  0.66310766  1
  I  I105  1  0.83026669  0.82749749  0.00168751  1
  I  I106  1  0.82989030  0.83102583  0.33308716  1
  I  I107  1  0.83443832  0.83137254  0.66528056  1
  I  I108  1  0.00183914  0.16823666  0.16843795  1
  I  I109  1  -0.00263586  0.16690981  0.49808847  1
  I  I110  1  -0.00005406  0.16602768  0.83375159  1
  I  I111  1  -0.00018345  0.50057622  0.17108787  1
  I  I112  1  -0.00082497  0.50087055  0.49924781  1
  I  I113  1  0.00265430  0.50173195  0.82960293  1
  I  I114  1  -0.00356039  0.83191260  0.16745878  1
  I  I115  1  -0.00500949  0.83405332  0.49611148  1
  I  I116  1  -0.00389659  0.83240414  0.83575907  1
  I  I117  1  0.33396927  0.16762163  0.17280212  1
  I  I118  1  0.33628304  0.17332994  0.49602590  1
  I  I119  1  0.33316762  0.16654096  0.82892211  1
  I  I120  1  0.33082956  0.49966903  0.16813696  1
  I  I121  1  0.33319118  0.49437165  0.49864791  1
  I  I122  1  0.32907641  0.49963763  0.83714395  1
  I  I123  1  0.33601876  0.83324389  0.16801060  1
  I  I124  1  0.33350688  0.83205459  0.49808028  1
  I  I125  1  0.33329716  0.83261568  0.83401496  1
  I  I126  1  0.66417337  0.16516885  0.17010356  1
  I  I127  1  0.66675634  0.17138099  0.49362050  1
  I  I128  1  0.66685450  0.16825963  0.83871726  1
  I  I129  1  0.66958085  0.50208270  0.17221648  1
  I  I130  1  0.66802707  0.49999798  0.49439404  1
  I  I131  1  0.66669497  0.50120357  0.83410431  1
  I  I132  1  0.66822119  0.83284349  0.16765362  1
  I  I133  1  0.67043592  0.82819515  0.50079802  1
  I  I134  1  0.67056911  0.83059561  0.82954904  1
