# generated using pymatgen
data_Cs27Sn14Pb13I81
_symmetry_space_group_name_H-M   'P 1'
_cell_length_a   19.29491987
_cell_length_b   19.27303683
_cell_length_c   19.29196106
_cell_angle_alpha   89.98621361
_cell_angle_beta   90.00718600
_cell_angle_gamma   90.01114145
_symmetry_Int_Tables_number   1
_chemical_formula_structural   Cs27Sn14Pb13I81
_chemical_formula_sum   'Cs27 Sn14 Pb13 I81'
_cell_volume   7174.13398342
_cell_formula_units_Z   1
loop_
 _symmetry_equiv_pos_site_id
 _symmetry_equiv_pos_as_xyz
  1  'x, y, z'
loop_
 _atom_site_type_symbol
 _atom_site_label
 _atom_site_symmetry_multiplicity
 _atom_site_fract_x
 _atom_site_fract_y
 _atom_site_fract_z
 _atom_site_occupancy
  Cs  Cs0  1  -0.01696595  0.01323747  -0.01300365  1
  Cs  Cs1  1  0.00499182  0.03588267  0.32699537  1
  Cs  Cs2  1  0.00156745  -0.03050693  0.66407636  1
  Cs  Cs3  1  -0.00703202  0.33819787  -0.00471893  1
  Cs  Cs4  1  0.01111845  0.30651859  0.32065954  1
  Cs  Cs5  1  0.01578736  0.32743491  0.67761810  1
  Cs  Cs6  1  -0.01107919  0.61949630  -0.00206798  1
  Cs  Cs7  1  -0.00328688  0.68158586  0.35767852  1
  Cs  Cs8  1  0.00891603  0.69100309  0.65464280  1
  Cs  Cs9  1  0.34074409  -0.01908110  0.02286833  1
  Cs  Cs10  1  0.34211810  0.00876378  0.31612813  1
  Cs  Cs11  1  0.33916834  -0.02335226  0.67456936  1
  Cs  Cs12  1  0.31633846  0.35260473  0.01203034  1
  Cs  Cs13  1  0.31794444  0.32083541  0.33068793  1
  Cs  Cs14  1  0.32060438  0.32462966  0.65744804  1
  Cs  Cs15  1  0.34446101  0.62907675  0.00350153  1
  Cs  Cs16  1  0.32729396  0.69512359  0.32866509  1
  Cs  Cs17  1  0.31669636  0.69432883  0.66244430  1
  Cs  Cs18  1  0.66086000  -0.02803386  -0.00637188  1
  Cs  Cs19  1  0.66003325  0.00852113  0.31024099  1
  Cs  Cs20  1  0.65418843  0.01145619  0.70887926  1
  Cs  Cs21  1  0.68471582  0.34776422  -0.01101107  1
  Cs  Cs22  1  0.66732240  0.32291363  0.35392512  1
  Cs  Cs23  1  0.64578110  0.34772591  0.66470679  1
  Cs  Cs24  1  0.65115472  0.66528638  0.01055764  1
  Cs  Cs25  1  0.67690418  0.67148573  0.35048588  1
  Cs  Cs26  1  0.67504114  0.64785830  0.63028852  1
  Sn  Sn27  1  0.82903272  0.16892519  0.16776279  1
  Sn  Sn28  1  0.50134633  0.49848010  0.83423429  1
  Sn  Sn29  1  0.16924230  0.16374896  0.15993700  1
  Sn  Sn30  1  0.82997384  0.50011385  0.83176158  1
  Sn  Sn31  1  0.16840928  0.49857804  0.82720556  1
  Sn  Sn32  1  0.50100793  0.83590739  0.49735005  1
  Sn  Sn33  1  0.15928082  0.83133071  0.16353668  1
  Sn  Sn34  1  0.50427694  0.49322033  0.17004992  1
  Sn  Sn35  1  0.83366732  0.16584596  0.50299895  1
  Sn  Sn36  1  0.16946897  0.16639127  0.83444230  1
  Sn  Sn37  1  0.16817416  0.49624810  0.49875728  1
  Sn  Sn38  1  0.82931743  0.50057775  0.16853174  1
  Sn  Sn39  1  0.16691760  0.16738138  0.50408692  1
  Sn  Sn40  1  0.50166167  0.17352961  0.16453270  1
  Pb  Pb41  1  0.83640663  0.16997659  0.83099135  1
  Pb  Pb42  1  0.16548986  0.50257343  0.17095399  1
  Pb  Pb43  1  0.49570223  0.17267698  0.83777397  1
  Pb  Pb44  1  0.16723102  0.83897068  0.49603861  1
  Pb  Pb45  1  0.49561463  0.49824353  0.49793405  1
  Pb  Pb46  1  0.83863684  0.49445297  0.49778187  1
  Pb  Pb47  1  0.83466982  0.82791405  0.83613134  1
  Pb  Pb48  1  0.16531568  0.83456555  0.84033032  1
  Pb  Pb49  1  0.49898446  0.82746550  0.83230511  1
  Pb  Pb50  1  0.83644397  0.83228184  0.16562441  1
  Pb  Pb51  1  0.50089984  0.83028863  0.16838281  1
  Pb  Pb52  1  0.82966339  0.84177438  0.49649531  1
  Pb  Pb53  1  0.50152835  0.16435842  0.49756731  1
  I  I54  1  0.17619367  0.00412266  0.17839995  1
  I  I55  1  0.14532267  0.00397915  0.51456729  1
  I  I56  1  0.16238380  0.00458650  0.80812221  1
  I  I57  1  0.17172232  0.33270626  0.17196470  1
  I  I58  1  0.15833590  0.33311716  0.48409267  1
  I  I59  1  0.16467453  0.33514022  0.84894596  1
  I  I60  1  0.18173201  0.67124255  0.17078914  1
  I  I61  1  0.17439133  0.66593023  0.51646323  1
  I  I62  1  0.16827953  0.66413732  0.81071054  1
  I  I63  1  0.49991022  0.00312743  0.18709052  1
  I  I64  1  0.48333761  -0.00263828  0.47784038  1
  I  I65  1  0.49090029  0.00101878  0.83327003  1
  I  I66  1  0.47603069  0.33202472  0.15690325  1
  I  I67  1  0.51471982  0.33172097  0.51648100  1
  I  I68  1  0.51977987  0.33774854  0.81945644  1
  I  I69  1  0.49930855  0.66374106  0.14261664  1
  I  I70  1  0.48617414  0.66492455  0.49983666  1
  I  I71  1  0.49419618  0.66557314  0.86848444  1
  I  I72  1  0.82783181  0.00264148  0.19780695  1
  I  I73  1  0.86621872  0.00110647  0.47642725  1
  I  I74  1  0.83716471  0.00163580  0.82393548  1
  I  I75  1  0.85063903  0.33345256  0.16357781  1
  I  I76  1  0.82389511  0.32946914  0.49432479  1
  I  I77  1  0.81787943  0.33604348  0.83602700  1
  I  I78  1  0.82337174  0.66395347  0.13185110  1
  I  I79  1  0.83716631  0.66384291  0.50686723  1
  I  I80  1  0.84337582  0.66411552  0.86367735  1
  I  I81  1  0.17191486  0.16359098  -0.00086536  1
  I  I82  1  0.16967618  0.16618556  0.33302646  1
  I  I83  1  0.15691301  0.19173962  0.66570561  1
  I  I84  1  0.16932496  0.50656170  -0.00055414  1
  I  I85  1  0.17589320  0.49921446  0.33809811  1
  I  I86  1  0.16912615  0.46746756  0.66866639  1
  I  I87  1  0.17277169  0.86257415  0.00276507  1
  I  I88  1  0.17224524  0.82434470  0.33239825  1
  I  I89  1  0.16929203  0.83511037  0.66577463  1
  I  I90  1  0.50394119  0.15243172  0.00518315  1
  I  I91  1  0.47829729  0.18837235  0.33284781  1
  I  I92  1  0.51542256  0.15208268  0.66502651  1
  I  I93  1  0.48441690  0.48263695  -0.00149793  1
  I  I94  1  0.51322741  0.48959070  0.32827776  1
  I  I95  1  0.52304544  0.51801583  0.67163806  1
  I  I96  1  0.50202178  0.85237814  0.00082713  1
  I  I97  1  0.49641337  0.81097982  0.33423220  1
  I  I98  1  0.48862729  0.84128937  0.66480510  1
  I  I99  1  0.83866197  0.16312899  0.00530330  1
  I  I100  1  0.84830320  0.18325251  0.32851954  1
  I  I101  1  0.85212945  0.16172173  0.66104159  1
  I  I102  1  0.84469084  0.47858164  0.00043180  1
  I  I103  1  0.81421622  0.51561292  0.32858065  1
  I  I104  1  0.81051891  0.50043240  0.67039796  1
  I  I105  1  0.83641801  0.87045701  0.00137214  1
  I  I106  1  0.83369334  0.79727817  0.33156820  1
  I  I107  1  0.84286190  0.82745698  0.66376533  1
  I  I108  1  0.00256027  0.16081704  0.16895410  1
  I  I109  1  0.00251712  0.18085256  0.48164933  1
  I  I110  1  0.00177078  0.18212830  0.85357695  1
  I  I111  1  -0.00091096  0.50064756  0.15886184  1
  I  I112  1  0.00286734  0.52013192  0.50878666  1
  I  I113  1  0.00053517  0.48386493  0.84127136  1
  I  I114  1  0.00296278  0.84190875  0.17928784  1
  I  I115  1  -0.00009933  0.82099639  0.50166311  1
  I  I116  1  0.00092114  0.83311639  0.81831739  1
  I  I117  1  0.33264038  0.16056396  0.16853348  1
  I  I118  1  0.32947529  0.18242968  0.50300437  1
  I  I119  1  0.33068465  0.18446646  0.81655694  1
  I  I120  1  0.33404264  0.50280239  0.16041606  1
  I  I121  1  0.33179069  0.47513647  0.50873083  1
  I  I122  1  0.33323857  0.49124479  0.84197935  1
  I  I123  1  0.33475580  0.84821033  0.17687382  1
  I  I124  1  0.33322261  0.83101468  0.50333705  1
  I  I125  1  0.33146987  0.83399350  0.82411051  1
  I  I126  1  0.66522206  0.17965073  0.20008599  1
  I  I127  1  0.67113332  0.15408995  0.46929590  1
  I  I128  1  0.66835942  0.16716469  0.83359525  1
  I  I129  1  0.66503567  0.48588510  0.13570969  1
  I  I130  1  0.66677008  0.49881410  0.49496036  1
  I  I131  1  0.66659053  0.51102641  0.86309194  1
  I  I132  1  0.66743795  0.84354468  0.16507728  1
  I  I133  1  0.66539395  0.81109082  0.49894870  1
  I  I134  1  0.66686083  0.84687660  0.83003592  1
