# generated using pymatgen
data_Cs27Sn14Pb13I81
_symmetry_space_group_name_H-M   'P 1'
_cell_length_a   18.97831633
_cell_length_b   18.97731051
_cell_length_c   18.97157833
_cell_angle_alpha   89.99983052
_cell_angle_beta   90.00036805
_cell_angle_gamma   90.00061338
_symmetry_Int_Tables_number   1
_chemical_formula_structural   Cs27Sn14Pb13I81
_chemical_formula_sum   'Cs27 Sn14 Pb13 I81'
_cell_volume   6832.75436024
_cell_formula_units_Z   1
loop_
 _symmetry_equiv_pos_site_id
 _symmetry_equiv_pos_as_xyz
  1  'x, y, z'
loop_
 _atom_site_type_symbol
 _atom_site_label
 _atom_site_symmetry_multiplicity
 _atom_site_fract_x
 _atom_site_fract_y
 _atom_site_fract_z
 _atom_site_occupancy
  Cs  Cs0  1  -0.00103861  0.00061537  -0.00121354  1
  Cs  Cs1  1  -0.00104662  -0.00051924  0.33703935  1
  Cs  Cs2  1  0.00160023  -0.00530170  0.66697860  1
  Cs  Cs3  1  0.00008447  0.33255323  -0.00162096  1
  Cs  Cs4  1  0.00085305  0.33434470  0.33302164  1
  Cs  Cs5  1  -0.00403146  0.33463808  0.66930957  1
  Cs  Cs6  1  0.00155664  0.66628628  0.00085462  1
  Cs  Cs7  1  -0.00288471  0.66484073  0.33311495  1
  Cs  Cs8  1  0.00247030  0.66809668  0.66525883  1
  Cs  Cs9  1  0.33359099  0.00060120  0.00003293  1
  Cs  Cs10  1  0.33122594  0.00602561  0.33792304  1
  Cs  Cs11  1  0.33268002  -0.00657197  0.66151105  1
  Cs  Cs12  1  0.33145012  0.33192631  0.00222542  1
  Cs  Cs13  1  0.33235837  0.33158828  0.33421567  1
  Cs  Cs14  1  0.33553930  0.33326604  0.66317213  1
  Cs  Cs15  1  0.33266219  0.66838314  0.00034682  1
  Cs  Cs16  1  0.33415157  0.66261458  0.32870041  1
  Cs  Cs17  1  0.33959411  0.67409753  0.66921691  1
  Cs  Cs18  1  0.66759830  0.00290894  0.00138576  1
  Cs  Cs19  1  0.66952628  -0.00227420  0.33343068  1
  Cs  Cs20  1  0.66608577  -0.00063315  0.66400812  1
  Cs  Cs21  1  0.66780759  0.33115833  -0.00168023  1
  Cs  Cs22  1  0.66688063  0.33322426  0.33309612  1
  Cs  Cs23  1  0.66787266  0.33458309  0.66862650  1
  Cs  Cs24  1  0.66549491  0.66676246  0.00072019  1
  Cs  Cs25  1  0.67042561  0.66879115  0.33222211  1
  Cs  Cs26  1  0.65539346  0.66730768  0.66933594  1
  Sn  Sn27  1  0.83293943  0.16750087  0.16745010  1
  Sn  Sn28  1  0.50021649  0.49963098  0.16645907  1
  Sn  Sn29  1  0.16652583  0.50053549  0.16661199  1
  Sn  Sn30  1  0.50071804  0.16659351  0.16610350  1
  Sn  Sn31  1  0.16794458  0.16720554  0.83313864  1
  Sn  Sn32  1  0.16697117  0.49931455  0.83294610  1
  Sn  Sn33  1  0.83318489  0.83277299  0.83358390  1
  Sn  Sn34  1  0.83353302  0.16764297  0.49914669  1
  Sn  Sn35  1  0.16711912  0.83314140  0.16676949  1
  Sn  Sn36  1  0.83339105  0.49888085  0.16689080  1
  Sn  Sn37  1  0.16630769  0.49999808  0.50026800  1
  Sn  Sn38  1  0.49855507  0.16682748  0.83377751  1
  Sn  Sn39  1  0.49886830  0.83399942  0.16649266  1
  Sn  Sn40  1  0.83384811  0.49929708  0.49956549  1
  Pb  Pb41  1  0.83324781  0.83215372  0.50278803  1
  Pb  Pb42  1  0.16628848  0.16681788  0.16566042  1
  Pb  Pb43  1  0.49712398  0.49776511  0.83590703  1
  Pb  Pb44  1  0.50030108  0.49995592  0.49759644  1
  Pb  Pb45  1  0.49989058  0.83336655  0.49639641  1
  Pb  Pb46  1  0.16564829  0.83319232  0.83536773  1
  Pb  Pb47  1  0.83333434  0.16540596  0.83318726  1
  Pb  Pb48  1  0.16409922  0.16909667  0.50326605  1
  Pb  Pb49  1  0.50195857  0.83620710  0.83591276  1
  Pb  Pb50  1  0.16663695  0.83010881  0.49660397  1
  Pb  Pb51  1  0.83351558  0.83331793  0.16552630  1
  Pb  Pb52  1  0.83503974  0.50209974  0.83318502  1
  Pb  Pb53  1  0.50241855  0.16686524  0.49971904  1
  I  I54  1  0.16894248  -0.00196759  0.16212696  1
  I  I55  1  0.16503424  0.00013166  0.50021480  1
  I  I56  1  0.16753630  0.00257153  0.83737501  1
  I  I57  1  0.16825373  0.33658969  0.16781484  1
  I  I58  1  0.16544313  0.33707653  0.49245274  1
  I  I59  1  0.16806713  0.33409479  0.83793187  1
  I  I60  1  0.16907613  0.66457905  0.16441432  1
  I  I61  1  0.15832453  0.66187937  0.50411373  1
  I  I62  1  0.16255770  0.66363573  0.83335868  1
  I  I63  1  0.50119351  0.00088639  0.16152645  1
  I  I64  1  0.50267286  0.00036523  0.49823727  1
  I  I65  1  0.49491217  0.00391522  0.84083115  1
  I  I66  1  0.50068974  0.33326017  0.16312642  1
  I  I67  1  0.49783878  0.33342083  0.49728083  1
  I  I68  1  0.50116789  0.33002449  0.84041783  1
  I  I69  1  0.49938222  0.66591060  0.16827072  1
  I  I70  1  0.50284431  0.66637744  0.49987728  1
  I  I71  1  0.50036632  0.66671109  0.83397896  1
  I  I72  1  0.83030825  0.00272643  0.16814113  1
  I  I73  1  0.83154131  0.00265312  0.49566704  1
  I  I74  1  0.83545477  -0.00183700  0.83607982  1
  I  I75  1  0.83103845  0.33386460  0.16895607  1
  I  I76  1  0.83718809  0.33415107  0.49563850  1
  I  I77  1  0.83242100  0.33347983  0.83372653  1
  I  I78  1  0.83179453  0.66357161  0.16931792  1
  I  I79  1  0.83873963  0.66272670  0.49346050  1
  I  I80  1  0.83662447  0.66922791  0.83643518  1
  I  I81  1  0.16464275  0.17228161  -0.00216075  1
  I  I82  1  0.16899288  0.16617737  0.33349514  1
  I  I83  1  0.17053662  0.17179936  0.67119725  1
  I  I84  1  0.16630477  0.50011068  0.00134795  1
  I  I85  1  0.16562463  0.50535469  0.33194757  1
  I  I86  1  0.15867661  0.49301797  0.66667840  1
  I  I87  1  0.16916659  0.82663578  0.00328142  1
  I  I88  1  0.16902898  0.82933592  0.32841387  1
  I  I89  1  0.16389413  0.83305727  0.66668180  1
  I  I90  1  0.50294440  0.16722483  0.00183588  1
  I  I91  1  0.50178241  0.16676493  0.32944653  1
  I  I92  1  0.49806868  0.16721894  0.66955985  1
  I  I93  1  0.50161926  0.50205925  0.00454840  1
  I  I94  1  0.49514455  0.49712748  0.32863717  1
  I  I95  1  0.50098399  0.49838232  0.66695723  1
  I  I96  1  0.49679932  0.83021621  0.00403089  1
  I  I97  1  0.49846675  0.83527736  0.32777756  1
  I  I98  1  0.50211943  0.83430843  0.66710885  1
  I  I99  1  0.83206712  0.16980783  0.00275739  1
  I  I100  1  0.82792353  0.16956257  0.33165866  1
  I  I101  1  0.83404439  0.17039086  0.66430656  1
  I  I102  1  0.83419283  0.49668746  0.00342428  1
  I  I103  1  0.83788818  0.49691562  0.33169391  1
  I  I104  1  0.83978585  0.49557329  0.66373822  1
  I  I105  1  0.83406621  0.83455639  -0.00171546  1
  I  I106  1  0.83280202  0.83401694  0.33323045  1
  I  I107  1  0.83584317  0.83595148  0.67011624  1
  I  I108  1  -0.00276122  0.16958180  0.16762240  1
  I  I109  1  -0.00366891  0.16848791  0.49328694  1
  I  I110  1  0.00211548  0.16947545  0.83479637  1
  I  I111  1  0.00026971  0.50057485  0.16693692  1
  I  I112  1  -0.00022172  0.49610672  0.49401454  1
  I  I113  1  0.00312855  0.49379273  0.83952551  1
  I  I114  1  0.00221437  0.82908722  0.16406366  1
  I  I115  1  -0.00009998  0.83632912  0.49764403  1
  I  I116  1  -0.00190830  0.83668493  0.83751785  1
  I  I117  1  0.33582865  0.16857077  0.16314974  1
  I  I118  1  0.33311022  0.16788779  0.49740010  1
  I  I119  1  0.33338356  0.17108033  0.84222910  1
  I  I120  1  0.33275707  0.50115570  0.16617946  1
  I  I121  1  0.33027794  0.50032702  0.49785631  1
  I  I122  1  0.32890939  0.49957958  0.83384647  1
  I  I123  1  0.33351715  0.82830329  0.16457631  1
  I  I124  1  0.33302889  0.83261759  0.50441314  1
  I  I125  1  0.33355473  0.83177652  0.83323414  1
  I  I126  1  0.66661145  0.16916483  0.16378828  1
  I  I127  1  0.67043639  0.17367427  0.50081000  1
  I  I128  1  0.66463787  0.16380567  0.83622427  1
  I  I129  1  0.66718352  0.50004414  0.17133835  1
  I  I130  1  0.67023675  0.49626721  0.49490519  1
  I  I131  1  0.66646529  0.49993662  0.83332179  1
  I  I132  1  0.66431561  0.83113117  0.16423841  1
  I  I133  1  0.66694370  0.83148687  0.49871155  1
  I  I134  1  0.66938302  0.83422302  0.83604833  1
