# generated using pymatgen
data_Cs27Sn14Pb13I81
_symmetry_space_group_name_H-M   'P 1'
_cell_length_a   18.97213944
_cell_length_b   18.97736817
_cell_length_c   18.98123372
_cell_angle_alpha   89.99906357
_cell_angle_beta   90.00076641
_cell_angle_gamma   90.00120949
_symmetry_Int_Tables_number   1
_chemical_formula_structural   Cs27Sn14Pb13I81
_chemical_formula_sum   'Cs27 Sn14 Pb13 I81'
_cell_volume   6834.02759109
_cell_formula_units_Z   1
loop_
 _symmetry_equiv_pos_site_id
 _symmetry_equiv_pos_as_xyz
  1  'x, y, z'
loop_
 _atom_site_type_symbol
 _atom_site_label
 _atom_site_symmetry_multiplicity
 _atom_site_fract_x
 _atom_site_fract_y
 _atom_site_fract_z
 _atom_site_occupancy
  Cs  Cs0  1  0.00157304  -0.00060692  -0.00080785  1
  Cs  Cs1  1  -0.00265433  -0.00322960  0.33494845  1
  Cs  Cs2  1  0.00124916  -0.00100132  0.66648243  1
  Cs  Cs3  1  0.00221979  0.33025169  0.00250439  1
  Cs  Cs4  1  0.00047939  0.33600778  0.33176020  1
  Cs  Cs5  1  -0.00081730  0.33113506  0.66575364  1
  Cs  Cs6  1  0.00097907  0.67062666  -0.00256560  1
  Cs  Cs7  1  0.00119596  0.66515413  0.33640789  1
  Cs  Cs8  1  0.00085644  0.66985894  0.66829429  1
  Cs  Cs9  1  0.33413336  -0.00294268  -0.00062129  1
  Cs  Cs10  1  0.33609375  -0.00022474  0.34062642  1
  Cs  Cs11  1  0.33358262  0.00060584  0.66197650  1
  Cs  Cs12  1  0.33265925  0.33257837  0.00087398  1
  Cs  Cs13  1  0.32765551  0.33545954  0.33389827  1
  Cs  Cs14  1  0.33120093  0.33079705  0.66552067  1
  Cs  Cs15  1  0.33417113  0.66881582  -0.00073614  1
  Cs  Cs16  1  0.33140004  0.66509856  0.33364710  1
  Cs  Cs17  1  0.33144160  0.66764120  0.66907247  1
  Cs  Cs18  1  0.66550550  0.00117780  0.00181684  1
  Cs  Cs19  1  0.66600442  0.00047513  0.33305038  1
  Cs  Cs20  1  0.66539991  0.00109031  0.66319847  1
  Cs  Cs21  1  0.66606858  0.33367551  0.00026999  1
  Cs  Cs22  1  0.66721647  0.33320862  0.33323621  1
  Cs  Cs23  1  0.66773582  0.33506206  0.66618539  1
  Cs  Cs24  1  0.66599172  0.66584419  -0.00131959  1
  Cs  Cs25  1  0.66640742  0.66448738  0.33194149  1
  Cs  Cs26  1  0.66933984  0.66280035  0.66897841  1
  Sn  Sn27  1  0.49970521  0.83421292  0.83389695  1
  Sn  Sn28  1  0.83232556  0.49919290  0.49924674  1
  Sn  Sn29  1  0.50081088  0.16585234  0.83404598  1
  Sn  Sn30  1  0.83260102  0.16747732  0.16659481  1
  Sn  Sn31  1  0.16669909  0.50021934  0.83381778  1
  Sn  Sn32  1  0.50045306  0.49967697  0.16741558  1
  Sn  Sn33  1  0.83225589  0.16649566  0.83377880  1
  Sn  Sn34  1  0.50051603  0.49996807  0.49926179  1
  Sn  Sn35  1  0.16794527  0.83261014  0.83449862  1
  Sn  Sn36  1  0.16766828  0.83356156  0.16624142  1
  Sn  Sn37  1  0.50030979  0.16683705  0.16610473  1
  Sn  Sn38  1  0.83273132  0.49949227  0.16683662  1
  Sn  Sn39  1  0.49915938  0.83345679  0.16605486  1
  Sn  Sn40  1  0.83291704  0.16748634  0.49946329  1
  Pb  Pb41  1  0.16694883  0.83326739  0.50008006  1
  Pb  Pb42  1  0.50166673  0.16908301  0.49971368  1
  Pb  Pb43  1  0.83292592  0.83253509  0.49995134  1
  Pb  Pb44  1  0.83272806  0.83305269  0.16664182  1
  Pb  Pb45  1  0.16708903  0.16378822  0.16675347  1
  Pb  Pb46  1  0.16621466  0.50003634  0.50249485  1
  Pb  Pb47  1  0.83257054  0.83617723  0.83342480  1
  Pb  Pb48  1  0.50028707  0.83040001  0.50012779  1
  Pb  Pb49  1  0.16330182  0.16685430  0.49953783  1
  Pb  Pb50  1  0.49856389  0.49958711  0.83371130  1
  Pb  Pb51  1  0.83554983  0.49768861  0.83393843  1
  Pb  Pb52  1  0.16649552  0.50201619  0.16475308  1
  Pb  Pb53  1  0.16751765  0.16574700  0.83356641  1
  I  I54  1  0.16885871  -0.00406525  0.15790572  1
  I  I55  1  0.16509276  -0.00006227  0.50263539  1
  I  I56  1  0.16658316  -0.00319841  0.83808236  1
  I  I57  1  0.16852977  0.33344210  0.16490857  1
  I  I58  1  0.16992814  0.33374985  0.50334385  1
  I  I59  1  0.16646150  0.33508936  0.83184223  1
  I  I60  1  0.17065459  0.66985136  0.16370033  1
  I  I61  1  0.16314570  0.66648590  0.49926726  1
  I  I62  1  0.17193062  0.66800061  0.83648632  1
  I  I63  1  0.50085513  0.00034740  0.16106461  1
  I  I64  1  0.50115755  0.00027116  0.49825214  1
  I  I65  1  0.49869476  0.00010671  0.84110392  1
  I  I66  1  0.50576005  0.33319192  0.16531932  1
  I  I67  1  0.50235901  0.33684434  0.49754079  1
  I  I68  1  0.50259664  0.33059008  0.83620405  1
  I  I69  1  0.50049352  0.66646143  0.16633749  1
  I  I70  1  0.50686315  0.66252277  0.49636843  1
  I  I71  1  0.49648325  0.66900740  0.83617590  1
  I  I72  1  0.83089960  0.00330764  0.16694958  1
  I  I73  1  0.83454081  0.00350841  0.49925474  1
  I  I74  1  0.83495277  0.00450207  0.83429309  1
  I  I75  1  0.82631433  0.33296059  0.16693639  1
  I  I76  1  0.82895133  0.33349881  0.49972546  1
  I  I77  1  0.82824172  0.32973342  0.83328718  1
  I  I78  1  0.83043114  0.66340015  0.17232816  1
  I  I79  1  0.83037765  0.66249541  0.49429141  1
  I  I80  1  0.83219364  0.66655056  0.83233654  1
  I  I81  1  0.15981385  0.16957575  0.00002539  1
  I  I82  1  0.16824119  0.16477391  0.33289857  1
  I  I83  1  0.16702566  0.16507555  0.66695230  1
  I  I84  1  0.16683155  0.50199596  -0.00283662  1
  I  I85  1  0.16637904  0.50199699  0.33307488  1
  I  I86  1  0.16733573  0.50668364  0.67022881  1
  I  I87  1  0.17070400  0.82910871  -0.00073848  1
  I  I88  1  0.17068224  0.83409986  0.32997048  1
  I  I89  1  0.17016802  0.82989675  0.67040281  1
  I  I90  1  0.50794270  0.16785056  0.00064839  1
  I  I91  1  0.50389605  0.16274853  0.32994601  1
  I  I92  1  0.50310722  0.16333064  0.66941857  1
  I  I93  1  0.50357316  0.50034921  0.00321558  1
  I  I94  1  0.50382141  0.50052128  0.33161752  1
  I  I95  1  0.50348311  0.50004754  0.66472628  1
  I  I96  1  0.49585690  0.83234314  0.00064009  1
  I  I97  1  0.49620886  0.83673570  0.32968600  1
  I  I98  1  0.49524387  0.83777034  0.67013343  1
  I  I99  1  0.82950226  0.17057864  0.00086028  1
  I  I100  1  0.82956269  0.17023222  0.33234341  1
  I  I101  1  0.83019439  0.17038411  0.66679287  1
  I  I102  1  0.82900639  0.49620222  0.00315631  1
  I  I103  1  0.83005872  0.49214652  0.33260468  1
  I  I104  1  0.82976432  0.49572951  0.66418758  1
  I  I105  1  0.83487950  0.83184981  0.00007539  1
  I  I106  1  0.83466327  0.83879551  0.33297000  1
  I  I107  1  0.83443298  0.83316306  0.66694702  1
  I  I108  1  -0.00355502  0.17068886  0.16631220  1
  I  I109  1  -0.00550756  0.17348263  0.50084978  1
  I  I110  1  -0.00283206  0.16799148  0.83290979  1
  I  I111  1  -0.00308393  0.49593835  0.16993988  1
  I  I112  1  -0.00362875  0.49520995  0.49560201  1
  I  I113  1  0.00307311  0.50555469  0.83323854  1
  I  I114  1  0.00243804  0.83350055  0.16184348  1
  I  I115  1  0.00002098  0.83275779  0.50018977  1
  I  I116  1  0.00286114  0.83047779  0.83691312  1
  I  I117  1  0.33726561  0.17020874  0.15982541  1
  I  I118  1  0.33385236  0.16800942  0.50127693  1
  I  I119  1  0.33689566  0.16670001  0.83935203  1
  I  I120  1  0.33668435  0.49717515  0.16977775  1
  I  I121  1  0.33616761  0.50098704  0.49540363  1
  I  I122  1  0.33093077  0.49987414  0.83360047  1
  I  I123  1  0.33502533  0.83244542  0.16125384  1
  I  I124  1  0.33377629  0.83160899  0.49992355  1
  I  I125  1  0.33411497  0.83450236  0.83826406  1
  I  I126  1  0.66642637  0.16501232  0.16566013  1
  I  I127  1  0.66989416  0.16872258  0.50065767  1
  I  I128  1  0.66602333  0.16170315  0.83459878  1
  I  I129  1  0.66601157  0.50137854  0.16974088  1
  I  I130  1  0.66734280  0.49663993  0.49687000  1
  I  I131  1  0.66665964  0.50311498  0.83239376  1
  I  I132  1  0.66301734  0.83327130  0.16197627  1
  I  I133  1  0.66635017  0.83516468  0.50057735  1
  I  I134  1  0.66299918  0.83468042  0.83881394  1
