# generated using pymatgen
data_Cs27Sn14Pb13I81
_symmetry_space_group_name_H-M   'P 1'
_cell_length_a   18.98107564
_cell_length_b   18.96027559
_cell_length_c   18.98688433
_cell_angle_alpha   90.00238324
_cell_angle_beta   89.99967296
_cell_angle_gamma   89.99811957
_symmetry_Int_Tables_number   1
_chemical_formula_structural   Cs27Sn14Pb13I81
_chemical_formula_sum   'Cs27 Sn14 Pb13 I81'
_cell_volume   6833.12191557
_cell_formula_units_Z   1
loop_
 _symmetry_equiv_pos_site_id
 _symmetry_equiv_pos_as_xyz
  1  'x, y, z'
loop_
 _atom_site_type_symbol
 _atom_site_label
 _atom_site_symmetry_multiplicity
 _atom_site_fract_x
 _atom_site_fract_y
 _atom_site_fract_z
 _atom_site_occupancy
  Cs  Cs0  1  -0.00288071  -0.00227334  0.00209326  1
  Cs  Cs1  1  -0.00023327  -0.00263175  0.33265429  1
  Cs  Cs2  1  -0.00063551  0.00190859  0.66533074  1
  Cs  Cs3  1  -0.00277214  0.33386572  -0.00139925  1
  Cs  Cs4  1  -0.00203557  0.33277003  0.33156265  1
  Cs  Cs5  1  -0.00207384  0.33106679  0.66935243  1
  Cs  Cs6  1  0.00799897  0.67117048  0.00290466  1
  Cs  Cs7  1  0.00681126  0.67722326  0.33831138  1
  Cs  Cs8  1  0.00843115  0.67563496  0.65735861  1
  Cs  Cs9  1  0.33751018  0.00068263  -0.00129452  1
  Cs  Cs10  1  0.33754061  0.00242878  0.33347852  1
  Cs  Cs11  1  0.33596001  0.00081235  0.66684560  1
  Cs  Cs12  1  0.33429447  0.33351675  0.00059269  1
  Cs  Cs13  1  0.33486277  0.33345271  0.33263292  1
  Cs  Cs14  1  0.33387988  0.33316366  0.66713596  1
  Cs  Cs15  1  0.32809753  0.66629340  -0.00137504  1
  Cs  Cs16  1  0.32978622  0.66439009  0.33370417  1
  Cs  Cs17  1  0.32729881  0.66682425  0.66743223  1
  Cs  Cs18  1  0.66521670  -0.00171524  -0.00022020  1
  Cs  Cs19  1  0.66361126  0.00035804  0.33135554  1
  Cs  Cs20  1  0.66491515  -0.00022944  0.66869720  1
  Cs  Cs21  1  0.66800508  0.33448721  0.00026812  1
  Cs  Cs22  1  0.66684944  0.33534034  0.33089667  1
  Cs  Cs23  1  0.66811767  0.33474832  0.66804258  1
  Cs  Cs24  1  0.66588927  0.66433304  -0.00016940  1
  Cs  Cs25  1  0.66708732  0.66418937  0.33479473  1
  Cs  Cs26  1  0.66738513  0.66547019  0.66527259  1
  Sn  Sn27  1  0.83407111  0.16721643  0.16645250  1
  Sn  Sn28  1  0.50043016  0.83136955  0.16731252  1
  Sn  Sn29  1  0.16677126  0.16704082  0.49979267  1
  Sn  Sn30  1  0.50035824  0.16770025  0.83238080  1
  Sn  Sn31  1  0.16653262  0.16700219  0.83377677  1
  Sn  Sn32  1  0.16540450  0.16706477  0.16643970  1
  Sn  Sn33  1  0.83280110  0.16690074  0.49981373  1
  Sn  Sn34  1  0.50066747  0.50114646  0.16575044  1
  Sn  Sn35  1  0.83325145  0.50017370  0.83403291  1
  Sn  Sn36  1  0.50044489  0.83374645  0.49923491  1
  Sn  Sn37  1  0.50043835  0.16643180  0.50109329  1
  Sn  Sn38  1  0.83327629  0.49984080  0.16597196  1
  Sn  Sn39  1  0.50077319  0.49910582  0.83414333  1
  Sn  Sn40  1  0.83304913  0.16678160  0.83365838  1
  Pb  Pb41  1  0.16656550  0.83662001  0.83344357  1
  Pb  Pb42  1  0.83047234  0.83610847  0.50001229  1
  Pb  Pb43  1  0.83358130  0.49840539  0.50009777  1
  Pb  Pb44  1  0.50051827  0.16737343  0.16636382  1
  Pb  Pb45  1  0.49993290  0.49980375  0.50042017  1
  Pb  Pb46  1  0.83117318  0.83247431  0.16644805  1
  Pb  Pb47  1  0.16573344  0.49798348  0.83329344  1
  Pb  Pb48  1  0.16585444  0.49782318  0.16676202  1
  Pb  Pb49  1  0.50029828  0.83230310  0.83313985  1
  Pb  Pb50  1  0.16991083  0.83665470  0.49990998  1
  Pb  Pb51  1  0.16997551  0.83666171  0.16656988  1
  Pb  Pb52  1  0.16634225  0.49714914  0.49994351  1
  Pb  Pb53  1  0.83321948  0.83184959  0.83351114  1
  I  I54  1  0.16170476  0.00512641  0.16681922  1
  I  I55  1  0.16388585  0.00513596  0.50067319  1
  I  I56  1  0.16824678  0.00595916  0.83257669  1
  I  I57  1  0.16920560  0.32909733  0.16701806  1
  I  I58  1  0.17160577  0.32779943  0.50035912  1
  I  I59  1  0.16772884  0.32887698  0.83261098  1
  I  I60  1  0.16432547  0.66678569  0.16691781  1
  I  I61  1  0.16771132  0.66738556  0.50021857  1
  I  I62  1  0.16797261  0.66635978  0.83318306  1
  I  I63  1  0.49878766  -0.00110525  0.16789079  1
  I  I64  1  0.49950454  0.00233311  0.49893221  1
  I  I65  1  0.49952918  0.00327982  0.83301849  1
  I  I66  1  0.50039088  0.33569106  0.16610799  1
  I  I67  1  0.49924239  0.32968174  0.50057195  1
  I  I68  1  0.50016534  0.33182713  0.83357825  1
  I  I69  1  0.50684999  0.66542394  0.16689275  1
  I  I70  1  0.50096714  0.66923895  0.49868513  1
  I  I71  1  0.50647231  0.66290592  0.83408680  1
  I  I72  1  0.83589649  0.00350277  0.16654758  1
  I  I73  1  0.83651993  0.00542646  0.50035390  1
  I  I74  1  0.83275363  0.00438605  0.83339602  1
  I  I75  1  0.83012055  0.33186798  0.16631705  1
  I  I76  1  0.82967117  0.32878769  0.50001904  1
  I  I77  1  0.83195668  0.33126140  0.83386960  1
  I  I78  1  0.82854089  0.66277222  0.15990515  1
  I  I79  1  0.83111445  0.66674253  0.50047407  1
  I  I80  1  0.82342233  0.66196756  0.84012089  1
  I  I81  1  0.16578323  0.16719383  -0.00028640  1
  I  I82  1  0.16550073  0.16686722  0.33339802  1
  I  I83  1  0.16517666  0.16677910  0.66684390  1
  I  I84  1  0.16915076  0.49617073  0.00001236  1
  I  I85  1  0.16888941  0.49489826  0.33298900  1
  I  I86  1  0.16884521  0.49742320  0.66697453  1
  I  I87  1  0.16952666  0.83637004  0.00030483  1
  I  I88  1  0.16545908  0.83629541  0.33325499  1
  I  I89  1  0.16923232  0.83410656  0.66641166  1
  I  I90  1  0.49892824  0.16630889  -0.00254944  1
  I  I91  1  0.49936463  0.16563445  0.33530369  1
  I  I92  1  0.49944397  0.16563862  0.66703228  1
  I  I93  1  0.50373812  0.49797069  -0.00011701  1
  I  I94  1  0.50406524  0.49913411  0.33047343  1
  I  I95  1  0.50466900  0.49707264  0.66996751  1
  I  I96  1  0.50035117  0.83532437  0.00253362  1
  I  I97  1  0.50078490  0.83737876  0.33341495  1
  I  I98  1  0.49993587  0.83810806  0.66407999  1
  I  I99  1  0.83544359  0.16981196  -0.00015465  1
  I  I100  1  0.83505856  0.17003022  0.33288319  1
  I  I101  1  0.83502688  0.16950468  0.66725568  1
  I  I102  1  0.82623773  0.48807953  0.00007279  1
  I  I103  1  0.82636177  0.49229743  0.32995585  1
  I  I104  1  0.82579685  0.49246712  0.67030236  1
  I  I105  1  0.82960279  0.84194286  0.00013208  1
  I  I106  1  0.83310624  0.83470006  0.33324131  1
  I  I107  1  0.83033203  0.83415314  0.66663763  1
  I  I108  1  -0.00121153  0.17197422  0.16699571  1
  I  I109  1  -0.00033645  0.16958159  0.50294576  1
  I  I110  1  -0.00079326  0.16996682  0.83049428  1
  I  I111  1  -0.00381203  0.49369846  0.16085571  1
  I  I112  1  -0.00035014  0.49716990  0.50044578  1
  I  I113  1  -0.00392699  0.49162193  0.83934099  1
  I  I114  1  0.00015900  0.83175408  0.16643723  1
  I  I115  1  0.00025631  0.83310945  0.50032072  1
  I  I116  1  -0.00007429  0.83376887  0.83360853  1
  I  I117  1  0.33171265  0.16569517  0.16693990  1
  I  I118  1  0.33402142  0.16244955  0.50221388  1
  I  I119  1  0.33422844  0.16945890  0.83092800  1
  I  I120  1  0.33640888  0.50165293  0.16311413  1
  I  I121  1  0.33375010  0.49681997  0.49960768  1
  I  I122  1  0.33636225  0.49510035  0.83707047  1
  I  I123  1  0.33788846  0.82964222  0.17052788  1
  I  I124  1  0.33752751  0.84055299  0.49633559  1
  I  I125  1  0.33377532  0.83455696  0.83358859  1
  I  I126  1  0.66930221  0.16667293  0.16738423  1
  I  I127  1  0.66631306  0.16261529  0.50222995  1
  I  I128  1  0.66652316  0.16935339  0.83063246  1
  I  I129  1  0.66639631  0.49613215  0.16331964  1
  I  I130  1  0.66655936  0.49669925  0.49936889  1
  I  I131  1  0.66618876  0.48977364  0.83788035  1
  I  I132  1  0.66315299  0.83734218  0.17032979  1
  I  I133  1  0.66268603  0.84100030  0.49660290  1
  I  I134  1  0.66642301  0.84164444  0.83293987  1
