# generated using pymatgen
data_Cs27Sn13Pb14I81
_symmetry_space_group_name_H-M   'P 1'
_cell_length_a   18.98001470
_cell_length_b   18.97995424
_cell_length_c   18.96910386
_cell_angle_alpha   89.99993448
_cell_angle_beta   89.99995434
_cell_angle_gamma   89.99822930
_symmetry_Int_Tables_number   1
_chemical_formula_structural   Cs27Sn13Pb14I81
_chemical_formula_sum   'Cs27 Sn13 Pb14 I81'
_cell_volume   6833.42637515
_cell_formula_units_Z   1
loop_
 _symmetry_equiv_pos_site_id
 _symmetry_equiv_pos_as_xyz
  1  'x, y, z'
loop_
 _atom_site_type_symbol
 _atom_site_label
 _atom_site_symmetry_multiplicity
 _atom_site_fract_x
 _atom_site_fract_y
 _atom_site_fract_z
 _atom_site_occupancy
  Cs  Cs0  1  0.00499735  -0.00168648  -0.01029640  1
  Cs  Cs1  1  0.00020559  0.00280419  0.33525987  1
  Cs  Cs2  1  0.00033203  -0.00215619  0.66796404  1
  Cs  Cs3  1  0.00068629  0.33374653  -0.00017572  1
  Cs  Cs4  1  -0.00030091  0.33197183  0.33467772  1
  Cs  Cs5  1  -0.00277298  0.33324819  0.66162751  1
  Cs  Cs6  1  -0.00426515  0.66712726  -0.00142203  1
  Cs  Cs7  1  0.00020396  0.66542650  0.33318699  1
  Cs  Cs8  1  0.00225293  0.66972223  0.66639611  1
  Cs  Cs9  1  0.32921434  0.00070671  -0.00292726  1
  Cs  Cs10  1  0.33470170  -0.00003204  0.33205290  1
  Cs  Cs11  1  0.33295118  -0.00146799  0.67030044  1
  Cs  Cs12  1  0.33336457  0.33218389  0.00173078  1
  Cs  Cs13  1  0.33216900  0.33404545  0.33144271  1
  Cs  Cs14  1  0.33806547  0.33941372  0.66776447  1
  Cs  Cs15  1  0.33182816  0.66723422  0.00131867  1
  Cs  Cs16  1  0.33438645  0.66669748  0.33359266  1
  Cs  Cs17  1  0.33537988  0.66358261  0.66577621  1
  Cs  Cs18  1  0.66755725  -0.00348400  -0.00091118  1
  Cs  Cs19  1  0.66552465  0.00023891  0.33375196  1
  Cs  Cs20  1  0.66710735  0.00277187  0.66533931  1
  Cs  Cs21  1  0.66601677  0.33627772  -0.00556983  1
  Cs  Cs22  1  0.66887905  0.32901682  0.33208562  1
  Cs  Cs23  1  0.66474795  0.33370126  0.67360250  1
  Cs  Cs24  1  0.67485989  0.66699336  0.00269218  1
  Cs  Cs25  1  0.66526311  0.67127466  0.32995410  1
  Cs  Cs26  1  0.66074656  0.66323511  0.66774679  1
  Sn  Sn27  1  0.50013633  0.83321988  0.83362095  1
  Sn  Sn28  1  0.49977796  0.16685921  0.49943667  1
  Sn  Sn29  1  0.83279199  0.16628709  0.16676082  1
  Sn  Sn30  1  0.16643635  0.49984648  0.83422310  1
  Sn  Sn31  1  0.50098969  0.16745407  0.16721938  1
  Sn  Sn32  1  0.16699884  0.50080906  0.16597508  1
  Sn  Sn33  1  0.16644600  0.83278218  0.16743493  1
  Sn  Sn34  1  0.16717346  0.16601548  0.49984112  1
  Sn  Sn35  1  0.49982742  0.49954565  0.16707895  1
  Sn  Sn36  1  0.83367206  0.83313999  0.49960307  1
  Sn  Sn37  1  0.83271343  0.50022956  0.49956279  1
  Sn  Sn38  1  0.16637527  0.83406732  0.49891572  1
  Sn  Sn39  1  0.83311383  0.16654978  0.49930740  1
  Pb  Pb40  1  0.49994524  0.16509193  0.83417799  1
  Pb  Pb41  1  0.83075707  0.83321233  0.83018799  1
  Pb  Pb42  1  0.16552010  0.50024091  0.49925938  1
  Pb  Pb43  1  0.50277909  0.49746967  0.49743266  1
  Pb  Pb44  1  0.83630839  0.83644263  0.16866340  1
  Pb  Pb45  1  0.49966870  0.83541410  0.50121751  1
  Pb  Pb46  1  0.49806611  0.83396103  0.16495569  1
  Pb  Pb47  1  0.83361392  0.49812021  0.16846510  1
  Pb  Pb48  1  0.16799389  0.83134869  0.83276378  1
  Pb  Pb49  1  0.83588701  0.50007229  0.83060752  1
  Pb  Pb50  1  0.49835086  0.50213356  0.83658712  1
  Pb  Pb51  1  0.16684764  0.16965445  0.82961021  1
  Pb  Pb52  1  0.83345696  0.16662604  0.83352244  1
  Pb  Pb53  1  0.16657381  0.16667293  0.16811381  1
  I  I54  1  0.16722273  -0.00213827  0.17047255  1
  I  I55  1  0.16227282  -0.00025988  0.49452592  1
  I  I56  1  0.16772158  -0.00019808  0.83580534  1
  I  I57  1  0.16784157  0.33570901  0.16515326  1
  I  I58  1  0.16463116  0.33080965  0.49960518  1
  I  I59  1  0.16775929  0.33712021  0.83969168  1
  I  I60  1  0.17262315  0.66613404  0.16971923  1
  I  I61  1  0.16132576  0.66930635  0.49955428  1
  I  I62  1  0.16845054  0.66383820  0.83219915  1
  I  I63  1  0.50244793  0.00325500  0.17045599  1
  I  I64  1  0.50368125  0.00361760  0.49421745  1
  I  I65  1  0.49782125  -0.00246224  0.83381818  1
  I  I66  1  0.49668658  0.33271393  0.17121816  1
  I  I67  1  0.49784281  0.32919879  0.49921756  1
  I  I68  1  0.49888472  0.33360242  0.83091607  1
  I  I69  1  0.49650078  0.66440320  0.16504091  1
  I  I70  1  0.50035263  0.66657872  0.50047657  1
  I  I71  1  0.49790808  0.66935886  0.83105045  1
  I  I72  1  0.82715049  0.00411514  0.17437921  1
  I  I73  1  0.83438459  0.00087810  0.49649879  1
  I  I74  1  0.83438738  -0.00015632  0.83169671  1
  I  I75  1  0.83480238  0.33023660  0.17495236  1
  I  I76  1  0.83587297  0.33188331  0.49611733  1
  I  I77  1  0.83318551  0.33340594  0.82945263  1
  I  I78  1  0.83078302  0.66690711  0.16941563  1
  I  I79  1  0.84068969  0.66734333  0.50090299  1
  I  I80  1  0.83276273  0.66667704  0.83205284  1
  I  I81  1  0.16666965  0.16351069  0.00013323  1
  I  I82  1  0.16571141  0.16762783  0.33649004  1
  I  I83  1  0.16482542  0.16106196  0.66121276  1
  I  I84  1  0.17057559  0.50505904  0.00189445  1
  I  I85  1  0.16905220  0.50078095  0.33058792  1
  I  I86  1  0.16403780  0.49955553  0.66796985  1
  I  I87  1  0.16960851  0.83215256  0.00249389  1
  I  I88  1  0.16464195  0.83114349  0.33419358  1
  I  I89  1  0.16334615  0.83619421  0.66329300  1
  I  I90  1  0.50427559  0.16986367  0.00391406  1
  I  I91  1  0.50094165  0.16887621  0.33356537  1
  I  I92  1  0.50122888  0.16438681  0.66355125  1
  I  I93  1  0.49816480  0.49253005  0.00431076  1
  I  I94  1  0.49172967  0.49992378  0.32982021  1
  I  I95  1  0.49906783  0.49934895  0.66654070  1
  I  I96  1  0.49600538  0.83522933  -0.00238434  1
  I  I97  1  0.50066538  0.83204328  0.33324033  1
  I  I98  1  0.49809356  0.83508892  0.66874194  1
  I  I99  1  0.82800832  0.16814194  0.00353473  1
  I  I100  1  0.83265939  0.16711785  0.33509641  1
  I  I101  1  0.83310328  0.16653476  0.66231875  1
  I  I102  1  0.83176300  0.49782428  0.00034143  1
  I  I103  1  0.83698232  0.50008735  0.33651775  1
  I  I104  1  0.83549933  0.49624365  0.66221163  1
  I  I105  1  0.83419328  0.83505680  0.00026390  1
  I  I106  1  0.83373320  0.83233846  0.33710914  1
  I  I107  1  0.84110775  0.83727403  0.66171583  1
  I  I108  1  -0.00212719  0.16759823  0.17352506  1
  I  I109  1  -0.00061392  0.16687237  0.49600550  1
  I  I110  1  0.00030317  0.16566822  0.83435930  1
  I  I111  1  0.00293946  0.50206974  0.16492169  1
  I  I112  1  -0.00233655  0.49475410  0.49821881  1
  I  I113  1  0.00369581  0.50159032  0.84066633  1
  I  I114  1  0.00413151  0.82770130  0.16840521  1
  I  I115  1  0.00054988  0.83807387  0.49694817  1
  I  I116  1  0.00013243  0.83261525  0.83433553  1
  I  I117  1  0.33568686  0.16781437  0.17182915  1
  I  I118  1  0.33327954  0.16174176  0.49548867  1
  I  I119  1  0.33330885  0.16539346  0.83280329  1
  I  I120  1  0.33264316  0.49720491  0.16441562  1
  I  I121  1  0.33355390  0.49937281  0.50202722  1
  I  I122  1  0.33046671  0.50071280  0.83186472  1
  I  I123  1  0.33008690  0.83354288  0.17287648  1
  I  I124  1  0.33024425  0.83778596  0.49810643  1
  I  I125  1  0.33539810  0.83370380  0.83100436  1
  I  I126  1  0.66596510  0.17171264  0.17666151  1
  I  I127  1  0.66723023  0.16570729  0.49548687  1
  I  I128  1  0.66658161  0.16655378  0.82804419  1
  I  I129  1  0.66428960  0.49746548  0.16956010  1
  I  I130  1  0.67057803  0.50129635  0.49858940  1
  I  I131  1  0.66651460  0.50078401  0.83290314  1
  I  I132  1  0.66686183  0.83087861  0.16651259  1
  I  I133  1  0.66927610  0.83486254  0.50233553  1
  I  I134  1  0.66335142  0.83378869  0.83331445  1
