# generated using pymatgen
data_Cs27Sn13Pb14I81
_symmetry_space_group_name_H-M   'P 1'
_cell_length_a   18.97370058
_cell_length_b   18.96954996
_cell_length_c   18.99118265
_cell_angle_alpha   90.00157815
_cell_angle_beta   90.00029377
_cell_angle_gamma   90.00260064
_symmetry_Int_Tables_number   1
_chemical_formula_structural   Cs27Sn13Pb14I81
_chemical_formula_sum   'Cs27 Sn13 Pb14 I81'
_cell_volume   6835.35508745
_cell_formula_units_Z   1
loop_
 _symmetry_equiv_pos_site_id
 _symmetry_equiv_pos_as_xyz
  1  'x, y, z'
loop_
 _atom_site_type_symbol
 _atom_site_label
 _atom_site_symmetry_multiplicity
 _atom_site_fract_x
 _atom_site_fract_y
 _atom_site_fract_z
 _atom_site_occupancy
  Cs  Cs0  1  -0.00018371  -0.00159611  0.00207713  1
  Cs  Cs1  1  0.00133318  0.00084011  0.33525987  1
  Cs  Cs2  1  0.00029380  -0.00053299  0.66174850  1
  Cs  Cs3  1  0.00222423  0.33350533  0.00000875  1
  Cs  Cs4  1  0.00209148  0.33027268  0.33373189  1
  Cs  Cs5  1  0.00044220  0.33387332  0.66652554  1
  Cs  Cs6  1  -0.00107480  0.66768450  -0.00103698  1
  Cs  Cs7  1  -0.00355114  0.66873928  0.33282317  1
  Cs  Cs8  1  -0.00333868  0.66646984  0.66851209  1
  Cs  Cs9  1  0.33556221  -0.00193057  -0.00036661  1
  Cs  Cs10  1  0.33250071  -0.00191284  0.33319158  1
  Cs  Cs11  1  0.33295393  -0.00185366  0.66738402  1
  Cs  Cs12  1  0.33217547  0.33415807  -0.00258965  1
  Cs  Cs13  1  0.33354213  0.33551380  0.33177427  1
  Cs  Cs14  1  0.33174174  0.33376534  0.67246529  1
  Cs  Cs15  1  0.33259104  0.66758031  -0.00031233  1
  Cs  Cs16  1  0.33545224  0.66621289  0.33392025  1
  Cs  Cs17  1  0.33307619  0.66744603  0.66797572  1
  Cs  Cs18  1  0.66483565  -0.00022275  0.00074829  1
  Cs  Cs19  1  0.66634181  0.00128075  0.33241508  1
  Cs  Cs20  1  0.66636916  0.00249705  0.66550436  1
  Cs  Cs21  1  0.66604294  0.33332458  0.00148552  1
  Cs  Cs22  1  0.66545232  0.33477075  0.33320555  1
  Cs  Cs23  1  0.66862247  0.33038764  0.66532766  1
  Cs  Cs24  1  0.67158352  0.66694591  0.00112035  1
  Cs  Cs25  1  0.66991509  0.65898205  0.33887807  1
  Cs  Cs26  1  0.67197879  0.66615793  0.66133650  1
  Sn  Sn27  1  0.50038639  0.16623650  0.16738115  1
  Sn  Sn28  1  0.83254044  0.16677208  0.49957940  1
  Sn  Sn29  1  0.83247748  0.16656676  0.16650379  1
  Sn  Sn30  1  0.49980030  0.83199662  0.83399264  1
  Sn  Sn31  1  0.83352052  0.16642047  0.83373381  1
  Sn  Sn32  1  0.49982871  0.83330181  0.16629039  1
  Sn  Sn33  1  0.16690275  0.50121647  0.16663849  1
  Sn  Sn34  1  0.49975153  0.16663610  0.49905232  1
  Sn  Sn35  1  0.50006422  0.50137425  0.83354932  1
  Sn  Sn36  1  0.16765482  0.83227285  0.16591940  1
  Sn  Sn37  1  0.16744273  0.50114792  0.83343710  1
  Sn  Sn38  1  0.16742217  0.83260215  0.83413147  1
  Sn  Sn39  1  0.16702992  0.50032365  0.50007733  1
  Pb  Pb40  1  0.49996589  0.83506966  0.49984077  1
  Pb  Pb41  1  0.49836480  0.50046620  0.16478071  1
  Pb  Pb42  1  0.16749386  0.16855906  0.50005717  1
  Pb  Pb43  1  0.83313396  0.83575900  0.49979595  1
  Pb  Pb44  1  0.16685962  0.83071359  0.49992380  1
  Pb  Pb45  1  0.83572965  0.49751940  0.49991081  1
  Pb  Pb46  1  0.16755812  0.16590600  0.16648633  1
  Pb  Pb47  1  0.49808096  0.49753535  0.50283500  1
  Pb  Pb48  1  0.83331763  0.49801534  0.83350191  1
  Pb  Pb49  1  0.83622333  0.49741732  0.16659905  1
  Pb  Pb50  1  0.16435593  0.16579254  0.83339188  1
  Pb  Pb51  1  0.83287969  0.83519212  0.16675226  1
  Pb  Pb52  1  0.83307557  0.83560666  0.83335464  1
  Pb  Pb53  1  0.50144894  0.16634664  0.83372320  1
  I  I54  1  0.16692179  -0.00324713  0.16099358  1
  I  I55  1  0.16465572  -0.00011251  0.50033518  1
  I  I56  1  0.17054082  -0.00370642  0.83892767  1
  I  I57  1  0.16544044  0.33594618  0.16555015  1
  I  I58  1  0.16577640  0.33662086  0.50053364  1
  I  I59  1  0.16986150  0.33649108  0.83413069  1
  I  I60  1  0.17264623  0.66713648  0.16571014  1
  I  I61  1  0.16816167  0.66278427  0.50050281  1
  I  I62  1  0.17053023  0.66626644  0.83398006  1
  I  I63  1  0.49777981  0.00012123  0.16404028  1
  I  I64  1  0.50384399  0.00364066  0.50127611  1
  I  I65  1  0.49622182  -0.00270119  0.83424744  1
  I  I66  1  0.50256814  0.33064355  0.16854937  1
  I  I67  1  0.50402196  0.32944312  0.49503423  1
  I  I68  1  0.49575061  0.33532499  0.83291954  1
  I  I69  1  0.49556851  0.66978136  0.16323646  1
  I  I70  1  0.49839473  0.66633911  0.49750690  1
  I  I71  1  0.49422311  0.66735948  0.83911417  1
  I  I72  1  0.83483193  0.00389686  0.16679654  1
  I  I73  1  0.83156318  0.00483463  0.50055368  1
  I  I74  1  0.83309603  0.00380194  0.83305105  1
  I  I75  1  0.82851189  0.32880670  0.16662629  1
  I  I76  1  0.82991465  0.32909821  0.50034177  1
  I  I77  1  0.83326227  0.32972909  0.83305550  1
  I  I78  1  0.83149984  0.66672110  0.16611258  1
  I  I79  1  0.83403452  0.66618974  0.50046863  1
  I  I80  1  0.83376653  0.66678298  0.83328393  1
  I  I81  1  0.16506129  0.17238661  0.00003780  1
  I  I82  1  0.16200732  0.16764105  0.33310791  1
  I  I83  1  0.16617116  0.16732878  0.66680687  1
  I  I84  1  0.16992314  0.50245331  -0.00060076  1
  I  I85  1  0.16556966  0.50105964  0.33247872  1
  I  I86  1  0.17028782  0.50122489  0.66818102  1
  I  I87  1  0.17010257  0.82636198  -0.00002426  1
  I  I88  1  0.17027216  0.83103979  0.32985408  1
  I  I89  1  0.17068686  0.83117847  0.67007972  1
  I  I90  1  0.50427313  0.16559991  0.00263337  1
  I  I91  1  0.50732457  0.16222558  0.33213636  1
  I  I92  1  0.50476317  0.16775134  0.66495571  1
  I  I93  1  0.49355307  0.49663500  -0.00309103  1
  I  I94  1  0.49742717  0.50070534  0.33328609  1
  I  I95  1  0.49348371  0.50303498  0.67073067  1
  I  I96  1  0.49489308  0.83765302  0.00013576  1
  I  I97  1  0.49454600  0.83810303  0.32973451  1
  I  I98  1  0.49446404  0.83238471  0.67015461  1
  I  I99  1  0.82985236  0.16671023  0.00077587  1
  I  I100  1  0.82945453  0.16678303  0.33313880  1
  I  I101  1  0.82924924  0.16710829  0.66614383  1
  I  I102  1  0.83579157  0.49452566  -0.00004725  1
  I  I103  1  0.83482885  0.49762546  0.33324470  1
  I  I104  1  0.83585370  0.49575116  0.66682055  1
  I  I105  1  0.83431698  0.83845719  0.00000739  1
  I  I106  1  0.83561989  0.83653100  0.33296234  1
  I  I107  1  0.83455073  0.83734290  0.66695812  1
  I  I108  1  -0.00243759  0.16786569  0.16778459  1
  I  I109  1  -0.00286192  0.16835164  0.49920577  1
  I  I110  1  -0.00365777  0.16768228  0.83316868  1
  I  I111  1  0.00485205  0.50392557  0.16317271  1
  I  I112  1  0.00393805  0.49725531  0.50315539  1
  I  I113  1  0.00371748  0.50240915  0.83323143  1
  I  I114  1  0.00333795  0.83085062  0.16197617  1
  I  I115  1  0.00038304  0.83661200  0.50029662  1
  I  I116  1  0.00340739  0.82992960  0.83759202  1
  I  I117  1  0.33663518  0.16579684  0.17126615  1
  I  I118  1  0.33656716  0.16750495  0.49480657  1
  I  I119  1  0.33343816  0.16795196  0.83292490  1
  I  I120  1  0.32992482  0.49709186  0.16779864  1
  I  I121  1  0.33007577  0.49633234  0.49816690  1
  I  I122  1  0.33219885  0.50101126  0.83314645  1
  I  I123  1  0.33333781  0.83699278  0.16239713  1
  I  I124  1  0.33328987  0.83869498  0.50018595  1
  I  I125  1  0.33313162  0.83089052  0.83733761  1
  I  I126  1  0.66582646  0.16124491  0.16698112  1
  I  I127  1  0.66683670  0.16666982  0.49998958  1
  I  I128  1  0.66935298  0.16700846  0.83296530  1
  I  I129  1  0.66643626  0.50133769  0.16457072  1
  I  I130  1  0.66644368  0.50052509  0.50167720  1
  I  I131  1  0.66352960  0.50235033  0.83413895  1
  I  I132  1  0.66298950  0.83852276  0.16043159  1
  I  I133  1  0.66627646  0.83133936  0.50135003  1
  I  I134  1  0.66303046  0.83113139  0.83844803  1
