# generated using pymatgen
data_Cs27Sn14Pb13I81
_symmetry_space_group_name_H-M   'P 1'
_cell_length_a   18.96033527
_cell_length_b   18.95582998
_cell_length_c   18.96492182
_cell_angle_alpha   90.00010619
_cell_angle_beta   90.00170850
_cell_angle_gamma   90.00206513
_symmetry_Int_Tables_number   1
_chemical_formula_structural   Cs27Sn14Pb13I81
_chemical_formula_sum   'Cs27 Sn14 Pb13 I81'
_cell_volume   6816.16152847
_cell_formula_units_Z   1
loop_
 _symmetry_equiv_pos_site_id
 _symmetry_equiv_pos_as_xyz
  1  'x, y, z'
loop_
 _atom_site_type_symbol
 _atom_site_label
 _atom_site_symmetry_multiplicity
 _atom_site_fract_x
 _atom_site_fract_y
 _atom_site_fract_z
 _atom_site_occupancy
  Cs  Cs0  1  0.00124698  0.00599432  0.00291101  1
  Cs  Cs1  1  0.00535729  -0.00313114  0.33000154  1
  Cs  Cs2  1  0.00107748  -0.00485275  0.66597611  1
  Cs  Cs3  1  -0.00000817  0.33074505  0.00262065  1
  Cs  Cs4  1  -0.00356763  0.33568744  0.32978987  1
  Cs  Cs5  1  0.00102910  0.33489302  0.66739583  1
  Cs  Cs6  1  -0.00150394  0.66568293  -0.00199302  1
  Cs  Cs7  1  0.00016536  0.66559172  0.33472545  1
  Cs  Cs8  1  -0.00247913  0.66836095  0.66644766  1
  Cs  Cs9  1  0.33271427  -0.00267709  -0.00106462  1
  Cs  Cs10  1  0.32816860  -0.00252508  0.33481416  1
  Cs  Cs11  1  0.33484803  0.00304588  0.66745365  1
  Cs  Cs12  1  0.33430782  0.33451486  -0.00241452  1
  Cs  Cs13  1  0.33462320  0.33491923  0.33992253  1
  Cs  Cs14  1  0.33312576  0.33072767  0.66520494  1
  Cs  Cs15  1  0.33636479  0.66726798  0.00135104  1
  Cs  Cs16  1  0.33342419  0.66756569  0.32956465  1
  Cs  Cs17  1  0.33366045  0.66633987  0.66808077  1
  Cs  Cs18  1  0.66651670  0.00173480  0.00005088  1
  Cs  Cs19  1  0.66672609  0.00286897  0.33256456  1
  Cs  Cs20  1  0.66576600  -0.00127170  0.66715986  1
  Cs  Cs21  1  0.66545182  0.33272681  -0.00094371  1
  Cs  Cs22  1  0.66917888  0.33184742  0.33484032  1
  Cs  Cs23  1  0.66602787  0.33344988  0.66636023  1
  Cs  Cs24  1  0.66470681  0.66560460  -0.00138977  1
  Cs  Cs25  1  0.66618189  0.66702977  0.33226380  1
  Cs  Cs26  1  0.66863701  0.66808809  0.66916632  1
  Sn  Sn27  1  0.83365212  0.16681340  0.50100351  1
  Sn  Sn28  1  0.83311623  0.83250807  0.16662418  1
  Sn  Sn29  1  0.16668792  0.50089205  0.83339878  1
  Sn  Sn30  1  0.50042596  0.50124029  0.50027968  1
  Sn  Sn31  1  0.49945935  0.83387309  0.83261271  1
  Sn  Sn32  1  0.83275610  0.16677299  0.83201464  1
  Sn  Sn33  1  0.50024777  0.83257286  0.50044950  1
  Sn  Sn34  1  0.83313670  0.49953230  0.49967784  1
  Sn  Sn35  1  0.83355542  0.50119166  0.16706407  1
  Sn  Sn36  1  0.16625178  0.49997627  0.16653051  1
  Sn  Sn37  1  0.16725951  0.83250980  0.83336102  1
  Sn  Sn38  1  0.16642776  0.50017096  0.50006762  1
  Sn  Sn39  1  0.49945446  0.16672056  0.16624043  1
  Sn  Sn40  1  0.50085555  0.16594485  0.83426992  1
  Pb  Pb41  1  0.83146578  0.83313555  0.49820146  1
  Pb  Pb42  1  0.83324735  0.83575739  0.83544019  1
  Pb  Pb43  1  0.50036812  0.49808196  0.16897702  1
  Pb  Pb44  1  0.49805029  0.49986590  0.83113439  1
  Pb  Pb45  1  0.16997859  0.16940757  0.16685669  1
  Pb  Pb46  1  0.16688402  0.16646051  0.83320893  1
  Pb  Pb47  1  0.50151702  0.83522589  0.16652160  1
  Pb  Pb48  1  0.83217084  0.16717182  0.16687150  1
  Pb  Pb49  1  0.16914759  0.83090781  0.50205423  1
  Pb  Pb50  1  0.16312686  0.16880204  0.49984923  1
  Pb  Pb51  1  0.50143730  0.16638425  0.50039631  1
  Pb  Pb52  1  0.83544510  0.49796763  0.83339226  1
  Pb  Pb53  1  0.16446691  0.83091024  0.16411000  1
  I  I54  1  0.16429654  -0.00030963  0.16447745  1
  I  I55  1  0.16729673  -0.00044002  0.50194682  1
  I  I56  1  0.16800257  -0.00275625  0.83348944  1
  I  I57  1  0.15890992  0.33790414  0.16423262  1
  I  I58  1  0.17308439  0.33792688  0.50332380  1
  I  I59  1  0.16642079  0.33643631  0.83279520  1
  I  I60  1  0.16642372  0.66253328  0.16948356  1
  I  I61  1  0.16146021  0.66231682  0.49842116  1
  I  I62  1  0.17174276  0.66602314  0.83307439  1
  I  I63  1  0.50500826  0.00297253  0.16691359  1
  I  I64  1  0.50328436  -0.00230490  0.50143604  1
  I  I65  1  0.49821105  -0.00025302  0.83106584  1
  I  I66  1  0.50222340  0.33042914  0.16141268  1
  I  I67  1  0.49830667  0.33599942  0.49954565  1
  I  I68  1  0.50234613  0.33074981  0.83536053  1
  I  I69  1  0.49940797  0.66644321  0.16501525  1
  I  I70  1  0.50190513  0.66598030  0.50481794  1
  I  I71  1  0.49764794  0.66921210  0.83099453  1
  I  I72  1  0.82971872  -0.00156328  0.16578939  1
  I  I73  1  0.82857021  0.00237833  0.50224207  1
  I  I74  1  0.83307268  0.00364134  0.82959338  1
  I  I75  1  0.83631478  0.33629742  0.16846507  1
  I  I76  1  0.83099301  0.33497073  0.49778801  1
  I  I77  1  0.82841834  0.33007543  0.83387789  1
  I  I78  1  0.83585232  0.66485397  0.17192492  1
  I  I79  1  0.83504180  0.66331230  0.49742725  1
  I  I80  1  0.83154856  0.66664229  0.83203402  1
  I  I81  1  0.16169853  0.17022226  -0.00016610  1
  I  I82  1  0.16788496  0.16723064  0.33334952  1
  I  I83  1  0.17059826  0.17038420  0.66672960  1
  I  I84  1  0.16210777  0.50288515  -0.00000522  1
  I  I85  1  0.16555567  0.49783917  0.33380431  1
  I  I86  1  0.16675501  0.50290620  0.66630657  1
  I  I87  1  0.17313073  0.82778229  -0.00374350  1
  I  I88  1  0.16766708  0.83302155  0.33325180  1
  I  I89  1  0.16659738  0.82789601  0.67011875  1
  I  I90  1  0.50622732  0.16290044  -0.00174495  1
  I  I91  1  0.50324073  0.16848045  0.33187925  1
  I  I92  1  0.50220989  0.16567516  0.66932854  1
  I  I93  1  0.49957051  0.50109674  -0.00011653  1
  I  I94  1  0.49631960  0.50298367  0.33716196  1
  I  I95  1  0.50104945  0.49871008  0.66291764  1
  I  I96  1  0.49751562  0.83612513  -0.00303158  1
  I  I97  1  0.50294965  0.83059497  0.33575761  1
  I  I98  1  0.49760670  0.83521146  0.66750168  1
  I  I99  1  0.83089864  0.16641410  -0.00215275  1
  I  I100  1  0.82992580  0.16973822  0.33559181  1
  I  I101  1  0.82725835  0.17236021  0.66660588  1
  I  I102  1  0.83786445  0.50132026  0.00264472  1
  I  I103  1  0.83711157  0.49762627  0.33406101  1
  I  I104  1  0.83388353  0.49710053  0.66378520  1
  I  I105  1  0.83152690  0.82807200  0.00301979  1
  I  I106  1  0.83073283  0.83359080  0.33047319  1
  I  I107  1  0.83424116  0.83191245  0.66682903  1
  I  I108  1  -0.00010569  0.16538092  0.16584244  1
  I  I109  1  -0.00505284  0.17160246  0.50532890  1
  I  I110  1  -0.00263481  0.16780331  0.83009146  1
  I  I111  1  -0.00053258  0.50264495  0.17128615  1
  I  I112  1  -0.00040530  0.49445900  0.49907032  1
  I  I113  1  0.00353993  0.50405776  0.82912284  1
  I  I114  1  -0.00343708  0.83347026  0.16645439  1
  I  I115  1  0.00002055  0.83351591  0.50096451  1
  I  I116  1  0.00231753  0.82990942  0.83479558  1
  I  I117  1  0.33771482  0.16683694  0.16002909  1
  I  I118  1  0.33347398  0.16863454  0.50046428  1
  I  I119  1  0.33645009  0.16602490  0.83693319  1
  I  I120  1  0.33077816  0.49735726  0.16746474  1
  I  I121  1  0.33327403  0.50377480  0.49997172  1
  I  I122  1  0.32986632  0.49915958  0.83381303  1
  I  I123  1  0.33327237  0.83328858  0.16788524  1
  I  I124  1  0.33731200  0.82954694  0.50029675  1
  I  I125  1  0.33437032  0.83497895  0.83020011  1
  I  I126  1  0.66444702  0.16886614  0.16505450  1
  I  I127  1  0.66929965  0.17333167  0.50073499  1
  I  I128  1  0.66581134  0.16226349  0.83354094  1
  I  I129  1  0.66955248  0.50126031  0.17169262  1
  I  I130  1  0.66746720  0.49876236  0.49509480  1
  I  I131  1  0.66664552  0.50149136  0.83327593  1
  I  I132  1  0.66936030  0.82690740  0.16518167  1
  I  I133  1  0.66346072  0.82800883  0.50603814  1
  I  I134  1  0.66375699  0.83608282  0.83079756  1
