# generated using pymatgen
data_Cs27Sn13Pb14I81
_symmetry_space_group_name_H-M   'P 1'
_cell_length_a   18.97787450
_cell_length_b   18.97207443
_cell_length_c   18.98078617
_cell_angle_alpha   90.00002912
_cell_angle_beta   89.99870592
_cell_angle_gamma   89.99925266
_symmetry_Int_Tables_number   1
_chemical_formula_structural   Cs27Sn13Pb14I81
_chemical_formula_sum   'Cs27 Sn13 Pb14 I81'
_cell_volume   6834.02536495
_cell_formula_units_Z   1
loop_
 _symmetry_equiv_pos_site_id
 _symmetry_equiv_pos_as_xyz
  1  'x, y, z'
loop_
 _atom_site_type_symbol
 _atom_site_label
 _atom_site_symmetry_multiplicity
 _atom_site_fract_x
 _atom_site_fract_y
 _atom_site_fract_z
 _atom_site_occupancy
  Cs  Cs0  1  0.00166658  0.00060843  -0.00137158  1
  Cs  Cs1  1  -0.00011808  -0.00271765  0.33826957  1
  Cs  Cs2  1  0.00172675  -0.00056330  0.66521342  1
  Cs  Cs3  1  0.00155428  0.33462659  0.00168230  1
  Cs  Cs4  1  0.01029090  0.33855497  0.33063456  1
  Cs  Cs5  1  -0.00082768  0.33321267  0.66649857  1
  Cs  Cs6  1  -0.00056606  0.66580143  -0.00048491  1
  Cs  Cs7  1  -0.00561813  0.66389959  0.34075828  1
  Cs  Cs8  1  -0.00243669  0.66729344  0.66271710  1
  Cs  Cs9  1  0.33300583  -0.00164041  -0.00122141  1
  Cs  Cs10  1  0.33334983  0.00022163  0.33556201  1
  Cs  Cs11  1  0.33461182  -0.00051177  0.66739836  1
  Cs  Cs12  1  0.32991388  0.33295154  -0.00040690  1
  Cs  Cs13  1  0.32724521  0.34194159  0.33219913  1
  Cs  Cs14  1  0.33394062  0.33305139  0.66696766  1
  Cs  Cs15  1  0.33347835  0.66961649  -0.00071326  1
  Cs  Cs16  1  0.33414655  0.65654863  0.33182493  1
  Cs  Cs17  1  0.33361743  0.66853728  0.66845131  1
  Cs  Cs18  1  0.66580280  0.00074087  0.00060498  1
  Cs  Cs19  1  0.66750905  0.00070362  0.33205918  1
  Cs  Cs20  1  0.66476398  0.00180233  0.66750323  1
  Cs  Cs21  1  0.66882224  0.33049066  -0.00160953  1
  Cs  Cs22  1  0.66465033  0.33181913  0.33547916  1
  Cs  Cs23  1  0.66617259  0.33224812  0.66712241  1
  Cs  Cs24  1  0.66854645  0.66697825  0.00415209  1
  Cs  Cs25  1  0.67157940  0.66130967  0.32600945  1
  Cs  Cs26  1  0.66729210  0.66407688  0.66737026  1
  Sn  Sn27  1  0.83309887  0.16630831  0.16690725  1
  Sn  Sn28  1  0.16667851  0.83345539  0.16669989  1
  Sn  Sn29  1  0.50030904  0.16582685  0.49975179  1
  Sn  Sn30  1  0.83297958  0.83425734  0.83336929  1
  Sn  Sn31  1  0.83276243  0.16658464  0.49987934  1
  Sn  Sn32  1  0.83271547  0.16553918  0.83332253  1
  Sn  Sn33  1  0.50031853  0.83342833  0.49997342  1
  Sn  Sn34  1  0.50044651  0.83313832  0.83278205  1
  Sn  Sn35  1  0.50001760  0.16644074  0.16682015  1
  Sn  Sn36  1  0.16735433  0.50106881  0.83324902  1
  Sn  Sn37  1  0.49936218  0.50008528  0.83353580  1
  Sn  Sn38  1  0.50056677  0.16672874  0.83347722  1
  Sn  Sn39  1  0.16649030  0.83248755  0.83406022  1
  Pb  Pb40  1  0.83288152  0.49662519  0.50012144  1
  Pb  Pb41  1  0.16943929  0.83323036  0.50017534  1
  Pb  Pb42  1  0.16679699  0.50037597  0.50344404  1
  Pb  Pb43  1  0.83319392  0.49984398  0.83337347  1
  Pb  Pb44  1  0.49861874  0.83504695  0.16706870  1
  Pb  Pb45  1  0.50026830  0.49998113  0.50217952  1
  Pb  Pb46  1  0.16726127  0.16660464  0.49994727  1
  Pb  Pb47  1  0.16670741  0.16445741  0.16664008  1
  Pb  Pb48  1  0.16655731  0.16637873  0.83318105  1
  Pb  Pb49  1  0.83019915  0.83519738  0.50220686  1
  Pb  Pb50  1  0.83332489  0.49688681  0.16649800  1
  Pb  Pb51  1  0.50017245  0.49687484  0.16351549  1
  Pb  Pb52  1  0.16656301  0.50352757  0.16398378  1
  Pb  Pb53  1  0.83557268  0.83554332  0.16468951  1
  I  I54  1  0.16748560  -0.00287046  0.15669143  1
  I  I55  1  0.16564423  -0.00020690  0.50354863  1
  I  I56  1  0.16902773  -0.00324848  0.83637509  1
  I  I57  1  0.16620383  0.33351990  0.16575395  1
  I  I58  1  0.16790696  0.33340673  0.50104876  1
  I  I59  1  0.17041229  0.33564881  0.83254678  1
  I  I60  1  0.16958368  0.67106017  0.16192385  1
  I  I61  1  0.16865146  0.66708163  0.49821577  1
  I  I62  1  0.17114391  0.66798843  0.83746624  1
  I  I63  1  0.50287602  0.00350387  0.16124546  1
  I  I64  1  0.50226810  0.00122004  0.50623645  1
  I  I65  1  0.49995232  0.00030029  0.83285534  1
  I  I66  1  0.50360882  0.32823502  0.16719852  1
  I  I67  1  0.50473672  0.32953976  0.50197493  1
  I  I68  1  0.49998264  0.33182223  0.83326504  1
  I  I69  1  0.49753275  0.66670798  0.16684388  1
  I  I70  1  0.49697423  0.66977435  0.50726460  1
  I  I71  1  0.49876873  0.66796959  0.82797687  1
  I  I72  1  0.82889096  0.00393318  0.16676103  1
  I  I73  1  0.83126926  0.00372788  0.49905833  1
  I  I74  1  0.83069510  0.00093806  0.83363782  1
  I  I75  1  0.82942245  0.32789151  0.16139385  1
  I  I76  1  0.82520359  0.32775743  0.50558537  1
  I  I77  1  0.83003446  0.32957631  0.83302246  1
  I  I78  1  0.83420103  0.66711613  0.16417606  1
  I  I79  1  0.83316471  0.66702304  0.50239060  1
  I  I80  1  0.83100929  0.66986054  0.83349498  1
  I  I81  1  0.16706660  0.16811795  -0.00039411  1
  I  I82  1  0.16674839  0.16374831  0.33323803  1
  I  I83  1  0.16637586  0.16549617  0.66698405  1
  I  I84  1  0.17107514  0.50028058  -0.00402473  1
  I  I85  1  0.16670229  0.49982794  0.33311437  1
  I  I86  1  0.17124342  0.50574187  0.67155765  1
  I  I87  1  0.16939529  0.83131052  -0.00280211  1
  I  I88  1  0.16861460  0.83856002  0.33081324  1
  I  I89  1  0.16562773  0.83007202  0.67052090  1
  I  I90  1  0.50539265  0.16654383  -0.00141586  1
  I  I91  1  0.50704395  0.15965137  0.33386815  1
  I  I92  1  0.50503694  0.16616235  0.66792978  1
  I  I93  1  0.49638980  0.50131848  -0.00492871  1
  I  I94  1  0.49942227  0.50012591  0.33321621  1
  I  I95  1  0.49628297  0.49552897  0.67085325  1
  I  I96  1  0.50053771  0.83475325  -0.00369158  1
  I  I97  1  0.49668956  0.84134592  0.33605830  1
  I  I98  1  0.49779367  0.83853938  0.66909359  1
  I  I99  1  0.82676085  0.16319858  -0.00117707  1
  I  I100  1  0.82492873  0.16689334  0.33342729  1
  I  I101  1  0.82723440  0.16344865  0.66775082  1
  I  I102  1  0.83313715  0.49689796  -0.00064341  1
  I  I103  1  0.83358740  0.50081370  0.33334661  1
  I  I104  1  0.83428511  0.49741746  0.66726794  1
  I  I105  1  0.82844507  0.83898508  -0.00418957  1
  I  I106  1  0.83509585  0.83552414  0.33350138  1
  I  I107  1  0.83823242  0.83864025  0.67087756  1
  I  I108  1  -0.00320613  0.16526316  0.16419366  1
  I  I109  1  -0.00339416  0.16645128  0.50225119  1
  I  I110  1  -0.00344175  0.16412763  0.83343849  1
  I  I111  1  0.00023231  0.49579025  0.16249867  1
  I  I112  1  -0.00010147  0.49816424  0.50265856  1
  I  I113  1  0.00272137  0.50261832  0.83400585  1
  I  I114  1  0.00325037  0.83690065  0.15836780  1
  I  I115  1  -0.00031352  0.83571082  0.50178771  1
  I  I116  1  0.00003286  0.83434594  0.83842094  1
  I  I117  1  0.33658456  0.16478217  0.16438804  1
  I  I118  1  0.33759959  0.16258671  0.50255602  1
  I  I119  1  0.33688512  0.16467975  0.83317739  1
  I  I120  1  0.33336476  0.49608230  0.16775277  1
  I  I121  1  0.33371128  0.49653214  0.49895806  1
  I  I122  1  0.33425975  0.50217703  0.83322135  1
  I  I123  1  0.33098499  0.83759059  0.15831692  1
  I  I124  1  0.33736295  0.84216801  0.50815349  1
  I  I125  1  0.33430280  0.83364972  0.83339231  1
  I  I126  1  0.66613925  0.16532777  0.16481020  1
  I  I127  1  0.66561101  0.16297295  0.50151714  1
  I  I128  1  0.66575827  0.16457916  0.83352747  1
  I  I129  1  0.66646206  0.50418474  0.16344678  1
  I  I130  1  0.66630557  0.50152066  0.50439989  1
  I  I131  1  0.66355885  0.50069435  0.83223312  1
  I  I132  1  0.66672694  0.83307838  0.16523601  1
  I  I133  1  0.66229996  0.83722216  0.50675885  1
  I  I134  1  0.66572833  0.83505227  0.82890435  1
