# generated using pymatgen
data_Cs27Sn14Pb13I81
_symmetry_space_group_name_H-M   'P 1'
_cell_length_a   18.97570233
_cell_length_b   18.97000101
_cell_length_c   18.97997782
_cell_angle_alpha   90.00079340
_cell_angle_beta   89.99933558
_cell_angle_gamma   89.99656381
_symmetry_Int_Tables_number   1
_chemical_formula_structural   Cs27Sn14Pb13I81
_chemical_formula_sum   'Cs27 Sn14 Pb13 I81'
_cell_volume   6832.20537519
_cell_formula_units_Z   1
loop_
 _symmetry_equiv_pos_site_id
 _symmetry_equiv_pos_as_xyz
  1  'x, y, z'
loop_
 _atom_site_type_symbol
 _atom_site_label
 _atom_site_symmetry_multiplicity
 _atom_site_fract_x
 _atom_site_fract_y
 _atom_site_fract_z
 _atom_site_occupancy
  Cs  Cs0  1  -0.00346862  0.00416492  0.00147437  1
  Cs  Cs1  1  0.00187504  0.00075220  0.33364638  1
  Cs  Cs2  1  -0.00219483  -0.00474221  0.66597372  1
  Cs  Cs3  1  0.00261114  0.33157339  -0.00023112  1
  Cs  Cs4  1  0.00094455  0.33203398  0.33445139  1
  Cs  Cs5  1  -0.00112758  0.33447054  0.66580378  1
  Cs  Cs6  1  -0.00024155  0.66777704  0.00063250  1
  Cs  Cs7  1  -0.00306091  0.66937654  0.33364718  1
  Cs  Cs8  1  0.00270408  0.66939400  0.66583618  1
  Cs  Cs9  1  0.33572427  -0.00163942  0.00178660  1
  Cs  Cs10  1  0.33277066  0.00044519  0.33249880  1
  Cs  Cs11  1  0.33694319  -0.00412626  0.66847927  1
  Cs  Cs12  1  0.32987653  0.33359937  0.00399896  1
  Cs  Cs13  1  0.33302775  0.33195407  0.33349182  1
  Cs  Cs14  1  0.33261703  0.33587200  0.66365075  1
  Cs  Cs15  1  0.33246046  0.66776053  -0.00300142  1
  Cs  Cs16  1  0.33416488  0.66745245  0.33394554  1
  Cs  Cs17  1  0.33322122  0.66632173  0.66880645  1
  Cs  Cs18  1  0.66750241  0.00019926  -0.01329764  1
  Cs  Cs19  1  0.66553317  -0.00077453  0.33436867  1
  Cs  Cs20  1  0.66551213  0.00088120  0.67861801  1
  Cs  Cs21  1  0.66534814  0.33438248  0.00118448  1
  Cs  Cs22  1  0.66489567  0.33469973  0.33359920  1
  Cs  Cs23  1  0.66897269  0.33421219  0.66545010  1
  Cs  Cs24  1  0.66896631  0.66594476  0.00438207  1
  Cs  Cs25  1  0.66794377  0.66602999  0.33123198  1
  Cs  Cs26  1  0.66441553  0.66362640  0.66458896  1
  Sn  Sn27  1  0.16599814  0.16698857  0.50049441  1
  Sn  Sn28  1  0.50076076  0.49956454  0.83292786  1
  Sn  Sn29  1  0.49972186  0.83358391  0.16752340  1
  Sn  Sn30  1  0.16703975  0.16648339  0.83254151  1
  Sn  Sn31  1  0.83334614  0.16680601  0.16768976  1
  Sn  Sn32  1  0.16615704  0.16651763  0.16692273  1
  Sn  Sn33  1  0.16719520  0.83334341  0.16706839  1
  Sn  Sn34  1  0.16637861  0.49973982  0.49894378  1
  Sn  Sn35  1  0.49992154  0.50069258  0.50028431  1
  Sn  Sn36  1  0.83368685  0.49943977  0.50051851  1
  Sn  Sn37  1  0.83391670  0.16702467  0.49915394  1
  Sn  Sn38  1  0.16648306  0.50039079  0.16779282  1
  Sn  Sn39  1  0.50027558  0.83279339  0.49913999  1
  Sn  Sn40  1  0.83280717  0.49981493  0.83265500  1
  Pb  Pb41  1  0.83534114  0.16892456  0.83268283  1
  Pb  Pb42  1  0.49993746  0.83039491  0.83346920  1
  Pb  Pb43  1  0.83308142  0.83664082  0.16683654  1
  Pb  Pb44  1  0.49767099  0.50169228  0.16703042  1
  Pb  Pb45  1  0.83582078  0.49791953  0.16716842  1
  Pb  Pb46  1  0.16656629  0.83656994  0.83636434  1
  Pb  Pb47  1  0.50043102  0.16400519  0.16661613  1
  Pb  Pb48  1  0.16840951  0.83354673  0.49831431  1
  Pb  Pb49  1  0.49712084  0.17017000  0.83324823  1
  Pb  Pb50  1  0.83361255  0.82957150  0.83310936  1
  Pb  Pb51  1  0.83041322  0.83379972  0.50004033  1
  Pb  Pb52  1  0.16646431  0.49866139  0.83286126  1
  Pb  Pb53  1  0.50034312  0.16675780  0.50002253  1
  I  I54  1  0.16729858  0.00109927  0.16672066  1
  I  I55  1  0.16341118  0.00329023  0.49867313  1
  I  I56  1  0.16585888  0.00470659  0.83119052  1
  I  I57  1  0.16297590  0.33268419  0.16659272  1
  I  I58  1  0.16866536  0.33377416  0.49553274  1
  I  I59  1  0.16709955  0.33088014  0.83879077  1
  I  I60  1  0.17146515  0.66615067  0.17111152  1
  I  I61  1  0.16442503  0.66338717  0.49597649  1
  I  I62  1  0.16686770  0.66647623  0.83433810  1
  I  I63  1  0.49276977  -0.00378528  0.17442760  1
  I  I64  1  0.49793644  -0.00260174  0.49400161  1
  I  I65  1  0.49922753  -0.00006332  0.83294848  1
  I  I66  1  0.49815033  0.33346061  0.16663934  1
  I  I67  1  0.49922496  0.33672025  0.50421356  1
  I  I68  1  0.50401023  0.33781284  0.82600096  1
  I  I69  1  0.49381763  0.66954578  0.16778141  1
  I  I70  1  0.49932050  0.66490037  0.50007029  1
  I  I71  1  0.50166193  0.66262238  0.83114826  1
  I  I72  1  0.84051131  0.00451273  0.17331391  1
  I  I73  1  0.83892038  0.00361052  0.49432154  1
  I  I74  1  0.83390922  0.00054400  0.83389911  1
  I  I75  1  0.83997784  0.33008843  0.16774901  1
  I  I76  1  0.83261387  0.33411282  0.50006493  1
  I  I77  1  0.82982823  0.33664413  0.83110828  1
  I  I78  1  0.83521687  0.66651773  0.16576129  1
  I  I79  1  0.83636609  0.66310572  0.50435582  1
  I  I80  1  0.83077121  0.66131362  0.82759579  1
  I  I81  1  0.16329535  0.16768513  0.00169867  1
  I  I82  1  0.16284351  0.16772748  0.33333517  1
  I  I83  1  0.16352385  0.17441892  0.66497575  1
  I  I84  1  0.16736799  0.49829299  0.00244628  1
  I  I85  1  0.16765235  0.49505347  0.33433916  1
  I  I86  1  0.16720001  0.49485558  0.66332730  1
  I  I87  1  0.17371614  0.83068583  0.00490114  1
  I  I88  1  0.16918211  0.83738418  0.33019390  1
  I  I89  1  0.16871017  0.83306334  0.66648665  1
  I  I90  1  0.49985145  0.16665395  0.00001839  1
  I  I91  1  0.49617037  0.17093368  0.33341498  1
  I  I92  1  0.49922389  0.16061693  0.66645188  1
  I  I93  1  0.50305451  0.50068398  -0.00217684  1
  I  I94  1  0.50202852  0.50191054  0.33650820  1
  I  I95  1  0.49780584  0.50544484  0.66474281  1
  I  I96  1  0.49448204  0.83329543  0.00288908  1
  I  I97  1  0.49590053  0.82738444  0.33361479  1
  I  I98  1  0.49986237  0.83150169  0.66382139  1
  I  I99  1  0.83867329  0.16727899  0.00214097  1
  I  I100  1  0.84208840  0.17239741  0.33424240  1
  I  I101  1  0.83763391  0.16935181  0.66341037  1
  I  I102  1  0.82956646  0.49855630  -0.00198168  1
  I  I103  1  0.83060729  0.49816478  0.33664842  1
  I  I104  1  0.83385467  0.49378112  0.66473546  1
  I  I105  1  0.83143152  0.83365700  0.00029117  1
  I  I106  1  0.83370256  0.82826223  0.33336566  1
  I  I107  1  0.83172884  0.83993192  0.66632415  1
  I  I108  1  0.00197142  0.16506320  0.16695978  1
  I  I109  1  0.00103279  0.17511244  0.49832939  1
  I  I110  1  0.00309392  0.17105701  0.83545980  1
  I  I111  1  0.00409764  0.50381962  0.16906043  1
  I  I112  1  0.00028653  0.49454840  0.50047211  1
  I  I113  1  -0.00223865  0.49727308  0.83048574  1
  I  I114  1  0.00320479  0.83187879  0.16631803  1
  I  I115  1  0.00004011  0.83057681  0.49845059  1
  I  I116  1  0.00034526  0.82990180  0.83459814  1
  I  I117  1  0.32967058  0.16869981  0.16788027  1
  I  I118  1  0.32995794  0.17052206  0.49774678  1
  I  I119  1  0.32906816  0.16891302  0.83447144  1
  I  I120  1  0.32945420  0.49409997  0.16977784  1
  I  I121  1  0.33285552  0.49925832  0.50033317  1
  I  I122  1  0.33533934  0.49886892  0.82986229  1
  I  I123  1  0.33226538  0.83549613  0.17075942  1
  I  I124  1  0.33631025  0.82918413  0.49787327  1
  I  I125  1  0.33326226  0.83113881  0.83179789  1
  I  I126  1  0.66986206  0.16715868  0.17275134  1
  I  I127  1  0.67000508  0.17063757  0.49411984  1
  I  I128  1  0.66692964  0.16474465  0.83405084  1
  I  I129  1  0.66677644  0.50010943  0.16778916  1
  I  I130  1  0.66682564  0.49955487  0.50499354  1
  I  I131  1  0.66664464  0.49954212  0.82482427  1
  I  I132  1  0.66370384  0.83226554  0.17118011  1
  I  I133  1  0.66249840  0.82817342  0.49256355  1
  I  I134  1  0.66643904  0.83843782  0.83616023  1
