# generated using pymatgen
data_Cs27Sn13Pb14I81
_symmetry_space_group_name_H-M   'P 1'
_cell_length_a   18.98364417
_cell_length_b   18.97614155
_cell_length_c   18.97484605
_cell_angle_alpha   89.99931163
_cell_angle_beta   89.99867570
_cell_angle_gamma   90.00070948
_symmetry_Int_Tables_number   1
_chemical_formula_structural   Cs27Sn13Pb14I81
_chemical_formula_sum   'Cs27 Sn13 Pb14 I81'
_cell_volume   6835.42869162
_cell_formula_units_Z   1
loop_
 _symmetry_equiv_pos_site_id
 _symmetry_equiv_pos_as_xyz
  1  'x, y, z'
loop_
 _atom_site_type_symbol
 _atom_site_label
 _atom_site_symmetry_multiplicity
 _atom_site_fract_x
 _atom_site_fract_y
 _atom_site_fract_z
 _atom_site_occupancy
  Cs  Cs0  1  0.00033932  -0.00249724  0.00158656  1
  Cs  Cs1  1  0.00169728  0.00052298  0.33029339  1
  Cs  Cs2  1  -0.00711842  -0.00148620  0.66755490  1
  Cs  Cs3  1  0.00101931  0.33236976  -0.00052395  1
  Cs  Cs4  1  0.00092039  0.33421858  0.33568147  1
  Cs  Cs5  1  0.00136723  0.33447750  0.66539661  1
  Cs  Cs6  1  0.00167199  0.66922347  -0.00152412  1
  Cs  Cs7  1  -0.00075230  0.66486314  0.33730409  1
  Cs  Cs8  1  -0.00281718  0.66637821  0.66430427  1
  Cs  Cs9  1  0.33214143  -0.00244462  0.00105596  1
  Cs  Cs10  1  0.33282482  -0.00003873  0.33261090  1
  Cs  Cs11  1  0.34045638  -0.00165749  0.66509466  1
  Cs  Cs12  1  0.33325489  0.33364054  -0.00017233  1
  Cs  Cs13  1  0.33216503  0.33280824  0.33323777  1
  Cs  Cs14  1  0.33217523  0.33512234  0.66714567  1
  Cs  Cs15  1  0.33218906  0.66758361  -0.00074336  1
  Cs  Cs16  1  0.33315978  0.66678979  0.33433908  1
  Cs  Cs17  1  0.33500141  0.66505415  0.66680002  1
  Cs  Cs18  1  0.66773771  0.00082137  -0.00261043  1
  Cs  Cs19  1  0.66588883  -0.00095608  0.33657313  1
  Cs  Cs20  1  0.66672490  -0.00161534  0.66434735  1
  Cs  Cs21  1  0.66668904  0.33554779  0.00105716  1
  Cs  Cs22  1  0.66968188  0.33501768  0.33127104  1
  Cs  Cs23  1  0.66537280  0.32494232  0.66842680  1
  Cs  Cs24  1  0.66646791  0.66249930  0.00267068  1
  Cs  Cs25  1  0.66935520  0.66562353  0.33195053  1
  Cs  Cs26  1  0.66478395  0.67456055  0.66548969  1
  Sn  Sn27  1  0.16673909  0.16749762  0.16627501  1
  Sn  Sn28  1  0.83342243  0.16597962  0.16656083  1
  Sn  Sn29  1  0.16683200  0.16529363  0.50051368  1
  Sn  Sn30  1  0.16639962  0.49933728  0.83423179  1
  Sn  Sn31  1  0.50091893  0.83426567  0.16652403  1
  Sn  Sn32  1  0.16688160  0.16676926  0.83326243  1
  Sn  Sn33  1  0.16670825  0.49945512  0.16609566  1
  Sn  Sn34  1  0.16671680  0.83454329  0.50038728  1
  Sn  Sn35  1  0.83234293  0.83401810  0.16656977  1
  Sn  Sn36  1  0.83339064  0.49988043  0.83301847  1
  Sn  Sn37  1  0.50030732  0.49955134  0.50081372  1
  Sn  Sn38  1  0.49994630  0.16581770  0.16660762  1
  Sn  Sn39  1  0.50013734  0.49975399  0.83206214  1
  Pb  Pb40  1  0.49799505  0.49984747  0.16643852  1
  Pb  Pb41  1  0.49829343  0.83159121  0.49759516  1
  Pb  Pb42  1  0.83628733  0.49994820  0.16521221  1
  Pb  Pb43  1  0.82985401  0.49976587  0.50333225  1
  Pb  Pb44  1  0.83560494  0.16678772  0.49776785  1
  Pb  Pb45  1  0.49797993  0.16837620  0.83551635  1
  Pb  Pb46  1  0.16656292  0.83336663  0.16797162  1
  Pb  Pb47  1  0.16673318  0.83362230  0.83030797  1
  Pb  Pb48  1  0.83546817  0.83348510  0.49745978  1
  Pb  Pb49  1  0.49804330  0.16852250  0.49778724  1
  Pb  Pb50  1  0.49997511  0.83128305  0.83586565  1
  Pb  Pb51  1  0.83324555  0.83130961  0.83577392  1
  Pb  Pb52  1  0.16771031  0.49958677  0.50051058  1
  Pb  Pb53  1  0.83545082  0.16833468  0.83551075  1
  I  I54  1  0.16671523  0.00327202  0.16476229  1
  I  I55  1  0.16739553  0.00142249  0.49590423  1
  I  I56  1  0.16635872  0.00345767  0.83920864  1
  I  I57  1  0.16732754  0.33194410  0.16817030  1
  I  I58  1  0.16838420  0.33068882  0.49803868  1
  I  I59  1  0.16707635  0.33416159  0.83375874  1
  I  I60  1  0.16774291  0.66421734  0.16390681  1
  I  I61  1  0.16873343  0.66811716  0.49734193  1
  I  I62  1  0.16730471  0.66302737  0.83810403  1
  I  I63  1  0.49652900  0.00087126  0.16744918  1
  I  I64  1  0.49863293  0.00016355  0.49923912  1
  I  I65  1  0.49703145  0.00032100  0.83367759  1
  I  I66  1  0.50040896  0.33081668  0.16644907  1
  I  I67  1  0.49549281  0.33634881  0.50147171  1
  I  I68  1  0.50011386  0.33701502  0.83318260  1
  I  I69  1  0.50243638  0.66855807  0.16651487  1
  I  I70  1  0.49483808  0.66365350  0.50182164  1
  I  I71  1  0.49543432  0.66232973  0.83265390  1
  I  I72  1  0.83668730  0.00092641  0.16644462  1
  I  I73  1  0.83205116  0.00014677  0.50239640  1
  I  I74  1  0.83665755  0.00028536  0.83394441  1
  I  I75  1  0.83166838  0.33056298  0.16516477  1
  I  I76  1  0.83688330  0.33342817  0.49537594  1
  I  I77  1  0.83226528  0.33657825  0.83736485  1
  I  I78  1  0.82963619  0.66890114  0.16488189  1
  I  I79  1  0.83807577  0.66649822  0.49628965  1
  I  I80  1  0.83760661  0.66276205  0.83672919  1
  I  I81  1  0.16683133  0.17312596  0.00125675  1
  I  I82  1  0.16675771  0.16747398  0.33180073  1
  I  I83  1  0.16707040  0.16993434  0.66702049  1
  I  I84  1  0.16918808  0.49314793  -0.00039617  1
  I  I85  1  0.16931645  0.49709728  0.33111691  1
  I  I86  1  0.16594139  0.49678193  0.66986348  1
  I  I87  1  0.16665937  0.83370030  0.00006775  1
  I  I88  1  0.16709473  0.83594603  0.33551842  1
  I  I89  1  0.16768155  0.83533387  0.66266244  1
  I  I90  1  0.49654971  0.16632956  0.00409574  1
  I  I91  1  0.49630236  0.16659361  0.32924148  1
  I  I92  1  0.49722189  0.16773814  0.66676088  1
  I  I93  1  0.49985921  0.50001385  -0.00239478  1
  I  I94  1  0.49491410  0.50015576  0.33460420  1
  I  I95  1  0.49472599  0.50007792  0.66777586  1
  I  I96  1  0.50055862  0.83465577  0.00428171  1
  I  I97  1  0.50184950  0.83390527  0.32947330  1
  I  I98  1  0.49793524  0.83243209  0.66645505  1
  I  I99  1  0.83658401  0.16408671  0.00409969  1
  I  I100  1  0.83598577  0.16490269  0.32875664  1
  I  I101  1  0.83578141  0.16904273  0.66698312  1
  I  I102  1  0.82924658  0.49977440  -0.00253382  1
  I  I103  1  0.83371189  0.50049980  0.33312052  1
  I  I104  1  0.84284212  0.49960873  0.67107811  1
  I  I105  1  0.83257188  0.83717975  0.00413856  1
  I  I106  1  0.83034479  0.83552113  0.32909751  1
  I  I107  1  0.83534274  0.83103269  0.66660071  1
  I  I108  1  0.00135212  0.16659088  0.16667902  1
  I  I109  1  0.00458678  0.16573103  0.49705492  1
  I  I110  1  0.00409965  0.17338401  0.83571330  1
  I  I111  1  0.00420755  0.49664982  0.16263472  1
  I  I112  1  0.00007280  0.50055343  0.49928559  1
  I  I113  1  0.00163290  0.49624500  0.83979783  1
  I  I114  1  -0.00191349  0.83599925  0.16800020  1
  I  I115  1  0.00360520  0.83492830  0.49696008  1
  I  I116  1  0.00026684  0.82998934  0.83633057  1
  I  I117  1  0.33202811  0.16733566  0.16692110  1
  I  I118  1  0.32946237  0.16482989  0.49635253  1
  I  I119  1  0.32942118  0.17348282  0.83625978  1
  I  I120  1  0.33012664  0.49649921  0.16237688  1
  I  I121  1  0.33520358  0.49991561  0.50381205  1
  I  I122  1  0.33233640  0.49617274  0.83395752  1
  I  I123  1  0.33520130  0.83534247  0.16845311  1
  I  I124  1  0.33041490  0.83645889  0.49590673  1
  I  I125  1  0.33312665  0.82985349  0.83722840  1
  I  I126  1  0.66652731  0.16318923  0.16625945  1
  I  I127  1  0.66640827  0.16927280  0.49773517  1
  I  I128  1  0.66660641  0.17088051  0.83702303  1
  I  I129  1  0.66668635  0.49789407  0.16559849  1
  I  I130  1  0.66215168  0.50103732  0.50066261  1
  I  I131  1  0.66613255  0.50165655  0.83128999  1
  I  I132  1  0.66646138  0.83946138  0.16650976  1
  I  I133  1  0.66651504  0.83020367  0.49949672  1
  I  I134  1  0.66657761  0.83051542  0.83231826  1
