# generated using pymatgen
data_Cs27Sn13Pb14I81
_symmetry_space_group_name_H-M   'P 1'
_cell_length_a   18.97832539
_cell_length_b   18.97315537
_cell_length_c   18.97831044
_cell_angle_alpha   90.00047385
_cell_angle_beta   89.99864474
_cell_angle_gamma   89.99867197
_symmetry_Int_Tables_number   1
_chemical_formula_structural   Cs27Sn13Pb14I81
_chemical_formula_sum   'Cs27 Sn13 Pb14 I81'
_cell_volume   6833.68565417
_cell_formula_units_Z   1
loop_
 _symmetry_equiv_pos_site_id
 _symmetry_equiv_pos_as_xyz
  1  'x, y, z'
loop_
 _atom_site_type_symbol
 _atom_site_label
 _atom_site_symmetry_multiplicity
 _atom_site_fract_x
 _atom_site_fract_y
 _atom_site_fract_z
 _atom_site_occupancy
  Cs  Cs0  1  -0.00146228  0.00274382  0.00074450  1
  Cs  Cs1  1  0.00163212  -0.00183243  0.33292901  1
  Cs  Cs2  1  -0.00017411  0.00075469  0.66671423  1
  Cs  Cs3  1  0.00204229  0.33073661  -0.00126501  1
  Cs  Cs4  1  -0.00176337  0.33349279  0.33442158  1
  Cs  Cs5  1  0.00059851  0.33287499  0.66680926  1
  Cs  Cs6  1  -0.00160733  0.66940842  0.00064926  1
  Cs  Cs7  1  -0.00076715  0.66949338  0.33164167  1
  Cs  Cs8  1  -0.00005989  0.66610650  0.66638511  1
  Cs  Cs9  1  0.33477512  0.00069837  0.00122457  1
  Cs  Cs10  1  0.33875846  -0.00655598  0.33514151  1
  Cs  Cs11  1  0.33418976  -0.00295039  0.66475770  1
  Cs  Cs12  1  0.33214626  0.33300831  -0.00172478  1
  Cs  Cs13  1  0.33401941  0.33320148  0.33203811  1
  Cs  Cs14  1  0.33124482  0.33575638  0.66954369  1
  Cs  Cs15  1  0.33405706  0.66569908  0.00057887  1
  Cs  Cs16  1  0.33130599  0.67253575  0.33467260  1
  Cs  Cs17  1  0.33361742  0.66474215  0.66546768  1
  Cs  Cs18  1  0.66789667  -0.00607763  -0.00066500  1
  Cs  Cs19  1  0.65580906  0.00525478  0.33808503  1
  Cs  Cs20  1  0.66514825  -0.00292208  0.66459487  1
  Cs  Cs21  1  0.66519194  0.33382920  0.00090461  1
  Cs  Cs22  1  0.66718710  0.33157937  0.33276830  1
  Cs  Cs23  1  0.66776216  0.33324527  0.66513212  1
  Cs  Cs24  1  0.66861434  0.67339717  0.00392467  1
  Cs  Cs25  1  0.67184443  0.66303389  0.32197597  1
  Cs  Cs26  1  0.66613066  0.66818559  0.66956253  1
  Sn  Sn27  1  0.16670895  0.16725971  0.49871198  1
  Sn  Sn28  1  0.83203648  0.16749442  0.83389033  1
  Sn  Sn29  1  0.83321807  0.49937396  0.83339192  1
  Sn  Sn30  1  0.16722736  0.49917464  0.49967763  1
  Sn  Sn31  1  0.50135420  0.16746570  0.83321615  1
  Sn  Sn32  1  0.83322591  0.83320499  0.49990881  1
  Sn  Sn33  1  0.49970265  0.50004311  0.50039549  1
  Sn  Sn34  1  0.16646140  0.50112733  0.83342140  1
  Sn  Sn35  1  0.16609289  0.16754748  0.16826061  1
  Sn  Sn36  1  0.50038385  0.49918395  0.83274525  1
  Sn  Sn37  1  0.16656919  0.83230771  0.83331555  1
  Sn  Sn38  1  0.16658563  0.49920794  0.16678980  1
  Sn  Sn39  1  0.83380979  0.16673888  0.16623676  1
  Pb  Pb40  1  0.16668864  0.16697157  0.83337613  1
  Pb  Pb41  1  0.16551906  0.83286054  0.50181603  1
  Pb  Pb42  1  0.49750733  0.83276018  0.83328713  1
  Pb  Pb43  1  0.83589983  0.49776446  0.16379727  1
  Pb  Pb44  1  0.83351296  0.83722417  0.16971038  1
  Pb  Pb45  1  0.50304490  0.82927245  0.50015686  1
  Pb  Pb46  1  0.49998398  0.83324760  0.16670625  1
  Pb  Pb47  1  0.83520745  0.83369074  0.83218421  1
  Pb  Pb48  1  0.49743214  0.49991230  0.16641352  1
  Pb  Pb49  1  0.83334989  0.50142625  0.50184473  1
  Pb  Pb50  1  0.83511620  0.16528729  0.50020537  1
  Pb  Pb51  1  0.49957976  0.16691636  0.16415616  1
  Pb  Pb52  1  0.16660721  0.83379081  0.16419533  1
  Pb  Pb53  1  0.49704821  0.16912272  0.50266557  1
  I  I54  1  0.16252227  0.00367914  0.16814195  1
  I  I55  1  0.16336147  0.00252404  0.49896774  1
  I  I56  1  0.16577373  -0.00133270  0.83251695  1
  I  I57  1  0.16341184  0.33350466  0.16432453  1
  I  I58  1  0.16808033  0.33455142  0.50279417  1
  I  I59  1  0.16673712  0.33631418  0.83298696  1
  I  I60  1  0.16790314  0.66334398  0.16843781  1
  I  I61  1  0.16927650  0.66302747  0.49919580  1
  I  I62  1  0.16629487  0.66369544  0.83253276  1
  I  I63  1  0.49705390  0.00066927  0.16463978  1
  I  I64  1  0.49876761  0.00002620  0.50112946  1
  I  I65  1  0.50231569  0.00292635  0.83481528  1
  I  I66  1  0.50140302  0.33341766  0.16789351  1
  I  I67  1  0.49887198  0.33699622  0.50306682  1
  I  I68  1  0.49755857  0.33458328  0.83041330  1
  I  I69  1  0.49869406  0.66598939  0.16413815  1
  I  I70  1  0.49012357  0.66175055  0.50958756  1
  I  I71  1  0.50092629  0.66270218  0.82921345  1
  I  I72  1  0.84260149  0.00477450  0.15703450  1
  I  I73  1  0.83814916  -0.00215963  0.50319489  1
  I  I74  1  0.83204139  0.00330970  0.83586153  1
  I  I75  1  0.83611936  0.32989449  0.16586619  1
  I  I76  1  0.83293352  0.33340954  0.49951837  1
  I  I77  1  0.83607325  0.33348162  0.83500974  1
  I  I78  1  0.83416145  0.66665425  0.16586014  1
  I  I79  1  0.83639325  0.66883220  0.50454883  1
  I  I80  1  0.83262442  0.66372678  0.83023851  1
  I  I81  1  0.16580073  0.16967358  0.00197197  1
  I  I82  1  0.15999333  0.17506937  0.33287825  1
  I  I83  1  0.16617333  0.16986796  0.66491458  1
  I  I84  1  0.16661877  0.49912273  -0.00104521  1
  I  I85  1  0.17103008  0.49462252  0.33399538  1
  I  I86  1  0.16722371  0.49936888  0.66724588  1
  I  I87  1  0.16556092  0.82909795  -0.00376005  1
  I  I88  1  0.16516469  0.83119128  0.33343907  1
  I  I89  1  0.16530708  0.83006079  0.66959487  1
  I  I90  1  0.49724000  0.17400923  -0.00397488  1
  I  I91  1  0.50273286  0.16755828  0.33362219  1
  I  I92  1  0.50416531  0.16912099  0.67054568  1
  I  I93  1  0.49773174  0.49563376  -0.00373254  1
  I  I94  1  0.49512460  0.50127752  0.33640076  1
  I  I95  1  0.49405474  0.49619119  0.66817034  1
  I  I96  1  0.49951372  0.83180163  -0.00068551  1
  I  I97  1  0.49854506  0.83347193  0.33398803  1
  I  I98  1  0.49952090  0.83615278  0.66677627  1
  I  I99  1  0.83746700  0.17082679  -0.00120969  1
  I  I100  1  0.83796907  0.16452169  0.33084208  1
  I  I101  1  0.83278992  0.16932937  0.66978625  1
  I  I102  1  0.83324241  0.49920641  -0.00457848  1
  I  I103  1  0.83286908  0.50057757  0.33312470  1
  I  I104  1  0.83868457  0.49434737  0.67029497  1
  I  I105  1  0.83447949  0.83171360  0.00010341  1
  I  I106  1  0.83712968  0.83079907  0.33680877  1
  I  I107  1  0.83608507  0.83504899  0.66481507  1
  I  I108  1  0.00098177  0.17075903  0.16288395  1
  I  I109  1  0.00325101  0.17292062  0.50247645  1
  I  I110  1  -0.00205494  0.16947644  0.83386452  1
  I  I111  1  0.00413143  0.49787098  0.16727030  1
  I  I112  1  0.00336845  0.49766286  0.50227221  1
  I  I113  1  0.00088497  0.49930999  0.83264801  1
  I  I114  1  0.00010726  0.83117203  0.16619746  1
  I  I115  1  -0.00184629  0.83155672  0.50281532  1
  I  I116  1  0.00293554  0.82881033  0.83168158  1
  I  I117  1  0.32981363  0.17125811  0.16729637  1
  I  I118  1  0.32897981  0.16749058  0.49656282  1
  I  I119  1  0.33503940  0.17001043  0.83288920  1
  I  I120  1  0.32895736  0.49311868  0.16111822  1
  I  I121  1  0.33161674  0.49600253  0.50609047  1
  I  I122  1  0.33252484  0.49910825  0.83263230  1
  I  I123  1  0.33262164  0.83555549  0.16622567  1
  I  I124  1  0.33344405  0.83556390  0.50132602  1
  I  I125  1  0.32957463  0.83035784  0.83199700  1
  I  I126  1  0.66957139  0.16561675  0.16405589  1
  I  I127  1  0.66641672  0.16631857  0.49760377  1
  I  I128  1  0.66764550  0.17464280  0.83783036  1
  I  I129  1  0.66694406  0.49933367  0.16754299  1
  I  I130  1  0.66405165  0.50236637  0.50709714  1
  I  I131  1  0.66642590  0.49421535  0.82689068  1
  I  I132  1  0.66730549  0.83282840  0.16501898  1
  I  I133  1  0.67012900  0.83568389  0.50358626  1
  I  I134  1  0.66677631  0.83121724  0.83237591  1
