# generated using pymatgen
data_Cs27Sn14Pb13I81
_symmetry_space_group_name_H-M   'P 1'
_cell_length_a   18.98172585
_cell_length_b   18.97182935
_cell_length_c   18.97279145
_cell_angle_alpha   90.00238513
_cell_angle_beta   89.99841983
_cell_angle_gamma   90.00126679
_symmetry_Int_Tables_number   1
_chemical_formula_structural   Cs27Sn14Pb13I81
_chemical_formula_sum   'Cs27 Sn14 Pb13 I81'
_cell_volume   6832.44490546
_cell_formula_units_Z   1
loop_
 _symmetry_equiv_pos_site_id
 _symmetry_equiv_pos_as_xyz
  1  'x, y, z'
loop_
 _atom_site_type_symbol
 _atom_site_label
 _atom_site_symmetry_multiplicity
 _atom_site_fract_x
 _atom_site_fract_y
 _atom_site_fract_z
 _atom_site_occupancy
  Cs  Cs0  1  -0.00160928  -0.00042677  -0.00350892  1
  Cs  Cs1  1  0.00872888  0.00613898  0.33815503  1
  Cs  Cs2  1  -0.00179762  0.00134027  0.66743411  1
  Cs  Cs3  1  0.00024005  0.33297185  0.00253373  1
  Cs  Cs4  1  0.00016773  0.33346307  0.33045043  1
  Cs  Cs5  1  -0.00478436  0.33401203  0.66740072  1
  Cs  Cs6  1  -0.00091843  0.66781142  0.00281886  1
  Cs  Cs7  1  -0.00054040  0.66522344  0.33419335  1
  Cs  Cs8  1  0.00033329  0.66668018  0.66357725  1
  Cs  Cs9  1  0.33363058  0.00031565  0.00118888  1
  Cs  Cs10  1  0.33206516  0.00820120  0.33055461  1
  Cs  Cs11  1  0.33276552  -0.00310355  0.66690746  1
  Cs  Cs12  1  0.33188603  0.33338687  -0.00335608  1
  Cs  Cs13  1  0.33353768  0.32872540  0.33169485  1
  Cs  Cs14  1  0.33685443  0.33675024  0.67263919  1
  Cs  Cs15  1  0.33249510  0.66633208  -0.00228445  1
  Cs  Cs16  1  0.33309801  0.66730737  0.33474638  1
  Cs  Cs17  1  0.33410717  0.66653058  0.66751416  1
  Cs  Cs18  1  0.66808679  -0.00465971  -0.00027165  1
  Cs  Cs19  1  0.66021257  0.00137466  0.33096580  1
  Cs  Cs20  1  0.66917144  0.00193875  0.66877632  1
  Cs  Cs21  1  0.66989436  0.33535052  -0.00042554  1
  Cs  Cs22  1  0.66597847  0.33385264  0.33511081  1
  Cs  Cs23  1  0.66780698  0.33218072  0.66528986  1
  Cs  Cs24  1  0.66974820  0.67032410  0.00548338  1
  Cs  Cs25  1  0.66702389  0.66557206  0.33276940  1
  Cs  Cs26  1  0.66482262  0.66689168  0.66429891  1
  Sn  Sn27  1  0.49964473  0.50070531  0.49902253  1
  Sn  Sn28  1  0.49957027  0.16559468  0.83329487  1
  Sn  Sn29  1  0.49887190  0.50028200  0.16738970  1
  Sn  Sn30  1  0.83318167  0.50081837  0.50089014  1
  Sn  Sn31  1  0.16795973  0.50086712  0.16755768  1
  Sn  Sn32  1  0.49946495  0.83400203  0.83274394  1
  Sn  Sn33  1  0.16685320  0.83269672  0.16620113  1
  Sn  Sn34  1  0.16719016  0.83393935  0.83400684  1
  Sn  Sn35  1  0.83238059  0.83306548  0.49961341  1
  Sn  Sn36  1  0.83327952  0.50083441  0.83281281  1
  Sn  Sn37  1  0.50070583  0.83289249  0.50050280  1
  Sn  Sn38  1  0.83307640  0.16605885  0.16693645  1
  Sn  Sn39  1  0.16722478  0.16584603  0.83310579  1
  Sn  Sn40  1  0.16712414  0.49994260  0.49928200  1
  Pb  Pb41  1  0.16550694  0.16691887  0.16440632  1
  Pb  Pb42  1  0.83329627  0.83121557  0.83153396  1
  Pb  Pb43  1  0.50188080  0.16940232  0.16372172  1
  Pb  Pb44  1  0.16694575  0.17034632  0.50341794  1
  Pb  Pb45  1  0.83314638  0.16849053  0.83475523  1
  Pb  Pb46  1  0.49984938  0.16644857  0.50240045  1
  Pb  Pb47  1  0.83353261  0.49926593  0.16762940  1
  Pb  Pb48  1  0.83634506  0.83598877  0.17037823  1
  Pb  Pb49  1  0.49787699  0.83149802  0.16701121  1
  Pb  Pb50  1  0.16729736  0.83187875  0.50015399  1
  Pb  Pb51  1  0.50212155  0.50094944  0.83343925  1
  Pb  Pb52  1  0.83315981  0.16646900  0.49771615  1
  Pb  Pb53  1  0.16477089  0.50064376  0.83353508  1
  I  I54  1  0.16412474  -0.00249981  0.16499530  1
  I  I55  1  0.16573022  -0.00008822  0.49679656  1
  I  I56  1  0.16969030  -0.00116712  0.83935270  1
  I  I57  1  0.16784208  0.33640510  0.16928278  1
  I  I58  1  0.16530921  0.33868252  0.49412974  1
  I  I59  1  0.16972995  0.33166282  0.83285844  1
  I  I60  1  0.16908187  0.66567938  0.16356158  1
  I  I61  1  0.16604762  0.66351462  0.50139473  1
  I  I62  1  0.17088937  0.66934888  0.83397332  1
  I  I63  1  0.49939938  -0.00010584  0.16976293  1
  I  I64  1  0.50566523  -0.00356570  0.50267505  1
  I  I65  1  0.49659209  -0.00119132  0.82783620  1
  I  I66  1  0.49472249  0.33747919  0.17151833  1
  I  I67  1  0.50124538  0.33691722  0.49785916  1
  I  I68  1  0.49680349  0.33185979  0.83415535  1
  I  I69  1  0.49995012  0.66331300  0.16535889  1
  I  I70  1  0.50080228  0.66588872  0.50317423  1
  I  I71  1  0.49522327  0.66953330  0.83127926  1
  I  I72  1  0.83404849  0.00288133  0.16454477  1
  I  I73  1  0.82888279  -0.00322424  0.49921225  1
  I  I74  1  0.83389793  -0.00033094  0.83255361  1
  I  I75  1  0.83551958  0.33182307  0.16639595  1
  I  I76  1  0.83284802  0.33685190  0.50303750  1
  I  I77  1  0.83326687  0.33641797  0.82772838  1
  I  I78  1  0.83248294  0.66692429  0.16426038  1
  I  I79  1  0.83288746  0.66516124  0.50398151  1
  I  I80  1  0.83370792  0.66335278  0.83251328  1
  I  I81  1  0.16955922  0.16875145  -0.00331227  1
  I  I82  1  0.16446179  0.16400464  0.33323048  1
  I  I83  1  0.16878059  0.16050097  0.67117474  1
  I  I84  1  0.16931895  0.50016233  0.00250423  1
  I  I85  1  0.16428643  0.50632424  0.33307182  1
  I  I86  1  0.16853257  0.50004520  0.66415554  1
  I  I87  1  0.17172727  0.83046190  -0.00089318  1
  I  I88  1  0.16482674  0.82933845  0.33124774  1
  I  I89  1  0.16757234  0.83526809  0.66926436  1
  I  I90  1  0.49623424  0.16253988  -0.00398321  1
  I  I91  1  0.50161265  0.16480251  0.33312825  1
  I  I92  1  0.49721677  0.16919643  0.67037221  1
  I  I93  1  0.49673607  0.49883539  0.00214908  1
  I  I94  1  0.50231223  0.50553500  0.33472872  1
  I  I95  1  0.49766575  0.50053737  0.66391083  1
  I  I96  1  0.49753661  0.83518897  -0.00271661  1
  I  I97  1  0.50371379  0.82883412  0.33634817  1
  I  I98  1  0.49734711  0.83024781  0.66675584  1
  I  I99  1  0.83411331  0.17159099  0.00214895  1
  I  I100  1  0.83526658  0.17036707  0.33036759  1
  I  I101  1  0.83387944  0.16729583  0.66663539  1
  I  I102  1  0.83321631  0.49671467  -0.00137668  1
  I  I103  1  0.83342604  0.50236081  0.33659826  1
  I  I104  1  0.83416650  0.50144608  0.66499172  1
  I  I105  1  0.83124494  0.83161815  0.00021720  1
  I  I106  1  0.82773190  0.82384291  0.33776023  1
  I  I107  1  0.83477856  0.83083803  0.66355211  1
  I  I108  1  -0.00193021  0.17038655  0.16428873  1
  I  I109  1  0.00011017  0.16569077  0.50219286  1
  I  I110  1  0.00244855  0.16384938  0.83513642  1
  I  I111  1  0.00268974  0.50148123  0.16874596  1
  I  I112  1  -0.00031478  0.50421809  0.50066124  1
  I  I113  1  -0.00275773  0.49895124  0.82919112  1
  I  I114  1  0.00390481  0.82548042  0.16057332  1
  I  I115  1  -0.00176828  0.82790677  0.49953697  1
  I  I116  1  0.00280167  0.83604951  0.83557924  1
  I  I117  1  0.33339631  0.16612918  0.16733955  1
  I  I118  1  0.33329810  0.16588427  0.49606239  1
  I  I119  1  0.33328501  0.16511638  0.83403233  1
  I  I120  1  0.33259554  0.50288051  0.17369877  1
  I  I121  1  0.33396105  0.50442924  0.49615204  1
  I  I122  1  0.33339539  0.49875243  0.83128527  1
  I  I123  1  0.32995584  0.83137865  0.16685503  1
  I  I124  1  0.33612514  0.82734042  0.50275981  1
  I  I125  1  0.33347111  0.83618365  0.83076592  1
  I  I126  1  0.66920576  0.17002556  0.16499042  1
  I  I127  1  0.66653221  0.17190290  0.50228872  1
  I  I128  1  0.66405839  0.16399907  0.83447901  1
  I  I129  1  0.66459367  0.49754211  0.16840627  1
  I  I130  1  0.66635428  0.50371431  0.50013982  1
  I  I131  1  0.66952145  0.49824330  0.82990228  1
  I  I132  1  0.66663416  0.83240671  0.16356906  1
  I  I133  1  0.66568329  0.82406196  0.50628579  1
  I  I134  1  0.66383099  0.83627515  0.83074210  1
