# generated using pymatgen
data_Cs27Sn13Pb14I81
_symmetry_space_group_name_H-M   'P 1'
_cell_length_a   18.97983441
_cell_length_b   18.97663011
_cell_length_c   18.97623741
_cell_angle_alpha   89.99865058
_cell_angle_beta   89.99985436
_cell_angle_gamma   89.99899505
_symmetry_Int_Tables_number   1
_chemical_formula_structural   Cs27Sn13Pb14I81
_chemical_formula_sum   'Cs27 Sn13 Pb14 I81'
_cell_volume   6834.73399441
_cell_formula_units_Z   1
loop_
 _symmetry_equiv_pos_site_id
 _symmetry_equiv_pos_as_xyz
  1  'x, y, z'
loop_
 _atom_site_type_symbol
 _atom_site_label
 _atom_site_symmetry_multiplicity
 _atom_site_fract_x
 _atom_site_fract_y
 _atom_site_fract_z
 _atom_site_occupancy
  Cs  Cs0  1  0.00259238  -0.00303406  -0.00019543  1
  Cs  Cs1  1  -0.00056948  -0.00450503  0.33302165  1
  Cs  Cs2  1  -0.00492672  0.00353060  0.66911606  1
  Cs  Cs3  1  0.00104328  0.33374477  -0.00203918  1
  Cs  Cs4  1  0.00070117  0.33345961  0.33601570  1
  Cs  Cs5  1  -0.00795206  0.33261613  0.66525017  1
  Cs  Cs6  1  -0.00173844  0.66973518  -0.00010908  1
  Cs  Cs7  1  -0.00410085  0.67375004  0.33987735  1
  Cs  Cs8  1  0.00126393  0.66444470  0.66302759  1
  Cs  Cs9  1  0.33296787  0.00086917  -0.00083201  1
  Cs  Cs10  1  0.33244273  0.00176746  0.33182532  1
  Cs  Cs11  1  0.33684734  -0.00074955  0.67024915  1
  Cs  Cs12  1  0.33285815  0.33376261  0.00170096  1
  Cs  Cs13  1  0.33425334  0.33316773  0.33210435  1
  Cs  Cs14  1  0.33203333  0.33451595  0.66522969  1
  Cs  Cs15  1  0.33262951  0.66442760  -0.00042639  1
  Cs  Cs16  1  0.33130359  0.66606445  0.33541879  1
  Cs  Cs17  1  0.33314150  0.66704059  0.66546772  1
  Cs  Cs18  1  0.66272551  0.00021949  -0.00093777  1
  Cs  Cs19  1  0.66736511  0.00176901  0.33530672  1
  Cs  Cs20  1  0.66655664  -0.00264639  0.66693118  1
  Cs  Cs21  1  0.66742691  0.33547820  0.00105927  1
  Cs  Cs22  1  0.66367587  0.33186699  0.33130890  1
  Cs  Cs23  1  0.67393775  0.33202313  0.66641400  1
  Cs  Cs24  1  0.66882727  0.66427838  0.00029601  1
  Cs  Cs25  1  0.67097100  0.66913732  0.33218867  1
  Cs  Cs26  1  0.66592851  0.67068065  0.66703995  1
  Sn  Sn27  1  0.49984351  0.49915749  0.49978739  1
  Sn  Sn28  1  0.16615056  0.83243160  0.83339525  1
  Sn  Sn29  1  0.49911217  0.50038248  0.16689164  1
  Sn  Sn30  1  0.49880217  0.16768391  0.49951697  1
  Sn  Sn31  1  0.83422580  0.83310741  0.83364033  1
  Sn  Sn32  1  0.49926591  0.49954346  0.83319570  1
  Sn  Sn33  1  0.49979466  0.16659029  0.16713389  1
  Sn  Sn34  1  0.49952606  0.83298658  0.16683523  1
  Sn  Sn35  1  0.16738375  0.50060891  0.83398643  1
  Sn  Sn36  1  0.16646259  0.16749604  0.16740191  1
  Sn  Sn37  1  0.83378227  0.16696309  0.16627657  1
  Sn  Sn38  1  0.16679033  0.49990564  0.16651439  1
  Sn  Sn39  1  0.16766471  0.16664518  0.49940654  1
  Pb  Pb40  1  0.83085160  0.83574644  0.16501176  1
  Pb  Pb41  1  0.83393375  0.50184514  0.83358261  1
  Pb  Pb42  1  0.49970393  0.83356827  0.49731323  1
  Pb  Pb43  1  0.83329709  0.83357507  0.50274382  1
  Pb  Pb44  1  0.83300057  0.16666100  0.49748027  1
  Pb  Pb45  1  0.82993258  0.49991572  0.49967474  1
  Pb  Pb46  1  0.16701142  0.83670796  0.50311081  1
  Pb  Pb47  1  0.49942013  0.83077571  0.83540542  1
  Pb  Pb48  1  0.83426246  0.49829943  0.16678719  1
  Pb  Pb49  1  0.16838667  0.83289140  0.16531360  1
  Pb  Pb50  1  0.16822849  0.49816554  0.49975019  1
  Pb  Pb51  1  0.83316905  0.16445135  0.83616984  1
  Pb  Pb52  1  0.16681144  0.16752502  0.83316581  1
  Pb  Pb53  1  0.49999305  0.16957864  0.83305776  1
  I  I54  1  0.16854361  0.00308240  0.16811795  1
  I  I55  1  0.17363847  0.00475131  0.49312234  1
  I  I56  1  0.16243283  -0.00216768  0.83392685  1
  I  I57  1  0.17164453  0.33307078  0.16377379  1
  I  I58  1  0.16974963  0.33010225  0.49962858  1
  I  I59  1  0.17282976  0.33664608  0.83603642  1
  I  I60  1  0.17369197  0.66346121  0.16276086  1
  I  I61  1  0.16792188  0.66649218  0.49787655  1
  I  I62  1  0.16743475  0.66535694  0.83981538  1
  I  I63  1  0.50025654  0.00165404  0.17008027  1
  I  I64  1  0.49731716  0.00362820  0.49495832  1
  I  I65  1  0.50009112  -0.00014155  0.83419724  1
  I  I66  1  0.49980673  0.33332649  0.16701048  1
  I  I67  1  0.49590927  0.33289640  0.49467853  1
  I  I68  1  0.49324390  0.33764398  0.83857454  1
  I  I69  1  0.49543069  0.66496657  0.16556177  1
  I  I70  1  0.50019124  0.66334133  0.49969487  1
  I  I71  1  0.49906155  0.66274077  0.83371805  1
  I  I72  1  0.83353946  0.00381625  0.16562595  1
  I  I73  1  0.83031094  0.00045058  0.50060638  1
  I  I74  1  0.83959819  -0.00342093  0.83406459  1
  I  I75  1  0.82779968  0.33009327  0.16638205  1
  I  I76  1  0.83547448  0.33296435  0.50252798  1
  I  I77  1  0.83330580  0.33344126  0.83277311  1
  I  I78  1  0.83136712  0.66695097  0.16502295  1
  I  I79  1  0.83212386  0.66672615  0.49852519  1
  I  I80  1  0.83343912  0.66953533  0.83601722  1
  I  I81  1  0.16849384  0.16723126  0.00341075  1
  I  I82  1  0.16841339  0.17230262  0.33137822  1
  I  I83  1  0.17294275  0.16557657  0.66379265  1
  I  I84  1  0.17509894  0.49730435  0.00062952  1
  I  I85  1  0.17211738  0.49614286  0.33008872  1
  I  I86  1  0.17189490  0.50303636  0.66938584  1
  I  I87  1  0.16469112  0.83424310  -0.00273154  1
  I  I88  1  0.16805870  0.83105358  0.33323845  1
  I  I89  1  0.16452886  0.82720384  0.67117292  1
  I  I90  1  0.49892733  0.16665577  0.00368018  1
  I  I91  1  0.49985095  0.17088020  0.33175334  1
  I  I92  1  0.49467404  0.17015808  0.66324201  1
  I  I93  1  0.49662618  0.49996837  0.00117604  1
  I  I94  1  0.49632780  0.49799541  0.33198110  1
  I  I95  1  0.49560424  0.49618787  0.66682736  1
  I  I96  1  0.49985687  0.83578030  0.00328834  1
  I  I97  1  0.49986631  0.83017191  0.32920961  1
  I  I98  1  0.50131149  0.83390228  0.66690292  1
  I  I99  1  0.83199197  0.16744207  0.00419198  1
  I  I100  1  0.83157135  0.16609897  0.32957819  1
  I  I101  1  0.83334076  0.16547944  0.66652641  1
  I  I102  1  0.82731937  0.49858481  0.00015671  1
  I  I103  1  0.83381939  0.50053234  0.33303048  1
  I  I104  1  0.83342961  0.49948382  0.66681213  1
  I  I105  1  0.83720492  0.83396069  -0.00272883  1
  I  I106  1  0.83176776  0.83386537  0.33297722  1
  I  I107  1  0.83538286  0.83383000  0.67093467  1
  I  I108  1  0.00160448  0.17130507  0.16931658  1
  I  I109  1  0.00302022  0.16623110  0.49657845  1
  I  I110  1  0.00025807  0.17054093  0.83289781  1
  I  I111  1  0.00402306  0.49409748  0.15960438  1
  I  I112  1  0.00042132  0.49782725  0.50105699  1
  I  I113  1  0.00375140  0.50118065  0.83944772  1
  I  I114  1  0.00012996  0.83445598  0.16599115  1
  I  I115  1  0.00033553  0.83482984  0.49615691  1
  I  I116  1  0.00117091  0.82861037  0.83586342  1
  I  I117  1  0.33383443  0.16764677  0.17030681  1
  I  I118  1  0.33436306  0.17021020  0.49136195  1
  I  I119  1  0.33332608  0.16048797  0.83696843  1
  I  I120  1  0.33445766  0.49525184  0.16487360  1
  I  I121  1  0.33671953  0.49762447  0.49967814  1
  I  I122  1  0.33325341  0.50555648  0.83526212  1
  I  I123  1  0.33636826  0.83770441  0.16349992  1
  I  I124  1  0.33347335  0.83229169  0.50356161  1
  I  I125  1  0.33074933  0.83164835  0.83475304  1
  I  I126  1  0.66461324  0.16644249  0.16950421  1
  I  I127  1  0.66303396  0.17079491  0.49540026  1
  I  I128  1  0.66637362  0.16595007  0.83390363  1
  I  I129  1  0.66288492  0.49884312  0.16557845  1
  I  I130  1  0.66095383  0.49273484  0.49961510  1
  I  I131  1  0.66344921  0.50059270  0.83488949  1
  I  I132  1  0.66275082  0.83205211  0.16381567  1
  I  I133  1  0.66617941  0.83497580  0.50271841  1
  I  I134  1  0.66822171  0.83300843  0.83555349  1
