# generated using pymatgen
data_Cs27Sn13Pb14I81
_symmetry_space_group_name_H-M   'P 1'
_cell_length_a   18.97579984
_cell_length_b   18.97036057
_cell_length_c   18.98447264
_cell_angle_alpha   89.99972500
_cell_angle_beta   90.00013957
_cell_angle_gamma   89.99786214
_symmetry_Int_Tables_number   1
_chemical_formula_structural   Cs27Sn13Pb14I81
_chemical_formula_sum   'Cs27 Sn13 Pb14 I81'
_cell_volume   6833.98802852
_cell_formula_units_Z   1
loop_
 _symmetry_equiv_pos_site_id
 _symmetry_equiv_pos_as_xyz
  1  'x, y, z'
loop_
 _atom_site_type_symbol
 _atom_site_label
 _atom_site_symmetry_multiplicity
 _atom_site_fract_x
 _atom_site_fract_y
 _atom_site_fract_z
 _atom_site_occupancy
  Cs  Cs0  1  0.00372008  -0.00403078  0.00137494  1
  Cs  Cs1  1  -0.00138424  0.00007271  0.33404055  1
  Cs  Cs2  1  -0.00027339  0.00153302  0.66438395  1
  Cs  Cs3  1  -0.00172927  0.33088459  -0.00121434  1
  Cs  Cs4  1  0.00513481  0.33163201  0.33494414  1
  Cs  Cs5  1  -0.00330094  0.32651827  0.66493078  1
  Cs  Cs6  1  -0.00137129  0.66967432  -0.00391279  1
  Cs  Cs7  1  -0.00039069  0.66747858  0.33457933  1
  Cs  Cs8  1  0.00041071  0.66642590  0.66799624  1
  Cs  Cs9  1  0.33189524  0.00253932  -0.00598198  1
  Cs  Cs10  1  0.33504205  0.00063606  0.33428310  1
  Cs  Cs11  1  0.33711865  -0.00161307  0.67215668  1
  Cs  Cs12  1  0.33177862  0.33242794  0.00356869  1
  Cs  Cs13  1  0.32969251  0.33569184  0.33137222  1
  Cs  Cs14  1  0.33336982  0.33430053  0.66533463  1
  Cs  Cs15  1  0.33430130  0.66473183  0.00005001  1
  Cs  Cs16  1  0.33501701  0.66258771  0.33243509  1
  Cs  Cs17  1  0.33250820  0.66784093  0.66624028  1
  Cs  Cs18  1  0.66235657  0.00006932  0.00329934  1
  Cs  Cs19  1  0.66734773  0.00081577  0.33214299  1
  Cs  Cs20  1  0.66253768  0.00297779  0.66682224  1
  Cs  Cs21  1  0.66816283  0.33436393  -0.00086566  1
  Cs  Cs22  1  0.66603158  0.33245831  0.33352616  1
  Cs  Cs23  1  0.66888502  0.33442605  0.66696240  1
  Cs  Cs24  1  0.66754774  0.66612615  0.00472556  1
  Cs  Cs25  1  0.66654451  0.66709733  0.33223886  1
  Cs  Cs26  1  0.66705097  0.66445399  0.66531761  1
  Sn  Sn27  1  0.50063382  0.49917258  0.50057156  1
  Sn  Sn28  1  0.49921973  0.50020887  0.83273753  1
  Sn  Sn29  1  0.16717615  0.83282848  0.16688467  1
  Sn  Sn30  1  0.16609356  0.83297834  0.50005977  1
  Sn  Sn31  1  0.83373908  0.49910878  0.16780420  1
  Sn  Sn32  1  0.83300955  0.50050401  0.49909928  1
  Sn  Sn33  1  0.83375996  0.83267924  0.50110154  1
  Sn  Sn34  1  0.16572460  0.83226822  0.83291270  1
  Sn  Sn35  1  0.83331423  0.83345733  0.83218511  1
  Sn  Sn36  1  0.49999949  0.16782363  0.49918862  1
  Sn  Sn37  1  0.50059335  0.16693700  0.16757458  1
  Sn  Sn38  1  0.83295086  0.16757914  0.16678293  1
  Sn  Sn39  1  0.16707812  0.50021341  0.83298474  1
  Pb  Pb40  1  0.16363776  0.50204426  0.16423549  1
  Pb  Pb41  1  0.83460270  0.83337371  0.16705155  1
  Pb  Pb42  1  0.83318084  0.16299716  0.83623642  1
  Pb  Pb43  1  0.50173574  0.49816477  0.16701352  1
  Pb  Pb44  1  0.50011391  0.16985504  0.83333697  1
  Pb  Pb45  1  0.16643252  0.16675739  0.83304412  1
  Pb  Pb46  1  0.83355848  0.50142961  0.83283894  1
  Pb  Pb47  1  0.50030551  0.83063766  0.83337894  1
  Pb  Pb48  1  0.49695676  0.83602135  0.16663191  1
  Pb  Pb49  1  0.16988846  0.16369756  0.50012206  1
  Pb  Pb50  1  0.83158304  0.16652665  0.49828932  1
  Pb  Pb51  1  0.16628536  0.50170511  0.50190012  1
  Pb  Pb52  1  0.50046308  0.83281891  0.49991581  1
  Pb  Pb53  1  0.16659786  0.16458435  0.16681736  1
  I  I54  1  0.16427757  -0.00372431  0.16366799  1
  I  I55  1  0.16074957  -0.00480128  0.50191282  1
  I  I56  1  0.16296178  -0.00401620  0.83437243  1
  I  I57  1  0.16765502  0.33356811  0.16443126  1
  I  I58  1  0.16414404  0.33357082  0.50195596  1
  I  I59  1  0.17138278  0.33682152  0.83393532  1
  I  I60  1  0.16434704  0.67010922  0.16835587  1
  I  I61  1  0.16718811  0.67011531  0.49890564  1
  I  I62  1  0.16682627  0.66793732  0.83349307  1
  I  I63  1  0.50766919  0.00395682  0.17297936  1
  I  I64  1  0.49949480  0.00239669  0.49525912  1
  I  I65  1  0.49914196  0.00007553  0.83312719  1
  I  I66  1  0.50160437  0.33027097  0.16767839  1
  I  I67  1  0.50618182  0.33459405  0.50088694  1
  I  I68  1  0.49491784  0.33774240  0.83177493  1
  I  I69  1  0.50133366  0.66629886  0.16703720  1
  I  I70  1  0.50107700  0.66345633  0.50443417  1
  I  I71  1  0.49849246  0.66285487  0.82675585  1
  I  I72  1  0.83062299  0.00211941  0.16617723  1
  I  I73  1  0.83635116  -0.00302647  0.50181754  1
  I  I74  1  0.84038256  -0.00509290  0.82827470  1
  I  I75  1  0.82931829  0.33385690  0.17097750  1
  I  I76  1  0.83055561  0.33629305  0.49858593  1
  I  I77  1  0.83410945  0.33346906  0.83180376  1
  I  I78  1  0.83476661  0.66447939  0.16722553  1
  I  I79  1  0.83098157  0.66643485  0.49763810  1
  I  I80  1  0.83542719  0.66945091  0.83448508  1
  I  I81  1  0.16910069  0.16338291  0.00011643  1
  I  I82  1  0.16556261  0.16402906  0.33341695  1
  I  I83  1  0.16799903  0.16419016  0.66645162  1
  I  I84  1  0.17192677  0.50643373  -0.00356744  1
  I  I85  1  0.16921958  0.50279254  0.33340106  1
  I  I86  1  0.16705836  0.50756619  0.66971840  1
  I  I87  1  0.16175892  0.83069568  -0.00115984  1
  I  I88  1  0.16177710  0.83515527  0.33413755  1
  I  I89  1  0.16243559  0.82926574  0.66704977  1
  I  I90  1  0.50367477  0.16602982  0.00288434  1
  I  I91  1  0.50389906  0.17095189  0.33364244  1
  I  I92  1  0.49944537  0.16717089  0.66374181  1
  I  I93  1  0.49769477  0.50013677  -0.00224066  1
  I  I94  1  0.50244998  0.49883924  0.33632531  1
  I  I95  1  0.50239967  0.49532720  0.66548538  1
  I  I96  1  0.50145777  0.83316017  -0.00004174  1
  I  I97  1  0.49941414  0.82948478  0.33345428  1
  I  I98  1  0.49623107  0.83835072  0.66649333  1
  I  I99  1  0.82707666  0.17232750  0.00421815  1
  I  I100  1  0.83070908  0.16470348  0.33043271  1
  I  I101  1  0.83204745  0.16874359  0.66644411  1
  I  I102  1  0.83306167  0.49854310  0.00193660  1
  I  I103  1  0.82710418  0.50366617  0.33457568  1
  I  I104  1  0.83151577  0.50372329  0.66380458  1
  I  I105  1  0.83836938  0.83282852  -0.00198191  1
  I  I106  1  0.83774291  0.83226211  0.33611705  1
  I  I107  1  0.84132118  0.82693360  0.66566008  1
  I  I108  1  -0.00296936  0.16888221  0.16594361  1
  I  I109  1  -0.00017043  0.16867475  0.49849741  1
  I  I110  1  -0.00032357  0.17197579  0.83520352  1
  I  I111  1  -0.00425438  0.49429830  0.17194913  1
  I  I112  1  -0.00308503  0.50358405  0.49736547  1
  I  I113  1  0.00229576  0.50497224  0.83491600  1
  I  I114  1  0.00252800  0.83484598  0.16559760  1
  I  I115  1  -0.00071506  0.82781537  0.50055020  1
  I  I116  1  0.00096154  0.82696559  0.83346690  1
  I  I117  1  0.33628847  0.16455118  0.17022394  1
  I  I118  1  0.33782843  0.17229931  0.49300785  1
  I  I119  1  0.33352457  0.16117412  0.83547910  1
  I  I120  1  0.33317267  0.49971863  0.16814733  1
  I  I121  1  0.33597754  0.49818943  0.50248354  1
  I  I122  1  0.33339435  0.50625899  0.82833688  1
  I  I123  1  0.32884814  0.83388361  0.16638781  1
  I  I124  1  0.33050986  0.83424110  0.50129545  1
  I  I125  1  0.33002779  0.83222779  0.83240681  1
  I  I126  1  0.66684573  0.16895330  0.17043952  1
  I  I127  1  0.66364608  0.16557017  0.49782889  1
  I  I128  1  0.66661317  0.16589622  0.83228313  1
  I  I129  1  0.66979294  0.50070076  0.16513136  1
  I  I130  1  0.66689433  0.50241078  0.50234748  1
  I  I131  1  0.66466618  0.50102819  0.83199412  1
  I  I132  1  0.66689434  0.83233214  0.16604033  1
  I  I133  1  0.67000845  0.83200296  0.50431386  1
  I  I134  1  0.66974696  0.83214879  0.82844704  1
