# generated using pymatgen
data_Cs27Sn13Pb14I81
_symmetry_space_group_name_H-M   'P 1'
_cell_length_a   18.97688486
_cell_length_b   18.97552576
_cell_length_c   18.97702635
_cell_angle_alpha   90.00271412
_cell_angle_beta   90.00170755
_cell_angle_gamma   89.99949498
_symmetry_Int_Tables_number   1
_chemical_formula_structural   Cs27Sn13Pb14I81
_chemical_formula_sum   'Cs27 Sn13 Pb14 I81'
_cell_volume   6833.55824382
_cell_formula_units_Z   1
loop_
 _symmetry_equiv_pos_site_id
 _symmetry_equiv_pos_as_xyz
  1  'x, y, z'
loop_
 _atom_site_type_symbol
 _atom_site_label
 _atom_site_symmetry_multiplicity
 _atom_site_fract_x
 _atom_site_fract_y
 _atom_site_fract_z
 _atom_site_occupancy
  Cs  Cs0  1  -0.00082675  -0.00010959  0.00042867  1
  Cs  Cs1  1  -0.00208134  0.00173111  0.33915460  1
  Cs  Cs2  1  -0.00005562  -0.00200829  0.66095994  1
  Cs  Cs3  1  -0.00220564  0.33434797  0.00132940  1
  Cs  Cs4  1  -0.00038843  0.33159444  0.33334938  1
  Cs  Cs5  1  0.00003071  0.33434843  0.66516812  1
  Cs  Cs6  1  0.00087924  0.66633566  -0.00312401  1
  Cs  Cs7  1  0.00053035  0.66678639  0.33569753  1
  Cs  Cs8  1  0.00200689  0.66801974  0.66780025  1
  Cs  Cs9  1  0.33404823  0.00139443  0.00128568  1
  Cs  Cs10  1  0.33302019  0.00085925  0.33221681  1
  Cs  Cs11  1  0.33319306  -0.00000070  0.66634774  1
  Cs  Cs12  1  0.33258968  0.32812380  -0.00398025  1
  Cs  Cs13  1  0.33095420  0.33329313  0.33473094  1
  Cs  Cs14  1  0.33864398  0.33322450  0.66839273  1
  Cs  Cs15  1  0.33027289  0.66747321  0.00309891  1
  Cs  Cs16  1  0.33714074  0.66376812  0.33044394  1
  Cs  Cs17  1  0.33028580  0.66561953  0.66837821  1
  Cs  Cs18  1  0.66683723  -0.00084224  -0.00223392  1
  Cs  Cs19  1  0.66816515  -0.00008751  0.33422690  1
  Cs  Cs20  1  0.66707454  -0.00074075  0.66834833  1
  Cs  Cs21  1  0.67097568  0.33822720  -0.00261092  1
  Cs  Cs22  1  0.67004866  0.33564702  0.33173531  1
  Cs  Cs23  1  0.65949644  0.33656701  0.67048698  1
  Cs  Cs24  1  0.66851660  0.66640247  0.00410069  1
  Cs  Cs25  1  0.66163767  0.66555026  0.33231416  1
  Cs  Cs26  1  0.66756850  0.66670817  0.66442646  1
  Sn  Sn27  1  0.16541257  0.83381591  0.16691543  1
  Sn  Sn28  1  0.83437161  0.83380313  0.16634933  1
  Sn  Sn29  1  0.83401467  0.49998375  0.50005210  1
  Sn  Sn30  1  0.83444083  0.16598613  0.83319159  1
  Sn  Sn31  1  0.50006578  0.16579603  0.49872605  1
  Sn  Sn32  1  0.16520258  0.16619663  0.83364364  1
  Sn  Sn33  1  0.49978133  0.83419786  0.50088881  1
  Sn  Sn34  1  0.16588019  0.49987796  0.49943843  1
  Sn  Sn35  1  0.50043839  0.83337497  0.83278771  1
  Sn  Sn36  1  0.16690189  0.16649337  0.16622642  1
  Sn  Sn37  1  0.16656810  0.49964444  0.16727996  1
  Sn  Sn38  1  0.50007263  0.16677873  0.16740799  1
  Sn  Sn39  1  0.83275687  0.83425836  0.83395952  1
  Pb  Pb40  1  0.83357352  0.16490809  0.16508999  1
  Pb  Pb41  1  0.50026264  0.16506770  0.83370600  1
  Pb  Pb42  1  0.50006058  0.83510261  0.16648989  1
  Pb  Pb43  1  0.16659891  0.49718228  0.83362270  1
  Pb  Pb44  1  0.49997505  0.50409514  0.83387982  1
  Pb  Pb45  1  0.16836011  0.16844397  0.49991130  1
  Pb  Pb46  1  0.83345205  0.50070199  0.83123096  1
  Pb  Pb47  1  0.16930513  0.83121436  0.49724719  1
  Pb  Pb48  1  0.49950681  0.49997901  0.49991187  1
  Pb  Pb49  1  0.83584709  0.50274148  0.16858623  1
  Pb  Pb50  1  0.16638757  0.83555823  0.83513792  1
  Pb  Pb51  1  0.49744680  0.49636865  0.16637767  1
  Pb  Pb52  1  0.83142523  0.83173147  0.50010509  1
  Pb  Pb53  1  0.83047630  0.16881049  0.50293511  1
  I  I54  1  0.16850735  0.00064288  0.16090923  1
  I  I55  1  0.16689487  0.00002509  0.49904192  1
  I  I56  1  0.16681214  0.00343420  0.83939299  1
  I  I57  1  0.17245739  0.33257771  0.16703021  1
  I  I58  1  0.16522613  0.33624776  0.49440718  1
  I  I59  1  0.16242723  0.32908920  0.83896266  1
  I  I60  1  0.16274821  0.66699867  0.17098787  1
  I  I61  1  0.16523489  0.66332159  0.49570407  1
  I  I62  1  0.16731282  0.66691515  0.83433400  1
  I  I63  1  0.49314234  0.00276492  0.16772222  1
  I  I64  1  0.49990195  0.00002568  0.49992767  1
  I  I65  1  0.50151327  -0.00270396  0.83220467  1
  I  I66  1  0.49536290  0.32824237  0.17290842  1
  I  I67  1  0.49924645  0.33058674  0.49649225  1
  I  I68  1  0.49997197  0.33282971  0.83198718  1
  I  I69  1  0.49905394  0.66688870  0.16718241  1
  I  I70  1  0.50037188  0.66938952  0.50420052  1
  I  I71  1  0.50560096  0.67226403  0.82678600  1
  I  I72  1  0.83810999  -0.00317924  0.16550779  1
  I  I73  1  0.83318320  -0.00002104  0.49894229  1
  I  I74  1  0.83253504  -0.00078642  0.83714848  1
  I  I75  1  0.83275250  0.33330949  0.16554684  1
  I  I76  1  0.83618850  0.33632576  0.49996031  1
  I  I77  1  0.83679930  0.33053482  0.83253367  1
  I  I78  1  0.83662064  0.67078015  0.16012552  1
  I  I79  1  0.83548268  0.66407520  0.50132767  1
  I  I80  1  0.82852323  0.67037156  0.83644459  1
  I  I81  1  0.17009865  0.16835734  0.00142083  1
  I  I82  1  0.17009539  0.16561231  0.33025284  1
  I  I83  1  0.16529993  0.16809989  0.66913803  1
  I  I84  1  0.16809439  0.50204271  0.00343995  1
  I  I85  1  0.16341305  0.49821501  0.33248750  1
  I  I86  1  0.16395202  0.49895834  0.66388680  1
  I  I87  1  0.16837335  0.82905083  0.00347280  1
  I  I88  1  0.16227709  0.83892112  0.32905452  1
  I  I89  1  0.16543660  0.83283947  0.66654605  1
  I  I90  1  0.49645623  0.16424410  0.00230283  1
  I  I91  1  0.49356223  0.16072845  0.33312480  1
  I  I92  1  0.49975808  0.16534686  0.66473169  1
  I  I93  1  0.49873222  0.49927763  0.00032013  1
  I  I94  1  0.50191028  0.50532463  0.33325426  1
  I  I95  1  0.49730534  0.49432358  0.66645264  1
  I  I96  1  0.50118419  0.83588436  -0.00212190  1
  I  I97  1  0.49968086  0.83495349  0.33533132  1
  I  I98  1  0.50546667  0.83926956  0.66673142  1
  I  I99  1  0.83225352  0.16496323  -0.00298204  1
  I  I100  1  0.83470639  0.16576944  0.33348901  1
  I  I101  1  0.83863235  0.15962677  0.67068384  1
  I  I102  1  0.83388111  0.49873231  0.00009024  1
  I  I103  1  0.83437656  0.50112609  0.33629406  1
  I  I104  1  0.83965022  0.50159851  0.66347235  1
  I  I105  1  0.83074631  0.83673797  -0.00058513  1
  I  I106  1  0.83585940  0.83171591  0.33083856  1
  I  I107  1  0.83003451  0.83559403  0.66952659  1
  I  I108  1  0.00322064  0.16848504  0.16349695  1
  I  I109  1  -0.00011685  0.16666791  0.49844801  1
  I  I110  1  0.00024479  0.16208065  0.83946038  1
  I  I111  1  0.00396681  0.49442075  0.16856750  1
  I  I112  1  0.00087703  0.50009369  0.49610259  1
  I  I113  1  0.00011866  0.50377454  0.83374317  1
  I  I114  1  0.00044744  0.83439131  0.16065401  1
  I  I115  1  0.00016627  0.83304509  0.50177057  1
  I  I116  1  -0.00283124  0.83506143  0.83640772  1
  I  I117  1  0.33192809  0.16450642  0.16443791  1
  I  I118  1  0.33629838  0.16533634  0.50092074  1
  I  I119  1  0.33130203  0.16616496  0.83527535  1
  I  I120  1  0.32896020  0.50674049  0.17408783  1
  I  I121  1  0.33052467  0.49996172  0.49498983  1
  I  I122  1  0.33300523  0.49859646  0.82996289  1
  I  I123  1  0.33070821  0.83175866  0.16679591  1
  I  I124  1  0.33709469  0.83563912  0.50501481  1
  I  I125  1  0.33556495  0.83531314  0.83085034  1
  I  I126  1  0.66432909  0.16254296  0.16929206  1
  I  I127  1  0.66270119  0.16456655  0.49498659  1
  I  I128  1  0.66890744  0.16386813  0.83256900  1
  I  I129  1  0.66698601  0.50076370  0.16876011  1
  I  I130  1  0.66866095  0.50055018  0.50201053  1
  I  I131  1  0.66690100  0.49324968  0.82996600  1
  I  I132  1  0.66880733  0.83559997  0.16545872  1
  I  I133  1  0.66354858  0.83424089  0.49894356  1
  I  I134  1  0.66751581  0.83997054  0.83508300  1
