# generated using pymatgen
data_Cs27Sn13Pb14I81
_symmetry_space_group_name_H-M   'P 1'
_cell_length_a   18.97697719
_cell_length_b   18.97554515
_cell_length_c   18.97645700
_cell_angle_alpha   89.99780919
_cell_angle_beta   89.99794506
_cell_angle_gamma   89.99890408
_symmetry_Int_Tables_number   1
_chemical_formula_structural   Cs27Sn13Pb14I81
_chemical_formula_sum   'Cs27 Sn13 Pb14 I81'
_cell_volume   6833.39345457
_cell_formula_units_Z   1
loop_
 _symmetry_equiv_pos_site_id
 _symmetry_equiv_pos_as_xyz
  1  'x, y, z'
loop_
 _atom_site_type_symbol
 _atom_site_label
 _atom_site_symmetry_multiplicity
 _atom_site_fract_x
 _atom_site_fract_y
 _atom_site_fract_z
 _atom_site_occupancy
  Cs  Cs0  1  0.00495873  0.00057581  -0.00147899  1
  Cs  Cs1  1  0.00097263  -0.00055921  0.33222466  1
  Cs  Cs2  1  0.00031734  -0.00127642  0.66961067  1
  Cs  Cs3  1  0.00003888  0.32928384  -0.00180322  1
  Cs  Cs4  1  0.00061016  0.33531162  0.33777841  1
  Cs  Cs5  1  -0.01048676  0.33487943  0.66043376  1
  Cs  Cs6  1  -0.00152226  0.66825481  0.00109336  1
  Cs  Cs7  1  -0.00138232  0.66559543  0.33388802  1
  Cs  Cs8  1  0.00285948  0.66729728  0.66394572  1
  Cs  Cs9  1  0.32865386  0.00039720  0.00030858  1
  Cs  Cs10  1  0.33424381  0.00028137  0.33334277  1
  Cs  Cs11  1  0.33445403  0.00052324  0.66670624  1
  Cs  Cs12  1  0.33397464  0.33250968  0.00110553  1
  Cs  Cs13  1  0.33100168  0.33701493  0.33044977  1
  Cs  Cs14  1  0.33769587  0.33634069  0.66858403  1
  Cs  Cs15  1  0.33390228  0.66667064  -0.00068630  1
  Cs  Cs16  1  0.33369144  0.66588779  0.33395101  1
  Cs  Cs17  1  0.33158434  0.66706152  0.66611172  1
  Cs  Cs18  1  0.66758754  -0.00266471  0.00300620  1
  Cs  Cs19  1  0.66564568  -0.00001294  0.33458357  1
  Cs  Cs20  1  0.66582914  0.00441443  0.66248765  1
  Cs  Cs21  1  0.66668361  0.33554688  -0.00689715  1
  Cs  Cs22  1  0.66822927  0.33103287  0.33389816  1
  Cs  Cs23  1  0.67266290  0.32577670  0.67520582  1
  Cs  Cs24  1  0.66822347  0.66622276  0.00081915  1
  Cs  Cs25  1  0.66532597  0.66851229  0.32980213  1
  Cs  Cs26  1  0.66505284  0.66839751  0.67111009  1
  Sn  Sn27  1  0.16614328  0.83438748  0.49907783  1
  Sn  Sn28  1  0.16704672  0.50095968  0.16546101  1
  Sn  Sn29  1  0.50080066  0.49966779  0.49984317  1
  Sn  Sn30  1  0.49949634  0.49992311  0.16759217  1
  Sn  Sn31  1  0.50057735  0.83354371  0.83413246  1
  Sn  Sn32  1  0.16750924  0.83231333  0.16766400  1
  Sn  Sn33  1  0.50094093  0.16685210  0.16674928  1
  Sn  Sn34  1  0.83380101  0.83308522  0.50061493  1
  Sn  Sn35  1  0.16720221  0.16605279  0.50018745  1
  Sn  Sn36  1  0.49904261  0.83333798  0.16584281  1
  Sn  Sn37  1  0.16634390  0.49975673  0.83419107  1
  Sn  Sn38  1  0.83262893  0.16670751  0.16670302  1
  Sn  Sn39  1  0.83241990  0.83332247  0.83239951  1
  Pb  Pb40  1  0.82951713  0.50263482  0.49985879  1
  Pb  Pb41  1  0.83519775  0.16411806  0.49797033  1
  Pb  Pb42  1  0.16685010  0.83218810  0.83334918  1
  Pb  Pb43  1  0.16791410  0.50030500  0.49967865  1
  Pb  Pb44  1  0.16656003  0.17016320  0.82980955  1
  Pb  Pb45  1  0.49809405  0.16958361  0.49782365  1
  Pb  Pb46  1  0.16697742  0.16698347  0.16790704  1
  Pb  Pb47  1  0.49973234  0.83211243  0.49973683  1
  Pb  Pb48  1  0.49874312  0.50191034  0.83387054  1
  Pb  Pb49  1  0.83335907  0.49740305  0.16666952  1
  Pb  Pb50  1  0.83620486  0.50259079  0.83347390  1
  Pb  Pb51  1  0.83362873  0.83466827  0.16675736  1
  Pb  Pb52  1  0.83344161  0.16361941  0.83579063  1
  Pb  Pb53  1  0.49964842  0.16360177  0.83609314  1
  I  I54  1  0.16946541  -0.00282089  0.16898322  1
  I  I55  1  0.16398447  -0.00210826  0.49329744  1
  I  I56  1  0.16619234  -0.00017691  0.83609285  1
  I  I57  1  0.17019440  0.33609915  0.16525012  1
  I  I58  1  0.16962755  0.33172448  0.49800312  1
  I  I59  1  0.16984331  0.33776855  0.84118738  1
  I  I60  1  0.17375826  0.66750442  0.16871634  1
  I  I61  1  0.16445973  0.66952335  0.49872579  1
  I  I62  1  0.16753137  0.66449278  0.83345399  1
  I  I63  1  0.49952862  -0.00115134  0.16234818  1
  I  I64  1  0.50087866  -0.00006902  0.49918642  1
  I  I65  1  0.50185711  -0.00473857  0.83701900  1
  I  I66  1  0.49812350  0.33424083  0.17273158  1
  I  I67  1  0.49460923  0.33722686  0.49330067  1
  I  I68  1  0.49802280  0.33348520  0.83337388  1
  I  I69  1  0.49489306  0.66712215  0.16707689  1
  I  I70  1  0.49709307  0.66444632  0.49369310  1
  I  I71  1  0.50272754  0.66995949  0.83907339  1
  I  I72  1  0.82932774  0.00225323  0.16717954  1
  I  I73  1  0.83377572  -0.00395053  0.50274458  1
  I  I74  1  0.83099824  -0.00438298  0.82978464  1
  I  I75  1  0.83055315  0.32963596  0.16785210  1
  I  I76  1  0.83617299  0.33308747  0.49823248  1
  I  I77  1  0.83416505  0.33316844  0.83374590  1
  I  I78  1  0.83169222  0.66692510  0.16663040  1
  I  I79  1  0.84181125  0.67076302  0.50136813  1
  I  I80  1  0.82909186  0.67070347  0.83205057  1
  I  I81  1  0.16626354  0.16404659  0.00022449  1
  I  I82  1  0.16695580  0.16595374  0.33551420  1
  I  I83  1  0.16690798  0.15890369  0.66221413  1
  I  I84  1  0.17270837  0.50636151  0.00220713  1
  I  I85  1  0.16997416  0.50122964  0.33041840  1
  I  I86  1  0.16973636  0.50205960  0.66821837  1
  I  I87  1  0.16750954  0.83136742  0.00292142  1
  I  I88  1  0.16687032  0.83134389  0.33254395  1
  I  I89  1  0.16607867  0.83414791  0.66416750  1
  I  I90  1  0.50185536  0.17194757  0.00474067  1
  I  I91  1  0.50254401  0.16043674  0.32940558  1
  I  I92  1  0.49838917  0.16715396  0.66652037  1
  I  I93  1  0.49710144  0.49897354  0.00362608  1
  I  I94  1  0.49305774  0.50316782  0.33099027  1
  I  I95  1  0.49515328  0.50494488  0.66479245  1
  I  I96  1  0.50018893  0.83134504  0.00180148  1
  I  I97  1  0.49908271  0.83410201  0.33009925  1
  I  I98  1  0.50003674  0.82911060  0.66857947  1
  I  I99  1  0.83056617  0.16462883  0.00369506  1
  I  I100  1  0.82938043  0.16340217  0.33030727  1
  I  I101  1  0.83504672  0.16772271  0.66650559  1
  I  I102  1  0.82984794  0.50287880  0.00018794  1
  I  I103  1  0.83836164  0.50271759  0.33322451  1
  I  I104  1  0.83453050  0.49850735  0.66656397  1
  I  I105  1  0.83224740  0.83490222  -0.00190155  1
  I  I106  1  0.83491570  0.83514963  0.33543655  1
  I  I107  1  0.83417286  0.83248865  0.66638237  1
  I  I108  1  -0.00154775  0.16466174  0.16836571  1
  I  I109  1  0.00317713  0.16684875  0.49578829  1
  I  I110  1  0.00007232  0.16357574  0.83848055  1
  I  I111  1  0.00351398  0.50443600  0.16365805  1
  I  I112  1  0.00003840  0.49838431  0.49980933  1
  I  I113  1  0.00419451  0.50277907  0.83943396  1
  I  I114  1  0.00298358  0.83110370  0.16743360  1
  I  I115  1  0.00123064  0.83593772  0.49955379  1
  I  I116  1  -0.00191309  0.83149709  0.83276725  1
  I  I117  1  0.33602007  0.16615652  0.16855911  1
  I  I118  1  0.33032744  0.15872886  0.49693548  1
  I  I119  1  0.33313850  0.16305999  0.83580556  1
  I  I120  1  0.33366916  0.49952767  0.16724262  1
  I  I121  1  0.33560429  0.50314589  0.49717038  1
  I  I122  1  0.33083923  0.50439989  0.83463909  1
  I  I123  1  0.33363458  0.83450717  0.16663472  1
  I  I124  1  0.33063696  0.83469313  0.49855479  1
  I  I125  1  0.33560724  0.83100754  0.83515712  1
  I  I126  1  0.66514953  0.16437737  0.16804054  1
  I  I127  1  0.66661376  0.16578898  0.49922355  1
  I  I128  1  0.66648660  0.16948142  0.83107600  1
  I  I129  1  0.66295753  0.50420495  0.17088459  1
  I  I130  1  0.66193889  0.50296012  0.49096620  1
  I  I131  1  0.66661655  0.50061383  0.83368412  1
  I  I132  1  0.66379574  0.83116772  0.16605814  1
  I  I133  1  0.66864038  0.83046314  0.50020960  1
  I  I134  1  0.66608160  0.83169821  0.83455009  1
