# generated using pymatgen
data_Cs27Sn13Pb14I81
_symmetry_space_group_name_H-M   'P 1'
_cell_length_a   18.97934852
_cell_length_b   18.97503353
_cell_length_c   18.97743669
_cell_angle_alpha   90.00009965
_cell_angle_beta   90.00121016
_cell_angle_gamma   90.00322391
_symmetry_Int_Tables_number   1
_chemical_formula_structural   Cs27Sn13Pb14I81
_chemical_formula_sum   'Cs27 Sn13 Pb14 I81'
_cell_volume   6834.41589066
_cell_formula_units_Z   1
loop_
 _symmetry_equiv_pos_site_id
 _symmetry_equiv_pos_as_xyz
  1  'x, y, z'
loop_
 _atom_site_type_symbol
 _atom_site_label
 _atom_site_symmetry_multiplicity
 _atom_site_fract_x
 _atom_site_fract_y
 _atom_site_fract_z
 _atom_site_occupancy
  Cs  Cs0  1  0.00190754  -0.00710015  -0.00467321  1
  Cs  Cs1  1  0.00348879  0.00056499  0.33591082  1
  Cs  Cs2  1  -0.00118825  -0.00021931  0.66645058  1
  Cs  Cs3  1  -0.00319046  0.33650624  0.00081328  1
  Cs  Cs4  1  0.00140416  0.33375203  0.33314586  1
  Cs  Cs5  1  -0.00187010  0.33055789  0.66526029  1
  Cs  Cs6  1  0.00801411  0.67078884  0.00583298  1
  Cs  Cs7  1  -0.00338173  0.66512241  0.32960797  1
  Cs  Cs8  1  0.00068969  0.67096885  0.66648808  1
  Cs  Cs9  1  0.33614522  -0.00129554  0.00698827  1
  Cs  Cs10  1  0.33301540  0.00150767  0.32878481  1
  Cs  Cs11  1  0.33473350  0.00032257  0.66491310  1
  Cs  Cs12  1  0.33100594  0.33599174  0.00081476  1
  Cs  Cs13  1  0.33136232  0.33029921  0.33288291  1
  Cs  Cs14  1  0.33487349  0.33560826  0.66686524  1
  Cs  Cs15  1  0.32372000  0.66575467  -0.00095550  1
  Cs  Cs16  1  0.33518144  0.66807670  0.33577021  1
  Cs  Cs17  1  0.33469658  0.66410602  0.66657965  1
  Cs  Cs18  1  0.66357799  0.00141137  -0.00048139  1
  Cs  Cs19  1  0.66476393  -0.00208010  0.33275521  1
  Cs  Cs20  1  0.66703248  0.00052219  0.66671256  1
  Cs  Cs21  1  0.66833841  0.33176823  -0.00111995  1
  Cs  Cs22  1  0.66719268  0.33466255  0.33326712  1
  Cs  Cs23  1  0.66649704  0.33331830  0.66696151  1
  Cs  Cs24  1  0.66861678  0.66746060  0.00687578  1
  Cs  Cs25  1  0.66860172  0.66681529  0.33089855  1
  Cs  Cs26  1  0.66435642  0.66658034  0.66510751  1
  Sn  Sn27  1  0.16559014  0.50077479  0.50057328  1
  Sn  Sn28  1  0.16695360  0.16687313  0.83331803  1
  Sn  Sn29  1  0.49954736  0.16618041  0.83257573  1
  Sn  Sn30  1  0.83235935  0.16740914  0.49974458  1
  Sn  Sn31  1  0.83349771  0.16630274  0.16669327  1
  Sn  Sn32  1  0.49978630  0.49969502  0.16640955  1
  Sn  Sn33  1  0.49922368  0.83434131  0.50098859  1
  Sn  Sn34  1  0.50035056  0.83358734  0.83265425  1
  Sn  Sn35  1  0.50074159  0.16603504  0.50057062  1
  Sn  Sn36  1  0.83320042  0.50022296  0.83268026  1
  Sn  Sn37  1  0.16751291  0.83243111  0.50050362  1
  Sn  Sn38  1  0.83351507  0.16729103  0.83337863  1
  Sn  Sn39  1  0.83414336  0.49930621  0.50123860  1
  Pb  Pb40  1  0.16373120  0.49808554  0.83098389  1
  Pb  Pb41  1  0.83105787  0.83304370  0.83330100  1
  Pb  Pb42  1  0.83323717  0.83671397  0.16656025  1
  Pb  Pb43  1  0.50207145  0.50008665  0.83537546  1
  Pb  Pb44  1  0.83226006  0.49838532  0.16668037  1
  Pb  Pb45  1  0.83293076  0.83333892  0.50004776  1
  Pb  Pb46  1  0.49990577  0.83094056  0.16663620  1
  Pb  Pb47  1  0.16688741  0.16668923  0.50149000  1
  Pb  Pb48  1  0.16343201  0.16677743  0.16314736  1
  Pb  Pb49  1  0.16679979  0.83355113  0.16994027  1
  Pb  Pb50  1  0.50153928  0.16827793  0.16661146  1
  Pb  Pb51  1  0.16948096  0.83567291  0.83096173  1
  Pb  Pb52  1  0.16904973  0.49970657  0.16959758  1
  Pb  Pb53  1  0.50052081  0.49971552  0.49887491  1
  I  I54  1  0.16697552  0.00037069  0.16967143  1
  I  I55  1  0.16739377  -0.00192937  0.50202599  1
  I  I56  1  0.15955138  0.00357535  0.82977849  1
  I  I57  1  0.16839857  0.33317869  0.17038126  1
  I  I58  1  0.16561243  0.33538861  0.50132962  1
  I  I59  1  0.17177784  0.33003590  0.82980300  1
  I  I60  1  0.16651647  0.66649925  0.16330050  1
  I  I61  1  0.16785339  0.66663361  0.50084035  1
  I  I62  1  0.16685198  0.66678120  0.83391411  1
  I  I63  1  0.50178765  0.00012361  0.16697579  1
  I  I64  1  0.50053636  0.00094892  0.50338616  1
  I  I65  1  0.50292381  0.00181586  0.82922195  1
  I  I66  1  0.50195393  0.33559869  0.16824243  1
  I  I67  1  0.50116757  0.33036534  0.50325987  1
  I  I68  1  0.49988014  0.32981794  0.82937135  1
  I  I69  1  0.50318467  0.66354780  0.16870371  1
  I  I70  1  0.49892747  0.66908037  0.50269299  1
  I  I71  1  0.50258241  0.66925110  0.82840541  1
  I  I72  1  0.83056070  0.00511272  0.16703634  1
  I  I73  1  0.83275746  0.00359080  0.50149537  1
  I  I74  1  0.83487919  0.00390281  0.83186974  1
  I  I75  1  0.83097029  0.33038403  0.16632830  1
  I  I76  1  0.83306087  0.33220784  0.50107846  1
  I  I77  1  0.83083163  0.33142083  0.83201601  1
  I  I78  1  0.83087314  0.66629609  0.16757821  1
  I  I79  1  0.83343699  0.66348637  0.50438933  1
  I  I80  1  0.82972231  0.66350709  0.82647185  1
  I  I81  1  0.16912860  0.16711201  -0.00486099  1
  I  I82  1  0.16666011  0.16634663  0.33357386  1
  I  I83  1  0.16242621  0.16676927  0.66917168  1
  I  I84  1  0.16625374  0.49881926  -0.00030107  1
  I  I85  1  0.15978420  0.50205021  0.33784936  1
  I  I86  1  0.16733749  0.50276276  0.66294268  1
  I  I87  1  0.16745045  0.83416479  -0.00050465  1
  I  I88  1  0.17349265  0.83203969  0.33831782  1
  I  I89  1  0.16827309  0.83003776  0.66310052  1
  I  I90  1  0.50180959  0.16359196  -0.00338254  1
  I  I91  1  0.50434548  0.16427511  0.33657091  1
  I  I92  1  0.50488506  0.16373542  0.66660809  1
  I  I93  1  0.50436313  0.49810209  0.00251073  1
  I  I94  1  0.50235423  0.49914710  0.33160815  1
  I  I95  1  0.49895664  0.49997075  0.66666223  1
  I  I96  1  0.50274806  0.83913005  -0.00308901  1
  I  I97  1  0.49635972  0.83741310  0.33691421  1
  I  I98  1  0.49730289  0.83753405  0.66564374  1
  I  I99  1  0.83209008  0.17138749  -0.00172063  1
  I  I100  1  0.82800878  0.17070339  0.33515144  1
  I  I101  1  0.83206947  0.17089730  0.66659848  1
  I  I102  1  0.82853202  0.49330770  -0.00271132  1
  I  I103  1  0.83528865  0.49564430  0.33656913  1
  I  I104  1  0.83488795  0.49069627  0.66575314  1
  I  I105  1  0.83032681  0.83278933  -0.00033231  1
  I  I106  1  0.83070899  0.83271380  0.33378803  1
  I  I107  1  0.83473195  0.83719915  0.66650835  1
  I  I108  1  -0.00457987  0.16955363  0.17075750  1
  I  I109  1  -0.00291143  0.16729692  0.50119197  1
  I  I110  1  -0.00157140  0.17175913  0.83221017  1
  I  I111  1  -0.00006564  0.49872802  0.16565440  1
  I  I112  1  -0.00124958  0.49848874  0.50322303  1
  I  I113  1  -0.00430016  0.49240702  0.83199786  1
  I  I114  1  0.00007056  0.83233257  0.16735773  1
  I  I115  1  0.00232576  0.83343586  0.49937281  1
  I  I116  1  0.00024369  0.83543657  0.83190092  1
  I  I117  1  0.33335312  0.16776730  0.16748320  1
  I  I118  1  0.33615136  0.16688501  0.50474888  1
  I  I119  1  0.33479833  0.16277194  0.82673653  1
  I  I120  1  0.33666734  0.49839379  0.16708589  1
  I  I121  1  0.33160387  0.50034307  0.49730366  1
  I  I122  1  0.33335348  0.49824977  0.83338474  1
  I  I123  1  0.33363805  0.83414974  0.16507206  1
  I  I124  1  0.33444650  0.83283558  0.50414580  1
  I  I125  1  0.33743042  0.83805395  0.83090047  1
  I  I126  1  0.66938596  0.16896478  0.16330370  1
  I  I127  1  0.66704170  0.16711679  0.50416015  1
  I  I128  1  0.66691276  0.16658518  0.83246688  1
  I  I129  1  0.66466524  0.49916032  0.16974890  1
  I  I130  1  0.66947618  0.49795404  0.50178834  1
  I  I131  1  0.66988041  0.49289213  0.82638781  1
  I  I132  1  0.66627381  0.83150769  0.16983781  1
  I  I133  1  0.66346087  0.83484671  0.50338544  1
  I  I134  1  0.66304331  0.83954342  0.82589104  1
