# generated using pymatgen
data_Cs27Sn13Pb14I81
_symmetry_space_group_name_H-M   'P 1'
_cell_length_a   18.97904398
_cell_length_b   18.98369073
_cell_length_c   18.96862252
_cell_angle_alpha   90.00084532
_cell_angle_beta   89.99960042
_cell_angle_gamma   90.00097757
_symmetry_Int_Tables_number   1
_chemical_formula_structural   Cs27Sn13Pb14I81
_chemical_formula_sum   'Cs27 Sn13 Pb14 I81'
_cell_volume   6834.24866080
_cell_formula_units_Z   1
loop_
 _symmetry_equiv_pos_site_id
 _symmetry_equiv_pos_as_xyz
  1  'x, y, z'
loop_
 _atom_site_type_symbol
 _atom_site_label
 _atom_site_symmetry_multiplicity
 _atom_site_fract_x
 _atom_site_fract_y
 _atom_site_fract_z
 _atom_site_occupancy
  Cs  Cs0  1  0.00026029  0.00346275  -0.00044487  1
  Cs  Cs1  1  -0.00048784  0.00142923  0.33109264  1
  Cs  Cs2  1  -0.00087426  -0.00234142  0.66794771  1
  Cs  Cs3  1  -0.00058124  0.33122558  -0.00016884  1
  Cs  Cs4  1  0.00319867  0.33334867  0.33489216  1
  Cs  Cs5  1  0.00110529  0.33487132  0.66476214  1
  Cs  Cs6  1  0.00436018  0.66653591  -0.00379078  1
  Cs  Cs7  1  -0.00687193  0.66555565  0.33512728  1
  Cs  Cs8  1  -0.00172020  0.66652337  0.66790113  1
  Cs  Cs9  1  0.33341242  0.00085533  0.00227398  1
  Cs  Cs10  1  0.33206762  0.00105919  0.33322683  1
  Cs  Cs11  1  0.33502886  -0.00366931  0.66594977  1
  Cs  Cs12  1  0.33409323  0.33354896  0.00110750  1
  Cs  Cs13  1  0.32924200  0.33038692  0.33416432  1
  Cs  Cs14  1  0.33446713  0.33416532  0.66508024  1
  Cs  Cs15  1  0.33110623  0.66681014  -0.00093218  1
  Cs  Cs16  1  0.33473179  0.66762733  0.33220210  1
  Cs  Cs17  1  0.33428046  0.66748975  0.66788982  1
  Cs  Cs18  1  0.66780470  0.00734788  0.00507630  1
  Cs  Cs19  1  0.66898939  -0.00506984  0.33247616  1
  Cs  Cs20  1  0.66562008  0.00253310  0.66588056  1
  Cs  Cs21  1  0.66810180  0.32753961  0.00333769  1
  Cs  Cs22  1  0.66791863  0.33681577  0.32829128  1
  Cs  Cs23  1  0.66452968  0.33004065  0.66862890  1
  Cs  Cs24  1  0.66614860  0.66563747  0.00417960  1
  Cs  Cs25  1  0.67314880  0.66755592  0.32665317  1
  Cs  Cs26  1  0.66568087  0.66743475  0.66626619  1
  Sn  Sn27  1  0.16691805  0.49883262  0.83369581  1
  Sn  Sn28  1  0.16690729  0.83283211  0.49889986  1
  Sn  Sn29  1  0.50058518  0.50067825  0.83286762  1
  Sn  Sn30  1  0.49951751  0.83264676  0.50053320  1
  Sn  Sn31  1  0.83255054  0.16685030  0.50023043  1
  Sn  Sn32  1  0.50005266  0.50057267  0.50034786  1
  Sn  Sn33  1  0.50104201  0.16659992  0.50016326  1
  Sn  Sn34  1  0.16687413  0.50110656  0.16632708  1
  Sn  Sn35  1  0.83264901  0.50061269  0.83302662  1
  Sn  Sn36  1  0.16673013  0.83216807  0.16807553  1
  Sn  Sn37  1  0.50147243  0.83276925  0.83312030  1
  Sn  Sn38  1  0.83141671  0.83286376  0.83327933  1
  Sn  Sn39  1  0.16711913  0.16781001  0.83268800  1
  Pb  Pb40  1  0.16841926  0.50237165  0.50035064  1
  Pb  Pb41  1  0.49813361  0.16655168  0.83190924  1
  Pb  Pb42  1  0.49779218  0.50007040  0.16621747  1
  Pb  Pb43  1  0.83637889  0.83321243  0.16307517  1
  Pb  Pb44  1  0.49991176  0.16665165  0.17055232  1
  Pb  Pb45  1  0.83037784  0.49802879  0.50234495  1
  Pb  Pb46  1  0.16695915  0.16429473  0.50198163  1
  Pb  Pb47  1  0.83511726  0.16684113  0.83181302  1
  Pb  Pb48  1  0.83349739  0.16675316  0.17021601  1
  Pb  Pb49  1  0.49818825  0.83322122  0.16631007  1
  Pb  Pb50  1  0.16721847  0.83282626  0.83321390  1
  Pb  Pb51  1  0.83637612  0.50004504  0.16363920  1
  Pb  Pb52  1  0.83272619  0.83457124  0.50188788  1
  Pb  Pb53  1  0.16680744  0.16679519  0.16423074  1
  I  I54  1  0.16733129  -0.00298182  0.16867855  1
  I  I55  1  0.17211028  -0.00352320  0.49793888  1
  I  I56  1  0.16618564  0.00122384  0.83205831  1
  I  I57  1  0.16724682  0.33647781  0.16349931  1
  I  I58  1  0.16783082  0.33350784  0.49819358  1
  I  I59  1  0.16645535  0.33539839  0.83784357  1
  I  I60  1  0.16843452  0.66643213  0.16211856  1
  I  I61  1  0.17210460  0.67022655  0.50236964  1
  I  I62  1  0.16679960  0.66400317  0.83441803  1
  I  I63  1  0.49573592  -0.00022500  0.16427447  1
  I  I64  1  0.49892162  -0.00103362  0.50504639  1
  I  I65  1  0.50097807  -0.00303965  0.82828756  1
  I  I66  1  0.49657934  0.33353629  0.16569909  1
  I  I67  1  0.50333427  0.33385765  0.50567421  1
  I  I68  1  0.50043719  0.33650254  0.82881934  1
  I  I69  1  0.49965751  0.66662391  0.17098895  1
  I  I70  1  0.49273636  0.66721917  0.50629458  1
  I  I71  1  0.49724261  0.66627832  0.82509207  1
  I  I72  1  0.83654208  -0.00022418  0.16307636  1
  I  I73  1  0.82889882  0.00229640  0.50431120  1
  I  I74  1  0.83233552  -0.00255519  0.83082864  1
  I  I75  1  0.83566755  0.33354844  0.16414473  1
  I  I76  1  0.82982910  0.33029588  0.50363879  1
  I  I77  1  0.83230297  0.33638123  0.83138522  1
  I  I78  1  0.83205797  0.66664650  0.17076468  1
  I  I79  1  0.83413091  0.66652658  0.49997068  1
  I  I80  1  0.83659387  0.66622884  0.83146674  1
  I  I81  1  0.16584823  0.16512194  -0.00384351  1
  I  I82  1  0.16669862  0.16858655  0.33363036  1
  I  I83  1  0.16671755  0.17160749  0.66966293  1
  I  I84  1  0.16839584  0.50298164  -0.00178256  1
  I  I85  1  0.16978349  0.50205973  0.33119497  1
  I  I86  1  0.16563748  0.49791009  0.66995677  1
  I  I87  1  0.16615025  0.83221313  0.00159179  1
  I  I88  1  0.17327998  0.82989199  0.33405385  1
  I  I89  1  0.16847008  0.83443808  0.66471848  1
  I  I90  1  0.49776366  0.16618664  -0.00025181  1
  I  I91  1  0.50135370  0.16636758  0.33909900  1
  I  I92  1  0.50190091  0.16624626  0.66367595  1
  I  I93  1  0.50005661  0.50591679  -0.00400046  1
  I  I94  1  0.49709793  0.49956213  0.33662282  1
  I  I95  1  0.49673829  0.50069762  0.66769138  1
  I  I96  1  0.50053930  0.82712185  -0.00372852  1
  I  I97  1  0.49642961  0.83398678  0.33692396  1
  I  I98  1  0.49634284  0.83277463  0.66637713  1
  I  I99  1  0.83605490  0.16614197  -0.00031252  1
  I  I100  1  0.82976224  0.16507251  0.33822190  1
  I  I101  1  0.82959707  0.16597017  0.66423183  1
  I  I102  1  0.82863132  0.50326896  -0.00495640  1
  I  I103  1  0.83355719  0.49799289  0.33351619  1
  I  I104  1  0.84002035  0.50359494  0.67061070  1
  I  I105  1  0.82957950  0.82973290  -0.00507416  1
  I  I106  1  0.83199412  0.83565358  0.33332808  1
  I  I107  1  0.83629278  0.83014165  0.66989386  1
  I  I108  1  0.00046749  0.16598084  0.16849184  1
  I  I109  1  -0.00180673  0.16441251  0.50287775  1
  I  I110  1  0.00299309  0.16882492  0.83047889  1
  I  I111  1  0.00448517  0.50431895  0.16176236  1
  I  I112  1  -0.00001126  0.49909688  0.50097368  1
  I  I113  1  0.00054049  0.50085298  0.83789474  1
  I  I114  1  0.00444632  0.82927123  0.17164309  1
  I  I115  1  0.00230674  0.83593422  0.49928221  1
  I  I116  1  -0.00141218  0.83086677  0.83288837  1
  I  I117  1  0.33294052  0.16642552  0.16807441  1
  I  I118  1  0.33622745  0.16774627  0.50213995  1
  I  I119  1  0.33034684  0.16958954  0.83076220  1
  I  I120  1  0.32985400  0.50400373  0.15997774  1
  I  I121  1  0.33656847  0.49577853  0.50600262  1
  I  I122  1  0.33352660  0.50081109  0.83307541  1
  I  I123  1  0.33003939  0.82959321  0.16496768  1
  I  I124  1  0.33450907  0.83567135  0.50320911  1
  I  I125  1  0.33582555  0.83064078  0.83132295  1
  I  I126  1  0.66672118  0.16715650  0.16117509  1
  I  I127  1  0.66526999  0.16429952  0.50388636  1
  I  I128  1  0.66648229  0.16854924  0.83317564  1
  I  I129  1  0.66671829  0.49923661  0.16694137  1
  I  I130  1  0.66205168  0.50483121  0.50573366  1
  I  I131  1  0.66574676  0.50534142  0.82642906  1
  I  I132  1  0.66686518  0.83394502  0.16934601  1
  I  I133  1  0.66318388  0.83292304  0.50392201  1
  I  I134  1  0.66543947  0.82573130  0.82556379  1
