# generated using pymatgen
data_Cs27Sn14Pb13I81
_symmetry_space_group_name_H-M   'P 1'
_cell_length_a   18.97477958
_cell_length_b   18.97910513
_cell_length_c   18.97364940
_cell_angle_alpha   89.99848565
_cell_angle_beta   89.99938960
_cell_angle_gamma   90.00024451
_symmetry_Int_Tables_number   1
_chemical_formula_structural   Cs27Sn14Pb13I81
_chemical_formula_sum   'Cs27 Sn14 Pb13 I81'
_cell_volume   6832.87289531
_cell_formula_units_Z   1
loop_
 _symmetry_equiv_pos_site_id
 _symmetry_equiv_pos_as_xyz
  1  'x, y, z'
loop_
 _atom_site_type_symbol
 _atom_site_label
 _atom_site_symmetry_multiplicity
 _atom_site_fract_x
 _atom_site_fract_y
 _atom_site_fract_z
 _atom_site_occupancy
  Cs  Cs0  1  0.00261538  0.00240024  -0.00230027  1
  Cs  Cs1  1  0.00093705  0.00055925  0.33485819  1
  Cs  Cs2  1  -0.00195631  0.00035387  0.66540914  1
  Cs  Cs3  1  -0.00173162  0.33519903  -0.00042486  1
  Cs  Cs4  1  0.00109222  0.33027195  0.33212219  1
  Cs  Cs5  1  -0.00062800  0.33372947  0.66865508  1
  Cs  Cs6  1  -0.00207735  0.66160359  -0.00079604  1
  Cs  Cs7  1  0.00021079  0.67177913  0.33048273  1
  Cs  Cs8  1  0.00071889  0.66515421  0.67105726  1
  Cs  Cs9  1  0.34087394  -0.00212105  -0.00690426  1
  Cs  Cs10  1  0.33101053  -0.00002109  0.33240395  1
  Cs  Cs11  1  0.33359758  -0.00108036  0.67156954  1
  Cs  Cs12  1  0.33621771  0.33079555  0.00139275  1
  Cs  Cs13  1  0.33280931  0.33545067  0.33383978  1
  Cs  Cs14  1  0.33172641  0.33692475  0.66578187  1
  Cs  Cs15  1  0.33496673  0.67006000  -0.00049038  1
  Cs  Cs16  1  0.33182951  0.66356798  0.33522068  1
  Cs  Cs17  1  0.33201764  0.66431511  0.66629421  1
  Cs  Cs18  1  0.65775971  -0.00151464  -0.00085280  1
  Cs  Cs19  1  0.66649508  -0.00194907  0.33361959  1
  Cs  Cs20  1  0.66926323  -0.00025914  0.66545776  1
  Cs  Cs21  1  0.66661092  0.33575231  -0.00026909  1
  Cs  Cs22  1  0.66592335  0.33185779  0.33536527  1
  Cs  Cs23  1  0.66759367  0.33364793  0.66397904  1
  Cs  Cs24  1  0.66763669  0.66476853  0.00253204  1
  Cs  Cs25  1  0.66977900  0.67070627  0.33175254  1
  Cs  Cs26  1  0.66681260  0.66607783  0.66501011  1
  Sn  Sn27  1  0.16763060  0.83429062  0.49959924  1
  Sn  Sn28  1  0.83342984  0.83414449  0.83381860  1
  Sn  Sn29  1  0.16737908  0.49972706  0.16675637  1
  Sn  Sn30  1  0.83387479  0.49957008  0.49943849  1
  Sn  Sn31  1  0.49951357  0.49984140  0.16617251  1
  Sn  Sn32  1  0.83354568  0.16747908  0.49959206  1
  Sn  Sn33  1  0.16698700  0.16594035  0.49961244  1
  Sn  Sn34  1  0.83314589  0.16570812  0.83367426  1
  Sn  Sn35  1  0.49990330  0.49984042  0.83401487  1
  Sn  Sn36  1  0.83346822  0.16632260  0.16661058  1
  Sn  Sn37  1  0.16633545  0.16608746  0.16702919  1
  Sn  Sn38  1  0.49885564  0.83433105  0.49979702  1
  Sn  Sn39  1  0.16672479  0.83411997  0.16684452  1
  Sn  Sn40  1  0.49945507  0.16567505  0.49997701  1
  Pb  Pb41  1  0.49953100  0.16808196  0.16875643  1
  Pb  Pb42  1  0.16926909  0.49983425  0.83654748  1
  Pb  Pb43  1  0.83566674  0.83658531  0.16397763  1
  Pb  Pb44  1  0.83414320  0.83388413  0.50107889  1
  Pb  Pb45  1  0.50151581  0.50019760  0.49932123  1
  Pb  Pb46  1  0.16475594  0.83347341  0.83307122  1
  Pb  Pb47  1  0.16479735  0.16676318  0.83327051  1
  Pb  Pb48  1  0.49759636  0.83110027  0.16906204  1
  Pb  Pb49  1  0.83345867  0.49789709  0.16880314  1
  Pb  Pb50  1  0.50256300  0.16853891  0.83034108  1
  Pb  Pb51  1  0.83172403  0.49957104  0.83141591  1
  Pb  Pb52  1  0.16418828  0.50004833  0.49809452  1
  Pb  Pb53  1  0.50225601  0.83122816  0.83066349  1
  I  I54  1  0.15930058  0.00086851  0.17305849  1
  I  I55  1  0.16439847  0.00099368  0.49195938  1
  I  I56  1  0.16847779  0.00014743  0.83783426  1
  I  I57  1  0.16626889  0.33233584  0.17120305  1
  I  I58  1  0.16866298  0.33013607  0.49597112  1
  I  I59  1  0.16347243  0.33331973  0.83141043  1
  I  I60  1  0.17165344  0.66692512  0.17149196  1
  I  I61  1  0.16977248  0.66940822  0.49610733  1
  I  I62  1  0.16212107  0.66665161  0.83160315  1
  I  I63  1  0.50052907  -0.00002347  0.16605496  1
  I  I64  1  0.50283208  0.00087547  0.49957879  1
  I  I65  1  0.49966942  0.00008167  0.83418028  1
  I  I66  1  0.49492507  0.33601106  0.16631059  1
  I  I67  1  0.49922455  0.33071210  0.49976951  1
  I  I68  1  0.50270959  0.33612828  0.83515211  1
  I  I69  1  0.49586321  0.66309402  0.16562950  1
  I  I70  1  0.49744575  0.66895200  0.50034099  1
  I  I71  1  0.50340889  0.66364270  0.83514415  1
  I  I72  1  0.83813269  0.00455553  0.17418679  1
  I  I73  1  0.83327568  0.00339006  0.49899655  1
  I  I74  1  0.83440521  0.00153911  0.82891987  1
  I  I75  1  0.83896151  0.32984708  0.16340535  1
  I  I76  1  0.83212967  0.33075023  0.50243411  1
  I  I77  1  0.83233136  0.33022527  0.83341402  1
  I  I78  1  0.83420273  0.66675201  0.16688224  1
  I  I79  1  0.83143004  0.66509903  0.50277810  1
  I  I80  1  0.83253271  0.66852448  0.82932703  1
  I  I81  1  0.16101193  0.16754078  0.00368139  1
  I  I82  1  0.16144315  0.16641524  0.33370326  1
  I  I83  1  0.16566776  0.16167897  0.66287878  1
  I  I84  1  0.16479476  0.49963034  0.00496562  1
  I  I85  1  0.17342794  0.49900224  0.33013899  1
  I  I86  1  0.16708885  0.50030707  0.66637005  1
  I  I87  1  0.16344041  0.83332968  0.00329001  1
  I  I88  1  0.16917808  0.83395838  0.33386583  1
  I  I89  1  0.16875019  0.83873251  0.66309026  1
  I  I90  1  0.50038011  0.16715700  -0.00002433  1
  I  I91  1  0.50532589  0.16650050  0.33697335  1
  I  I92  1  0.49979667  0.16608511  0.66206384  1
  I  I93  1  0.49734924  0.49899845  0.00091047  1
  I  I94  1  0.49629147  0.49906699  0.33096992  1
  I  I95  1  0.50501466  0.49989714  0.66785006  1
  I  I96  1  0.49931778  0.83354039  0.00006394  1
  I  I97  1  0.50146433  0.83496817  0.33703687  1
  I  I98  1  0.49417566  0.83472710  0.66275560  1
  I  I99  1  0.83992632  0.16339726  0.00045070  1
  I  I100  1  0.83451345  0.17252496  0.33433325  1
  I  I101  1  0.83281808  0.16683047  0.66538475  1
  I  I102  1  0.83452327  0.49907882  0.00029028  1
  I  I103  1  0.83029070  0.49444011  0.33646965  1
  I  I104  1  0.83077134  0.49452832  0.66359164  1
  I  I105  1  0.83493699  0.83693493  -0.00348104  1
  I  I106  1  0.83113470  0.83216961  0.33314011  1
  I  I107  1  0.83441466  0.83839746  0.66865813  1
  I  I108  1  0.00062222  0.16892702  0.17150204  1
  I  I109  1  -0.00009714  0.16657209  0.49920167  1
  I  I110  1  -0.00361560  0.16443179  0.82825334  1
  I  I111  1  0.00277727  0.50129679  0.17000599  1
  I  I112  1  -0.00338704  0.49511546  0.49958781  1
  I  I113  1  -0.00025692  0.50053825  0.83322426  1
  I  I114  1  0.00370584  0.82776367  0.17493303  1
  I  I115  1  0.00299703  0.83610020  0.49695138  1
  I  I116  1  -0.00304828  0.83684862  0.82958105  1
  I  I117  1  0.32999336  0.16684019  0.17270504  1
  I  I118  1  0.33243161  0.16318512  0.49396449  1
  I  I119  1  0.33373699  0.16818297  0.83343048  1
  I  I120  1  0.33255726  0.49726192  0.16426734  1
  I  I121  1  0.33310493  0.49765505  0.50191170  1
  I  I122  1  0.33704247  0.50046477  0.83087807  1
  I  I123  1  0.32934515  0.83897763  0.16760956  1
  I  I124  1  0.33249514  0.83996209  0.49648396  1
  I  I125  1  0.33352899  0.83149554  0.83452146  1
  I  I126  1  0.66920920  0.17017637  0.16840493  1
  I  I127  1  0.66753436  0.16778624  0.50039853  1
  I  I128  1  0.67075842  0.16355199  0.83340930  1
  I  I129  1  0.66443856  0.49755046  0.16471234  1
  I  I130  1  0.66924130  0.49511018  0.49898899  1
  I  I131  1  0.66413978  0.49964861  0.83926143  1
  I  I132  1  0.66665632  0.83191724  0.16782557  1
  I  I133  1  0.66499347  0.83515962  0.50309206  1
  I  I134  1  0.66989049  0.83838778  0.83022192  1
