# generated using pymatgen
data_Cs27Sn14Pb13I81
_symmetry_space_group_name_H-M   'P 1'
_cell_length_a   18.97828657
_cell_length_b   18.98289880
_cell_length_c   18.96807222
_cell_angle_alpha   90.00100385
_cell_angle_beta   89.99917597
_cell_angle_gamma   90.00057266
_symmetry_Int_Tables_number   1
_chemical_formula_structural   Cs27Sn14Pb13I81
_chemical_formula_sum   'Cs27 Sn14 Pb13 I81'
_cell_volume   6833.49257825
_cell_formula_units_Z   1
loop_
 _symmetry_equiv_pos_site_id
 _symmetry_equiv_pos_as_xyz
  1  'x, y, z'
loop_
 _atom_site_type_symbol
 _atom_site_label
 _atom_site_symmetry_multiplicity
 _atom_site_fract_x
 _atom_site_fract_y
 _atom_site_fract_z
 _atom_site_occupancy
  Cs  Cs0  1  -0.00135431  0.00051730  0.00161778  1
  Cs  Cs1  1  0.00175272  -0.00034208  0.33258571  1
  Cs  Cs2  1  -0.00027377  0.00162998  0.66658694  1
  Cs  Cs3  1  0.00601375  0.33575645  -0.00201491  1
  Cs  Cs4  1  -0.00005645  0.33517459  0.33641113  1
  Cs  Cs5  1  -0.00085962  0.33168402  0.66618656  1
  Cs  Cs6  1  0.00199271  0.66321029  0.00297185  1
  Cs  Cs7  1  -0.00362080  0.66362975  0.33180794  1
  Cs  Cs8  1  -0.00170889  0.66729725  0.66643620  1
  Cs  Cs9  1  0.33191056  -0.00216815  0.00046216  1
  Cs  Cs10  1  0.33161796  -0.00129893  0.33407936  1
  Cs  Cs11  1  0.33366535  -0.00551064  0.66620302  1
  Cs  Cs12  1  0.33250646  0.33747629  0.00083466  1
  Cs  Cs13  1  0.33455195  0.33229241  0.33392251  1
  Cs  Cs14  1  0.33558776  0.33214380  0.66515248  1
  Cs  Cs15  1  0.33054151  0.66556162  0.00111359  1
  Cs  Cs16  1  0.33295364  0.66911092  0.33344235  1
  Cs  Cs17  1  0.33511626  0.67468271  0.66603143  1
  Cs  Cs18  1  0.66873939  0.00105735  0.00163901  1
  Cs  Cs19  1  0.66745031  0.00166996  0.33015364  1
  Cs  Cs20  1  0.66657571  0.00040126  0.66700154  1
  Cs  Cs21  1  0.66302419  0.33040993  -0.00016356  1
  Cs  Cs22  1  0.66448051  0.33407284  0.33047660  1
  Cs  Cs23  1  0.66667965  0.33378185  0.66611074  1
  Cs  Cs24  1  0.66690049  0.66789913  -0.00162362  1
  Cs  Cs25  1  0.67135583  0.66385610  0.33146749  1
  Cs  Cs26  1  0.66615436  0.66514820  0.66793424  1
  Sn  Sn27  1  0.49957676  0.83349755  0.16677294  1
  Sn  Sn28  1  0.83340810  0.83368456  0.83244627  1
  Sn  Sn29  1  0.83292192  0.16580532  0.50041787  1
  Sn  Sn30  1  0.83307087  0.83443064  0.50062961  1
  Sn  Sn31  1  0.83256760  0.16686578  0.83254120  1
  Sn  Sn32  1  0.50010545  0.16704476  0.50067081  1
  Sn  Sn33  1  0.16677977  0.16612834  0.16736383  1
  Sn  Sn34  1  0.83254865  0.49931478  0.83303449  1
  Sn  Sn35  1  0.50040002  0.16710312  0.83249689  1
  Sn  Sn36  1  0.49898348  0.49945873  0.50083536  1
  Sn  Sn37  1  0.50060321  0.49925677  0.83219421  1
  Sn  Sn38  1  0.16746146  0.83419991  0.16700826  1
  Sn  Sn39  1  0.16698461  0.16713545  0.49948986  1
  Sn  Sn40  1  0.16796964  0.49947686  0.50062232  1
  Pb  Pb41  1  0.50190517  0.83359210  0.83519417  1
  Pb  Pb42  1  0.83583572  0.16705804  0.16652703  1
  Pb  Pb43  1  0.16422095  0.83342505  0.49844136  1
  Pb  Pb44  1  0.50256459  0.83338889  0.49816805  1
  Pb  Pb45  1  0.16731243  0.16663300  0.83261960  1
  Pb  Pb46  1  0.50002191  0.50219870  0.16663475  1
  Pb  Pb47  1  0.83271248  0.49928587  0.50156877  1
  Pb  Pb48  1  0.16361432  0.83332758  0.83593025  1
  Pb  Pb49  1  0.83299858  0.49932098  0.16273622  1
  Pb  Pb50  1  0.16771461  0.49994301  0.83009138  1
  Pb  Pb51  1  0.16694683  0.49960294  0.16970363  1
  Pb  Pb52  1  0.83371675  0.83350322  0.16670909  1
  Pb  Pb53  1  0.49781770  0.16514223  0.16647325  1
  I  I54  1  0.16980162  0.00046827  0.17296753  1
  I  I55  1  0.16836777  0.00315016  0.49771590  1
  I  I56  1  0.16732653  0.00015251  0.82950655  1
  I  I57  1  0.16517731  0.33033262  0.16815648  1
  I  I58  1  0.16450047  0.33168531  0.49411281  1
  I  I59  1  0.16045113  0.33315896  0.83990339  1
  I  I60  1  0.16923857  0.66931983  0.16655803  1
  I  I61  1  0.16953692  0.66421702  0.49958444  1
  I  I62  1  0.16600826  0.66655699  0.83345643  1
  I  I63  1  0.49839071  -0.00256548  0.16664036  1
  I  I64  1  0.49729699  0.00337608  0.50349245  1
  I  I65  1  0.50380014  0.00311941  0.82993944  1
  I  I66  1  0.49865071  0.33316915  0.16608996  1
  I  I67  1  0.50100646  0.33231402  0.50311231  1
  I  I68  1  0.50864383  0.33288300  0.83020425  1
  I  I69  1  0.49398015  0.67001160  0.16654966  1
  I  I70  1  0.49647203  0.66381960  0.50328423  1
  I  I71  1  0.50464206  0.66391586  0.83019200  1
  I  I72  1  0.83200794  0.00013999  0.16210469  1
  I  I73  1  0.83387539  0.00153288  0.50758922  1
  I  I74  1  0.82977188  0.00098604  0.82972215  1
  I  I75  1  0.83532709  0.33295383  0.16952418  1
  I  I76  1  0.83500050  0.33010265  0.50385683  1
  I  I77  1  0.82979501  0.33240246  0.82868328  1
  I  I78  1  0.83611712  0.66687309  0.16888732  1
  I  I79  1  0.83405330  0.66839205  0.50303885  1
  I  I80  1  0.82951218  0.66658752  0.82946611  1
  I  I81  1  0.16553908  0.16128920  0.00233429  1
  I  I82  1  0.16647271  0.16611012  0.33505981  1
  I  I83  1  0.16500596  0.17162808  0.66305577  1
  I  I84  1  0.16507661  0.50042909  -0.00006286  1
  I  I85  1  0.17181148  0.49840907  0.33762056  1
  I  I86  1  0.16636718  0.49162519  0.66241709  1
  I  I87  1  0.16886916  0.83969278  0.00403618  1
  I  I88  1  0.16794260  0.83524865  0.33061110  1
  I  I89  1  0.16714871  0.83383013  0.66634298  1
  I  I90  1  0.50447343  0.16933908  -0.00317913  1
  I  I91  1  0.50292461  0.16992484  0.33676169  1
  I  I92  1  0.49949483  0.17010349  0.66594326  1
  I  I93  1  0.50569775  0.49629695  -0.00356002  1
  I  I94  1  0.49597000  0.49586509  0.33685622  1
  I  I95  1  0.50067129  0.49600719  0.66651660  1
  I  I96  1  0.49827441  0.83373155  0.00283515  1
  I  I97  1  0.49829327  0.83413243  0.33064891  1
  I  I98  1  0.49940470  0.83300696  0.66658047  1
  I  I99  1  0.82926985  0.16529778  -0.00378966  1
  I  I100  1  0.83099622  0.16082348  0.33702146  1
  I  I101  1  0.83532896  0.16563133  0.66639437  1
  I  I102  1  0.82770644  0.50143723  -0.00585274  1
  I  I103  1  0.83373714  0.50225058  0.33387528  1
  I  I104  1  0.83255758  0.50055799  0.66968434  1
  I  I105  1  0.83299527  0.83365695  -0.00310699  1
  I  I106  1  0.83334010  0.83847244  0.33611481  1
  I  I107  1  0.83304183  0.83451013  0.66694233  1
  I  I108  1  0.00374288  0.15915815  0.17041178  1
  I  I109  1  -0.00022457  0.16663696  0.49988874  1
  I  I110  1  -0.00311823  0.16653799  0.83077733  1
  I  I111  1  0.00026163  0.50359433  0.16728487  1
  I  I112  1  0.00167612  0.49727799  0.49989853  1
  I  I113  1  -0.00285313  0.49969538  0.83286077  1
  I  I114  1  0.00260046  0.83776394  0.16645143  1
  I  I115  1  -0.00359579  0.83676416  0.50188629  1
  I  I116  1  -0.00484860  0.83426611  0.83076574  1
  I  I117  1  0.33005576  0.16404997  0.17114158  1
  I  I118  1  0.33369763  0.17198837  0.49944789  1
  I  I119  1  0.33684511  0.17240227  0.83116668  1
  I  I120  1  0.33336683  0.49970446  0.16074574  1
  I  I121  1  0.33432239  0.49186179  0.50440211  1
  I  I122  1  0.33711678  0.49358590  0.83305935  1
  I  I123  1  0.33269685  0.83741932  0.16752238  1
  I  I124  1  0.33343638  0.83490125  0.49952344  1
  I  I125  1  0.33357228  0.83307869  0.83352614  1
  I  I126  1  0.66641788  0.16417243  0.16875143  1
  I  I127  1  0.66653897  0.16644320  0.50502578  1
  I  I128  1  0.66707173  0.16710194  0.82634929  1
  I  I129  1  0.66633935  0.50370522  0.17359349  1
  I  I130  1  0.66380462  0.49791398  0.50191518  1
  I  I131  1  0.66636089  0.49990814  0.82676457  1
  I  I132  1  0.66481035  0.83249748  0.16635374  1
  I  I133  1  0.67029797  0.83686169  0.50158204  1
  I  I134  1  0.66998335  0.83337729  0.83231524  1
