# generated using pymatgen
data_Cs27Sn13Pb14I81
_symmetry_space_group_name_H-M   'P 1'
_cell_length_a   18.98965167
_cell_length_b   18.99541481
_cell_length_c   18.99009613
_cell_angle_alpha   90.00037485
_cell_angle_beta   90.00229213
_cell_angle_gamma   90.00108835
_symmetry_Int_Tables_number   1
_chemical_formula_structural   Cs27Sn13Pb14I81
_chemical_formula_sum   'Cs27 Sn13 Pb14 I81'
_cell_volume   6850.03740459
_cell_formula_units_Z   1
loop_
 _symmetry_equiv_pos_site_id
 _symmetry_equiv_pos_as_xyz
  1  'x, y, z'
loop_
 _atom_site_type_symbol
 _atom_site_label
 _atom_site_symmetry_multiplicity
 _atom_site_fract_x
 _atom_site_fract_y
 _atom_site_fract_z
 _atom_site_occupancy
  Cs  Cs0  1  0.00021490  0.00967219  0.00156992  1
  Cs  Cs1  1  0.00123332  0.00058933  0.32885449  1
  Cs  Cs2  1  -0.00250678  0.00001540  0.66888742  1
  Cs  Cs3  1  -0.00745089  0.32287087  0.00095509  1
  Cs  Cs4  1  -0.00299033  0.33354341  0.33641930  1
  Cs  Cs5  1  0.00165107  0.33066204  0.66355266  1
  Cs  Cs6  1  0.00018486  0.66767970  -0.00035703  1
  Cs  Cs7  1  0.00473052  0.66650287  0.33441203  1
  Cs  Cs8  1  0.00128420  0.66805788  0.66632008  1
  Cs  Cs9  1  0.33246272  -0.00086294  0.00028980  1
  Cs  Cs10  1  0.33684336  -0.00046498  0.33066948  1
  Cs  Cs11  1  0.33641674  0.00081473  0.66794713  1
  Cs  Cs12  1  0.33582962  0.33290122  -0.00245367  1
  Cs  Cs13  1  0.33429845  0.33673916  0.33785779  1
  Cs  Cs14  1  0.33178900  0.33383868  0.66544473  1
  Cs  Cs15  1  0.33454979  0.66799825  -0.00068182  1
  Cs  Cs16  1  0.32900532  0.66507417  0.33230473  1
  Cs  Cs17  1  0.33009537  0.66530548  0.66896958  1
  Cs  Cs18  1  0.66486949  -0.00036916  0.00073779  1
  Cs  Cs19  1  0.66260045  -0.00250787  0.33620127  1
  Cs  Cs20  1  0.66532555  -0.00478179  0.66386380  1
  Cs  Cs21  1  0.67121014  0.34208723  0.00211054  1
  Cs  Cs22  1  0.66846462  0.33376552  0.33213191  1
  Cs  Cs23  1  0.66618134  0.33531092  0.66617229  1
  Cs  Cs24  1  0.66695139  0.65980104  -0.00020786  1
  Cs  Cs25  1  0.66748829  0.66873433  0.33246850  1
  Cs  Cs26  1  0.67143697  0.67011042  0.66841040  1
  Sn  Sn27  1  0.83375825  0.16668745  0.50006428  1
  Sn  Sn28  1  0.16629026  0.16479220  0.49985628  1
  Sn  Sn29  1  0.50022499  0.16634787  0.83434562  1
  Sn  Sn30  1  0.49936583  0.83393747  0.83424621  1
  Sn  Sn31  1  0.83197260  0.49991049  0.50011410  1
  Sn  Sn32  1  0.50080362  0.83359871  0.16566000  1
  Sn  Sn33  1  0.16715776  0.83307967  0.83287204  1
  Sn  Sn34  1  0.16644376  0.49918109  0.16460576  1
  Sn  Sn35  1  0.83260032  0.83331380  0.16624728  1
  Sn  Sn36  1  0.50134342  0.50072054  0.50019518  1
  Sn  Sn37  1  0.49995842  0.16669925  0.16558818  1
  Sn  Sn38  1  0.16633519  0.49995826  0.83525578  1
  Sn  Sn39  1  0.16707846  0.83515729  0.50082498  1
  Pb  Pb40  1  0.83601464  0.50197546  0.16872100  1
  Pb  Pb41  1  0.50020797  0.16809721  0.50009070  1
  Pb  Pb42  1  0.49849837  0.50040562  0.16832858  1
  Pb  Pb43  1  0.83600566  0.83356192  0.49816926  1
  Pb  Pb44  1  0.16614356  0.50003459  0.50053858  1
  Pb  Pb45  1  0.49849891  0.50050972  0.83134091  1
  Pb  Pb46  1  0.83037047  0.16464550  0.16902190  1
  Pb  Pb47  1  0.16840525  0.16623142  0.83154241  1
  Pb  Pb48  1  0.16914938  0.16942881  0.16908483  1
  Pb  Pb49  1  0.83683729  0.49995193  0.83088184  1
  Pb  Pb50  1  0.82963076  0.16649183  0.83077401  1
  Pb  Pb51  1  0.16713058  0.83244619  0.16566041  1
  Pb  Pb52  1  0.49774480  0.83093495  0.50019775  1
  Pb  Pb53  1  0.83353305  0.83348489  0.83609559  1
  I  I54  1  0.16475771  0.00024809  0.16642121  1
  I  I55  1  0.16213326  -0.00025683  0.50495805  1
  I  I56  1  0.16965522  -0.00305931  0.82975035  1
  I  I57  1  0.16929195  0.33704517  0.16408727  1
  I  I58  1  0.16671751  0.33153020  0.49962536  1
  I  I59  1  0.16984523  0.33554194  0.83295017  1
  I  I60  1  0.16902436  0.66470200  0.17066745  1
  I  I61  1  0.16752383  0.66858417  0.50027609  1
  I  I62  1  0.17322595  0.66774664  0.82954806  1
  I  I63  1  0.50240927  -0.00088086  0.16504223  1
  I  I64  1  0.50142557  -0.00032163  0.49974911  1
  I  I65  1  0.49300981  -0.00110988  0.83598969  1
  I  I66  1  0.49621362  0.33098124  0.16492844  1
  I  I67  1  0.49688525  0.33576797  0.49976739  1
  I  I68  1  0.49748653  0.33102738  0.83476381  1
  I  I69  1  0.50187127  0.66978102  0.16364786  1
  I  I70  1  0.50270250  0.66344356  0.49922634  1
  I  I71  1  0.49657056  0.66985553  0.83661745  1
  I  I72  1  0.83420940  -0.00307168  0.16950771  1
  I  I73  1  0.83577795  0.00247565  0.49851573  1
  I  I74  1  0.83881989  -0.00008046  0.83034285  1
  I  I75  1  0.83293763  0.33319281  0.16684800  1
  I  I76  1  0.83673931  0.33336203  0.49919939  1
  I  I77  1  0.83308691  0.33325747  0.83541814  1
  I  I78  1  0.82620901  0.66957119  0.16943490  1
  I  I79  1  0.83152758  0.66444168  0.49815130  1
  I  I80  1  0.82891858  0.66677599  0.83013105  1
  I  I81  1  0.16598052  0.16486704  0.00004049  1
  I  I82  1  0.16586867  0.16290851  0.33711387  1
  I  I83  1  0.16642895  0.16916729  0.66345414  1
  I  I84  1  0.17063826  0.50921552  -0.00076246  1
  I  I85  1  0.16773177  0.50139868  0.33212041  1
  I  I86  1  0.16774883  0.50201893  0.66870424  1
  I  I87  1  0.16899865  0.82861629  -0.00296395  1
  I  I88  1  0.16653122  0.83316995  0.33521747  1
  I  I89  1  0.17197587  0.82948250  0.66721496  1
  I  I90  1  0.49689227  0.16170835  0.00001760  1
  I  I91  1  0.49940080  0.16273561  0.33129064  1
  I  I92  1  0.49907377  0.16303932  0.66881883  1
  I  I93  1  0.49898047  0.49923085  -0.00013545  1
  I  I94  1  0.49845355  0.49874709  0.33621230  1
  I  I95  1  0.49951665  0.49832820  0.66355400  1
  I  I96  1  0.49649718  0.83744783  -0.00019052  1
  I  I97  1  0.50176557  0.83696176  0.33080439  1
  I  I98  1  0.49672785  0.83716489  0.66941151  1
  I  I99  1  0.83599297  0.16521438  0.00026304  1
  I  I100  1  0.83602198  0.17122134  0.33676212  1
  I  I101  1  0.83651734  0.17028931  0.66268810  1
  I  I102  1  0.83213455  0.50120130  0.00015102  1
  I  I103  1  0.83300949  0.49616084  0.33665430  1
  I  I104  1  0.83099509  0.49753101  0.66259429  1
  I  I105  1  0.83394570  0.83250311  0.00379001  1
  I  I106  1  0.82776588  0.83314258  0.33065649  1
  I  I107  1  0.83111951  0.83295239  0.66660500  1
  I  I108  1  -0.00007146  0.16538567  0.16656750  1
  I  I109  1  0.00046796  0.17083038  0.50020195  1
  I  I110  1  0.00000750  0.16675054  0.83333049  1
  I  I111  1  0.00369676  0.50416796  0.16712088  1
  I  I112  1  -0.00198485  0.49869323  0.49938837  1
  I  I113  1  0.00494878  0.50841180  0.83371193  1
  I  I114  1  -0.00141970  0.82888840  0.17020384  1
  I  I115  1  0.00387653  0.83053284  0.50358351  1
  I  I116  1  0.00343243  0.82716636  0.82892613  1
  I  I117  1  0.33668660  0.15871086  0.16632116  1
  I  I118  1  0.33129586  0.16615824  0.50017105  1
  I  I119  1  0.33623734  0.16537984  0.83331568  1
  I  I120  1  0.33079839  0.50323803  0.16880280  1
  I  I121  1  0.33455093  0.49917537  0.49939812  1
  I  I122  1  0.33057819  0.50197343  0.83193241  1
  I  I123  1  0.33608857  0.83572965  0.16647822  1
  I  I124  1  0.32992889  0.83637197  0.49868584  1
  I  I125  1  0.33346237  0.83289929  0.83480128  1
  I  I126  1  0.66257585  0.16585935  0.16582413  1
  I  I127  1  0.66878945  0.17071479  0.49955948  1
  I  I128  1  0.66164534  0.15946107  0.83415526  1
  I  I129  1  0.66669890  0.49872747  0.16786484  1
  I  I130  1  0.66704888  0.49321734  0.49887667  1
  I  I131  1  0.66666817  0.50042168  0.83251704  1
  I  I132  1  0.66487224  0.83684752  0.16383157  1
  I  I133  1  0.66653346  0.83462632  0.50189016  1
  I  I134  1  0.66322460  0.83801242  0.83371363  1
