# generated using pymatgen
data_Cs27Sn13Pb14I81
_symmetry_space_group_name_H-M   'P 1'
_cell_length_a   18.98583922
_cell_length_b   18.97007176
_cell_length_c   18.97617046
_cell_angle_alpha   89.99902650
_cell_angle_beta   89.99948918
_cell_angle_gamma   90.00015441
_symmetry_Int_Tables_number   1
_chemical_formula_structural   Cs27Sn13Pb14I81
_chemical_formula_sum   'Cs27 Sn13 Pb14 I81'
_cell_volume   6834.50939946
_cell_formula_units_Z   1
loop_
 _symmetry_equiv_pos_site_id
 _symmetry_equiv_pos_as_xyz
  1  'x, y, z'
loop_
 _atom_site_type_symbol
 _atom_site_label
 _atom_site_symmetry_multiplicity
 _atom_site_fract_x
 _atom_site_fract_y
 _atom_site_fract_z
 _atom_site_occupancy
  Cs  Cs0  1  0.00184249  0.00042730  -0.00184827  1
  Cs  Cs1  1  -0.00285003  0.00102194  0.33357255  1
  Cs  Cs2  1  -0.00053086  0.00201640  0.66778592  1
  Cs  Cs3  1  -0.00104291  0.33240833  0.00095640  1
  Cs  Cs4  1  0.00241038  0.33651813  0.33275804  1
  Cs  Cs5  1  -0.00097154  0.33286871  0.66533690  1
  Cs  Cs6  1  -0.00202441  0.66685283  0.00097212  1
  Cs  Cs7  1  0.00091789  0.66439638  0.33322821  1
  Cs  Cs8  1  0.00340160  0.66665661  0.66602395  1
  Cs  Cs9  1  0.32908128  0.00357491  0.00141628  1
  Cs  Cs10  1  0.33850834  0.00477231  0.33177235  1
  Cs  Cs11  1  0.32998333  -0.00181602  0.66468723  1
  Cs  Cs12  1  0.33516253  0.32816222  -0.00147932  1
  Cs  Cs13  1  0.33097312  0.33169655  0.33285123  1
  Cs  Cs14  1  0.33663830  0.33581879  0.66909304  1
  Cs  Cs15  1  0.33555543  0.66719744  -0.00021411  1
  Cs  Cs16  1  0.33303495  0.66578934  0.33437055  1
  Cs  Cs17  1  0.32947362  0.66646438  0.66525129  1
  Cs  Cs18  1  0.66849480  -0.00456064  0.00148801  1
  Cs  Cs19  1  0.66561776  0.00124334  0.34014498  1
  Cs  Cs20  1  0.66945249  0.00589627  0.65644787  1
  Cs  Cs21  1  0.66482642  0.33389650  -0.00398740  1
  Cs  Cs22  1  0.66692219  0.33475270  0.33284349  1
  Cs  Cs23  1  0.66543477  0.32913661  0.66952909  1
  Cs  Cs24  1  0.66697169  0.66670259  0.00018439  1
  Cs  Cs25  1  0.66665906  0.66656509  0.33123795  1
  Cs  Cs26  1  0.66595065  0.66600647  0.66938129  1
  Sn  Sn27  1  0.16791796  0.50066852  0.16537478  1
  Sn  Sn28  1  0.49893433  0.50059441  0.16727118  1
  Sn  Sn29  1  0.83296583  0.16553232  0.16632914  1
  Sn  Sn30  1  0.16582567  0.50015703  0.83475170  1
  Sn  Sn31  1  0.49992283  0.83245670  0.16585980  1
  Sn  Sn32  1  0.83325169  0.83440278  0.16619903  1
  Sn  Sn33  1  0.83236544  0.83254057  0.83369746  1
  Sn  Sn34  1  0.83229937  0.50052403  0.50129868  1
  Sn  Sn35  1  0.50107528  0.50052195  0.49915444  1
  Sn  Sn36  1  0.16680449  0.83261369  0.16681255  1
  Sn  Sn37  1  0.16653038  0.16662424  0.49997651  1
  Sn  Sn38  1  0.83421793  0.50086950  0.83237436  1
  Sn  Sn39  1  0.50090788  0.83330040  0.83381482  1
  Pb  Pb40  1  0.50023867  0.16198101  0.83350985  1
  Pb  Pb41  1  0.50004518  0.83113591  0.49998052  1
  Pb  Pb42  1  0.16655256  0.16963968  0.83096295  1
  Pb  Pb43  1  0.50262950  0.16646460  0.16639090  1
  Pb  Pb44  1  0.16481315  0.16679907  0.16774419  1
  Pb  Pb45  1  0.50014318  0.50145470  0.83379156  1
  Pb  Pb46  1  0.83347335  0.83099294  0.50030840  1
  Pb  Pb47  1  0.83305747  0.50063713  0.16608958  1
  Pb  Pb48  1  0.49777220  0.16980599  0.49995226  1
  Pb  Pb49  1  0.83317735  0.16616257  0.83534160  1
  Pb  Pb50  1  0.83486797  0.16967824  0.49769256  1
  Pb  Pb51  1  0.16665562  0.83600892  0.49683558  1
  Pb  Pb52  1  0.16642294  0.83150652  0.83537497  1
  Pb  Pb53  1  0.16686343  0.49903489  0.49986253  1
  I  I54  1  0.16891057  -0.00312350  0.16856997  1
  I  I55  1  0.16568628  0.00343984  0.49857400  1
  I  I56  1  0.16662713  -0.00033584  0.83370758  1
  I  I57  1  0.16838915  0.33667884  0.16548190  1
  I  I58  1  0.16559680  0.33172200  0.49668027  1
  I  I59  1  0.16127225  0.33822695  0.83998443  1
  I  I60  1  0.16478905  0.66603156  0.16421495  1
  I  I61  1  0.16671237  0.66639545  0.50089138  1
  I  I62  1  0.16478587  0.66329612  0.83364205  1
  I  I63  1  0.49652079  -0.00383078  0.16193155  1
  I  I64  1  0.49880307  -0.00000947  0.49964895  1
  I  I65  1  0.50530297  -0.00605600  0.84169523  1
  I  I66  1  0.49694723  0.33676795  0.17116497  1
  I  I67  1  0.50376217  0.33808884  0.49390130  1
  I  I68  1  0.49993208  0.33374765  0.83324140  1
  I  I69  1  0.50149702  0.66677912  0.16711194  1
  I  I70  1  0.50201463  0.66295620  0.49711314  1
  I  I71  1  0.50215460  0.66928026  0.83624132  1
  I  I72  1  0.83468369  -0.00237189  0.16121659  1
  I  I73  1  0.83478828  0.00010249  0.50161695  1
  I  I74  1  0.82973872  -0.00380421  0.83705591  1
  I  I75  1  0.83489512  0.33223460  0.16822776  1
  I  I76  1  0.83038633  0.33770119  0.50323720  1
  I  I77  1  0.83737843  0.33666061  0.83170588  1
  I  I78  1  0.83331372  0.66944051  0.16575854  1
  I  I79  1  0.83177094  0.66278265  0.49779467  1
  I  I80  1  0.83328179  0.66655956  0.83663078  1
  I  I81  1  0.16556042  0.16595361  0.00009644  1
  I  I82  1  0.16480127  0.17050244  0.33522275  1
  I  I83  1  0.16558802  0.16905401  0.66333709  1
  I  I84  1  0.16540297  0.50378103  0.00109952  1
  I  I85  1  0.16632866  0.50207246  0.33042193  1
  I  I86  1  0.16571523  0.49814815  0.66892697  1
  I  I87  1  0.16610213  0.83165876  0.00377375  1
  I  I88  1  0.16591388  0.82497655  0.32817962  1
  I  I89  1  0.16702016  0.83215655  0.66701287  1
  I  I90  1  0.49921990  0.17442456  0.00032881  1
  I  I91  1  0.50051379  0.16291442  0.33310305  1
  I  I92  1  0.50018660  0.16842741  0.66653383  1
  I  I93  1  0.49966321  0.50279576  0.00292404  1
  I  I94  1  0.50031456  0.50544943  0.33193722  1
  I  I95  1  0.49994078  0.50127731  0.66485944  1
  I  I96  1  0.50193517  0.82580790  0.00169756  1
  I  I97  1  0.50053109  0.83107161  0.32958684  1
  I  I98  1  0.50503971  0.83101414  0.66986088  1
  I  I99  1  0.83535031  0.16825531  0.00331277  1
  I  I100  1  0.83411349  0.16151415  0.32995545  1
  I  I101  1  0.83471955  0.16469169  0.66650502  1
  I  I102  1  0.83456314  0.50106730  -0.00244212  1
  I  I103  1  0.83325206  0.49936060  0.33468044  1
  I  I104  1  0.83458166  0.50521773  0.66773869  1
  I  I105  1  0.83248847  0.83038486  0.00086470  1
  I  I106  1  0.83260231  0.83524176  0.32979314  1
  I  I107  1  0.82867792  0.82998319  0.67023665  1
  I  I108  1  -0.00287513  0.16391000  0.16791455  1
  I  I109  1  0.00224817  0.17044550  0.49807770  1
  I  I110  1  -0.00012558  0.16327227  0.83355820  1
  I  I111  1  0.00201597  0.50246548  0.16702119  1
  I  I112  1  -0.00210985  0.49830585  0.49987838  1
  I  I113  1  -0.00092919  0.50544650  0.83322869  1
  I  I114  1  -0.00045283  0.83248575  0.16348422  1
  I  I115  1  -0.00003742  0.82980289  0.49882801  1
  I  I116  1  -0.00302954  0.83047478  0.83829447  1
  I  I117  1  0.33330683  0.16487128  0.16875872  1
  I  I118  1  0.33032008  0.16907978  0.49676042  1
  I  I119  1  0.33321384  0.16848107  0.83385744  1
  I  I120  1  0.33324317  0.50728957  0.16802729  1
  I  I121  1  0.33558646  0.49857818  0.49852072  1
  I  I122  1  0.33131842  0.50163644  0.83318476  1
  I  I123  1  0.33378626  0.82742179  0.16332727  1
  I  I124  1  0.33337393  0.83013172  0.50189763  1
  I  I125  1  0.33577353  0.83079291  0.83746603  1
  I  I126  1  0.67039452  0.16441417  0.16727077  1
  I  I127  1  0.66678313  0.16597064  0.49904578  1
  I  I128  1  0.66694481  0.17421416  0.83388675  1
  I  I129  1  0.66438713  0.50268039  0.16820842  1
  I  I130  1  0.66670753  0.50090734  0.49792926  1
  I  I131  1  0.66929906  0.50235765  0.83319754  1
  I  I132  1  0.66662088  0.83162753  0.16211770  1
  I  I133  1  0.66679347  0.83463051  0.49528959  1
  I  I134  1  0.66774988  0.82516867  0.84382460  1
