# generated using pymatgen
data_Cs27Sn13Pb14I81
_symmetry_space_group_name_H-M   'P 1'
_cell_length_a   19.02455878
_cell_length_b   19.02035939
_cell_length_c   19.01746866
_cell_angle_alpha   89.99905678
_cell_angle_beta   90.00030659
_cell_angle_gamma   90.00136147
_symmetry_Int_Tables_number   1
_chemical_formula_structural   Cs27Sn13Pb14I81
_chemical_formula_sum   'Cs27 Sn13 Pb14 I81'
_cell_volume   6881.54606286
_cell_formula_units_Z   1
loop_
 _symmetry_equiv_pos_site_id
 _symmetry_equiv_pos_as_xyz
  1  'x, y, z'
loop_
 _atom_site_type_symbol
 _atom_site_label
 _atom_site_symmetry_multiplicity
 _atom_site_fract_x
 _atom_site_fract_y
 _atom_site_fract_z
 _atom_site_occupancy
  Cs  Cs0  1  -0.00033798  0.00098696  0.00091490  1
  Cs  Cs1  1  -0.00427898  -0.00145061  0.33129587  1
  Cs  Cs2  1  0.00438080  -0.00518034  0.66742697  1
  Cs  Cs3  1  -0.00168385  0.33167683  -0.00186887  1
  Cs  Cs4  1  -0.00151405  0.33285532  0.34516634  1
  Cs  Cs5  1  0.00578241  0.33358443  0.66243602  1
  Cs  Cs6  1  -0.00128128  0.66672527  -0.00082836  1
  Cs  Cs7  1  0.00359858  0.66835712  0.33394668  1
  Cs  Cs8  1  -0.00112990  0.66944174  0.66787631  1
  Cs  Cs9  1  0.33409384  0.00254787  0.00297138  1
  Cs  Cs10  1  0.33802200  -0.00132326  0.32960515  1
  Cs  Cs11  1  0.33221954  0.00064887  0.66315061  1
  Cs  Cs12  1  0.33503768  0.33051745  -0.00006446  1
  Cs  Cs13  1  0.33287380  0.34333715  0.33885259  1
  Cs  Cs14  1  0.32859349  0.32883395  0.66269352  1
  Cs  Cs15  1  0.33439814  0.66650314  0.00842850  1
  Cs  Cs16  1  0.33881350  0.65651723  0.32033182  1
  Cs  Cs17  1  0.33518077  0.67051164  0.66753770  1
  Cs  Cs18  1  0.66712205  0.00297458  -0.00027987  1
  Cs  Cs19  1  0.66757614  0.00561807  0.33725966  1
  Cs  Cs20  1  0.66187636  -0.00329220  0.66700906  1
  Cs  Cs21  1  0.66635415  0.33207219  -0.00048387  1
  Cs  Cs22  1  0.66818778  0.33055516  0.34467582  1
  Cs  Cs23  1  0.66632206  0.33554842  0.66519966  1
  Cs  Cs24  1  0.66869226  0.66525856  -0.00266881  1
  Cs  Cs25  1  0.65950984  0.66327606  0.33435274  1
  Cs  Cs26  1  0.66680129  0.66846440  0.66830679  1
  Sn  Sn27  1  0.50076464  0.16752828  0.83395120  1
  Sn  Sn28  1  0.16689282  0.50104365  0.83401572  1
  Sn  Sn29  1  0.83412868  0.83367679  0.83372230  1
  Sn  Sn30  1  0.83293308  0.83214360  0.16647748  1
  Sn  Sn31  1  0.16721146  0.16720142  0.16683389  1
  Sn  Sn32  1  0.83297146  0.16673154  0.83331647  1
  Sn  Sn33  1  0.16655216  0.83298457  0.49968560  1
  Sn  Sn34  1  0.49912560  0.16734348  0.16596390  1
  Sn  Sn35  1  0.16622659  0.83252529  0.83341676  1
  Sn  Sn36  1  0.83367306  0.50004873  0.16607856  1
  Sn  Sn37  1  0.83368461  0.49961377  0.83401104  1
  Sn  Sn38  1  0.49948936  0.49910944  0.83372658  1
  Sn  Sn39  1  0.83389919  0.83292560  0.49997719  1
  Pb  Pb40  1  0.83308676  0.16754352  0.16513759  1
  Pb  Pb41  1  0.16472508  0.83466856  0.16642386  1
  Pb  Pb42  1  0.83344296  0.50301866  0.50051578  1
  Pb  Pb43  1  0.16360999  0.49739836  0.16401028  1
  Pb  Pb44  1  0.49975672  0.16665215  0.50051025  1
  Pb  Pb45  1  0.16679454  0.16627511  0.83429441  1
  Pb  Pb46  1  0.50349512  0.83570473  0.16637824  1
  Pb  Pb47  1  0.83356903  0.16365382  0.50421605  1
  Pb  Pb48  1  0.50324252  0.49702083  0.16412756  1
  Pb  Pb49  1  0.49940466  0.83346948  0.83357863  1
  Pb  Pb50  1  0.16677541  0.16339022  0.49648525  1
  Pb  Pb51  1  0.49986762  0.50025988  0.50350513  1
  Pb  Pb52  1  0.16667404  0.50360208  0.50271670  1
  Pb  Pb53  1  0.49916881  0.83301140  0.49972332  1
  I  I54  1  0.16779728  0.00221682  0.16241753  1
  I  I55  1  0.16050480  -0.00382570  0.51219034  1
  I  I56  1  0.16174981  -0.00281324  0.83071350  1
  I  I57  1  0.16876743  0.33001891  0.16058700  1
  I  I58  1  0.16786442  0.33344942  0.50088258  1
  I  I59  1  0.16288787  0.33560860  0.83742634  1
  I  I60  1  0.16801331  0.66646864  0.16930211  1
  I  I61  1  0.15795684  0.67105165  0.50228914  1
  I  I62  1  0.16151716  0.66709475  0.82899474  1
  I  I63  1  0.49767756  0.00351313  0.15779547  1
  I  I64  1  0.50158345  -0.00002656  0.50365865  1
  I  I65  1  0.50512194  0.00290998  0.83681018  1
  I  I66  1  0.49791188  0.32972328  0.16121689  1
  I  I67  1  0.50089996  0.33329716  0.49715845  1
  I  I68  1  0.50513343  0.33309447  0.83860493  1
  I  I69  1  0.49786273  0.66617785  0.16690200  1
  I  I70  1  0.50220536  0.66665670  0.50272687  1
  I  I71  1  0.50415234  0.66394375  0.83124867  1
  I  I72  1  0.83385198  -0.00230640  0.16521996  1
  I  I73  1  0.83734563  -0.00404987  0.49699655  1
  I  I74  1  0.83354066  -0.00095660  0.83424811  1
  I  I75  1  0.83331758  0.33593273  0.15703117  1
  I  I76  1  0.83171811  0.33339486  0.49770285  1
  I  I77  1  0.83264427  0.33406955  0.84162108  1
  I  I78  1  0.83505117  0.66724176  0.15902080  1
  I  I79  1  0.83799550  0.67054192  0.50666629  1
  I  I80  1  0.83324083  0.66694997  0.83339274  1
  I  I81  1  0.16707721  0.16284329  0.00162255  1
  I  I82  1  0.17208255  0.16445320  0.32877446  1
  I  I83  1  0.16647371  0.16940665  0.66661525  1
  I  I84  1  0.16818343  0.50887513  -0.00406728  1
  I  I85  1  0.16549266  0.49926261  0.33311065  1
  I  I86  1  0.16215308  0.49772462  0.67137813  1
  I  I87  1  0.16117056  0.83075037  -0.00318470  1
  I  I88  1  0.15862261  0.83974576  0.33579033  1
  I  I89  1  0.15673115  0.83002183  0.66833987  1
  I  I90  1  0.50073025  0.16979949  -0.00145380  1
  I  I91  1  0.49695975  0.16250471  0.33020909  1
  I  I92  1  0.50603231  0.17071140  0.67050373  1
  I  I93  1  0.49867324  0.49873529  -0.00381487  1
  I  I94  1  0.50152483  0.49930167  0.33278355  1
  I  I95  1  0.50502266  0.49304169  0.67225403  1
  I  I96  1  0.49901999  0.83205855  -0.00026531  1
  I  I97  1  0.50042815  0.83699703  0.33307939  1
  I  I98  1  0.50565104  0.83518761  0.66716534  1
  I  I99  1  0.83245414  0.16092023  -0.00310634  1
  I  I100  1  0.83217003  0.16666459  0.33369044  1
  I  I101  1  0.82669194  0.16949823  0.67232838  1
  I  I102  1  0.83310786  0.50635912  -0.00236361  1
  I  I103  1  0.83300355  0.50362439  0.33046122  1
  I  I104  1  0.83229081  0.49985942  0.67075690  1
  I  I105  1  0.83741863  0.83308906  -0.00167803  1
  I  I106  1  0.83916194  0.82959112  0.33312697  1
  I  I107  1  0.83745952  0.83421087  0.66839544  1
  I  I108  1  0.00123403  0.16425904  0.16279888  1
  I  I109  1  -0.00000561  0.17003664  0.49858125  1
  I  I110  1  -0.00267437  0.16798246  0.83671792  1
  I  I111  1  -0.00370163  0.50239121  0.15780638  1
  I  I112  1  -0.00009408  0.49555705  0.50177856  1
  I  I113  1  -0.00105221  0.50105265  0.83766665  1
  I  I114  1  -0.00333953  0.83404653  0.16477430  1
  I  I115  1  -0.00101057  0.83399903  0.50329194  1
  I  I116  1  -0.00160015  0.83125815  0.83260733  1
  I  I117  1  0.33400254  0.16370199  0.15663834  1
  I  I118  1  0.33315112  0.16205374  0.50765376  1
  I  I119  1  0.33588052  0.17002315  0.83600829  1
  I  I120  1  0.33347947  0.50169470  0.16604788  1
  I  I121  1  0.33310508  0.50288138  0.50033206  1
  I  I122  1  0.33314470  0.49956622  0.83118346  1
  I  I123  1  0.33342133  0.83359927  0.16714259  1
  I  I124  1  0.32951632  0.83618984  0.51113972  1
  I  I125  1  0.32995195  0.83111056  0.82629337  1
  I  I126  1  0.66466220  0.16477881  0.16194023  1
  I  I127  1  0.66694019  0.16318409  0.49356873  1
  I  I128  1  0.66714294  0.16824880  0.84055850  1
  I  I129  1  0.67053899  0.50438939  0.15838210  1
  I  I130  1  0.66702343  0.50254475  0.50133041  1
  I  I131  1  0.66792149  0.49996017  0.83746895  1
  I  I132  1  0.67181046  0.83135772  0.16367825  1
  I  I133  1  0.67010336  0.83399664  0.50273160  1
  I  I134  1  0.66997074  0.83140957  0.83255822  1
