# generated using pymatgen
data_Cs27Sn14Pb13I81
_symmetry_space_group_name_H-M   'P 1'
_cell_length_a   18.97587039
_cell_length_b   18.97770095
_cell_length_c   18.97267777
_cell_angle_alpha   89.99899392
_cell_angle_beta   90.00129630
_cell_angle_gamma   89.99959770
_symmetry_Int_Tables_number   1
_chemical_formula_structural   Cs27Sn14Pb13I81
_chemical_formula_sum   'Cs27 Sn14 Pb13 I81'
_cell_volume   6832.41023639
_cell_formula_units_Z   1
loop_
 _symmetry_equiv_pos_site_id
 _symmetry_equiv_pos_as_xyz
  1  'x, y, z'
loop_
 _atom_site_type_symbol
 _atom_site_label
 _atom_site_symmetry_multiplicity
 _atom_site_fract_x
 _atom_site_fract_y
 _atom_site_fract_z
 _atom_site_occupancy
  Cs  Cs0  1  -0.00758563  -0.00204514  0.00161816  1
  Cs  Cs1  1  -0.00208164  0.00108152  0.33644532  1
  Cs  Cs2  1  0.00128178  -0.00155923  0.66326278  1
  Cs  Cs3  1  0.00086965  0.33332208  0.00328262  1
  Cs  Cs4  1  0.00037966  0.33319629  0.33316359  1
  Cs  Cs5  1  0.00282579  0.33571396  0.66314636  1
  Cs  Cs6  1  0.00191399  0.66895127  -0.00034258  1
  Cs  Cs7  1  0.00108499  0.66500689  0.33328974  1
  Cs  Cs8  1  -0.00066870  0.66781465  0.66655004  1
  Cs  Cs9  1  0.33269202  -0.00092504  -0.00135024  1
  Cs  Cs10  1  0.33580077  0.00076692  0.33332490  1
  Cs  Cs11  1  0.33231245  -0.00018075  0.66734311  1
  Cs  Cs12  1  0.33362380  0.33364244  0.00116134  1
  Cs  Cs13  1  0.33218152  0.33096768  0.33057210  1
  Cs  Cs14  1  0.33229679  0.33093521  0.66971230  1
  Cs  Cs15  1  0.33049861  0.66766837  0.00133840  1
  Cs  Cs16  1  0.33645445  0.66894424  0.33198245  1
  Cs  Cs17  1  0.33404870  0.66906298  0.66713645  1
  Cs  Cs18  1  0.67864991  0.00163782  -0.00185670  1
  Cs  Cs19  1  0.66554723  -0.00087282  0.33305020  1
  Cs  Cs20  1  0.66711489  0.00105369  0.66783198  1
  Cs  Cs21  1  0.66497893  0.32998262  -0.00383090  1
  Cs  Cs22  1  0.66683026  0.33374269  0.33265440  1
  Cs  Cs23  1  0.66513784  0.33990382  0.67320668  1
  Cs  Cs24  1  0.67173083  0.66910493  -0.00190829  1
  Cs  Cs25  1  0.65979101  0.66623683  0.33746520  1
  Cs  Cs26  1  0.66703921  0.65856123  0.66443598  1
  Sn  Sn27  1  0.49940735  0.16702460  0.16704661  1
  Sn  Sn28  1  0.83310055  0.50009980  0.16672227  1
  Sn  Sn29  1  0.16635510  0.83244593  0.50029759  1
  Sn  Sn30  1  0.83368848  0.83364300  0.49994643  1
  Sn  Sn31  1  0.83156424  0.16667394  0.50015709  1
  Sn  Sn32  1  0.16716684  0.16677672  0.16573393  1
  Sn  Sn33  1  0.16648775  0.16618075  0.83475778  1
  Sn  Sn34  1  0.16747463  0.83365650  0.83260475  1
  Sn  Sn35  1  0.49995917  0.49942355  0.16639415  1
  Sn  Sn36  1  0.16715832  0.50115680  0.49961494  1
  Sn  Sn37  1  0.49965568  0.83355068  0.83361692  1
  Sn  Sn38  1  0.16686730  0.50003336  0.83342149  1
  Sn  Sn39  1  0.50140696  0.16699475  0.49993086  1
  Sn  Sn40  1  0.16698147  0.49937064  0.16687771  1
  Pb  Pb41  1  0.49825959  0.16489366  0.83405639  1
  Pb  Pb42  1  0.50009726  0.83422091  0.16382483  1
  Pb  Pb43  1  0.16661435  0.83394641  0.16687626  1
  Pb  Pb44  1  0.49975161  0.83529566  0.50195199  1
  Pb  Pb45  1  0.83318544  0.83042121  0.17005993  1
  Pb  Pb46  1  0.83667162  0.16697107  0.83014168  1
  Pb  Pb47  1  0.83326447  0.16839402  0.16856689  1
  Pb  Pb48  1  0.83510579  0.49991413  0.49825788  1
  Pb  Pb49  1  0.16696097  0.16641572  0.49958844  1
  Pb  Pb50  1  0.83377706  0.83314385  0.83051948  1
  Pb  Pb51  1  0.49698740  0.49726862  0.49820937  1
  Pb  Pb52  1  0.49766495  0.50217463  0.83615893  1
  Pb  Pb53  1  0.83607914  0.49985098  0.83607797  1
  I  I54  1  0.17232066  0.00346830  0.16484381  1
  I  I55  1  0.16568244  -0.00221817  0.50353595  1
  I  I56  1  0.17149254  -0.00034401  0.83132887  1
  I  I57  1  0.16702896  0.33416109  0.16471021  1
  I  I58  1  0.16623223  0.33543965  0.50163034  1
  I  I59  1  0.16576020  0.33355176  0.83309752  1
  I  I60  1  0.16714028  0.66340167  0.16490660  1
  I  I61  1  0.16073466  0.66687206  0.50245844  1
  I  I62  1  0.17009478  0.66665639  0.83332657  1
  I  I63  1  0.49275499  0.00376628  0.17069426  1
  I  I64  1  0.49760823  0.00317311  0.49352868  1
  I  I65  1  0.49084189  -0.00265111  0.83349557  1
  I  I66  1  0.49718692  0.33307553  0.17091048  1
  I  I67  1  0.50385791  0.32936527  0.49896185  1
  I  I68  1  0.49850642  0.33331171  0.83109899  1
  I  I69  1  0.49729621  0.66370632  0.16560066  1
  I  I70  1  0.50213255  0.66646576  0.49895787  1
  I  I71  1  0.49281500  0.66976287  0.83337875  1
  I  I72  1  0.83374013  0.00015893  0.16569139  1
  I  I73  1  0.83807613  -0.00004126  0.49931534  1
  I  I74  1  0.83593990  0.00003040  0.83682806  1
  I  I75  1  0.83667317  0.33618861  0.17078203  1
  I  I76  1  0.83321382  0.33092831  0.49731408  1
  I  I77  1  0.83403461  0.33334092  0.82961532  1
  I  I78  1  0.83648532  0.66237686  0.16730611  1
  I  I79  1  0.83757849  0.66903294  0.49873789  1
  I  I80  1  0.83492279  0.66659667  0.83217106  1
  I  I81  1  0.17289738  0.17057881  0.00080117  1
  I  I82  1  0.16712660  0.17083717  0.33086652  1
  I  I83  1  0.16647571  0.16913595  0.66861378  1
  I  I84  1  0.16681295  0.49967850  0.00069702  1
  I  I85  1  0.16574192  0.49891130  0.33233513  1
  I  I86  1  0.16548650  0.49928388  0.66673316  1
  I  I87  1  0.17125254  0.83063727  -0.00298410  1
  I  I88  1  0.16237549  0.83029884  0.33644612  1
  I  I89  1  0.16641520  0.83101434  0.66669156  1
  I  I90  1  0.49574377  0.17086155  0.00323916  1
  I  I91  1  0.49608855  0.16917158  0.33253318  1
  I  I92  1  0.50070848  0.16317332  0.66449468  1
  I  I93  1  0.49727229  0.49286145  0.00424818  1
  I  I94  1  0.49678856  0.50014109  0.32996082  1
  I  I95  1  0.49884929  0.49933506  0.66678215  1
  I  I96  1  0.48959021  0.83302977  -0.00362570  1
  I  I97  1  0.49976958  0.83183045  0.33338733  1
  I  I98  1  0.49551396  0.83609434  0.66952866  1
  I  I99  1  0.83145376  0.16740759  0.00011220  1
  I  I100  1  0.83643285  0.16344669  0.33640260  1
  I  I101  1  0.82954851  0.16257144  0.66211125  1
  I  I102  1  0.83564134  0.49881898  0.00419935  1
  I  I103  1  0.83812809  0.49963845  0.33038419  1
  I  I104  1  0.83552967  0.50046858  0.66640730  1
  I  I105  1  0.83388532  0.83272617  -0.00007326  1
  I  I106  1  0.84090605  0.83794344  0.33767062  1
  I  I107  1  0.83725639  0.83708068  0.66284703  1
  I  I108  1  0.00300621  0.17126440  0.16472089  1
  I  I109  1  -0.00128464  0.16554172  0.50025370  1
  I  I110  1  0.00521633  0.16421009  0.83880680  1
  I  I111  1  0.00215610  0.49613596  0.16698475  1
  I  I112  1  0.00374012  0.49824536  0.49771521  1
  I  I113  1  0.00500671  0.50296885  0.83487265  1
  I  I114  1  0.00017782  0.83334986  0.16238402  1
  I  I115  1  0.00156910  0.83574676  0.50518101  1
  I  I116  1  0.00379839  0.83242753  0.83141325  1
  I  I117  1  0.33267437  0.17489022  0.16967540  1
  I  I118  1  0.33503273  0.16703062  0.49831886  1
  I  I119  1  0.32962477  0.16883229  0.83147952  1
  I  I120  1  0.33191757  0.49538725  0.16647215  1
  I  I121  1  0.32870751  0.50493385  0.49824506  1
  I  I122  1  0.32900619  0.49773265  0.83498835  1
  I  I123  1  0.33316908  0.82926546  0.17142709  1
  I  I124  1  0.33030142  0.83084777  0.50231510  1
  I  I125  1  0.33055624  0.83315076  0.82734628  1
  I  I126  1  0.66378603  0.17100176  0.16975499  1
  I  I127  1  0.66645439  0.15968801  0.49246452  1
  I  I128  1  0.66666229  0.16320836  0.83593366  1
  I  I129  1  0.66588397  0.49617236  0.16886670  1
  I  I130  1  0.66634933  0.50299058  0.49729324  1
  I  I131  1  0.66638078  0.50263369  0.83407942  1
  I  I132  1  0.66659055  0.83279024  0.16531304  1
  I  I133  1  0.66899847  0.83643522  0.50016525  1
  I  I134  1  0.66423340  0.83490785  0.83439432  1
