# generated using pymatgen
data_Cs27Sn13Pb14I81
_symmetry_space_group_name_H-M   'P 1'
_cell_length_a   18.99232225
_cell_length_b   18.98721911
_cell_length_c   18.99586168
_cell_angle_alpha   89.99919007
_cell_angle_beta   89.99957023
_cell_angle_gamma   89.99957475
_symmetry_Int_Tables_number   1
_chemical_formula_structural   Cs27Sn13Pb14I81
_chemical_formula_sum   'Cs27 Sn13 Pb14 I81'
_cell_volume   6850.12396575
_cell_formula_units_Z   1
loop_
 _symmetry_equiv_pos_site_id
 _symmetry_equiv_pos_as_xyz
  1  'x, y, z'
loop_
 _atom_site_type_symbol
 _atom_site_label
 _atom_site_symmetry_multiplicity
 _atom_site_fract_x
 _atom_site_fract_y
 _atom_site_fract_z
 _atom_site_occupancy
  Cs  Cs0  1  -0.00632639  -0.00858520  0.00289918  1
  Cs  Cs1  1  -0.00023249  -0.00009932  0.32700566  1
  Cs  Cs2  1  -0.00302455  -0.00390223  0.66932971  1
  Cs  Cs3  1  -0.00128543  0.33381529  0.00609179  1
  Cs  Cs4  1  0.00192194  0.33204439  0.32870146  1
  Cs  Cs5  1  0.00183227  0.33472537  0.66598299  1
  Cs  Cs6  1  0.00235417  0.67292152  0.00789166  1
  Cs  Cs7  1  -0.00190633  0.66748589  0.32860674  1
  Cs  Cs8  1  0.00140071  0.66651683  0.66620138  1
  Cs  Cs9  1  0.33226366  -0.00255285  0.00180240  1
  Cs  Cs10  1  0.33199244  0.00881657  0.33513131  1
  Cs  Cs11  1  0.33259195  0.00212506  0.66505531  1
  Cs  Cs12  1  0.33275640  0.33291732  -0.00155064  1
  Cs  Cs13  1  0.33004523  0.32559383  0.33492472  1
  Cs  Cs14  1  0.33084025  0.33361386  0.66623604  1
  Cs  Cs15  1  0.33451628  0.66781481  -0.00040190  1
  Cs  Cs16  1  0.33699093  0.66614938  0.33482454  1
  Cs  Cs17  1  0.33365275  0.66542328  0.66690545  1
  Cs  Cs18  1  0.67261616  0.01204408  -0.00225487  1
  Cs  Cs19  1  0.66753549  -0.00134500  0.33222407  1
  Cs  Cs20  1  0.67126345  0.00267590  0.66923931  1
  Cs  Cs21  1  0.66961972  0.32674356  -0.00084492  1
  Cs  Cs22  1  0.66772831  0.33275548  0.33326900  1
  Cs  Cs23  1  0.66795885  0.33452709  0.66678792  1
  Cs  Cs24  1  0.66108381  0.66473967  0.00191231  1
  Cs  Cs25  1  0.66451173  0.66749802  0.33502815  1
  Cs  Cs26  1  0.66544465  0.66499315  0.66476486  1
  Sn  Sn27  1  0.83361237  0.49907845  0.50078494  1
  Sn  Sn28  1  0.16636802  0.16709785  0.83342396  1
  Sn  Sn29  1  0.16673372  0.50091284  0.50042506  1
  Sn  Sn30  1  0.49892916  0.83284029  0.50037161  1
  Sn  Sn31  1  0.49994115  0.83287166  0.16671829  1
  Sn  Sn32  1  0.16614344  0.49943640  0.83296534  1
  Sn  Sn33  1  0.49965770  0.50012921  0.49985397  1
  Sn  Sn34  1  0.16754638  0.83236813  0.50016649  1
  Sn  Sn35  1  0.83370590  0.16771488  0.50026977  1
  Sn  Sn36  1  0.50024010  0.83297518  0.83297211  1
  Sn  Sn37  1  0.50009571  0.50040133  0.83332768  1
  Sn  Sn38  1  0.83382153  0.50064829  0.83290117  1
  Sn  Sn39  1  0.49963088  0.49986653  0.16684501  1
  Pb  Pb40  1  0.16416423  0.16653037  0.50154733  1
  Pb  Pb41  1  0.83059703  0.50016237  0.16679632  1
  Pb  Pb42  1  0.83648717  0.16947259  0.83150566  1
  Pb  Pb43  1  0.82969915  0.83290732  0.16656894  1
  Pb  Pb44  1  0.16976247  0.83299974  0.17009437  1
  Pb  Pb45  1  0.16867576  0.83248762  0.83145549  1
  Pb  Pb46  1  0.83029747  0.82990635  0.83318788  1
  Pb  Pb47  1  0.50199690  0.16666064  0.50033245  1
  Pb  Pb48  1  0.83317513  0.83241128  0.50001188  1
  Pb  Pb49  1  0.16668200  0.16659766  0.16278648  1
  Pb  Pb50  1  0.49804579  0.16709153  0.83303247  1
  Pb  Pb51  1  0.16955333  0.50000780  0.16681461  1
  Pb  Pb52  1  0.83332432  0.16700268  0.16959268  1
  Pb  Pb53  1  0.49984087  0.16671535  0.16663679  1
  I  I54  1  0.17063685  -0.00025370  0.16814802  1
  I  I55  1  0.17200915  -0.00268691  0.50169371  1
  I  I56  1  0.17080868  0.00161756  0.82986720  1
  I  I57  1  0.17041366  0.33359230  0.17226911  1
  I  I58  1  0.17057243  0.33680721  0.50216042  1
  I  I59  1  0.17017943  0.33619535  0.82627622  1
  I  I60  1  0.16398462  0.66653516  0.16134295  1
  I  I61  1  0.16671678  0.66488120  0.50658611  1
  I  I62  1  0.16608886  0.66287580  0.83026797  1
  I  I63  1  0.49924937  -0.00360492  0.16821023  1
  I  I64  1  0.49621786  -0.00359361  0.49905776  1
  I  I65  1  0.49699087  -0.00312350  0.83274893  1
  I  I66  1  0.50053289  0.33694368  0.16668174  1
  I  I67  1  0.49719551  0.33727500  0.50073709  1
  I  I68  1  0.50200749  0.33753834  0.83263769  1
  I  I69  1  0.50030630  0.66601039  0.16674091  1
  I  I70  1  0.50154748  0.66534382  0.50013982  1
  I  I71  1  0.49822687  0.66493204  0.83286506  1
  I  I72  1  0.83064351  0.00004810  0.16859607  1
  I  I73  1  0.83227005  0.00206110  0.49944941  1
  I  I74  1  0.83282604  0.00010584  0.83175727  1
  I  I75  1  0.82901305  0.33379657  0.16458049  1
  I  I76  1  0.83175622  0.33602447  0.50448687  1
  I  I77  1  0.82569566  0.33754517  0.83072666  1
  I  I78  1  0.83603501  0.66628652  0.16953304  1
  I  I79  1  0.83190799  0.66284172  0.50404551  1
  I  I80  1  0.83750631  0.66183092  0.82413903  1
  I  I81  1  0.16890680  0.17600739  -0.00500772  1
  I  I82  1  0.16575065  0.16656056  0.33359453  1
  I  I83  1  0.16790256  0.17035290  0.66902093  1
  I  I84  1  0.16705595  0.49487629  -0.00346963  1
  I  I85  1  0.16594604  0.50410773  0.33707146  1
  I  I86  1  0.17127256  0.49966652  0.66625300  1
  I  I87  1  0.16821707  0.83404608  -0.00001527  1
  I  I88  1  0.17089710  0.82677744  0.33824766  1
  I  I89  1  0.17330092  0.83134207  0.66354197  1
  I  I90  1  0.49989248  0.16696338  -0.00018124  1
  I  I91  1  0.50025245  0.16742807  0.33359941  1
  I  I92  1  0.50031551  0.16559398  0.66661353  1
  I  I93  1  0.49930658  0.50657684  -0.00112777  1
  I  I94  1  0.50138513  0.50645688  0.33471967  1
  I  I95  1  0.50032377  0.50515485  0.66648824  1
  I  I96  1  0.49985014  0.82430828  -0.00046453  1
  I  I97  1  0.49726447  0.82527312  0.33436662  1
  I  I98  1  0.49629701  0.82595956  0.66601888  1
  I  I99  1  0.83310228  0.16751471  -0.00036590  1
  I  I100  1  0.83337017  0.17467422  0.33765174  1
  I  I101  1  0.83172785  0.16880381  0.66385465  1
  I  I102  1  0.83273426  0.50040751  -0.00331343  1
  I  I103  1  0.83312039  0.49668801  0.33701168  1
  I  I104  1  0.82816635  0.49663258  0.66579305  1
  I  I105  1  0.83406430  0.83239781  -0.00026035  1
  I  I106  1  0.83168527  0.83205856  0.33369967  1
  I  I107  1  0.83013025  0.83668509  0.66646073  1
  I  I108  1  -0.00004093  0.16786121  0.16811087  1
  I  I109  1  -0.00304888  0.17248050  0.50237068  1
  I  I110  1  0.00377245  0.17287384  0.82980767  1
  I  I111  1  0.00007182  0.49827734  0.16677291  1
  I  I112  1  0.00043454  0.50025030  0.50846681  1
  I  I113  1  0.00042535  0.49357063  0.82265854  1
  I  I114  1  0.00023738  0.83515426  0.16777301  1
  I  I115  1  0.00284742  0.82975139  0.50247444  1
  I  I116  1  0.00009851  0.83382803  0.83062639  1
  I  I117  1  0.33335844  0.16714588  0.16958467  1
  I  I118  1  0.33295611  0.16844801  0.49990434  1
  I  I119  1  0.33063206  0.17425487  0.83059538  1
  I  I120  1  0.33761105  0.50541983  0.16613715  1
  I  I121  1  0.33382069  0.50509088  0.50300054  1
  I  I122  1  0.33388638  0.49973799  0.83054326  1
  I  I123  1  0.33769359  0.82689620  0.16303928  1
  I  I124  1  0.33469234  0.82486501  0.50049834  1
  I  I125  1  0.33695368  0.82693435  0.83503405  1
  I  I126  1  0.66657131  0.16615931  0.16525597  1
  I  I127  1  0.66959388  0.17196006  0.50119082  1
  I  I128  1  0.66712935  0.16604356  0.83355234  1
  I  I129  1  0.66242761  0.50552892  0.16766134  1
  I  I130  1  0.66565688  0.50015582  0.50243368  1
  I  I131  1  0.66568004  0.50537574  0.82974042  1
  I  I132  1  0.66139126  0.82669668  0.17213291  1
  I  I133  1  0.66298860  0.82959969  0.49895453  1
  I  I134  1  0.66170819  0.82774975  0.82898040  1
