# generated using pymatgen
data_Cs27Sn14Pb13I81
_symmetry_space_group_name_H-M   'P 1'
_cell_length_a   18.97947054
_cell_length_b   18.97346793
_cell_length_c   18.97393294
_cell_angle_alpha   89.99928722
_cell_angle_beta   89.99853829
_cell_angle_gamma   90.00229784
_symmetry_Int_Tables_number   1
_chemical_formula_structural   Cs27Sn14Pb13I81
_chemical_formula_sum   'Cs27 Sn14 Pb13 I81'
_cell_volume   6832.63421242
_cell_formula_units_Z   1
loop_
 _symmetry_equiv_pos_site_id
 _symmetry_equiv_pos_as_xyz
  1  'x, y, z'
loop_
 _atom_site_type_symbol
 _atom_site_label
 _atom_site_symmetry_multiplicity
 _atom_site_fract_x
 _atom_site_fract_y
 _atom_site_fract_z
 _atom_site_occupancy
  Cs  Cs0  1  0.00017538  -0.00143911  0.00136264  1
  Cs  Cs1  1  0.00236004  -0.00008226  0.33554636  1
  Cs  Cs2  1  -0.00633422  -0.00229186  0.66335317  1
  Cs  Cs3  1  -0.00039886  0.33486270  -0.00180734  1
  Cs  Cs4  1  -0.00104295  0.33301309  0.33366915  1
  Cs  Cs5  1  0.00181955  0.33288294  0.66710291  1
  Cs  Cs6  1  -0.00006772  0.66626688  0.00104805  1
  Cs  Cs7  1  0.00430207  0.66624964  0.32970379  1
  Cs  Cs8  1  -0.00006484  0.66794556  0.66960594  1
  Cs  Cs9  1  0.33696319  0.00359793  -0.00100780  1
  Cs  Cs10  1  0.32887675  0.00102962  0.33105267  1
  Cs  Cs11  1  0.33691722  -0.00068758  0.67100939  1
  Cs  Cs12  1  0.33292238  0.33054833  -0.00311807  1
  Cs  Cs13  1  0.33424745  0.33274403  0.33441363  1
  Cs  Cs14  1  0.32994451  0.33403316  0.66684200  1
  Cs  Cs15  1  0.33062697  0.66561677  0.00159987  1
  Cs  Cs16  1  0.33280329  0.66869839  0.33497316  1
  Cs  Cs17  1  0.33781427  0.66625567  0.66303983  1
  Cs  Cs18  1  0.66308734  -0.00050601  -0.00126933  1
  Cs  Cs19  1  0.66978155  0.00460893  0.33305412  1
  Cs  Cs20  1  0.67156077  -0.01046422  0.66795513  1
  Cs  Cs21  1  0.66716552  0.33358374  0.00163597  1
  Cs  Cs22  1  0.66682700  0.33361655  0.33360351  1
  Cs  Cs23  1  0.66938724  0.33564463  0.66265684  1
  Cs  Cs24  1  0.66839690  0.66631551  0.00061410  1
  Cs  Cs25  1  0.66168922  0.66202913  0.33040874  1
  Cs  Cs26  1  0.66252366  0.67222866  0.66711533  1
  Sn  Sn27  1  0.83427451  0.50026632  0.50104955  1
  Sn  Sn28  1  0.83234854  0.49934375  0.83214804  1
  Sn  Sn29  1  0.16770495  0.16741805  0.49951543  1
  Sn  Sn30  1  0.49858454  0.50036501  0.16567608  1
  Sn  Sn31  1  0.83247337  0.83446866  0.16685904  1
  Sn  Sn32  1  0.50081907  0.49939977  0.83414936  1
  Sn  Sn33  1  0.16675519  0.83346160  0.83332824  1
  Sn  Sn34  1  0.50076162  0.83282345  0.16685340  1
  Sn  Sn35  1  0.16557315  0.49931389  0.49915494  1
  Sn  Sn36  1  0.83419271  0.16584663  0.16565291  1
  Sn  Sn37  1  0.16572624  0.16785354  0.16692452  1
  Sn  Sn38  1  0.49927890  0.16639254  0.50046546  1
  Sn  Sn39  1  0.16790913  0.49881109  0.16727063  1
  Sn  Sn40  1  0.83325514  0.16730499  0.83408782  1
  Pb  Pb41  1  0.83453022  0.83286701  0.83551169  1
  Pb  Pb42  1  0.83388819  0.16808616  0.49994226  1
  Pb  Pb43  1  0.16446606  0.16464535  0.83297197  1
  Pb  Pb44  1  0.16656222  0.50113289  0.83312612  1
  Pb  Pb45  1  0.49992598  0.83671075  0.49687558  1
  Pb  Pb46  1  0.16673255  0.83353387  0.50255945  1
  Pb  Pb47  1  0.16692942  0.83371961  0.16543202  1
  Pb  Pb48  1  0.49788577  0.83078252  0.83582113  1
  Pb  Pb49  1  0.49992505  0.16714691  0.16771705  1
  Pb  Pb50  1  0.49960879  0.49879541  0.49983301  1
  Pb  Pb51  1  0.83336738  0.82946392  0.49652051  1
  Pb  Pb52  1  0.83353114  0.49956866  0.16654514  1
  Pb  Pb53  1  0.50303624  0.16898089  0.83037786  1
  I  I54  1  0.16525574  0.00294355  0.16981830  1
  I  I55  1  0.16996279  0.00353389  0.49477953  1
  I  I56  1  0.16457067  -0.00259452  0.83577904  1
  I  I57  1  0.16596569  0.33353401  0.16989413  1
  I  I58  1  0.16641159  0.33368706  0.49596860  1
  I  I59  1  0.16763110  0.33328065  0.83383361  1
  I  I60  1  0.16667458  0.66389133  0.16908298  1
  I  I61  1  0.16258811  0.66317678  0.49557703  1
  I  I62  1  0.16408310  0.66846423  0.83587167  1
  I  I63  1  0.50070893  -0.00183175  0.16942723  1
  I  I64  1  0.49350956  0.00453056  0.49814737  1
  I  I65  1  0.49982440  0.00005832  0.83364487  1
  I  I66  1  0.49968586  0.33619533  0.16487186  1
  I  I67  1  0.49899912  0.33118930  0.49640526  1
  I  I68  1  0.49990710  0.33692125  0.84162079  1
  I  I69  1  0.50099581  0.66527843  0.16361138  1
  I  I70  1  0.50004400  0.66652114  0.50162161  1
  I  I71  1  0.50661127  0.66273653  0.83339708  1
  I  I72  1  0.83369252  0.00140830  0.16113217  1
  I  I73  1  0.83338866  0.00000406  0.50272930  1
  I  I74  1  0.83674044  0.00239518  0.83518879  1
  I  I75  1  0.83432069  0.33096373  0.16617364  1
  I  I76  1  0.83444251  0.33612344  0.49857229  1
  I  I77  1  0.83141358  0.33413114  0.83664071  1
  I  I78  1  0.83305979  0.66812608  0.16677907  1
  I  I79  1  0.83904514  0.66149399  0.50572794  1
  I  I80  1  0.83148125  0.66346516  0.83125224  1
  I  I81  1  0.16410574  0.17017405  0.00300789  1
  I  I82  1  0.16437244  0.17004986  0.33252115  1
  I  I83  1  0.16910591  0.17147755  0.66366296  1
  I  I84  1  0.16705345  0.49773675  0.00282306  1
  I  I85  1  0.16566176  0.49719924  0.33274249  1
  I  I86  1  0.16566505  0.49654194  0.66398868  1
  I  I87  1  0.16546300  0.83134446  -0.00185540  1
  I  I88  1  0.16643118  0.83278989  0.33322215  1
  I  I89  1  0.16509172  0.83197542  0.66999046  1
  I  I90  1  0.49777539  0.16512070  -0.00011813  1
  I  I91  1  0.50090732  0.16970250  0.33543258  1
  I  I92  1  0.49277374  0.17105241  0.66301324  1
  I  I93  1  0.50059003  0.50309889  0.00110164  1
  I  I94  1  0.50003975  0.50239731  0.33051809  1
  I  I95  1  0.50080253  0.49714082  0.66876966  1
  I  I96  1  0.50341397  0.83304393  0.00366873  1
  I  I97  1  0.50231988  0.82383775  0.32902273  1
  I  I98  1  0.49850994  0.83221325  0.66685776  1
  I  I99  1  0.83887069  0.16988160  0.00115935  1
  I  I100  1  0.83407459  0.16473997  0.33058277  1
  I  I101  1  0.83382714  0.17059799  0.66880235  1
  I  I102  1  0.83289545  0.49932377  -0.00204594  1
  I  I103  1  0.83412282  0.49942421  0.33508408  1
  I  I104  1  0.83408275  0.49258254  0.66750376  1
  I  I105  1  0.83125686  0.83188500  0.00337099  1
  I  I106  1  0.83164752  0.83995016  0.32864880  1
  I  I107  1  0.83523955  0.83665869  0.66675413  1
  I  I108  1  0.00029156  0.16715434  0.16901763  1
  I  I109  1  0.00272260  0.16966517  0.49833571  1
  I  I110  1  -0.00325943  0.17399544  0.83375147  1
  I  I111  1  0.00237245  0.49974503  0.16749730  1
  I  I112  1  0.00096484  0.49340515  0.49903544  1
  I  I113  1  -0.00258230  0.49790909  0.83316384  1
  I  I114  1  -0.00198193  0.83333268  0.16422567  1
  I  I115  1  -0.00005218  0.83791820  0.49800094  1
  I  I116  1  0.00194369  0.83038022  0.83688995  1
  I  I117  1  0.33062663  0.16706470  0.16968082  1
  I  I118  1  0.33152482  0.17352415  0.49308986  1
  I  I119  1  0.33334377  0.16636377  0.83572318  1
  I  I120  1  0.33296249  0.50089871  0.16665209  1
  I  I121  1  0.33049932  0.49755046  0.49917551  1
  I  I122  1  0.33538659  0.50313786  0.83485116  1
  I  I123  1  0.33551512  0.83136076  0.16466604  1
  I  I124  1  0.33328502  0.82774021  0.49838321  1
  I  I125  1  0.33057460  0.83225081  0.83600935  1
  I  I126  1  0.66920201  0.16640054  0.16551083  1
  I  I127  1  0.66536419  0.17039151  0.49785416  1
  I  I128  1  0.67081143  0.16819291  0.83985332  1
  I  I129  1  0.66478247  0.50095629  0.16651605  1
  I  I130  1  0.66862905  0.49671869  0.49954677  1
  I  I131  1  0.66750024  0.49633441  0.83434075  1
  I  I132  1  0.66677486  0.83211380  0.16544276  1
  I  I133  1  0.66676467  0.83432107  0.50347494  1
  I  I134  1  0.66658950  0.83480214  0.83299974  1
