# generated using pymatgen
data_Cs27Sn14Pb13I81
_symmetry_space_group_name_H-M   'P 1'
_cell_length_a   18.95943006
_cell_length_b   18.95834490
_cell_length_c   18.96364887
_cell_angle_alpha   89.99833914
_cell_angle_beta   89.99876208
_cell_angle_gamma   90.00011224
_symmetry_Int_Tables_number   1
_chemical_formula_structural   Cs27Sn14Pb13I81
_chemical_formula_sum   'Cs27 Sn14 Pb13 I81'
_cell_volume   6816.28283712
_cell_formula_units_Z   1
loop_
 _symmetry_equiv_pos_site_id
 _symmetry_equiv_pos_as_xyz
  1  'x, y, z'
loop_
 _atom_site_type_symbol
 _atom_site_label
 _atom_site_symmetry_multiplicity
 _atom_site_fract_x
 _atom_site_fract_y
 _atom_site_fract_z
 _atom_site_occupancy
  Cs  Cs0  1  0.00190637  0.00783129  -0.00560933  1
  Cs  Cs1  1  0.00059706  -0.00301467  0.33403490  1
  Cs  Cs2  1  -0.00260926  0.00323750  0.66976622  1
  Cs  Cs3  1  -0.00127064  0.33003151  -0.00280120  1
  Cs  Cs4  1  0.00006725  0.33416670  0.33238052  1
  Cs  Cs5  1  -0.00169787  0.33182610  0.66937719  1
  Cs  Cs6  1  0.00201294  0.66540862  0.00261406  1
  Cs  Cs7  1  -0.00008967  0.66766728  0.33325861  1
  Cs  Cs8  1  0.00140879  0.66679813  0.66481756  1
  Cs  Cs9  1  0.33564601  -0.00528704  0.00399967  1
  Cs  Cs10  1  0.33294204  0.00772435  0.33174492  1
  Cs  Cs11  1  0.33217181  -0.00263846  0.66503423  1
  Cs  Cs12  1  0.33245903  0.33459460  0.00234824  1
  Cs  Cs13  1  0.33338518  0.32983082  0.33408542  1
  Cs  Cs14  1  0.33539995  0.33524311  0.66344335  1
  Cs  Cs15  1  0.33252498  0.66887845  -0.00204508  1
  Cs  Cs16  1  0.33076126  0.66498970  0.33509915  1
  Cs  Cs17  1  0.33297197  0.66598497  0.66706611  1
  Cs  Cs18  1  0.66312394  -0.00188024  -0.00036474  1
  Cs  Cs19  1  0.66610913  -0.00213341  0.33077152  1
  Cs  Cs20  1  0.66948900  0.00051207  0.66734542  1
  Cs  Cs21  1  0.66904644  0.33502237  -0.00339806  1
  Cs  Cs22  1  0.66610612  0.33442280  0.33337361  1
  Cs  Cs23  1  0.66703660  0.33382678  0.66750163  1
  Cs  Cs24  1  0.66621255  0.66752747  0.00248540  1
  Cs  Cs25  1  0.66984409  0.66684734  0.33321892  1
  Cs  Cs26  1  0.66579675  0.66591906  0.66537721  1
  Sn  Sn27  1  0.50074962  0.49918297  0.83342929  1
  Sn  Sn28  1  0.16746134  0.50063555  0.16750244  1
  Sn  Sn29  1  0.16642401  0.83270478  0.16748984  1
  Sn  Sn30  1  0.83319253  0.16748990  0.49852724  1
  Sn  Sn31  1  0.83340590  0.49921312  0.50067838  1
  Sn  Sn32  1  0.83350312  0.83172671  0.83347949  1
  Sn  Sn33  1  0.49923140  0.83272494  0.49973966  1
  Sn  Sn34  1  0.50005384  0.50074269  0.49977661  1
  Sn  Sn35  1  0.49954209  0.16728070  0.83316414  1
  Sn  Sn36  1  0.49930413  0.50012700  0.16686374  1
  Sn  Sn37  1  0.83273360  0.50158456  0.83256924  1
  Sn  Sn38  1  0.83305120  0.16681338  0.16788044  1
  Sn  Sn39  1  0.16771322  0.83265830  0.49912296  1
  Sn  Sn40  1  0.16662441  0.50044944  0.49924039  1
  Pb  Pb41  1  0.16423796  0.16680462  0.50018262  1
  Pb  Pb42  1  0.16485321  0.16708897  0.16682000  1
  Pb  Pb43  1  0.16438447  0.83312702  0.83291006  1
  Pb  Pb44  1  0.49791147  0.83090531  0.16954243  1
  Pb  Pb45  1  0.50211157  0.16923821  0.16450477  1
  Pb  Pb46  1  0.83373380  0.49899579  0.16662065  1
  Pb  Pb47  1  0.50157597  0.83249915  0.83120280  1
  Pb  Pb48  1  0.83177684  0.16728851  0.83312026  1
  Pb  Pb49  1  0.83367680  0.83291598  0.50106182  1
  Pb  Pb50  1  0.83601416  0.83584964  0.16390656  1
  Pb  Pb51  1  0.50212690  0.16676165  0.50141248  1
  Pb  Pb52  1  0.16687431  0.49977625  0.83318575  1
  Pb  Pb53  1  0.17091465  0.16681606  0.83320111  1
  I  I54  1  0.16404263  -0.00288013  0.17095308  1
  I  I55  1  0.17027637  -0.00338502  0.49618241  1
  I  I56  1  0.16348996  -0.00027791  0.83291850  1
  I  I57  1  0.16975658  0.33695979  0.17111667  1
  I  I58  1  0.16953975  0.33718477  0.49610247  1
  I  I59  1  0.15997014  0.33383708  0.83400532  1
  I  I60  1  0.16886918  0.66541959  0.17076552  1
  I  I61  1  0.16509730  0.66535048  0.49642113  1
  I  I62  1  0.16927667  0.66636686  0.83371140  1
  I  I63  1  0.49944780  -0.00012012  0.16546420  1
  I  I64  1  0.49729260  -0.00253888  0.50324867  1
  I  I65  1  0.50378510  0.00164376  0.83100232  1
  I  I66  1  0.49433441  0.33771492  0.17178756  1
  I  I67  1  0.49803324  0.33698735  0.49924174  1
  I  I68  1  0.50689742  0.33600935  0.83126351  1
  I  I69  1  0.50077816  0.66243896  0.16130173  1
  I  I70  1  0.50153382  0.66452446  0.50263979  1
  I  I71  1  0.50245963  0.66301400  0.83381202  1
  I  I72  1  0.83439842  0.00343359  0.17163768  1
  I  I73  1  0.83305435  0.00196860  0.49978480  1
  I  I74  1  0.83260173  -0.00148676  0.83241332  1
  I  I75  1  0.83467789  0.33131589  0.16583227  1
  I  I76  1  0.83307829  0.33547213  0.50259750  1
  I  I77  1  0.83104546  0.33637333  0.83197540  1
  I  I78  1  0.83207150  0.66660355  0.16779921  1
  I  I79  1  0.83287669  0.66336440  0.50286784  1
  I  I80  1  0.82810101  0.66448270  0.82735962  1
  I  I81  1  0.16091467  0.16746964  0.00022606  1
  I  I82  1  0.16816225  0.16711896  0.33355561  1
  I  I83  1  0.16160763  0.16629011  0.66635140  1
  I  I84  1  0.16925339  0.50373856  0.00305148  1
  I  I85  1  0.16838757  0.50355029  0.33424675  1
  I  I86  1  0.16825608  0.50437581  0.66313756  1
  I  I87  1  0.16451076  0.82879565  0.00287201  1
  I  I88  1  0.16842615  0.82792420  0.33440228  1
  I  I89  1  0.16948205  0.82798365  0.66303989  1
  I  I90  1  0.50418617  0.17181999  -0.00334151  1
  I  I91  1  0.50039869  0.16731436  0.33332748  1
  I  I92  1  0.50422902  0.17290485  0.66922827  1
  I  I93  1  0.50089519  0.49479012  -0.00049630  1
  I  I94  1  0.50060345  0.50414295  0.33445536  1
  I  I95  1  0.50089146  0.49958902  0.66596839  1
  I  I96  1  0.49960095  0.83344186  0.00012701  1
  I  I97  1  0.50146865  0.82841995  0.33758035  1
  I  I98  1  0.49495665  0.82768208  0.66323771  1
  I  I99  1  0.83306490  0.16720992  0.00155169  1
  I  I100  1  0.83311668  0.17316275  0.33451039  1
  I  I101  1  0.83234043  0.16799043  0.66441062  1
  I  I102  1  0.83017746  0.50076920  -0.00257989  1
  I  I103  1  0.83099807  0.49744266  0.33629255  1
  I  I104  1  0.83077093  0.49780130  0.66577731  1
  I  I105  1  0.83293767  0.82813639  -0.00370305  1
  I  I106  1  0.83198728  0.83226203  0.33331611  1
  I  I107  1  0.83434834  0.83402850  0.66890913  1
  I  I108  1  -0.00316442  0.16944256  0.16873032  1
  I  I109  1  -0.00399679  0.17044265  0.49848316  1
  I  I110  1  -0.00041324  0.16640587  0.83371348  1
  I  I111  1  0.00271777  0.50222731  0.17006832  1
  I  I112  1  -0.00006430  0.50041043  0.49979181  1
  I  I113  1  -0.00310044  0.50296534  0.83027763  1
  I  I114  1  0.00369853  0.82507087  0.17438738  1
  I  I115  1  0.00273599  0.82978233  0.49767258  1
  I  I116  1  -0.00366588  0.82844511  0.83076384  1
  I  I117  1  0.33356631  0.16551949  0.16417738  1
  I  I118  1  0.33356970  0.16852911  0.50234170  1
  I  I119  1  0.33850095  0.17446034  0.83225133  1
  I  I120  1  0.33334766  0.50261551  0.16866288  1
  I  I121  1  0.33377422  0.50444154  0.50075508  1
  I  I122  1  0.33673115  0.49588560  0.83082356  1
  I  I123  1  0.32980421  0.83231126  0.16600967  1
  I  I124  1  0.33298739  0.82511341  0.49922468  1
  I  I125  1  0.33342435  0.83421455  0.83422723  1
  I  I126  1  0.66989707  0.16871330  0.17035947  1
  I  I127  1  0.67016652  0.17095996  0.49842655  1
  I  I128  1  0.66433534  0.16977050  0.83264929  1
  I  I129  1  0.66427988  0.49708746  0.16841086  1
  I  I130  1  0.66632492  0.50004623  0.50095603  1
  I  I131  1  0.66650460  0.49928713  0.83016291  1
  I  I132  1  0.66666556  0.83314670  0.16728331  1
  I  I133  1  0.66457220  0.82990488  0.50326874  1
  I  I134  1  0.66950775  0.83213022  0.83039983  1
