# generated using pymatgen
data_Cs27Sn14Pb13I81
_symmetry_space_group_name_H-M   'P 1'
_cell_length_a   18.97293141
_cell_length_b   18.97631377
_cell_length_c   18.97726940
_cell_angle_alpha   89.99956111
_cell_angle_beta   90.00086665
_cell_angle_gamma   89.99834800
_symmetry_Int_Tables_number   1
_chemical_formula_structural   Cs27Sn14Pb13I81
_chemical_formula_sum   'Cs27 Sn14 Pb13 I81'
_cell_volume   6832.50584624
_cell_formula_units_Z   1
loop_
 _symmetry_equiv_pos_site_id
 _symmetry_equiv_pos_as_xyz
  1  'x, y, z'
loop_
 _atom_site_type_symbol
 _atom_site_label
 _atom_site_symmetry_multiplicity
 _atom_site_fract_x
 _atom_site_fract_y
 _atom_site_fract_z
 _atom_site_occupancy
  Cs  Cs0  1  -0.00194788  0.01105308  0.00261462  1
  Cs  Cs1  1  -0.00331759  0.00009184  0.33058205  1
  Cs  Cs2  1  0.00175617  0.00101205  0.66741981  1
  Cs  Cs3  1  0.00358240  0.33080020  -0.00282737  1
  Cs  Cs4  1  -0.00002677  0.33437856  0.33702606  1
  Cs  Cs5  1  -0.00281853  0.33079166  0.66652333  1
  Cs  Cs6  1  -0.00201458  0.66527243  0.00198955  1
  Cs  Cs7  1  0.00199869  0.66634290  0.33027454  1
  Cs  Cs8  1  0.00333548  0.66779277  0.66778644  1
  Cs  Cs9  1  0.33347301  0.00311811  0.00071022  1
  Cs  Cs10  1  0.33255086  0.00016701  0.33655518  1
  Cs  Cs11  1  0.33515506  -0.00282719  0.66385751  1
  Cs  Cs12  1  0.33162673  0.33116151  0.00328972  1
  Cs  Cs13  1  0.33454412  0.33379680  0.33135077  1
  Cs  Cs14  1  0.33303459  0.33243859  0.66632783  1
  Cs  Cs15  1  0.33301003  0.66557236  -0.00084349  1
  Cs  Cs16  1  0.33199445  0.66587294  0.33254529  1
  Cs  Cs17  1  0.33175031  0.67001080  0.66794248  1
  Cs  Cs18  1  0.66802694  -0.00271695  0.00051036  1
  Cs  Cs19  1  0.66954263  -0.00159796  0.33128761  1
  Cs  Cs20  1  0.66353984  -0.00104118  0.66738598  1
  Cs  Cs21  1  0.66366841  0.33407640  -0.00011675  1
  Cs  Cs22  1  0.66510307  0.33661316  0.33661093  1
  Cs  Cs23  1  0.66938643  0.33364377  0.66438436  1
  Cs  Cs24  1  0.66848458  0.66793692  -0.00151038  1
  Cs  Cs25  1  0.66704928  0.66493283  0.33390723  1
  Cs  Cs26  1  0.66626601  0.66666034  0.66796416  1
  Sn  Sn27  1  0.16693390  0.49935003  0.49965969  1
  Sn  Sn28  1  0.49889097  0.83298146  0.16669074  1
  Sn  Sn29  1  0.16739634  0.16757589  0.49985680  1
  Sn  Sn30  1  0.50051501  0.50008058  0.83324857  1
  Sn  Sn31  1  0.83268071  0.83302055  0.50106719  1
  Sn  Sn32  1  0.16583196  0.50088500  0.16734855  1
  Sn  Sn33  1  0.83387770  0.50001359  0.16596635  1
  Sn  Sn34  1  0.83263967  0.50084551  0.83420735  1
  Sn  Sn35  1  0.16729600  0.83298201  0.16609397  1
  Sn  Sn36  1  0.50037797  0.83319138  0.83354449  1
  Sn  Sn37  1  0.49946623  0.16612436  0.50060798  1
  Sn  Sn38  1  0.83313467  0.83270319  0.83249417  1
  Sn  Sn39  1  0.50007530  0.16651664  0.83255871  1
  Sn  Sn40  1  0.50083677  0.83372689  0.49971929  1
  Pb  Pb41  1  0.83059746  0.16663350  0.83325754  1
  Pb  Pb42  1  0.49803836  0.50040484  0.50228395  1
  Pb  Pb43  1  0.83257961  0.16376261  0.50015244  1
  Pb  Pb44  1  0.16621947  0.50013831  0.83365686  1
  Pb  Pb45  1  0.16600365  0.83347533  0.83655260  1
  Pb  Pb46  1  0.49981399  0.50214702  0.16439992  1
  Pb  Pb47  1  0.16678037  0.16706896  0.16933323  1
  Pb  Pb48  1  0.50016910  0.16395213  0.16731090  1
  Pb  Pb49  1  0.83557235  0.50240404  0.50068918  1
  Pb  Pb50  1  0.16954980  0.16645721  0.83044137  1
  Pb  Pb51  1  0.83335351  0.83201178  0.16610137  1
  Pb  Pb52  1  0.83309358  0.17107588  0.16670448  1
  Pb  Pb53  1  0.16659476  0.83342455  0.49821303  1
  I  I54  1  0.17155883  -0.00274359  0.16725736  1
  I  I55  1  0.16897115  0.00194373  0.49932562  1
  I  I56  1  0.16565221  -0.00019645  0.83373001  1
  I  I57  1  0.16223900  0.33676088  0.16796561  1
  I  I58  1  0.17238528  0.33359014  0.49431646  1
  I  I59  1  0.16742852  0.33348383  0.83758022  1
  I  I60  1  0.16721345  0.66591095  0.17346466  1
  I  I61  1  0.16651600  0.66465805  0.49723929  1
  I  I62  1  0.17249601  0.66675017  0.82768222  1
  I  I63  1  0.49449050  -0.00461047  0.16248991  1
  I  I64  1  0.49697978  -0.00098743  0.50483574  1
  I  I65  1  0.50296432  -0.00127954  0.83238135  1
  I  I66  1  0.50007656  0.33364258  0.16583331  1
  I  I67  1  0.49704144  0.33095560  0.50476999  1
  I  I68  1  0.50346613  0.33353129  0.82848589  1
  I  I69  1  0.49855743  0.67037271  0.16796312  1
  I  I70  1  0.50194160  0.66993476  0.50077719  1
  I  I71  1  0.50387880  0.66771895  0.83337481  1
  I  I72  1  0.83445490  -0.00042843  0.16646843  1
  I  I73  1  0.83421318  -0.00438608  0.50545770  1
  I  I74  1  0.82945328  -0.00344469  0.82922386  1
  I  I75  1  0.83987002  0.33914335  0.16044216  1
  I  I76  1  0.83178595  0.33358515  0.49896072  1
  I  I77  1  0.82982523  0.33664938  0.83805206  1
  I  I78  1  0.83511522  0.66418941  0.16503175  1
  I  I79  1  0.82747126  0.67018413  0.50110820  1
  I  I80  1  0.82453382  0.66690935  0.83332400  1
  I  I81  1  0.16728270  0.16699370  0.00014131  1
  I  I82  1  0.17512602  0.16758858  0.33699152  1
  I  I83  1  0.16769209  0.17238822  0.66250268  1
  I  I84  1  0.16609348  0.50562264  0.00290890  1
  I  I85  1  0.16170338  0.50068526  0.33264075  1
  I  I86  1  0.16760649  0.49625189  0.66415897  1
  I  I87  1  0.17159171  0.82486302  0.00433683  1
  I  I88  1  0.17073563  0.83140065  0.33049639  1
  I  I89  1  0.16860143  0.83269972  0.66655669  1
  I  I90  1  0.50171182  0.16611853  -0.00309887  1
  I  I91  1  0.49556190  0.16208747  0.33704174  1
  I  I92  1  0.49543640  0.16107217  0.66649319  1
  I  I93  1  0.49910822  0.50013959  -0.00373056  1
  I  I94  1  0.50214575  0.49997728  0.33332191  1
  I  I95  1  0.50425352  0.50426415  0.67031040  1
  I  I96  1  0.50038176  0.83268429  -0.00114354  1
  I  I97  1  0.50004429  0.83802516  0.33420727  1
  I  I98  1  0.50418226  0.83417011  0.66686696  1
  I  I99  1  0.83175447  0.16004311  -0.00024501  1
  I  I100  1  0.83097080  0.16418726  0.33368940  1
  I  I101  1  0.83698558  0.17220251  0.66662213  1
  I  I102  1  0.83454764  0.50732418  -0.00084600  1
  I  I103  1  0.83635841  0.50251348  0.33126742  1
  I  I104  1  0.82989551  0.50202096  0.66971018  1
  I  I105  1  0.82857822  0.82997435  -0.00286400  1
  I  I106  1  0.83006849  0.83272907  0.33521047  1
  I  I107  1  0.82531442  0.82776408  0.66750820  1
  I  I108  1  0.00022340  0.15902744  0.16857416  1
  I  I109  1  0.00264609  0.16962973  0.49768619  1
  I  I110  1  -0.00014116  0.16653438  0.83309236  1
  I  I111  1  0.00071247  0.50756385  0.16542382  1
  I  I112  1  0.00346279  0.49616692  0.50013838  1
  I  I113  1  -0.00317154  0.50660633  0.83415528  1
  I  I114  1  0.00217704  0.82996859  0.16890829  1
  I  I115  1  -0.00234172  0.83213298  0.50312467  1
  I  I116  1  -0.00359645  0.82601143  0.82829222  1
  I  I117  1  0.33355410  0.17109405  0.16340866  1
  I  I118  1  0.33447755  0.16361195  0.50425844  1
  I  I119  1  0.33794492  0.16609956  0.83281698  1
  I  I120  1  0.33069101  0.50240256  0.16929646  1
  I  I121  1  0.33023515  0.50124996  0.49508486  1
  I  I122  1  0.33630028  0.50163920  0.83260292  1
  I  I123  1  0.33404586  0.82732687  0.16735384  1
  I  I124  1  0.33627227  0.83420605  0.50277598  1
  I  I125  1  0.33689381  0.83217929  0.82983125  1
  I  I126  1  0.66630530  0.16527094  0.16932116  1
  I  I127  1  0.66295881  0.16436852  0.50476448  1
  I  I128  1  0.66249252  0.16621129  0.82560337  1
  I  I129  1  0.66898228  0.50229221  0.16405974  1
  I  I130  1  0.66664049  0.49728369  0.49665808  1
  I  I131  1  0.66665144  0.50160645  0.83873058  1
  I  I132  1  0.66395726  0.83257057  0.16659137  1
  I  I133  1  0.66498883  0.83832569  0.49862527  1
  I  I134  1  0.66525198  0.83268333  0.83451553  1
