# generated using pymatgen
data_Cs27Sn14Pb13I81
_symmetry_space_group_name_H-M   'P 1'
_cell_length_a   18.95465874
_cell_length_b   18.96722102
_cell_length_c   18.95933945
_cell_angle_alpha   90.00163923
_cell_angle_beta   90.00046721
_cell_angle_gamma   89.99952125
_symmetry_Int_Tables_number   1
_chemical_formula_structural   Cs27Sn14Pb13I81
_chemical_formula_sum   'Cs27 Sn14 Pb13 I81'
_cell_volume   6816.20866499
_cell_formula_units_Z   1
loop_
 _symmetry_equiv_pos_site_id
 _symmetry_equiv_pos_as_xyz
  1  'x, y, z'
loop_
 _atom_site_type_symbol
 _atom_site_label
 _atom_site_symmetry_multiplicity
 _atom_site_fract_x
 _atom_site_fract_y
 _atom_site_fract_z
 _atom_site_occupancy
  Cs  Cs0  1  0.00107927  -0.00055465  -0.00033526  1
  Cs  Cs1  1  -0.00041314  0.00008891  0.33553839  1
  Cs  Cs2  1  -0.00015532  0.00080874  0.66481742  1
  Cs  Cs3  1  0.00050681  0.33585097  -0.00092788  1
  Cs  Cs4  1  0.00013857  0.33185722  0.33543996  1
  Cs  Cs5  1  0.00147411  0.33129371  0.66496709  1
  Cs  Cs6  1  0.00095096  0.66414451  0.00038495  1
  Cs  Cs7  1  -0.00212449  0.66823504  0.33023018  1
  Cs  Cs8  1  -0.00054498  0.66859734  0.66996270  1
  Cs  Cs9  1  0.33344740  0.00149598  -0.00018985  1
  Cs  Cs10  1  0.33622949  -0.00267145  0.32966561  1
  Cs  Cs11  1  0.33253758  -0.00017204  0.66853902  1
  Cs  Cs12  1  0.33514984  0.33083916  -0.00110136  1
  Cs  Cs13  1  0.33143239  0.33460773  0.33838693  1
  Cs  Cs14  1  0.33265425  0.33335784  0.66500518  1
  Cs  Cs15  1  0.32903552  0.66745895  0.00035297  1
  Cs  Cs16  1  0.33225808  0.66834106  0.33541545  1
  Cs  Cs17  1  0.33560835  0.66643405  0.66471786  1
  Cs  Cs18  1  0.66540238  0.00127121  -0.00033760  1
  Cs  Cs19  1  0.66516017  -0.00083955  0.33161695  1
  Cs  Cs20  1  0.66750332  0.00110067  0.66882053  1
  Cs  Cs21  1  0.66545993  0.33397560  0.00187660  1
  Cs  Cs22  1  0.66797905  0.33534222  0.32951577  1
  Cs  Cs23  1  0.66667601  0.33055130  0.66753626  1
  Cs  Cs24  1  0.66944415  0.66273191  -0.00154412  1
  Cs  Cs25  1  0.66747040  0.66614610  0.33565003  1
  Cs  Cs26  1  0.66551691  0.66748536  0.66451814  1
  Sn  Sn27  1  0.49934925  0.83325232  0.83362003  1
  Sn  Sn28  1  0.83434826  0.16664232  0.16634743  1
  Sn  Sn29  1  0.16745375  0.83409790  0.83253131  1
  Sn  Sn30  1  0.83274102  0.50006425  0.16745798  1
  Sn  Sn31  1  0.49925933  0.16663506  0.83241186  1
  Sn  Sn32  1  0.16590254  0.16680969  0.16609270  1
  Sn  Sn33  1  0.83342316  0.50046501  0.49967744  1
  Sn  Sn34  1  0.16616427  0.83335895  0.50058104  1
  Sn  Sn35  1  0.83315988  0.83331809  0.16711062  1
  Sn  Sn36  1  0.16720246  0.16599006  0.83400742  1
  Sn  Sn37  1  0.50008966  0.16648167  0.50048506  1
  Sn  Sn38  1  0.49989999  0.50031768  0.16624992  1
  Sn  Sn39  1  0.83402700  0.83261525  0.49938732  1
  Sn  Sn40  1  0.49997765  0.50004091  0.83405029  1
  Pb  Pb41  1  0.16867687  0.16448678  0.50007826  1
  Pb  Pb42  1  0.83383080  0.83340827  0.83309512  1
  Pb  Pb43  1  0.16357922  0.50305422  0.50000786  1
  Pb  Pb44  1  0.50238061  0.83047679  0.16399598  1
  Pb  Pb45  1  0.49972821  0.16838964  0.16632398  1
  Pb  Pb46  1  0.16652608  0.49737311  0.16675638  1
  Pb  Pb47  1  0.83131074  0.49981299  0.83300194  1
  Pb  Pb48  1  0.50194559  0.49819612  0.49996609  1
  Pb  Pb49  1  0.83374860  0.16678088  0.83575471  1
  Pb  Pb50  1  0.83142686  0.16633312  0.49774123  1
  Pb  Pb51  1  0.16928692  0.49992353  0.83316152  1
  Pb  Pb52  1  0.50044113  0.83513794  0.50190581  1
  Pb  Pb53  1  0.16470391  0.83526697  0.16629020  1
  I  I54  1  0.16234023  0.00326369  0.16499961  1
  I  I55  1  0.15980750  -0.00327195  0.50188477  1
  I  I56  1  0.17449383  0.00008502  0.83419644  1
  I  I57  1  0.16216684  0.32922394  0.16039655  1
  I  I58  1  0.16627202  0.33297793  0.50057244  1
  I  I59  1  0.17010437  0.32993920  0.83790678  1
  I  I60  1  0.16582951  0.66692997  0.16589402  1
  I  I61  1  0.16733700  0.67123472  0.50553153  1
  I  I62  1  0.16983307  0.66999716  0.82971906  1
  I  I63  1  0.50187575  -0.00003275  0.16621521  1
  I  I64  1  0.50192674  0.00291979  0.50442573  1
  I  I65  1  0.49668816  0.00053660  0.82903207  1
  I  I66  1  0.50673606  0.33605918  0.16097892  1
  I  I67  1  0.50124468  0.33039205  0.50495789  1
  I  I68  1  0.49758411  0.33260687  0.83404815  1
  I  I69  1  0.50540852  0.66259044  0.16254923  1
  I  I70  1  0.49906696  0.66679597  0.50130236  1
  I  I71  1  0.49763416  0.66684257  0.83776669  1
  I  I72  1  0.83746183  -0.00004945  0.16985553  1
  I  I73  1  0.83560582  -0.00295251  0.49622535  1
  I  I74  1  0.82774475  -0.00002161  0.83423217  1
  I  I75  1  0.83215804  0.33390409  0.16963896  1
  I  I76  1  0.82970404  0.33551728  0.49562118  1
  I  I77  1  0.83295025  0.33324858  0.83305819  1
  I  I78  1  0.82846687  0.66635305  0.17057423  1
  I  I79  1  0.83541925  0.66737772  0.49214720  1
  I  I80  1  0.83310788  0.66678955  0.83757874  1
  I  I81  1  0.16875647  0.16115336  -0.00105983  1
  I  I82  1  0.16406505  0.16613220  0.33094305  1
  I  I83  1  0.16997454  0.16444379  0.66963278  1
  I  I84  1  0.16206536  0.50433180  -0.00005441  1
  I  I85  1  0.17278982  0.49874676  0.33329845  1
  I  I86  1  0.16612235  0.49529668  0.66666298  1
  I  I87  1  0.16962047  0.83591524  -0.00294620  1
  I  I88  1  0.16362947  0.83490700  0.33558450  1
  I  I89  1  0.16420369  0.83895348  0.66755674  1
  I  I90  1  0.49930316  0.16546194  -0.00285392  1
  I  I91  1  0.50087548  0.16829366  0.33493143  1
  I  I92  1  0.49582425  0.16875699  0.66873776  1
  I  I93  1  0.50654593  0.49771642  -0.00029918  1
  I  I94  1  0.50356613  0.49652883  0.33082747  1
  I  I95  1  0.50125910  0.50088028  0.66958618  1
  I  I96  1  0.49566298  0.83924695  -0.00412817  1
  I  I97  1  0.49765121  0.83447513  0.33325914  1
  I  I98  1  0.50108436  0.82961646  0.67025028  1
  I  I99  1  0.83169534  0.16664675  0.00419910  1
  I  I100  1  0.83668654  0.16702812  0.32951236  1
  I  I101  1  0.83419154  0.16685531  0.66647134  1
  I  I102  1  0.83096727  0.50073174  0.00333050  1
  I  I103  1  0.82698374  0.50087640  0.33193507  1
  I  I104  1  0.83178508  0.50584919  0.66361779  1
  I  I105  1  0.83242149  0.83259831  0.00285257  1
  I  I106  1  0.83841665  0.83266383  0.33349669  1
  I  I107  1  0.83373301  0.82846105  0.66370179  1
  I  I108  1  -0.00049797  0.16804575  0.16177347  1
  I  I109  1  -0.00004667  0.16826996  0.50208122  1
  I  I110  1  0.00339780  0.16092954  0.83550798  1
  I  I111  1  -0.00362396  0.50160404  0.17051487  1
  I  I112  1  -0.00461335  0.49897491  0.49277958  1
  I  I113  1  0.00008168  0.50032477  0.83426180  1
  I  I114  1  -0.00368008  0.82902042  0.16563300  1
  I  I115  1  -0.00068358  0.83100559  0.50219332  1
  I  I116  1  0.00310981  0.83905499  0.83224002  1
  I  I117  1  0.33110041  0.16753121  0.16487580  1
  I  I118  1  0.33645954  0.16612233  0.49961245  1
  I  I119  1  0.33378645  0.16569408  0.83614950  1
  I  I120  1  0.33623336  0.49726648  0.16113174  1
  I  I121  1  0.33358242  0.50011405  0.49922295  1
  I  I122  1  0.33774013  0.49950267  0.83935428  1
  I  I123  1  0.33335480  0.83383528  0.16932838  1
  I  I124  1  0.33107377  0.83633854  0.50274267  1
  I  I125  1  0.33308711  0.83425972  0.82833675  1
  I  I126  1  0.66914338  0.16596443  0.16714898  1
  I  I127  1  0.66364821  0.16505377  0.50558457  1
  I  I128  1  0.66334091  0.16573677  0.83111924  1
  I  I129  1  0.66780528  0.49733045  0.16561519  1
  I  I130  1  0.66993967  0.50634763  0.49805386  1
  I  I131  1  0.66275496  0.49976259  0.83535209  1
  I  I132  1  0.67068576  0.83847603  0.17133153  1
  I  I133  1  0.66966071  0.83072982  0.49723458  1
  I  I134  1  0.66384995  0.83437195  0.83385358  1
