# generated using pymatgen
data_Cs27Sn14Pb13I81
_symmetry_space_group_name_H-M   'P 1'
_cell_length_a   18.96201488
_cell_length_b   18.96201488
_cell_length_c   18.95719184
_cell_angle_alpha   89.99957066
_cell_angle_beta   90.00042929
_cell_angle_gamma   90.00256094
_symmetry_Int_Tables_number   1
_chemical_formula_structural   Cs27Sn14Pb13I81
_chemical_formula_sum   'Cs27 Sn14 Pb13 I81'
_cell_volume   6816.21013845
_cell_formula_units_Z   1
loop_
 _symmetry_equiv_pos_site_id
 _symmetry_equiv_pos_as_xyz
  1  'x, y, z'
loop_
 _atom_site_type_symbol
 _atom_site_label
 _atom_site_symmetry_multiplicity
 _atom_site_fract_x
 _atom_site_fract_y
 _atom_site_fract_z
 _atom_site_occupancy
  Cs  Cs0  1  -0.00204378  0.00352420  0.00253449  1
  Cs  Cs1  1  0.00274988  -0.00063807  0.33258622  1
  Cs  Cs2  1  -0.00235323  -0.00132840  0.66593035  1
  Cs  Cs3  1  -0.00246007  0.33327061  0.00165370  1
  Cs  Cs4  1  -0.00055822  0.33175434  0.33048702  1
  Cs  Cs5  1  0.00127880  0.33728720  0.66753510  1
  Cs  Cs6  1  0.00321932  0.66344736  0.00034712  1
  Cs  Cs7  1  -0.00154075  0.66820740  0.33539587  1
  Cs  Cs8  1  0.00096649  0.66570017  0.66585547  1
  Cs  Cs9  1  0.33481282  -0.00096842  0.00293632  1
  Cs  Cs10  1  0.32928530  0.00248530  0.33113010  1
  Cs  Cs11  1  0.33358035  0.00201467  0.66563058  1
  Cs  Cs12  1  0.33390575  0.33276101  -0.00601518  1
  Cs  Cs13  1  0.33666025  0.33000635  0.33595494  1
  Cs  Cs14  1  0.33490993  0.33175671  0.66867096  1
  Cs  Cs15  1  0.33339593  0.66912660  0.00165359  1
  Cs  Cs16  1  0.33491235  0.66722484  0.33048701  1
  Cs  Cs17  1  0.32937933  0.66538784  0.66753514  1
  Cs  Cs18  1  0.66541190  0.00125491  -0.00558689  1
  Cs  Cs19  1  0.66847058  -0.00180405  0.33714502  1
  Cs  Cs20  1  0.66901855  -0.00235193  0.66888182  1
  Cs  Cs21  1  0.66763518  0.33185392  0.00293630  1
  Cs  Cs22  1  0.66418136  0.33738132  0.33113012  1
  Cs  Cs23  1  0.66465203  0.33308627  0.66563047  1
  Cs  Cs24  1  0.66314243  0.66871050  0.00253447  1
  Cs  Cs25  1  0.66730473  0.66391669  0.33258621  1
  Cs  Cs26  1  0.66799486  0.66901983  0.66593039  1
  Sn  Sn27  1  0.16677878  0.16521997  0.83300393  1
  Sn  Sn28  1  0.83350221  0.16714579  0.50003153  1
  Sn  Sn29  1  0.16691496  0.49975170  0.16827977  1
  Sn  Sn30  1  0.50144670  0.49988788  0.83300394  1
  Sn  Sn31  1  0.50011287  0.16655380  0.16636211  1
  Sn  Sn32  1  0.16627123  0.50039542  0.49858605  1
  Sn  Sn33  1  0.49950435  0.16716233  0.83402438  1
  Sn  Sn34  1  0.16700656  0.83266397  0.50066913  1
  Sn  Sn35  1  0.16644999  0.83484224  0.83289559  1
  Sn  Sn36  1  0.83328579  0.83338092  0.16681655  1
  Sn  Sn37  1  0.49952085  0.83316454  0.50003157  1
  Sn  Sn38  1  0.83400272  0.49966008  0.50066914  1
  Sn  Sn39  1  0.83182439  0.50021670  0.83289561  1
  Sn  Sn40  1  0.83346600  0.83320060  0.49916286  1
  Pb  Pb41  1  0.83465920  0.50166794  0.16700158  1
  Pb  Pb42  1  0.49974822  0.50194712  0.50181058  1
  Pb  Pb43  1  0.49754568  0.49828455  0.16407421  1
  Pb  Pb44  1  0.49779119  0.83350739  0.83154362  1
  Pb  Pb45  1  0.16668233  0.49998434  0.83271222  1
  Pb  Pb46  1  0.16471952  0.16691843  0.50181055  1
  Pb  Pb47  1  0.83561889  0.83104775  0.83317605  1
  Pb  Pb48  1  0.50208457  0.16458207  0.50067620  1
  Pb  Pb49  1  0.50226214  0.83546178  0.16916664  1
  Pb  Pb50  1  0.16838211  0.16912098  0.16407420  1
  Pb  Pb51  1  0.83120493  0.16440453  0.16916669  1
  Pb  Pb52  1  0.83315929  0.16887545  0.83154362  1
  Pb  Pb53  1  0.16499873  0.83200742  0.16700160  1
  I  I54  1  0.16653509  0.00014779  0.16815142  1
  I  I55  1  0.16524632  -0.00300089  0.50287808  1
  I  I56  1  0.17131631  -0.00027785  0.82750070  1
  I  I57  1  0.16494606  0.33694932  0.17112079  1
  I  I58  1  0.16166902  0.33630170  0.49903730  1
  I  I59  1  0.16829326  0.33155310  0.83304208  1
  I  I60  1  0.16597490  0.66403181  0.16472716  1
  I  I61  1  0.16197673  0.66722575  0.50328270  1
  I  I62  1  0.16603081  0.66851285  0.83128699  1
  I  I63  1  0.49980336  0.00309408  0.15950392  1
  I  I64  1  0.50039803  -0.00338325  0.50193010  1
  I  I65  1  0.49752733  0.00272174  0.83530699  1
  I  I66  1  0.50058847  0.33039123  0.16635173  1
  I  I67  1  0.50059249  0.33330241  0.49919659  1
  I  I68  1  0.49683121  0.33283948  0.83489000  1
  I  I69  1  0.49987228  0.66673096  0.16543622  1
  I  I70  1  0.50391990  0.66987660  0.50223611  1
  I  I71  1  0.50167345  0.66437944  0.83034499  1
  I  I72  1  0.83491167  -0.00344158  0.17266264  1
  I  I73  1  0.83304187  -0.00147080  0.49635585  1
  I  I74  1  0.83181766  -0.00013306  0.83179419  1
  I  I75  1  0.83384093  0.33334513  0.16760694  1
  I  I76  1  0.83777936  0.33480572  0.50567785  1
  I  I77  1  0.83552817  0.33688462  0.82767711  1
  I  I78  1  0.83391405  0.66944067  0.17290528  1
  I  I79  1  0.83467046  0.66683885  0.50051588  1
  I  I80  1  0.83068519  0.66308835  0.82742557  1
  I  I81  1  0.16732771  0.16327402  -0.00413083  1
  I  I82  1  0.16784859  0.16494582  0.33344856  1
  I  I83  1  0.17293842  0.16802676  0.66980510  1
  I  I84  1  0.16639774  0.50026902  0.00118018  1
  I  I85  1  0.16073023  0.50593640  0.33551201  1
  I  I86  1  0.16459716  0.50206953  0.66405336  1
  I  I87  1  0.16515647  0.83348514  -0.00245714  1
  I  I88  1  0.16697112  0.83069001  0.33688264  1
  I  I89  1  0.16447389  0.83042240  0.66514842  1
  I  I90  1  0.49650327  0.17016314  -0.00170371  1
  I  I91  1  0.50223004  0.16443674  0.33165608  1
  I  I92  1  0.49683889  0.16982790  0.66967245  1
  I  I93  1  0.50339242  0.49933908  -0.00413087  1
  I  I94  1  0.50172108  0.49881810  0.33344858  1
  I  I95  1  0.49864003  0.49372823  0.66980509  1
  I  I96  1  0.50015780  0.83156805  -0.00013402  1
  I  I97  1  0.49615772  0.83459312  0.33733236  1
  I  I98  1  0.50535311  0.83507320  0.66352909  1
  I  I99  1  0.83509869  0.16650867  -0.00013400  1
  I  I100  1  0.83207360  0.17050903  0.33733236  1
  I  I101  1  0.83159343  0.16131378  0.66352909  1
  I  I102  1  0.83318156  0.50151068  -0.00245716  1
  I  I103  1  0.83597650  0.49969530  0.33688262  1
  I  I104  1  0.83624429  0.50219258  0.66514843  1
  I  I105  1  0.83556396  0.83110235  0.00193370  1
  I  I106  1  0.83503117  0.83163589  0.33618101  1
  I  I107  1  0.83231466  0.83435199  0.66328954  1
  I  I108  1  -0.00006429  0.16679396  0.16543624  1
  I  I109  1  -0.00320991  0.16274693  0.50223620  1
  I  I110  1  0.00228721  0.16499349  0.83034502  1
  I  I111  1  0.00263484  0.50069222  0.16472718  1
  I  I112  1  -0.00055910  0.50468978  0.50328263  1
  I  I113  1  -0.00184616  0.50063616  0.83128694  1
  I  I114  1  -0.00277404  0.83275277  0.17290471  1
  I  I115  1  -0.00017218  0.83199626  0.50051602  1
  I  I116  1  0.00357839  0.83598112  0.82742593  1
  I  I117  1  0.33627544  0.16607842  0.16635189  1
  I  I118  1  0.33336424  0.16607398  0.49919660  1
  I  I119  1  0.33382715  0.16983507  0.83488993  1
  I  I120  1  0.32971733  0.50171991  0.17112096  1
  I  I121  1  0.33036495  0.50499795  0.49903722  1
  I  I122  1  0.33511354  0.49837370  0.83304200  1
  I  I123  1  0.33332157  0.83282603  0.16760728  1
  I  I124  1  0.33186094  0.82888722  0.50567786  1
  I  I125  1  0.32978204  0.83113880  0.82767672  1
  I  I126  1  0.66357263  0.16686342  0.15950372  1
  I  I127  1  0.67004994  0.16626861  0.50193004  1
  I  I128  1  0.66394493  0.16913960  0.83530718  1
  I  I129  1  0.66651890  0.50013166  0.16815122  1
  I  I130  1  0.66966755  0.50142025  0.50287820  1
  I  I131  1  0.66694451  0.49534991  0.82750086  1
  I  I132  1  0.67010820  0.83175464  0.17266285  1
  I  I133  1  0.66813750  0.83362501  0.49635563  1
  I  I134  1  0.66679971  0.83484914  0.83179426  1
