# generated using pymatgen
data_Cs27Sn13Pb14I81
_symmetry_space_group_name_H-M   'P 1'
_cell_length_a   18.97935177
_cell_length_b   18.98049721
_cell_length_c   18.96957810
_cell_angle_alpha   90.00068182
_cell_angle_beta   89.99770643
_cell_angle_gamma   89.99907918
_symmetry_Int_Tables_number   1
_chemical_formula_structural   Cs27Sn13Pb14I81
_chemical_formula_sum   'Cs27 Sn13 Pb14 I81'
_cell_volume   6833.55401254
_cell_formula_units_Z   1
loop_
 _symmetry_equiv_pos_site_id
 _symmetry_equiv_pos_as_xyz
  1  'x, y, z'
loop_
 _atom_site_type_symbol
 _atom_site_label
 _atom_site_symmetry_multiplicity
 _atom_site_fract_x
 _atom_site_fract_y
 _atom_site_fract_z
 _atom_site_occupancy
  Cs  Cs0  1  0.00096749  0.00258102  -0.00062440  1
  Cs  Cs1  1  0.00042036  -0.00003416  0.33631792  1
  Cs  Cs2  1  0.00068632  -0.00432580  0.66700616  1
  Cs  Cs3  1  -0.00224797  0.33292789  0.00067847  1
  Cs  Cs4  1  0.00254517  0.33006693  0.33024358  1
  Cs  Cs5  1  -0.00517389  0.34369020  0.67048454  1
  Cs  Cs6  1  0.00477931  0.66470922  -0.00057860  1
  Cs  Cs7  1  -0.00377659  0.66984301  0.33809833  1
  Cs  Cs8  1  0.00679168  0.66295163  0.66059956  1
  Cs  Cs9  1  0.33421981  0.00055494  -0.00012287  1
  Cs  Cs10  1  0.33099412  0.00490910  0.33454165  1
  Cs  Cs11  1  0.33350536  -0.00101552  0.66633627  1
  Cs  Cs12  1  0.33398991  0.33257960  0.00155429  1
  Cs  Cs13  1  0.33250444  0.33045010  0.33751934  1
  Cs  Cs14  1  0.33517670  0.33335485  0.65819160  1
  Cs  Cs15  1  0.33378492  0.66703063  0.00030118  1
  Cs  Cs16  1  0.33421509  0.66445627  0.33074519  1
  Cs  Cs17  1  0.32728932  0.66729951  0.66690376  1
  Cs  Cs18  1  0.66559452  -0.00079804  -0.00101569  1
  Cs  Cs19  1  0.66850248  -0.00262635  0.33278700  1
  Cs  Cs20  1  0.66510926  0.00104809  0.66993571  1
  Cs  Cs21  1  0.66711130  0.33244399  -0.00067793  1
  Cs  Cs22  1  0.66594915  0.33324504  0.33418784  1
  Cs  Cs23  1  0.66801606  0.33412932  0.66525246  1
  Cs  Cs24  1  0.66356046  0.66924335  0.00235667  1
  Cs  Cs25  1  0.67019701  0.67000587  0.33330246  1
  Cs  Cs26  1  0.66704121  0.66696901  0.66392038  1
  Sn  Sn27  1  0.83288285  0.49954840  0.16631445  1
  Sn  Sn28  1  0.50024413  0.49901983  0.16589242  1
  Sn  Sn29  1  0.16685626  0.50094036  0.16638130  1
  Sn  Sn30  1  0.50095257  0.16740230  0.16604418  1
  Sn  Sn31  1  0.16753049  0.16705509  0.83301747  1
  Sn  Sn32  1  0.16661070  0.83288128  0.16657844  1
  Sn  Sn33  1  0.49995168  0.49977091  0.83377495  1
  Sn  Sn34  1  0.83338052  0.83259273  0.83351859  1
  Sn  Sn35  1  0.83222010  0.16704199  0.16746484  1
  Sn  Sn36  1  0.83325832  0.16668673  0.49965938  1
  Sn  Sn37  1  0.50071419  0.83303729  0.83228270  1
  Sn  Sn38  1  0.49883822  0.16725639  0.83386876  1
  Sn  Sn39  1  0.49992582  0.83343475  0.50072507  1
  Pb  Pb40  1  0.83290667  0.16555513  0.83366697  1
  Pb  Pb41  1  0.50156607  0.16492673  0.49995256  1
  Pb  Pb42  1  0.83100950  0.50300021  0.83561752  1
  Pb  Pb43  1  0.83305224  0.49771739  0.49718473  1
  Pb  Pb44  1  0.16716507  0.83462508  0.83482694  1
  Pb  Pb45  1  0.83153712  0.83524223  0.50279275  1
  Pb  Pb46  1  0.50008607  0.50244748  0.49956984  1
  Pb  Pb47  1  0.49853959  0.83371785  0.16630526  1
  Pb  Pb48  1  0.83558769  0.83365341  0.16483568  1
  Pb  Pb49  1  0.16339372  0.16684848  0.50387938  1
  Pb  Pb50  1  0.16673771  0.16711288  0.16550341  1
  Pb  Pb51  1  0.16935521  0.83353852  0.49713753  1
  Pb  Pb52  1  0.16940718  0.49744092  0.83531403  1
  Pb  Pb53  1  0.16670648  0.49975937  0.49685372  1
  I  I54  1  0.16782902  -0.00142975  0.16403391  1
  I  I55  1  0.16684918  0.00020432  0.49554383  1
  I  I56  1  0.17167387  0.00246530  0.83833481  1
  I  I57  1  0.16655690  0.33594334  0.16426732  1
  I  I58  1  0.16911133  0.33300342  0.49713824  1
  I  I59  1  0.16965112  0.32969487  0.83725521  1
  I  I60  1  0.16853949  0.66565283  0.16442861  1
  I  I61  1  0.16639392  0.66684134  0.50276208  1
  I  I62  1  0.16744206  0.66628694  0.83450372  1
  I  I63  1  0.50262898  0.00288393  0.16325093  1
  I  I64  1  0.50145554  -0.00271551  0.50368573  1
  I  I65  1  0.50054489  0.00042322  0.83442964  1
  I  I66  1  0.49935668  0.33321771  0.15929976  1
  I  I67  1  0.50096337  0.33321020  0.50196276  1
  I  I68  1  0.49587164  0.33271078  0.84004503  1
  I  I69  1  0.50131517  0.66395736  0.16388664  1
  I  I70  1  0.50094600  0.67021043  0.50316685  1
  I  I71  1  0.50539588  0.66679173  0.83552244  1
  I  I72  1  0.82969610  0.00305378  0.16790109  1
  I  I73  1  0.83207649  0.00294260  0.49204784  1
  I  I74  1  0.82718440  -0.00205733  0.83606104  1
  I  I75  1  0.83443800  0.33285598  0.16908726  1
  I  I76  1  0.83100832  0.32972582  0.50058923  1
  I  I77  1  0.83357336  0.33354353  0.83160752  1
  I  I78  1  0.82980413  0.66396869  0.16342682  1
  I  I79  1  0.83199012  0.66677629  0.49859109  1
  I  I80  1  0.82690110  0.67048149  0.83663239  1
  I  I81  1  0.16717105  0.16559423  -0.00219328  1
  I  I82  1  0.16903989  0.16656135  0.33324389  1
  I  I83  1  0.17427884  0.16345784  0.67146926  1
  I  I84  1  0.16531643  0.50324506  0.00367222  1
  I  I85  1  0.17060911  0.50212650  0.32794629  1
  I  I86  1  0.16757521  0.49910111  0.66715193  1
  I  I87  1  0.16940061  0.83032805  0.00269068  1
  I  I88  1  0.16745918  0.83036024  0.32912952  1
  I  I89  1  0.16490186  0.83575144  0.66680785  1
  I  I90  1  0.50214589  0.16488512  0.00010328  1
  I  I91  1  0.50143671  0.16938264  0.33008332  1
  I  I92  1  0.49832258  0.16809526  0.66995958  1
  I  I93  1  0.50023956  0.50138780  0.00089642  1
  I  I94  1  0.49913374  0.49671292  0.32924931  1
  I  I95  1  0.50055152  0.49662135  0.66999643  1
  I  I96  1  0.50202390  0.83403093  -0.00281495  1
  I  I97  1  0.49769956  0.83376445  0.33486349  1
  I  I98  1  0.50429039  0.83508755  0.66890607  1
  I  I99  1  0.83212446  0.16918741  0.00287468  1
  I  I100  1  0.82775595  0.16963534  0.33101679  1
  I  I101  1  0.83272000  0.16212390  0.66505553  1
  I  I102  1  0.83488414  0.49233084  0.00391248  1
  I  I103  1  0.82985010  0.50056622  0.32844469  1
  I  I104  1  0.83150684  0.49820384  0.66696353  1
  I  I105  1  0.82504978  0.83660552  -0.00262930  1
  I  I106  1  0.83246760  0.83203610  0.33314499  1
  I  I107  1  0.83052790  0.83774412  0.67062257  1
  I  I108  1  -0.00248204  0.16914321  0.16738324  1
  I  I109  1  -0.00408503  0.16490674  0.49168126  1
  I  I110  1  0.00154987  0.16244623  0.83527364  1
  I  I111  1  -0.00032845  0.49886428  0.16707444  1
  I  I112  1  -0.00026279  0.50050215  0.50037251  1
  I  I113  1  0.00008097  0.49918783  0.83558584  1
  I  I114  1  0.00306807  0.83037188  0.16310837  1
  I  I115  1  -0.00009377  0.83450803  0.50086417  1
  I  I116  1  -0.00195681  0.83872204  0.83781628  1
  I  I117  1  0.33624046  0.16832888  0.16354394  1
  I  I118  1  0.33345958  0.16523244  0.49717329  1
  I  I119  1  0.33588494  0.16363148  0.84076540  1
  I  I120  1  0.33443805  0.50090476  0.16206199  1
  I  I121  1  0.33372443  0.49943390  0.49759037  1
  I  I122  1  0.33764573  0.50556270  0.84041966  1
  I  I123  1  0.33100559  0.82992314  0.16437151  1
  I  I124  1  0.33712880  0.83493092  0.50757157  1
  I  I125  1  0.33691666  0.83255739  0.83172207  1
  I  I126  1  0.66594238  0.17284475  0.16420684  1
  I  I127  1  0.66924585  0.16537054  0.49936357  1
  I  I128  1  0.66338863  0.16691844  0.83516788  1
  I  I129  1  0.66579841  0.49481471  0.16259637  1
  I  I130  1  0.66646692  0.50027252  0.49770612  1
  I  I131  1  0.66267013  0.49475578  0.83947001  1
  I  I132  1  0.66652399  0.83162640  0.16771202  1
  I  I133  1  0.66361497  0.83384806  0.50003920  1
  I  I134  1  0.66456542  0.83687693  0.83212158  1
