# generated using pymatgen
data_Cs27Sn14Pb13I81
_symmetry_space_group_name_H-M   'P 1'
_cell_length_a   18.97655086
_cell_length_b   18.97949268
_cell_length_c   18.97452820
_cell_angle_alpha   89.99970414
_cell_angle_beta   90.00085275
_cell_angle_gamma   89.99930512
_symmetry_Int_Tables_number   1
_chemical_formula_structural   Cs27Sn14Pb13I81
_chemical_formula_sum   'Cs27 Sn14 Pb13 I81'
_cell_volume   6833.96679548
_cell_formula_units_Z   1
loop_
 _symmetry_equiv_pos_site_id
 _symmetry_equiv_pos_as_xyz
  1  'x, y, z'
loop_
 _atom_site_type_symbol
 _atom_site_label
 _atom_site_symmetry_multiplicity
 _atom_site_fract_x
 _atom_site_fract_y
 _atom_site_fract_z
 _atom_site_occupancy
  Cs  Cs0  1  -0.00423344  -0.00143896  0.00254033  1
  Cs  Cs1  1  0.00310207  -0.00109947  0.33544473  1
  Cs  Cs2  1  0.00202112  0.00165393  0.66448687  1
  Cs  Cs3  1  -0.00840458  0.34022069  -0.00193216  1
  Cs  Cs4  1  0.00124600  0.33374179  0.33538646  1
  Cs  Cs5  1  0.00134759  0.33404761  0.66756249  1
  Cs  Cs6  1  -0.00657693  0.65956576  0.00887847  1
  Cs  Cs7  1  0.00267823  0.66713632  0.32698402  1
  Cs  Cs8  1  0.00016064  0.66373251  0.66784940  1
  Cs  Cs9  1  0.33365364  -0.00026322  -0.00240019  1
  Cs  Cs10  1  0.33192867  0.00012149  0.33314807  1
  Cs  Cs11  1  0.33357057  0.00014436  0.66754541  1
  Cs  Cs12  1  0.33436817  0.33240109  -0.00096681  1
  Cs  Cs13  1  0.33551876  0.33802526  0.33119519  1
  Cs  Cs14  1  0.33217012  0.33275799  0.66742770  1
  Cs  Cs15  1  0.33081768  0.66822375  -0.00131099  1
  Cs  Cs16  1  0.33269431  0.66171065  0.33076357  1
  Cs  Cs17  1  0.33520419  0.66713490  0.66777170  1
  Cs  Cs18  1  0.67128783  0.00138629  0.00121828  1
  Cs  Cs19  1  0.66539284  0.00117586  0.33566050  1
  Cs  Cs20  1  0.66533778  -0.00144853  0.66620433  1
  Cs  Cs21  1  0.67161524  0.33252453  0.00942845  1
  Cs  Cs22  1  0.66421020  0.33475408  0.32747481  1
  Cs  Cs23  1  0.66582638  0.33221642  0.66595458  1
  Cs  Cs24  1  0.67329894  0.66766716  -0.00090409  1
  Cs  Cs25  1  0.66471051  0.66400489  0.33502719  1
  Cs  Cs26  1  0.66443739  0.66910031  0.66586732  1
  Sn  Sn27  1  0.16668792  0.16667998  0.16593143  1
  Sn  Sn28  1  0.83328728  0.50006089  0.50057654  1
  Sn  Sn29  1  0.16712631  0.83377209  0.50094959  1
  Sn  Sn30  1  0.49927302  0.83394601  0.49970229  1
  Sn  Sn31  1  0.16662735  0.83389127  0.83298421  1
  Sn  Sn32  1  0.16702737  0.16563125  0.83373108  1
  Sn  Sn33  1  0.49973771  0.16670749  0.83289422  1
  Sn  Sn34  1  0.83372466  0.83302928  0.50048503  1
  Sn  Sn35  1  0.49988174  0.83370537  0.16652413  1
  Sn  Sn36  1  0.50019496  0.49959214  0.83325888  1
  Sn  Sn37  1  0.49939378  0.83368016  0.83358525  1
  Sn  Sn38  1  0.49962167  0.16616454  0.50051632  1
  Sn  Sn39  1  0.83302382  0.16689181  0.50042765  1
  Sn  Sn40  1  0.16735032  0.16602268  0.50004083  1
  Pb  Pb41  1  0.83644135  0.16625085  0.16987659  1
  Pb  Pb42  1  0.16475728  0.50038863  0.50019957  1
  Pb  Pb43  1  0.49983609  0.50315535  0.16312030  1
  Pb  Pb44  1  0.83309288  0.49999248  0.16996745  1
  Pb  Pb45  1  0.83036255  0.49997303  0.83094570  1
  Pb  Pb46  1  0.16705646  0.49655913  0.16635953  1
  Pb  Pb47  1  0.16837288  0.50034799  0.83316749  1
  Pb  Pb48  1  0.83343413  0.16647130  0.83122522  1
  Pb  Pb49  1  0.83052127  0.83374917  0.16997647  1
  Pb  Pb50  1  0.83424338  0.83341966  0.83120110  1
  Pb  Pb51  1  0.49820238  0.16479720  0.16648544  1
  Pb  Pb52  1  0.16849400  0.83492199  0.16612313  1
  Pb  Pb53  1  0.50147218  0.49976475  0.50156409  1
  I  I54  1  0.16813021  0.00277752  0.16916489  1
  I  I55  1  0.16323971  0.00044853  0.50039079  1
  I  I56  1  0.17562013  0.00043739  0.83021133  1
  I  I57  1  0.16896570  0.32824791  0.16966278  1
  I  I58  1  0.16648086  0.32946879  0.50078407  1
  I  I59  1  0.17122292  0.32954359  0.83101459  1
  I  I60  1  0.16730116  0.66702419  0.16755953  1
  I  I61  1  0.16764632  0.67065658  0.50490305  1
  I  I62  1  0.17276837  0.67054099  0.82585443  1
  I  I63  1  0.49903534  -0.00296438  0.16481013  1
  I  I64  1  0.50358339  -0.00034521  0.50364138  1
  I  I65  1  0.49547943  -0.00022473  0.83082810  1
  I  I66  1  0.49903931  0.33316418  0.16758544  1
  I  I67  1  0.49965878  0.32979389  0.50448451  1
  I  I68  1  0.49519264  0.33145101  0.82585772  1
  I  I69  1  0.49865477  0.67112053  0.17128728  1
  I  I70  1  0.50081364  0.67015637  0.50108852  1
  I  I71  1  0.49646494  0.66872038  0.83164277  1
  I  I72  1  0.83250024  0.00001704  0.16775449  1
  I  I73  1  0.83292953  0.00001271  0.49998529  1
  I  I74  1  0.82802769  -0.00005124  0.83135698  1
  I  I75  1  0.83280761  0.33299567  0.16903171  1
  I  I76  1  0.83383491  0.33204304  0.50110719  1
  I  I77  1  0.83430100  0.33309485  0.82854612  1
  I  I78  1  0.83388247  0.66698133  0.16871927  1
  I  I79  1  0.83114631  0.66796991  0.50128494  1
  I  I80  1  0.83236486  0.66686579  0.82854393  1
  I  I81  1  0.17518616  0.16181262  -0.00169006  1
  I  I82  1  0.16534118  0.16213998  0.33550729  1
  I  I83  1  0.16720128  0.16312277  0.66597737  1
  I  I84  1  0.16740528  0.50148724  -0.00032052  1
  I  I85  1  0.16640602  0.50068637  0.33356197  1
  I  I86  1  0.16554433  0.49562782  0.66660916  1
  I  I87  1  0.17475242  0.83893440  -0.00337977  1
  I  I88  1  0.16647272  0.83777588  0.33664282  1
  I  I89  1  0.17123263  0.84078644  0.66573845  1
  I  I90  1  0.49425775  0.16551374  -0.00343792  1
  I  I91  1  0.50020484  0.16194850  0.33677079  1
  I  I92  1  0.49677238  0.16280645  0.66604153  1
  I  I93  1  0.49844906  0.49729497  -0.00477541  1
  I  I94  1  0.50223295  0.49984109  0.33327804  1
  I  I95  1  0.50075144  0.50439588  0.66931417  1
  I  I96  1  0.49332946  0.83322803  -0.00176921  1
  I  I97  1  0.50114345  0.83886924  0.33551352  1
  I  I98  1  0.50042611  0.83355932  0.66625409  1
  I  I99  1  0.83254776  0.16834846  0.00010844  1
  I  I100  1  0.83116884  0.16579029  0.33873288  1
  I  I101  1  0.83681918  0.16530378  0.66237013  1
  I  I102  1  0.83317760  0.49998247  0.00003286  1
  I  I103  1  0.83111916  0.49977390  0.33806736  1
  I  I104  1  0.83396598  0.49992904  0.66290884  1
  I  I105  1  0.83298394  0.83189350  0.00010743  1
  I  I106  1  0.83491413  0.83443694  0.33876925  1
  I  I107  1  0.82786801  0.83487743  0.66239331  1
  I  I108  1  0.00438764  0.16438360  0.16630255  1
  I  I109  1  0.00082771  0.16389420  0.49954561  1
  I  I110  1  0.00379885  0.16136875  0.83149652  1
  I  I111  1  -0.00008728  0.50140368  0.16602186  1
  I  I112  1  -0.00334725  0.49905030  0.50050294  1
  I  I113  1  -0.00018066  0.49942600  0.83302681  1
  I  I114  1  0.00012398  0.83393552  0.16710069  1
  I  I115  1  0.00088421  0.83718061  0.50484182  1
  I  I116  1  0.00390815  0.84027127  0.82684001  1
  I  I117  1  0.33055437  0.16453568  0.17249442  1
  I  I118  1  0.33329077  0.15971969  0.50107238  1
  I  I119  1  0.33375437  0.16607366  0.82789537  1
  I  I120  1  0.33377356  0.50047856  0.17022850  1
  I  I121  1  0.33348696  0.49973085  0.50036303  1
  I  I122  1  0.33649125  0.50051893  0.83034967  1
  I  I123  1  0.33628868  0.83494184  0.17162603  1
  I  I124  1  0.33386159  0.84046670  0.50114816  1
  I  I125  1  0.33447245  0.83390735  0.82802217  1
  I  I126  1  0.66661900  0.16668277  0.16680671  1
  I  I127  1  0.66564275  0.16307408  0.50531455  1
  I  I128  1  0.66293832  0.16490337  0.82761495  1
  I  I129  1  0.66633927  0.49854948  0.16648766  1
  I  I130  1  0.66944407  0.50064561  0.50257665  1
  I  I131  1  0.66227670  0.50175974  0.83104670  1
  I  I132  1  0.66243563  0.83447730  0.16463430  1
  I  I133  1  0.66558446  0.83598377  0.50009482  1
  I  I134  1  0.66303554  0.83375957  0.83199200  1
