# generated using pymatgen
data_Cs27Sn13Pb14I81
_symmetry_space_group_name_H-M   'P 1'
_cell_length_a   18.98117347
_cell_length_b   18.97633139
_cell_length_c   18.97189832
_cell_angle_alpha   89.99646511
_cell_angle_beta   90.00007049
_cell_angle_gamma   90.00035325
_symmetry_Int_Tables_number   1
_chemical_formula_structural   Cs27Sn13Pb14I81
_chemical_formula_sum   'Cs27 Sn13 Pb14 I81'
_cell_volume   6833.54568106
_cell_formula_units_Z   1
loop_
 _symmetry_equiv_pos_site_id
 _symmetry_equiv_pos_as_xyz
  1  'x, y, z'
loop_
 _atom_site_type_symbol
 _atom_site_label
 _atom_site_symmetry_multiplicity
 _atom_site_fract_x
 _atom_site_fract_y
 _atom_site_fract_z
 _atom_site_occupancy
  Cs  Cs0  1  -0.00449779  0.00245113  -0.00225406  1
  Cs  Cs1  1  -0.00099678  0.00001333  0.33599406  1
  Cs  Cs2  1  0.00046424  -0.00027514  0.66664805  1
  Cs  Cs3  1  0.00098222  0.33298279  0.00005002  1
  Cs  Cs4  1  -0.00239967  0.33443498  0.33336203  1
  Cs  Cs5  1  -0.00006726  0.33361301  0.66621430  1
  Cs  Cs6  1  -0.00100333  0.66627680  0.00063384  1
  Cs  Cs7  1  0.00144235  0.66577533  0.33413293  1
  Cs  Cs8  1  0.00170248  0.66643084  0.66556204  1
  Cs  Cs9  1  0.33395652  0.00728526  0.00729454  1
  Cs  Cs10  1  0.33687566  0.00061005  0.33008790  1
  Cs  Cs11  1  0.33124107  -0.00439267  0.66469264  1
  Cs  Cs12  1  0.33375389  0.32667813  0.00051199  1
  Cs  Cs13  1  0.33463158  0.32943161  0.33056311  1
  Cs  Cs14  1  0.34023345  0.33333287  0.66865363  1
  Cs  Cs15  1  0.33277164  0.66553152  -0.00097277  1
  Cs  Cs16  1  0.32887037  0.66889979  0.33089233  1
  Cs  Cs17  1  0.33271763  0.66892848  0.66813284  1
  Cs  Cs18  1  0.67111254  -0.00088707  0.00131589  1
  Cs  Cs19  1  0.66536075  0.00072966  0.33138434  1
  Cs  Cs20  1  0.66770751  -0.00034608  0.66838650  1
  Cs  Cs21  1  0.66611501  0.33537371  -0.00190192  1
  Cs  Cs22  1  0.66850981  0.33460207  0.33495933  1
  Cs  Cs23  1  0.65721003  0.33667723  0.66750402  1
  Cs  Cs24  1  0.66789833  0.66698055  0.00149263  1
  Cs  Cs25  1  0.66782953  0.66489472  0.33242051  1
  Cs  Cs26  1  0.66375361  0.66457851  0.66615837  1
  Sn  Sn27  1  0.83360098  0.16758257  0.16734290  1
  Sn  Sn28  1  0.16593813  0.50048298  0.83240606  1
  Sn  Sn29  1  0.83322159  0.83383832  0.50001030  1
  Sn  Sn30  1  0.16668332  0.83343938  0.50045035  1
  Sn  Sn31  1  0.83375985  0.16625668  0.49972529  1
  Sn  Sn32  1  0.16620940  0.16674646  0.50030404  1
  Sn  Sn33  1  0.50031318  0.50024953  0.16671535  1
  Sn  Sn34  1  0.49897998  0.83344320  0.83326953  1
  Sn  Sn35  1  0.83397127  0.50012498  0.83360929  1
  Sn  Sn36  1  0.49998743  0.83307906  0.50050072  1
  Sn  Sn37  1  0.83273138  0.49928204  0.16585406  1
  Sn  Sn38  1  0.16682527  0.49959375  0.50091228  1
  Sn  Sn39  1  0.16743398  0.83287277  0.83312048  1
  Pb  Pb40  1  0.49995686  0.16279011  0.83327607  1
  Pb  Pb41  1  0.83352430  0.83305735  0.16917902  1
  Pb  Pb42  1  0.83330213  0.16957641  0.83219267  1
  Pb  Pb43  1  0.16648228  0.83358047  0.16585123  1
  Pb  Pb44  1  0.83466787  0.49967410  0.50022682  1
  Pb  Pb45  1  0.49996175  0.83150264  0.16622296  1
  Pb  Pb46  1  0.50319113  0.16929289  0.16684109  1
  Pb  Pb47  1  0.50032670  0.16410560  0.50019253  1
  Pb  Pb48  1  0.16627042  0.49997569  0.16602364  1
  Pb  Pb49  1  0.16376722  0.16661120  0.16943585  1
  Pb  Pb50  1  0.49650708  0.50250361  0.49785618  1
  Pb  Pb51  1  0.16666451  0.16647048  0.83083197  1
  Pb  Pb52  1  0.83370574  0.83113907  0.83088962  1
  Pb  Pb53  1  0.49914044  0.50187141  0.83522158  1
  I  I54  1  0.16584121  0.00019683  0.16638539  1
  I  I55  1  0.16496848  -0.00112650  0.50351408  1
  I  I56  1  0.17026105  -0.00358406  0.82817239  1
  I  I57  1  0.16917399  0.33352358  0.16740424  1
  I  I58  1  0.15949273  0.33353259  0.50228595  1
  I  I59  1  0.16166241  0.33668329  0.82977887  1
  I  I60  1  0.16389131  0.66644474  0.17299918  1
  I  I61  1  0.16578841  0.66739974  0.50310153  1
  I  I62  1  0.16627760  0.66661643  0.82502707  1
  I  I63  1  0.50059646  0.00005301  0.16666097  1
  I  I64  1  0.49576211  -0.00421967  0.50283234  1
  I  I65  1  0.49443320  -0.00546650  0.82815305  1
  I  I66  1  0.50053632  0.33717523  0.16663016  1
  I  I67  1  0.50023753  0.33364448  0.49847504  1
  I  I68  1  0.50019794  0.33374824  0.83463896  1
  I  I69  1  0.50764719  0.66376305  0.16769307  1
  I  I70  1  0.50194517  0.67057082  0.50331900  1
  I  I71  1  0.49869044  0.66967246  0.82862935  1
  I  I72  1  0.83465035  0.00280774  0.16960766  1
  I  I73  1  0.83809769  -0.00013621  0.49494421  1
  I  I74  1  0.83324837  -0.00020996  0.83646992  1
  I  I75  1  0.83003340  0.33407005  0.17028698  1
  I  I76  1  0.83990574  0.33093588  0.49783490  1
  I  I77  1  0.83973273  0.33765003  0.83338730  1
  I  I78  1  0.83000607  0.66337998  0.16445319  1
  I  I79  1  0.83483884  0.66904613  0.50016850  1
  I  I80  1  0.83511912  0.66326181  0.83791369  1
  I  I81  1  0.16615799  0.16664432  -0.00008186  1
  I  I82  1  0.16515005  0.16653063  0.33804188  1
  I  I83  1  0.15847954  0.16548864  0.66244288  1
  I  I84  1  0.16501472  0.50675363  -0.00341522  1
  I  I85  1  0.16594616  0.50205112  0.33637073  1
  I  I86  1  0.15999174  0.50200528  0.66662627  1
  I  I87  1  0.17130786  0.82587940  -0.00419050  1
  I  I88  1  0.16709427  0.83147867  0.33745098  1
  I  I89  1  0.16721606  0.83214786  0.66525897  1
  I  I90  1  0.50072915  0.16450453  0.00029726  1
  I  I91  1  0.49697027  0.16404995  0.33356808  1
  I  I92  1  0.50368961  0.17188817  0.66632237  1
  I  I93  1  0.50131997  0.50354088  0.00278300  1
  I  I94  1  0.50667757  0.50205460  0.33045487  1
  I  I95  1  0.50349736  0.49892937  0.66668313  1
  I  I96  1  0.49489720  0.83050204  -0.00327664  1
  I  I97  1  0.49864618  0.83236940  0.33654371  1
  I  I98  1  0.49868365  0.83194553  0.66569071  1
  I  I99  1  0.83199205  0.16895781  0.00258407  1
  I  I100  1  0.83773269  0.16886588  0.33425821  1
  I  I101  1  0.83868551  0.16217896  0.66288761  1
  I  I102  1  0.83530312  0.49588746  0.00038787  1
  I  I103  1  0.83148380  0.49943625  0.33124903  1
  I  I104  1  0.83682732  0.50146628  0.66886006  1
  I  I105  1  0.83298100  0.83553628  -0.00031126  1
  I  I106  1  0.83438954  0.83192533  0.33775377  1
  I  I107  1  0.83441120  0.83768200  0.66265354  1
  I  I108  1  -0.00404515  0.17405882  0.16856423  1
  I  I109  1  -0.00008489  0.16172365  0.49621856  1
  I  I110  1  -0.00010732  0.16231182  0.83557457  1
  I  I111  1  -0.00308157  0.49625896  0.16616139  1
  I  I112  1  0.00277043  0.50489421  0.49896165  1
  I  I113  1  0.00070800  0.50565690  0.83505536  1
  I  I114  1  -0.00026810  0.83002417  0.16739364  1
  I  I115  1  0.00089790  0.83396726  0.50269183  1
  I  I116  1  0.00299117  0.83069929  0.82825258  1
  I  I117  1  0.33341393  0.16789214  0.16742574  1
  I  I118  1  0.33015681  0.16649536  0.50148443  1
  I  I119  1  0.33309573  0.17271075  0.83200459  1
  I  I120  1  0.33537784  0.50343369  0.16836774  1
  I  I121  1  0.32845656  0.49954980  0.50465789  1
  I  I122  1  0.33010387  0.50306257  0.82988521  1
  I  I123  1  0.33334454  0.83002466  0.17194340  1
  I  I124  1  0.33223268  0.83224859  0.50406101  1
  I  I125  1  0.33217057  0.82571223  0.82282564  1
  I  I126  1  0.67098560  0.16779557  0.17487220  1
  I  I127  1  0.67016221  0.16215663  0.49553037  1
  I  I128  1  0.66697778  0.16724791  0.83082387  1
  I  I129  1  0.66842499  0.49730944  0.16197639  1
  I  I130  1  0.66652563  0.50072891  0.50180556  1
  I  I131  1  0.66880379  0.50107443  0.83570391  1
  I  I132  1  0.66686095  0.83408491  0.16724502  1
  I  I133  1  0.66688807  0.83754808  0.50320987  1
  I  I134  1  0.66462697  0.83144161  0.82826187  1
