# generated using pymatgen
data_Cs27Sn13Pb14I81
_symmetry_space_group_name_H-M   'P 1'
_cell_length_a   18.97031220
_cell_length_b   18.97584286
_cell_length_c   18.98470491
_cell_angle_alpha   90.00032540
_cell_angle_beta   89.99835600
_cell_angle_gamma   89.99962390
_symmetry_Int_Tables_number   1
_chemical_formula_structural   Cs27Sn13Pb14I81
_chemical_formula_sum   'Cs27 Sn13 Pb14 I81'
_cell_volume   6834.06970993
_cell_formula_units_Z   1
loop_
 _symmetry_equiv_pos_site_id
 _symmetry_equiv_pos_as_xyz
  1  'x, y, z'
loop_
 _atom_site_type_symbol
 _atom_site_label
 _atom_site_symmetry_multiplicity
 _atom_site_fract_x
 _atom_site_fract_y
 _atom_site_fract_z
 _atom_site_occupancy
  Cs  Cs0  1  0.00055857  0.00099815  -0.00013476  1
  Cs  Cs1  1  0.00230363  0.00007487  0.33749864  1
  Cs  Cs2  1  0.00037022  -0.00203243  0.66390895  1
  Cs  Cs3  1  -0.00001446  0.33506184  0.00068473  1
  Cs  Cs4  1  -0.00102338  0.33300349  0.33212131  1
  Cs  Cs5  1  -0.00189381  0.33633286  0.66806101  1
  Cs  Cs6  1  0.00137079  0.66438435  -0.00183998  1
  Cs  Cs7  1  0.00112658  0.66609218  0.33442586  1
  Cs  Cs8  1  -0.00079313  0.66568215  0.66733844  1
  Cs  Cs9  1  0.33333141  0.00053678  -0.00077424  1
  Cs  Cs10  1  0.32855199  0.00760113  0.33353444  1
  Cs  Cs11  1  0.33340551  -0.00130152  0.66647221  1
  Cs  Cs12  1  0.33370518  0.32947818  0.00051831  1
  Cs  Cs13  1  0.33813991  0.33000117  0.33412471  1
  Cs  Cs14  1  0.33864520  0.33276277  0.66594200  1
  Cs  Cs15  1  0.33177382  0.66705618  -0.00120039  1
  Cs  Cs16  1  0.33495458  0.66452185  0.33278013  1
  Cs  Cs17  1  0.33377113  0.66773445  0.66780903  1
  Cs  Cs18  1  0.66505853  -0.00214190  0.00150635  1
  Cs  Cs19  1  0.66896474  -0.00505675  0.32758360  1
  Cs  Cs20  1  0.66584259  -0.00031429  0.66838304  1
  Cs  Cs21  1  0.66735617  0.33077447  0.00032291  1
  Cs  Cs22  1  0.66742015  0.33657547  0.33638247  1
  Cs  Cs23  1  0.66574083  0.33151810  0.66419915  1
  Cs  Cs24  1  0.66608639  0.67112434  0.00052587  1
  Cs  Cs25  1  0.66369998  0.66590221  0.32965616  1
  Cs  Cs26  1  0.66520079  0.66869122  0.66869847  1
  Sn  Sn27  1  0.50011206  0.50056253  0.83369126  1
  Sn  Sn28  1  0.49899044  0.83231262  0.83253962  1
  Sn  Sn29  1  0.83345940  0.16701867  0.49988402  1
  Sn  Sn30  1  0.16695475  0.83398866  0.83387762  1
  Sn  Sn31  1  0.16621356  0.50046164  0.16767048  1
  Sn  Sn32  1  0.16652976  0.83274970  0.16620912  1
  Sn  Sn33  1  0.83411683  0.49971192  0.49943134  1
  Sn  Sn34  1  0.16575666  0.16602052  0.83295132  1
  Sn  Sn35  1  0.83438042  0.16642692  0.83326716  1
  Sn  Sn36  1  0.83413875  0.49952561  0.16720612  1
  Sn  Sn37  1  0.16645516  0.49986824  0.49926441  1
  Sn  Sn38  1  0.49973409  0.83348940  0.50014600  1
  Sn  Sn39  1  0.83384934  0.16743967  0.16686749  1
  Pb  Pb40  1  0.50318765  0.16681396  0.16694170  1
  Pb  Pb41  1  0.83368050  0.83582236  0.83336073  1
  Pb  Pb42  1  0.50298321  0.16371222  0.49985246  1
  Pb  Pb43  1  0.16461209  0.16955622  0.50264223  1
  Pb  Pb44  1  0.16842089  0.83123562  0.50013022  1
  Pb  Pb45  1  0.83115068  0.83248619  0.49991129  1
  Pb  Pb46  1  0.83633040  0.83260858  0.16667716  1
  Pb  Pb47  1  0.50000389  0.49994460  0.16419688  1
  Pb  Pb48  1  0.16470991  0.16725727  0.16496806  1
  Pb  Pb49  1  0.50039674  0.50156774  0.50170084  1
  Pb  Pb50  1  0.49992717  0.16588371  0.83333420  1
  Pb  Pb51  1  0.49669487  0.83336949  0.16648711  1
  Pb  Pb52  1  0.16823220  0.49985474  0.83346304  1
  Pb  Pb53  1  0.83099741  0.49805901  0.83353598  1
  I  I54  1  0.16641242  -0.00219519  0.16312940  1
  I  I55  1  0.16626562  0.00009707  0.49808195  1
  I  I56  1  0.16857811  -0.00095273  0.83887845  1
  I  I57  1  0.16376127  0.33642203  0.16774628  1
  I  I58  1  0.16575303  0.33744548  0.49542731  1
  I  I59  1  0.16382083  0.33112414  0.83360027  1
  I  I60  1  0.16111846  0.66582157  0.16358857  1
  I  I61  1  0.16014473  0.66335388  0.50140558  1
  I  I62  1  0.17029182  0.66907208  0.83454619  1
  I  I63  1  0.50120817  -0.00025822  0.16409692  1
  I  I64  1  0.49978943  -0.00390458  0.50872715  1
  I  I65  1  0.49906037  -0.00322804  0.82969708  1
  I  I66  1  0.49439141  0.33366746  0.16313319  1
  I  I67  1  0.49869160  0.33348138  0.50264832  1
  I  I68  1  0.49971809  0.33529382  0.83360951  1
  I  I69  1  0.50558713  0.66670470  0.16716393  1
  I  I70  1  0.50181734  0.66929021  0.50407197  1
  I  I71  1  0.49482664  0.66796069  0.82982026  1
  I  I72  1  0.83309222  0.00291848  0.16655871  1
  I  I73  1  0.83118009  0.00297629  0.50009560  1
  I  I74  1  0.83239193  0.00425862  0.83351919  1
  I  I75  1  0.83930129  0.33391247  0.16641866  1
  I  I76  1  0.83658830  0.33377864  0.49982510  1
  I  I77  1  0.83792270  0.33000542  0.83362820  1
  I  I78  1  0.83454286  0.66306277  0.17194999  1
  I  I79  1  0.83603386  0.66289414  0.49526972  1
  I  I80  1  0.83467112  0.66650105  0.83301926  1
  I  I81  1  0.16123160  0.16736884  -0.00302519  1
  I  I82  1  0.16551841  0.16270980  0.33340510  1
  I  I83  1  0.16127018  0.16178600  0.67047226  1
  I  I84  1  0.16294113  0.50122843  0.00251502  1
  I  I85  1  0.16231819  0.50644376  0.33259208  1
  I  I86  1  0.16286674  0.49986369  0.66456317  1
  I  I87  1  0.17141359  0.83139498  -0.00099925  1
  I  I88  1  0.16704368  0.83065000  0.33088590  1
  I  I89  1  0.16926472  0.83581826  0.66959918  1
  I  I90  1  0.50283230  0.16546712  -0.00035821  1
  I  I91  1  0.49867364  0.16497274  0.33361721  1
  I  I92  1  0.50304055  0.16908292  0.66681401  1
  I  I93  1  0.49976887  0.50638699  -0.00359051  1
  I  I94  1  0.50032885  0.50229650  0.33339288  1
  I  I95  1  0.49920867  0.50207561  0.66953451  1
  I  I96  1  0.49853309  0.83010765  -0.00328101  1
  I  I97  1  0.50190646  0.83261843  0.33573429  1
  I  I98  1  0.49504126  0.82947206  0.66846305  1
  I  I99  1  0.83703777  0.17083957  0.00006393  1
  I  I100  1  0.83181374  0.17146779  0.33328512  1
  I  I101  1  0.83650177  0.17066897  0.66662283  1
  I  I102  1  0.83715363  0.49566699  0.00284891  1
  I  I103  1  0.83659956  0.49189675  0.33331979  1
  I  I104  1  0.83666993  0.49576856  0.66397062  1
  I  I105  1  0.82872487  0.83348192  -0.00002814  1
  I  I106  1  0.83211305  0.83893244  0.33327267  1
  I  I107  1  0.83693306  0.83327027  0.66671686  1
  I  I108  1  -0.00353913  0.16807862  0.16749060  1
  I  I109  1  -0.00371916  0.16672904  0.49815820  1
  I  I110  1  -0.00028841  0.16194774  0.83377174  1
  I  I111  1  -0.00012739  0.49992598  0.16925781  1
  I  I112  1  -0.00068388  0.49743743  0.49751586  1
  I  I113  1  -0.00005172  0.50191349  0.83281518  1
  I  I114  1  0.00405669  0.83167695  0.16009306  1
  I  I115  1  0.00017957  0.83472962  0.50071729  1
  I  I116  1  0.00341807  0.83529231  0.83725025  1
  I  I117  1  0.33266743  0.16676316  0.16350188  1
  I  I118  1  0.33307677  0.16817419  0.50252674  1
  I  I119  1  0.33052951  0.16604336  0.83439838  1
  I  I120  1  0.32986425  0.50517636  0.16938159  1
  I  I121  1  0.33084199  0.50294629  0.49748184  1
  I  I122  1  0.33583675  0.49990582  0.83251996  1
  I  I123  1  0.32894259  0.82632737  0.16397667  1
  I  I124  1  0.33607633  0.82972976  0.50334601  1
  I  I125  1  0.33275207  0.83509383  0.83351408  1
  I  I126  1  0.67210496  0.17200984  0.16301091  1
  I  I127  1  0.67138980  0.17441569  0.50360488  1
  I  I128  1  0.66979321  0.16781043  0.83353313  1
  I  I129  1  0.67019019  0.49489461  0.17045184  1
  I  I130  1  0.66999598  0.49647318  0.49701186  1
  I  I131  1  0.66347689  0.50496963  0.83272790  1
  I  I132  1  0.66669229  0.83403985  0.16564305  1
  I  I133  1  0.66340766  0.83264960  0.50806124  1
  I  I134  1  0.66373384  0.83079608  0.82943795  1
