# generated using pymatgen
data_Cs27Sn14Pb13I81
_symmetry_space_group_name_H-M   'P 1'
_cell_length_a   18.98580074
_cell_length_b   18.98094240
_cell_length_c   18.95888059
_cell_angle_alpha   90.00132639
_cell_angle_beta   90.00077750
_cell_angle_gamma   89.99989845
_symmetry_Int_Tables_number   1
_chemical_formula_structural   Cs27Sn14Pb13I81
_chemical_formula_sum   'Cs27 Sn14 Pb13 I81'
_cell_volume   6832.18127694
_cell_formula_units_Z   1
loop_
 _symmetry_equiv_pos_site_id
 _symmetry_equiv_pos_as_xyz
  1  'x, y, z'
loop_
 _atom_site_type_symbol
 _atom_site_label
 _atom_site_symmetry_multiplicity
 _atom_site_fract_x
 _atom_site_fract_y
 _atom_site_fract_z
 _atom_site_occupancy
  Cs  Cs0  1  0.00273582  0.00163526  0.00262121  1
  Cs  Cs1  1  -0.00038805  -0.00119960  0.33368795  1
  Cs  Cs2  1  -0.00191014  -0.00129395  0.66579374  1
  Cs  Cs3  1  0.00538293  0.33878685  0.00838459  1
  Cs  Cs4  1  -0.00074618  0.33094859  0.32975855  1
  Cs  Cs5  1  -0.00185496  0.33477358  0.66552962  1
  Cs  Cs6  1  -0.00071510  0.66091351  -0.01120098  1
  Cs  Cs7  1  0.00117338  0.67258041  0.33621562  1
  Cs  Cs8  1  -0.00112024  0.66651492  0.66975564  1
  Cs  Cs9  1  0.33577413  0.00103926  -0.01152658  1
  Cs  Cs10  1  0.33298876  -0.00184140  0.33466666  1
  Cs  Cs11  1  0.33427957  0.00219082  0.66989534  1
  Cs  Cs12  1  0.32399308  0.33240761  -0.00082042  1
  Cs  Cs13  1  0.33391131  0.33374657  0.33398518  1
  Cs  Cs14  1  0.33632990  0.33221346  0.66599861  1
  Cs  Cs15  1  0.33527856  0.66669300  0.00358110  1
  Cs  Cs16  1  0.33404909  0.66813678  0.33282663  1
  Cs  Cs17  1  0.33208183  0.66435273  0.66471203  1
  Cs  Cs18  1  0.66268306  -0.00195474  -0.00348342  1
  Cs  Cs19  1  0.66801597  0.00009629  0.33407707  1
  Cs  Cs20  1  0.66712282  0.00243154  0.66683805  1
  Cs  Cs21  1  0.67029956  0.33514040  0.00447869  1
  Cs  Cs22  1  0.66707309  0.33156510  0.33317779  1
  Cs  Cs23  1  0.66492339  0.33203112  0.66522433  1
  Cs  Cs24  1  0.66554191  0.66596715  0.00056308  1
  Cs  Cs25  1  0.66479397  0.66814632  0.33282848  1
  Cs  Cs26  1  0.66885173  0.66425656  0.66604603  1
  Sn  Sn27  1  0.83335817  0.49996837  0.49960185  1
  Sn  Sn28  1  0.49974689  0.16651066  0.16721686  1
  Sn  Sn29  1  0.49993340  0.16649648  0.49913374  1
  Sn  Sn30  1  0.50013550  0.49997420  0.50024619  1
  Sn  Sn31  1  0.16648093  0.49996968  0.49972244  1
  Sn  Sn32  1  0.83434293  0.83322277  0.16711258  1
  Sn  Sn33  1  0.16655550  0.16650007  0.49994620  1
  Sn  Sn34  1  0.16570889  0.83345448  0.16716290  1
  Sn  Sn35  1  0.16669861  0.83353086  0.49998665  1
  Sn  Sn36  1  0.83383474  0.16701644  0.83325993  1
  Sn  Sn37  1  0.83349355  0.16669661  0.50059644  1
  Sn  Sn38  1  0.50004993  0.83350666  0.50006085  1
  Sn  Sn39  1  0.83321624  0.83331849  0.49960939  1
  Sn  Sn40  1  0.50001764  0.49967957  0.83283644  1
  Pb  Pb41  1  0.83333262  0.83533751  0.83332778  1
  Pb  Pb42  1  0.83343873  0.50321121  0.16937494  1
  Pb  Pb43  1  0.16661362  0.83331544  0.83325692  1
  Pb  Pb44  1  0.50179020  0.16899680  0.83322090  1
  Pb  Pb45  1  0.16654791  0.50307046  0.16945483  1
  Pb  Pb46  1  0.16344960  0.16686119  0.83078989  1
  Pb  Pb47  1  0.16912018  0.49992214  0.83077398  1
  Pb  Pb48  1  0.49985404  0.49751060  0.16719565  1
  Pb  Pb49  1  0.49980435  0.83544514  0.16855576  1
  Pb  Pb50  1  0.16915031  0.16401162  0.16902626  1
  Pb  Pb51  1  0.50021302  0.83056251  0.83019922  1
  Pb  Pb52  1  0.83147075  0.49729793  0.83122179  1
  Pb  Pb53  1  0.83187460  0.16451885  0.16695650  1
  I  I54  1  0.16215197  -0.00353339  0.17608393  1
  I  I55  1  0.16666508  -0.00033449  0.49646538  1
  I  I56  1  0.16855919  0.00021926  0.82974773  1
  I  I57  1  0.16827981  0.33310140  0.16759856  1
  I  I58  1  0.16767517  0.33314188  0.50219062  1
  I  I59  1  0.16738160  0.33329542  0.83131165  1
  I  I60  1  0.16542589  0.67089370  0.17525780  1
  I  I61  1  0.16781299  0.66713469  0.49662063  1
  I  I62  1  0.16589214  0.66655825  0.82983675  1
  I  I63  1  0.50131798  0.00295217  0.17487135  1
  I  I64  1  0.50051488  0.00036486  0.49500221  1
  I  I65  1  0.50066735  0.00033464  0.83290198  1
  I  I66  1  0.50208915  0.32994012  0.17517297  1
  I  I67  1  0.50003696  0.33311186  0.50042252  1
  I  I68  1  0.50158436  0.33612762  0.82333530  1
  I  I69  1  0.50003608  0.66689285  0.16724182  1
  I  I70  1  0.50013647  0.66663847  0.50424691  1
  I  I71  1  0.50094746  0.66294858  0.82629828  1
  I  I72  1  0.83603514  -0.00312180  0.17512752  1
  I  I73  1  0.83275219  -0.00001710  0.50014541  1
  I  I74  1  0.83092220  0.00289156  0.82415391  1
  I  I75  1  0.83077614  0.33316036  0.16746649  1
  I  I76  1  0.83234573  0.33285238  0.50532790  1
  I  I77  1  0.83078274  0.32982685  0.82436318  1
  I  I78  1  0.83452492  0.67122521  0.17412360  1
  I  I79  1  0.83230654  0.66709956  0.49546493  1
  I  I80  1  0.83247195  0.66636177  0.83258504  1
  I  I81  1  0.16810091  0.16422612  0.00028876  1
  I  I82  1  0.16165238  0.16877610  0.33807230  1
  I  I83  1  0.17311528  0.16368418  0.66142033  1
  I  I84  1  0.16884850  0.50141789  0.00011536  1
  I  I85  1  0.17063962  0.49754769  0.33846439  1
  I  I86  1  0.16433063  0.50341929  0.66146169  1
  I  I87  1  0.16153142  0.83449980  0.00338736  1
  I  I88  1  0.16571653  0.83305558  0.33626660  1
  I  I89  1  0.16591846  0.83304165  0.66191129  1
  I  I90  1  0.50353693  0.16649849  0.00235025  1
  I  I91  1  0.50268947  0.16856103  0.33681770  1
  I  I92  1  0.49839816  0.16494151  0.66266487  1
  I  I93  1  0.50164788  0.49830177  -0.00257495  1
  I  I94  1  0.49986896  0.50198814  0.33781293  1
  I  I95  1  0.49994333  0.49816543  0.66305698  1
  I  I96  1  0.49999422  0.83428184  0.00014047  1
  I  I97  1  0.50017291  0.82866846  0.33771795  1
  I  I98  1  0.50029280  0.83958129  0.66111109  1
  I  I99  1  0.82764646  0.16310062  -0.00209203  1
  I  I100  1  0.83425118  0.16828910  0.33737327  1
  I  I101  1  0.83066583  0.16443643  0.66301066  1
  I  I102  1  0.83020111  0.49980063  -0.00007462  1
  I  I103  1  0.82932979  0.49366702  0.33854639  1
  I  I104  1  0.83535229  0.50544954  0.66186789  1
  I  I105  1  0.83785788  0.83685764  0.00315925  1
  I  I106  1  0.83380275  0.83538504  0.33628250  1
  I  I107  1  0.83381667  0.83151154  0.66245030  1
  I  I108  1  0.00018470  0.16712587  0.16693692  1
  I  I109  1  -0.00045531  0.16638631  0.50501783  1
  I  I110  1  -0.00412168  0.16499161  0.82516582  1
  I  I111  1  -0.00005182  0.49477572  0.16803525  1
  I  I112  1  -0.00021128  0.50009331  0.49865997  1
  I  I113  1  -0.00011902  0.50022330  0.83153776  1
  I  I114  1  -0.00020913  0.83561850  0.17895157  1
  I  I115  1  -0.00021301  0.83390000  0.49668808  1
  I  I116  1  -0.00013632  0.83296342  0.82741652  1
  I  I117  1  0.33673737  0.16576021  0.17434658  1
  I  I118  1  0.33386094  0.16666524  0.49519422  1
  I  I119  1  0.33339011  0.16709253  0.83298020  1
  I  I120  1  0.33337477  0.50264882  0.16949304  1
  I  I121  1  0.33378614  0.50034055  0.50353390  1
  I  I122  1  0.33682858  0.49850550  0.82491811  1
  I  I123  1  0.33085090  0.83351923  0.17390500  1
  I  I124  1  0.33312927  0.83274330  0.49641155  1
  I  I125  1  0.33354504  0.83496387  0.83304779  1
  I  I126  1  0.66421212  0.16477426  0.17449170  1
  I  I127  1  0.66664376  0.16638952  0.50022783  1
  I  I128  1  0.66920600  0.16638242  0.82468826  1
  I  I129  1  0.66656190  0.50240241  0.16958827  1
  I  I130  1  0.66637836  0.50028135  0.50366912  1
  I  I131  1  0.66384738  0.49959395  0.82427867  1
  I  I132  1  0.66901756  0.83505798  0.17274997  1
  I  I133  1  0.66706352  0.83338674  0.49666818  1
  I  I134  1  0.66670259  0.83400868  0.83356308  1
