# generated using pymatgen
data_Cs27Sn14Pb13I81
_symmetry_space_group_name_H-M   'P 1'
_cell_length_a   18.96448371
_cell_length_b   18.96121818
_cell_length_c   18.95600975
_cell_angle_alpha   90.00165339
_cell_angle_beta   90.00124836
_cell_angle_gamma   90.00063240
_symmetry_Int_Tables_number   1
_chemical_formula_structural   Cs27Sn14Pb13I81
_chemical_formula_sum   'Cs27 Sn14 Pb13 I81'
_cell_volume   6816.38610576
_cell_formula_units_Z   1
loop_
 _symmetry_equiv_pos_site_id
 _symmetry_equiv_pos_as_xyz
  1  'x, y, z'
loop_
 _atom_site_type_symbol
 _atom_site_label
 _atom_site_symmetry_multiplicity
 _atom_site_fract_x
 _atom_site_fract_y
 _atom_site_fract_z
 _atom_site_occupancy
  Cs  Cs0  1  -0.00203902  -0.00117158  0.00068803  1
  Cs  Cs1  1  -0.00461711  -0.00090791  0.33499753  1
  Cs  Cs2  1  0.00116776  0.00416637  0.66578213  1
  Cs  Cs3  1  -0.00019481  0.33652442  -0.00065548  1
  Cs  Cs4  1  0.00228354  0.33244311  0.33743111  1
  Cs  Cs5  1  0.00134685  0.32904900  0.66351304  1
  Cs  Cs6  1  0.00110182  0.66498639  -0.00015964  1
  Cs  Cs7  1  -0.00058110  0.66822361  0.33177136  1
  Cs  Cs8  1  0.00148495  0.66663349  0.66889492  1
  Cs  Cs9  1  0.33374731  0.00000220  0.00040196  1
  Cs  Cs10  1  0.33381433  -0.00025905  0.33029088  1
  Cs  Cs11  1  0.33203455  0.00219465  0.66744732  1
  Cs  Cs12  1  0.33343396  0.33491212  -0.00026325  1
  Cs  Cs13  1  0.33187925  0.33284309  0.33352479  1
  Cs  Cs14  1  0.33233018  0.33130032  0.66710582  1
  Cs  Cs15  1  0.33137106  0.66538157  -0.00142413  1
  Cs  Cs16  1  0.33384812  0.66862669  0.33397305  1
  Cs  Cs17  1  0.33323998  0.66673349  0.66833814  1
  Cs  Cs18  1  0.66710772  0.00410577  0.00253016  1
  Cs  Cs19  1  0.67028769  -0.00767598  0.32462195  1
  Cs  Cs20  1  0.66708691  -0.00130761  0.66891726  1
  Cs  Cs21  1  0.66636837  0.33260603  0.00077376  1
  Cs  Cs22  1  0.66770751  0.33567432  0.33155357  1
  Cs  Cs23  1  0.66680312  0.33405200  0.66573204  1
  Cs  Cs24  1  0.66797051  0.66360392  -0.00226997  1
  Cs  Cs25  1  0.66711530  0.66976413  0.34404409  1
  Cs  Cs26  1  0.66589104  0.66702766  0.66259767  1
  Sn  Sn27  1  0.16654734  0.83450525  0.83269036  1
  Sn  Sn28  1  0.83237484  0.50054733  0.83368423  1
  Sn  Sn29  1  0.16732691  0.16575170  0.83457566  1
  Sn  Sn30  1  0.49915682  0.16681475  0.83236660  1
  Sn  Sn31  1  0.16703798  0.50097752  0.49901609  1
  Sn  Sn32  1  0.16693970  0.83261287  0.50076667  1
  Sn  Sn33  1  0.50014072  0.83333651  0.83348175  1
  Sn  Sn34  1  0.50049021  0.16633992  0.49999826  1
  Sn  Sn35  1  0.50015560  0.50035554  0.16641444  1
  Sn  Sn36  1  0.16655322  0.16726475  0.16564625  1
  Sn  Sn37  1  0.83317008  0.50010863  0.16626107  1
  Sn  Sn38  1  0.16676186  0.49929736  0.16779014  1
  Sn  Sn39  1  0.50092000  0.49989939  0.83378651  1
  Sn  Sn40  1  0.83343646  0.83251796  0.83337586  1
  Pb  Pb41  1  0.16664112  0.49974219  0.83342849  1
  Pb  Pb42  1  0.16790073  0.16613712  0.49976991  1
  Pb  Pb43  1  0.83596849  0.49988143  0.50053419  1
  Pb  Pb44  1  0.83314660  0.16709230  0.83324809  1
  Pb  Pb45  1  0.50005718  0.83013044  0.16412880  1
  Pb  Pb46  1  0.16662394  0.83333540  0.16640712  1
  Pb  Pb47  1  0.49778187  0.83607394  0.50223577  1
  Pb  Pb48  1  0.83634139  0.16930972  0.16660490  1
  Pb  Pb49  1  0.49836563  0.16857697  0.16632556  1
  Pb  Pb50  1  0.49788074  0.49858107  0.50038510  1
  Pb  Pb51  1  0.83593600  0.83340175  0.50288714  1
  Pb  Pb52  1  0.83322899  0.83040108  0.16405533  1
  Pb  Pb53  1  0.82915848  0.16649993  0.49981415  1
  I  I54  1  0.16899607  0.00275062  0.16492741  1
  I  I55  1  0.16851129  -0.00242699  0.50308963  1
  I  I56  1  0.16944336  -0.00024641  0.83254785  1
  I  I57  1  0.16705352  0.33469058  0.16587477  1
  I  I58  1  0.16788465  0.33535231  0.49941135  1
  I  I59  1  0.16978666  0.33110239  0.83368571  1
  I  I60  1  0.16642524  0.66320260  0.16641488  1
  I  I61  1  0.16751331  0.66649559  0.50137207  1
  I  I62  1  0.16874900  0.66870071  0.83259140  1
  I  I63  1  0.49683192  0.00010760  0.16625414  1
  I  I64  1  0.49542868  0.00368824  0.50677663  1
  I  I65  1  0.49813126  0.00017547  0.82793193  1
  I  I66  1  0.50045772  0.33694879  0.16016258  1
  I  I67  1  0.49517368  0.33092797  0.50716041  1
  I  I68  1  0.49880459  0.33363347  0.83369477  1
  I  I69  1  0.49532195  0.66164329  0.16100257  1
  I  I70  1  0.49954073  0.66683580  0.50040411  1
  I  I71  1  0.49886633  0.66628445  0.83827497  1
  I  I72  1  0.83501705  -0.00014667  0.16613800  1
  I  I73  1  0.83811298  -0.00022419  0.50285732  1
  I  I74  1  0.83235687  -0.00289780  0.83138553  1
  I  I75  1  0.83133481  0.33779253  0.15818767  1
  I  I76  1  0.83804473  0.33365803  0.50354011  1
  I  I77  1  0.83094477  0.33671166  0.83779275  1
  I  I78  1  0.83802600  0.66207346  0.16312789  1
  I  I79  1  0.83136708  0.66650627  0.49874290  1
  I  I80  1  0.83213670  0.66610554  0.83738207  1
  I  I81  1  0.17228251  0.16773906  -0.00127766  1
  I  I82  1  0.16909415  0.16962340  0.33098491  1
  I  I83  1  0.16880516  0.16668054  0.66947221  1
  I  I84  1  0.16681216  0.49914014  0.00215949  1
  I  I85  1  0.16694850  0.49864602  0.33203614  1
  I  I86  1  0.16728521  0.50046777  0.66504287  1
  I  I87  1  0.16719931  0.83339779  -0.00369567  1
  I  I88  1  0.16759020  0.83187361  0.33588925  1
  I  I89  1  0.16687479  0.83233459  0.66852225  1
  I  I90  1  0.49744342  0.16543352  -0.00353333  1
  I  I91  1  0.49557145  0.17084997  0.33524635  1
  I  I92  1  0.49283191  0.16907529  0.66954421  1
  I  I93  1  0.49778148  0.49833681  -0.00132218  1
  I  I94  1  0.50080116  0.49621251  0.33067770  1
  I  I95  1  0.50220929  0.50152920  0.67026167  1
  I  I96  1  0.49577435  0.83807945  -0.00494556  1
  I  I97  1  0.49750845  0.83386345  0.33352127  1
  I  I98  1  0.50106949  0.82760030  0.67112805  1
  I  I99  1  0.83036491  0.16478720  -0.00030673  1
  I  I100  1  0.83519852  0.16956334  0.33307623  1
  I  I101  1  0.83972631  0.17002503  0.66718721  1
  I  I102  1  0.83541424  0.50362853  -0.00076468  1
  I  I103  1  0.83155106  0.49770532  0.33017890  1
  I  I104  1  0.82963791  0.50392163  0.67030515  1
  I  I105  1  0.83719031  0.83144989  -0.00454881  1
  I  I106  1  0.83517630  0.83263300  0.33335822  1
  I  I107  1  0.83085299  0.82577267  0.67140245  1
  I  I108  1  0.00474784  0.17188389  0.16059234  1
  I  I109  1  0.00041348  0.16746378  0.50084952  1
  I  I110  1  0.00322409  0.16463781  0.83646294  1
  I  I111  1  0.00058113  0.49668834  0.16474824  1
  I  I112  1  0.00425874  0.50197951  0.49768739  1
  I  I113  1  -0.00189689  0.50334063  0.83632483  1
  I  I114  1  0.00025438  0.83106974  0.16359124  1
  I  I115  1  0.00426496  0.83008318  0.50531072  1
  I  I116  1  0.00081943  0.83190508  0.83020025  1
  I  I117  1  0.33019237  0.17333429  0.16439885  1
  I  I118  1  0.33538470  0.16801375  0.50390236  1
  I  I119  1  0.33331843  0.16498631  0.83329800  1
  I  I120  1  0.33289408  0.49617643  0.16493785  1
  I  I121  1  0.32978462  0.50239114  0.49735530  1
  I  I122  1  0.33569224  0.50161664  0.83577969  1
  I  I123  1  0.33311581  0.83007925  0.16382690  1
  I  I124  1  0.32975089  0.82919268  0.50646917  1
  I  I125  1  0.33308604  0.83306951  0.82994407  1
  I  I126  1  0.66651697  0.16842962  0.16613137  1
  I  I127  1  0.66148838  0.16971528  0.50981139  1
  I  I128  1  0.66320412  0.16505254  0.82945930  1
  I  I129  1  0.66630957  0.49945994  0.15903242  1
  I  I130  1  0.66642182  0.49795953  0.49774427  1
  I  I131  1  0.66583092  0.50207566  0.84048597  1
  I  I132  1  0.66658881  0.83425871  0.16543930  1
  I  I133  1  0.66641419  0.83403716  0.50113951  1
  I  I134  1  0.66604968  0.83225923  0.83490896  1
