# generated using pymatgen
data_Cs27Sn13Pb14I81
_symmetry_space_group_name_H-M   'P 1'
_cell_length_a   18.97603517
_cell_length_b   18.97141318
_cell_length_c   18.98265348
_cell_angle_alpha   89.99983903
_cell_angle_beta   90.00110291
_cell_angle_gamma   90.00115836
_symmetry_Int_Tables_number   1
_chemical_formula_structural   Cs27Sn13Pb14I81
_chemical_formula_sum   'Cs27 Sn13 Pb14 I81'
_cell_volume   6833.79708363
_cell_formula_units_Z   1
loop_
 _symmetry_equiv_pos_site_id
 _symmetry_equiv_pos_as_xyz
  1  'x, y, z'
loop_
 _atom_site_type_symbol
 _atom_site_label
 _atom_site_symmetry_multiplicity
 _atom_site_fract_x
 _atom_site_fract_y
 _atom_site_fract_z
 _atom_site_occupancy
  Cs  Cs0  1  0.00028448  -0.00616127  0.00032772  1
  Cs  Cs1  1  0.00878988  -0.00510260  0.33272635  1
  Cs  Cs2  1  0.00497335  -0.00273344  0.66769180  1
  Cs  Cs3  1  0.00258434  0.33375038  0.00206562  1
  Cs  Cs4  1  0.00187797  0.33324250  0.33390156  1
  Cs  Cs5  1  -0.00382391  0.33320561  0.66448820  1
  Cs  Cs6  1  0.00806617  0.67581576  -0.00560977  1
  Cs  Cs7  1  -0.00305901  0.67337615  0.33185838  1
  Cs  Cs8  1  -0.00921168  0.67113759  0.67315935  1
  Cs  Cs9  1  0.33654850  0.00152108  -0.00025531  1
  Cs  Cs10  1  0.33030265  -0.00049854  0.33725336  1
  Cs  Cs11  1  0.33343917  -0.00073387  0.66446261  1
  Cs  Cs12  1  0.33332420  0.33566242  0.00065286  1
  Cs  Cs13  1  0.33192806  0.33403089  0.33373458  1
  Cs  Cs14  1  0.33415272  0.33350508  0.66567382  1
  Cs  Cs15  1  0.32913731  0.66275234  -0.00245480  1
  Cs  Cs16  1  0.33424007  0.66464453  0.33439649  1
  Cs  Cs17  1  0.33200185  0.66691545  0.66707791  1
  Cs  Cs18  1  0.66540121  0.00214758  0.00102538  1
  Cs  Cs19  1  0.66507257  -0.00025430  0.33154496  1
  Cs  Cs20  1  0.66424281  0.00241941  0.66644304  1
  Cs  Cs21  1  0.66491462  0.33121488  0.00147573  1
  Cs  Cs22  1  0.66605912  0.33315468  0.33234735  1
  Cs  Cs23  1  0.66751014  0.33340085  0.66655246  1
  Cs  Cs24  1  0.66651217  0.66667976  0.00041406  1
  Cs  Cs25  1  0.66704770  0.66671786  0.33461731  1
  Cs  Cs26  1  0.67473025  0.66423810  0.66450596  1
  Sn  Sn27  1  0.50031013  0.16676127  0.16707112  1
  Sn  Sn28  1  0.50013572  0.83317855  0.16586911  1
  Sn  Sn29  1  0.50066761  0.16763761  0.49968672  1
  Sn  Sn30  1  0.83287435  0.16739476  0.16712869  1
  Sn  Sn31  1  0.50080622  0.49995754  0.16744275  1
  Sn  Sn32  1  0.16682911  0.16739321  0.83359467  1
  Sn  Sn33  1  0.50043091  0.83367528  0.83379632  1
  Sn  Sn34  1  0.83281477  0.16654103  0.49917446  1
  Sn  Sn35  1  0.49927920  0.49906440  0.49941799  1
  Sn  Sn36  1  0.49996444  0.16619708  0.83332920  1
  Sn  Sn37  1  0.16652732  0.50023941  0.50027221  1
  Sn  Sn38  1  0.83352586  0.16693610  0.83372823  1
  Sn  Sn39  1  0.83292839  0.49945905  0.16615219  1
  Pb  Pb40  1  0.16981549  0.83584499  0.83320136  1
  Pb  Pb41  1  0.83296040  0.83706051  0.49980275  1
  Pb  Pb42  1  0.16658260  0.16674210  0.16453937  1
  Pb  Pb43  1  0.83331812  0.49779895  0.83694105  1
  Pb  Pb44  1  0.16622598  0.49992686  0.16849093  1
  Pb  Pb45  1  0.83302369  0.49814728  0.49773312  1
  Pb  Pb46  1  0.83108992  0.83370429  0.16661571  1
  Pb  Pb47  1  0.50017361  0.49997409  0.83317796  1
  Pb  Pb48  1  0.16679403  0.82939910  0.50041521  1
  Pb  Pb49  1  0.83015786  0.83627609  0.83347703  1
  Pb  Pb50  1  0.16648933  0.49782175  0.83044761  1
  Pb  Pb51  1  0.17035699  0.83321797  0.16673470  1
  Pb  Pb52  1  0.50014801  0.83301090  0.50021810  1
  Pb  Pb53  1  0.16670121  0.16795224  0.50199031  1
  I  I54  1  0.16594538  0.00025662  0.16746649  1
  I  I55  1  0.16671486  0.00012351  0.50093396  1
  I  I56  1  0.16410289  0.00418954  0.83185333  1
  I  I57  1  0.17142679  0.33319456  0.16537882  1
  I  I58  1  0.17033236  0.33554631  0.50049299  1
  I  I59  1  0.17130669  0.32937900  0.83426739  1
  I  I60  1  0.16619724  0.66648803  0.16711302  1
  I  I61  1  0.17716847  0.66164254  0.49819984  1
  I  I62  1  0.16876935  0.66691412  0.83306609  1
  I  I63  1  0.50387520  0.00164612  0.16534797  1
  I  I64  1  0.50409284  0.00357536  0.49832951  1
  I  I65  1  0.50040298  0.00246981  0.83656601  1
  I  I66  1  0.50340400  0.33243056  0.16675992  1
  I  I67  1  0.49977963  0.33206103  0.49773193  1
  I  I68  1  0.50064007  0.32949065  0.83517322  1
  I  I69  1  0.50382656  0.66574374  0.16729932  1
  I  I70  1  0.49530674  0.66331376  0.49648641  1
  I  I71  1  0.49840559  0.66936111  0.83742113  1
  I  I72  1  0.82820662  0.00399218  0.16554262  1
  I  I73  1  0.82516525  0.00589377  0.49801431  1
  I  I74  1  0.83471105  0.00515360  0.83637445  1
  I  I75  1  0.82462660  0.33175170  0.16616347  1
  I  I76  1  0.83107824  0.32958703  0.50292055  1
  I  I77  1  0.82813451  0.32869582  0.83048415  1
  I  I78  1  0.82733598  0.66367875  0.16982155  1
  I  I79  1  0.83276953  0.66629787  0.49850390  1
  I  I80  1  0.83227355  0.66687965  0.83302483  1
  I  I81  1  0.16883235  0.16707950  -0.00343041  1
  I  I82  1  0.16702797  0.16756193  0.33357035  1
  I  I83  1  0.16820221  0.16820384  0.66981012  1
  I  I84  1  0.16792402  0.49920423  -0.00005785  1
  I  I85  1  0.17081502  0.49570225  0.33621787  1
  I  I86  1  0.17618117  0.49725347  0.66271749  1
  I  I87  1  0.16503067  0.83287047  -0.00018427  1
  I  I88  1  0.16841664  0.83622725  0.33351446  1
  I  I89  1  0.17072498  0.83520092  0.66697836  1
  I  I90  1  0.50197929  0.16604093  0.00032793  1
  I  I91  1  0.50610191  0.16704067  0.33294163  1
  I  I92  1  0.50229540  0.16636562  0.66674566  1
  I  I93  1  0.50378987  0.49690011  0.00333751  1
  I  I94  1  0.49951756  0.49665626  0.33271924  1
  I  I95  1  0.49577449  0.49549494  0.66358139  1
  I  I96  1  0.50098935  0.83892592  0.00055010  1
  I  I97  1  0.50085801  0.83623472  0.33029340  1
  I  I98  1  0.49874465  0.83959313  0.66943136  1
  I  I99  1  0.82887031  0.17059608  0.00037223  1
  I  I100  1  0.82422687  0.17147263  0.33274702  1
  I  I101  1  0.82903234  0.16646302  0.66671475  1
  I  I102  1  0.82430951  0.49278581  0.00483516  1
  I  I103  1  0.83048129  0.49268292  0.32999177  1
  I  I104  1  0.83249681  0.49826504  0.66648144  1
  I  I105  1  0.83367395  0.83490027  0.00005450  1
  I  I106  1  0.83037928  0.83504693  0.33300196  1
  I  I107  1  0.83047154  0.83293565  0.66683004  1
  I  I108  1  -0.00367019  0.17270379  0.16699233  1
  I  I109  1  -0.00291068  0.16926618  0.50039361  1
  I  I110  1  -0.00093326  0.17032671  0.83247844  1
  I  I111  1  -0.00338362  0.49098935  0.16865457  1
  I  I112  1  0.00181875  0.49537054  0.49873688  1
  I  I113  1  -0.00021537  0.49628893  0.83236323  1
  I  I114  1  -0.00015720  0.83354129  0.16740120  1
  I  I115  1  -0.00003808  0.83394086  0.49954773  1
  I  I116  1  -0.00008164  0.83440942  0.83283737  1
  I  I117  1  0.33733096  0.16737368  0.16658952  1
  I  I118  1  0.33684083  0.16804349  0.49986922  1
  I  I119  1  0.33522241  0.16292620  0.83301357  1
  I  I120  1  0.33709608  0.49850602  0.16815844  1
  I  I121  1  0.33589343  0.49324944  0.49440716  1
  I  I122  1  0.33373674  0.49657537  0.83751711  1
  I  I123  1  0.33891519  0.83475081  0.16287712  1
  I  I124  1  0.33394115  0.83924673  0.49938352  1
  I  I125  1  0.33766638  0.83998886  0.83763748  1
  I  I126  1  0.66523719  0.16736532  0.16324396  1
  I  I127  1  0.66508321  0.17184640  0.50386420  1
  I  I128  1  0.66575955  0.16299208  0.83341850  1
  I  I129  1  0.66473646  0.49796776  0.17204252  1
  I  I130  1  0.66346314  0.49756605  0.49807070  1
  I  I131  1  0.66648727  0.49853976  0.82799489  1
  I  I132  1  0.66260212  0.83488285  0.16310322  1
  I  I133  1  0.66608330  0.82864822  0.50069276  1
  I  I134  1  0.66235147  0.83987136  0.83735454  1
