# generated using pymatgen
data_Cs27Sn13Pb14I81
_symmetry_space_group_name_H-M   'P 1'
_cell_length_a   18.98521274
_cell_length_b   18.96981753
_cell_length_c   18.97601601
_cell_angle_alpha   89.99916877
_cell_angle_beta   90.00043667
_cell_angle_gamma   90.00003075
_symmetry_Int_Tables_number   1
_chemical_formula_structural   Cs27Sn13Pb14I81
_chemical_formula_sum   'Cs27 Sn13 Pb14 I81'
_cell_volume   6834.13666862
_cell_formula_units_Z   1
loop_
 _symmetry_equiv_pos_site_id
 _symmetry_equiv_pos_as_xyz
  1  'x, y, z'
loop_
 _atom_site_type_symbol
 _atom_site_label
 _atom_site_symmetry_multiplicity
 _atom_site_fract_x
 _atom_site_fract_y
 _atom_site_fract_z
 _atom_site_occupancy
  Cs  Cs0  1  -0.00052659  -0.00680759  -0.00069566  1
  Cs  Cs1  1  -0.00137729  0.00151799  0.33191776  1
  Cs  Cs2  1  0.00259765  -0.00034848  0.66789859  1
  Cs  Cs3  1  -0.00300172  0.33412346  0.00258935  1
  Cs  Cs4  1  -0.00070989  0.33294483  0.33191206  1
  Cs  Cs5  1  -0.00019321  0.33452379  0.66405001  1
  Cs  Cs6  1  0.00008839  0.67050899  -0.00150578  1
  Cs  Cs7  1  0.00135230  0.66666694  0.33499699  1
  Cs  Cs8  1  -0.00054900  0.66576820  0.66725960  1
  Cs  Cs9  1  0.32945231  0.00084295  -0.00311132  1
  Cs  Cs10  1  0.33562076  -0.00359313  0.33606110  1
  Cs  Cs11  1  0.33450010  0.00939429  0.66700556  1
  Cs  Cs12  1  0.33468012  0.33394879  0.00049663  1
  Cs  Cs13  1  0.33121199  0.33491976  0.33072669  1
  Cs  Cs14  1  0.33329481  0.33118376  0.66778071  1
  Cs  Cs15  1  0.33431083  0.66624833  0.00088407  1
  Cs  Cs16  1  0.33420863  0.66726785  0.33386507  1
  Cs  Cs17  1  0.33349243  0.66467206  0.66586852  1
  Cs  Cs18  1  0.67067313  0.00313874  0.00021867  1
  Cs  Cs19  1  0.66398699  -0.00746649  0.34086769  1
  Cs  Cs20  1  0.66287314  -0.00231556  0.65866850  1
  Cs  Cs21  1  0.66811231  0.33323173  0.00095244  1
  Cs  Cs22  1  0.67117117  0.33327890  0.32952276  1
  Cs  Cs23  1  0.66740336  0.33334559  0.66712035  1
  Cs  Cs24  1  0.66482402  0.66697467  -0.00056472  1
  Cs  Cs25  1  0.66254581  0.67477284  0.33612124  1
  Cs  Cs26  1  0.66680108  0.66709125  0.66693378  1
  Sn  Sn27  1  0.83330996  0.16746466  0.83365608  1
  Sn  Sn28  1  0.50004721  0.50051349  0.83260741  1
  Sn  Sn29  1  0.83391967  0.50045126  0.16596967  1
  Sn  Sn30  1  0.83324318  0.16720781  0.16579019  1
  Sn  Sn31  1  0.83339847  0.49927791  0.83434592  1
  Sn  Sn32  1  0.16653362  0.83270915  0.50036312  1
  Sn  Sn33  1  0.16658237  0.16728076  0.16637807  1
  Sn  Sn34  1  0.49957405  0.49929822  0.50034724  1
  Sn  Sn35  1  0.16759825  0.50056568  0.49997879  1
  Sn  Sn36  1  0.16584220  0.49962660  0.16639216  1
  Sn  Sn37  1  0.16654346  0.49974068  0.83365155  1
  Sn  Sn38  1  0.49985334  0.83313800  0.83378980  1
  Sn  Sn39  1  0.50025423  0.16649574  0.16680728  1
  Pb  Pb40  1  0.50039460  0.49904030  0.16660308  1
  Pb  Pb41  1  0.16405119  0.16912895  0.83581575  1
  Pb  Pb42  1  0.16890854  0.83107739  0.83107762  1
  Pb  Pb43  1  0.16661838  0.16745811  0.49756258  1
  Pb  Pb44  1  0.83336456  0.16679078  0.49983493  1
  Pb  Pb45  1  0.49756218  0.83087351  0.50258451  1
  Pb  Pb46  1  0.83330721  0.83291529  0.16662778  1
  Pb  Pb47  1  0.49998118  0.16996328  0.49726985  1
  Pb  Pb48  1  0.83638522  0.83310436  0.50032226  1
  Pb  Pb49  1  0.50219177  0.16735388  0.83498952  1
  Pb  Pb50  1  0.49979038  0.83661092  0.16394259  1
  Pb  Pb51  1  0.83122347  0.83313886  0.83322319  1
  Pb  Pb52  1  0.16675674  0.83281463  0.16843588  1
  Pb  Pb53  1  0.83332100  0.50011682  0.49966250  1
  I  I54  1  0.16537261  0.00318106  0.16858179  1
  I  I55  1  0.16599604  -0.00236387  0.49783333  1
  I  I56  1  0.16718918  0.00021980  0.83279527  1
  I  I57  1  0.16587043  0.33482919  0.16878455  1
  I  I58  1  0.16985203  0.33730666  0.50147188  1
  I  I59  1  0.17248296  0.33782068  0.82827173  1
  I  I60  1  0.16236225  0.66257502  0.16495288  1
  I  I61  1  0.17033893  0.66386471  0.49763376  1
  I  I62  1  0.16208439  0.66203638  0.83811686  1
  I  I63  1  0.50010872  0.00475131  0.16503963  1
  I  I64  1  0.49867460  -0.00011729  0.50071950  1
  I  I65  1  0.50144000  -0.00182370  0.83645906  1
  I  I66  1  0.49974675  0.33106521  0.16474781  1
  I  I67  1  0.49294253  0.33778512  0.50783113  1
  I  I68  1  0.49805186  0.33693102  0.83080070  1
  I  I69  1  0.50014951  0.66649920  0.16883854  1
  I  I70  1  0.49842228  0.66278777  0.49947315  1
  I  I71  1  0.50182153  0.66388788  0.83024511  1
  I  I72  1  0.83560654  0.00387974  0.16123376  1
  I  I73  1  0.83431140  0.00002549  0.49960033  1
  I  I74  1  0.83224478  0.00316439  0.83974406  1
  I  I75  1  0.83428011  0.33375451  0.16283744  1
  I  I76  1  0.83544265  0.33379504  0.50004177  1
  I  I77  1  0.83115936  0.33522358  0.83799672  1
  I  I78  1  0.83883385  0.66252141  0.16204925  1
  I  I79  1  0.83102796  0.66603390  0.49924156  1
  I  I80  1  0.83534662  0.66265940  0.83728602  1
  I  I81  1  0.16953117  0.17227290  0.00394124  1
  I  I82  1  0.16338349  0.17317032  0.32920139  1
  I  I83  1  0.16540081  0.16690797  0.66693426  1
  I  I84  1  0.16703765  0.49497652  0.00013194  1
  I  I85  1  0.16695125  0.49953522  0.33286366  1
  I  I86  1  0.16684158  0.50495131  0.66693284  1
  I  I87  1  0.16730428  0.83294560  -0.00030099  1
  I  I88  1  0.16818799  0.82640511  0.33618069  1
  I  I89  1  0.16646476  0.82619907  0.66339000  1
  I  I90  1  0.49815827  0.17007317  0.00297611  1
  I  I91  1  0.50207672  0.16903953  0.32910137  1
  I  I92  1  0.50173247  0.16451782  0.66686829  1
  I  I93  1  0.49767263  0.50184896  -0.00290532  1
  I  I94  1  0.49595610  0.49691878  0.33543519  1
  I  I95  1  0.49715227  0.50329022  0.66783876  1
  I  I96  1  0.49937876  0.82329841  -0.00350155  1
  I  I97  1  0.50005273  0.83312739  0.33373245  1
  I  I98  1  0.50074722  0.83122766  0.67010184  1
  I  I99  1  0.83253633  0.17253359  0.00100072  1
  I  I100  1  0.83499667  0.17285927  0.32907775  1
  I  I101  1  0.83264495  0.17273305  0.67014751  1
  I  I102  1  0.83567396  0.49568327  -0.00037340  1
  I  I103  1  0.83710041  0.49385343  0.32990461  1
  I  I104  1  0.83535257  0.49622431  0.67000402  1
  I  I105  1  0.83423601  0.83305843  -0.00014364  1
  I  I106  1  0.83159663  0.83338068  0.33331636  1
  I  I107  1  0.83280997  0.83309535  0.66704297  1
  I  I108  1  -0.00024150  0.17237106  0.16444133  1
  I  I109  1  0.00018600  0.16850763  0.49823771  1
  I  I110  1  -0.00379235  0.17179382  0.83811644  1
  I  I111  1  0.00058656  0.49250714  0.16474529  1
  I  I112  1  0.00330621  0.50324777  0.50186594  1
  I  I113  1  0.00003276  0.49532776  0.83334389  1
  I  I114  1  0.00013138  0.83678483  0.16712851  1
  I  I115  1  0.00426985  0.82475121  0.49987673  1
  I  I116  1  0.00023943  0.83302362  0.83205131  1
  I  I117  1  0.33255673  0.17241898  0.16765092  1
  I  I118  1  0.33326306  0.16532840  0.49853987  1
  I  I119  1  0.33327944  0.16682884  0.83565065  1
  I  I120  1  0.33065324  0.49546490  0.16497871  1
  I  I121  1  0.33225353  0.50327531  0.50213173  1
  I  I122  1  0.33321003  0.50456527  0.83327784  1
  I  I123  1  0.33324497  0.83304038  0.16662880  1
  I  I124  1  0.33017446  0.82905976  0.49868610  1
  I  I125  1  0.33655238  0.82737757  0.83403982  1
  I  I126  1  0.66790674  0.17296299  0.16159868  1
  I  I127  1  0.66652328  0.16797225  0.49753394  1
  I  I128  1  0.66989957  0.17342087  0.84106898  1
  I  I129  1  0.66934320  0.49421156  0.16313549  1
  I  I130  1  0.66391519  0.49869967  0.50345814  1
  I  I131  1  0.66679902  0.49999182  0.83351505  1
  I  I132  1  0.66653445  0.83178691  0.16769361  1
  I  I133  1  0.66605668  0.83279237  0.49991720  1
  I  I134  1  0.66357815  0.82607487  0.83329064  1
