# generated using pymatgen
data_Cs27Sn14Pb13I81
_symmetry_space_group_name_H-M   'P 1'
_cell_length_a   18.97766313
_cell_length_b   18.96729644
_cell_length_c   18.98348075
_cell_angle_alpha   90.00045156
_cell_angle_beta   89.99935591
_cell_angle_gamma   90.00033326
_symmetry_Int_Tables_number   1
_chemical_formula_structural   Cs27Sn14Pb13I81
_chemical_formula_sum   'Cs27 Sn14 Pb13 I81'
_cell_volume   6833.19809720
_cell_formula_units_Z   1
loop_
 _symmetry_equiv_pos_site_id
 _symmetry_equiv_pos_as_xyz
  1  'x, y, z'
loop_
 _atom_site_type_symbol
 _atom_site_label
 _atom_site_symmetry_multiplicity
 _atom_site_fract_x
 _atom_site_fract_y
 _atom_site_fract_z
 _atom_site_occupancy
  Cs  Cs0  1  -0.00117977  0.00068754  0.00002178  1
  Cs  Cs1  1  -0.00143799  0.00097422  0.33212908  1
  Cs  Cs2  1  0.00245068  -0.00141771  0.66796107  1
  Cs  Cs3  1  -0.00185683  0.33315433  0.00083631  1
  Cs  Cs4  1  -0.00223354  0.33415259  0.33282738  1
  Cs  Cs5  1  -0.00040739  0.33384777  0.66637859  1
  Cs  Cs6  1  0.00366599  0.66801192  -0.00086420  1
  Cs  Cs7  1  0.00337296  0.66651229  0.33418917  1
  Cs  Cs8  1  0.00142157  0.66637401  0.66650593  1
  Cs  Cs9  1  0.33538069  0.00073229  -0.00008339  1
  Cs  Cs10  1  0.33790149  0.00025106  0.33534122  1
  Cs  Cs11  1  0.33506100  0.00937629  0.66499709  1
  Cs  Cs12  1  0.33631062  0.33259598  0.00010476  1
  Cs  Cs13  1  0.33499600  0.33359236  0.33271580  1
  Cs  Cs14  1  0.33479847  0.32803564  0.66821433  1
  Cs  Cs15  1  0.33089946  0.66897241  0.00011853  1
  Cs  Cs16  1  0.33006396  0.66636795  0.33144696  1
  Cs  Cs17  1  0.32892958  0.66447748  0.66760243  1
  Cs  Cs18  1  0.66736262  -0.00743323  0.00031049  1
  Cs  Cs19  1  0.66447537  -0.00593226  0.33459470  1
  Cs  Cs20  1  0.66031906  -0.00970935  0.66487141  1
  Cs  Cs21  1  0.66884742  0.33372804  0.00256382  1
  Cs  Cs22  1  0.66883921  0.33400621  0.33110921  1
  Cs  Cs23  1  0.66814792  0.33519698  0.66700895  1
  Cs  Cs24  1  0.66421437  0.67167096  -0.00347352  1
  Cs  Cs25  1  0.66631732  0.66785954  0.33509472  1
  Cs  Cs26  1  0.66450798  0.66981068  0.66804659  1
  Sn  Sn27  1  0.16653927  0.16701655  0.16685821  1
  Sn  Sn28  1  0.50000552  0.49962755  0.49943175  1
  Sn  Sn29  1  0.16683128  0.50002754  0.50083113  1
  Sn  Sn30  1  0.83305895  0.16711373  0.83291779  1
  Sn  Sn31  1  0.50096728  0.16765567  0.16667726  1
  Sn  Sn32  1  0.83417623  0.49932214  0.83343428  1
  Sn  Sn33  1  0.50107009  0.49951190  0.16731794  1
  Sn  Sn34  1  0.83316462  0.49944868  0.50004659  1
  Sn  Sn35  1  0.16643343  0.83314803  0.50081082  1
  Sn  Sn36  1  0.83255610  0.50018376  0.16652278  1
  Sn  Sn37  1  0.83317245  0.16700672  0.50031982  1
  Sn  Sn38  1  0.16594096  0.50002240  0.83269955  1
  Sn  Sn39  1  0.83286558  0.16727705  0.16675071  1
  Sn  Sn40  1  0.16646500  0.83311902  0.83225070  1
  Pb  Pb41  1  0.83352522  0.83254673  0.16680609  1
  Pb  Pb42  1  0.16474833  0.16740502  0.49807379  1
  Pb  Pb43  1  0.16661151  0.49834766  0.16646789  1
  Pb  Pb44  1  0.49609481  0.83329786  0.83302553  1
  Pb  Pb45  1  0.50330454  0.16918995  0.49806088  1
  Pb  Pb46  1  0.16482078  0.16736932  0.83528773  1
  Pb  Pb47  1  0.50013745  0.49988037  0.83358724  1
  Pb  Pb48  1  0.83535103  0.83283465  0.83314332  1
  Pb  Pb49  1  0.49659530  0.83004756  0.50001232  1
  Pb  Pb50  1  0.83553472  0.83273918  0.50004053  1
  Pb  Pb51  1  0.49997210  0.83246666  0.16682513  1
  Pb  Pb52  1  0.50392279  0.16701616  0.83582406  1
  Pb  Pb53  1  0.16659517  0.83642515  0.16688386  1
  I  I54  1  0.16462784  0.00445885  0.16628709  1
  I  I55  1  0.16332671  -0.00202336  0.50262902  1
  I  I56  1  0.16459313  -0.00211836  0.83082045  1
  I  I57  1  0.16504222  0.33056492  0.16682191  1
  I  I58  1  0.16733141  0.33698888  0.50340064  1
  I  I59  1  0.16417410  0.33653396  0.82932140  1
  I  I60  1  0.16671882  0.66641120  0.16638409  1
  I  I61  1  0.16451030  0.66455799  0.50263323  1
  I  I62  1  0.16066672  0.66498960  0.83068073  1
  I  I63  1  0.50076506  0.00332412  0.16543784  1
  I  I64  1  0.50002574  0.00016048  0.49815787  1
  I  I65  1  0.50031556  0.00029457  0.83590301  1
  I  I66  1  0.50122567  0.33391859  0.17049090  1
  I  I67  1  0.49389211  0.33733211  0.49833733  1
  I  I68  1  0.49237569  0.33355950  0.83133824  1
  I  I69  1  0.50458861  0.66248876  0.17036672  1
  I  I70  1  0.50672020  0.66178724  0.49320816  1
  I  I71  1  0.50582586  0.66620387  0.83649277  1
  I  I72  1  0.83328821  0.00397734  0.16628756  1
  I  I73  1  0.83636937  0.00301598  0.49766032  1
  I  I74  1  0.83535981  0.00304716  0.83637148  1
  I  I75  1  0.83320958  0.33341357  0.16670730  1
  I  I76  1  0.83637992  0.33482965  0.49893107  1
  I  I77  1  0.83986389  0.33463305  0.83417291  1
  I  I78  1  0.82923793  0.66208038  0.16714359  1
  I  I79  1  0.83159164  0.66240851  0.49978037  1
  I  I80  1  0.83480618  0.66275436  0.83324210  1
  I  I81  1  0.16377640  0.16744407  0.00315869  1
  I  I82  1  0.16323486  0.16759420  0.33025071  1
  I  I83  1  0.16463862  0.16563858  0.66660235  1
  I  I84  1  0.16320090  0.50282795  -0.00252284  1
  I  I85  1  0.16411487  0.50285159  0.33603005  1
  I  I86  1  0.16318836  0.50414149  0.66616115  1
  I  I87  1  0.16569986  0.82817787  -0.00289695  1
  I  I88  1  0.16610604  0.82746517  0.33636228  1
  I  I89  1  0.16447140  0.82731509  0.66657870  1
  I  I90  1  0.49984767  0.17465584  0.00431824  1
  I  I91  1  0.50080243  0.16895116  0.32980489  1
  I  I92  1  0.49952775  0.16719723  0.66643378  1
  I  I93  1  0.50284932  0.49530469  0.00332435  1
  I  I94  1  0.50241005  0.49597635  0.33311488  1
  I  I95  1  0.50245223  0.50173727  0.66373235  1
  I  I96  1  0.49793613  0.83155824  0.00010553  1
  I  I97  1  0.49681737  0.83559712  0.33349709  1
  I  I98  1  0.50426336  0.83165820  0.66629935  1
  I  I99  1  0.83452123  0.17326489  0.00084353  1
  I  I100  1  0.83486108  0.17326950  0.33255770  1
  I  I101  1  0.83671666  0.17516317  0.66655007  1
  I  I102  1  0.83429904  0.49360960  0.00012093  1
  I  I103  1  0.83384943  0.49435995  0.33353733  1
  I  I104  1  0.83478340  0.49363279  0.66632996  1
  I  I105  1  0.83689126  0.83370993  -0.00007904  1
  I  I106  1  0.83736710  0.83403380  0.33347304  1
  I  I107  1  0.83250158  0.83525260  0.66660638  1
  I  I108  1  -0.00189971  0.17018450  0.16655629  1
  I  I109  1  -0.00332021  0.17259651  0.49641906  1
  I  I110  1  -0.00333958  0.16857615  0.83696046  1
  I  I111  1  -0.00288580  0.49522845  0.16867025  1
  I  I112  1  -0.00044539  0.50025794  0.49976580  1
  I  I113  1  -0.00058730  0.49999855  0.83114338  1
  I  I114  1  0.00027593  0.83387739  0.16686293  1
  I  I115  1  0.00334634  0.82694714  0.50340282  1
  I  I116  1  0.00317088  0.83116229  0.82943375  1
  I  I117  1  0.33392551  0.17107766  0.16670522  1
  I  I118  1  0.33350905  0.16657491  0.49724042  1
  I  I119  1  0.33334932  0.16555226  0.83611855  1
  I  I120  1  0.33554779  0.49514392  0.16993972  1
  I  I121  1  0.33267382  0.50579095  0.49848220  1
  I  I122  1  0.33013222  0.50528292  0.83126272  1
  I  I123  1  0.33313031  0.83318779  0.16575221  1
  I  I124  1  0.32869134  0.82887010  0.50326559  1
  I  I125  1  0.32805527  0.82505472  0.83114545  1
  I  I126  1  0.66791783  0.17284133  0.16631480  1
  I  I127  1  0.67141633  0.17298210  0.49826993  1
  I  I128  1  0.67203300  0.17614787  0.83490480  1
  I  I129  1  0.66772121  0.49161588  0.17010855  1
  I  I130  1  0.66782070  0.49392948  0.49867932  1
  I  I131  1  0.67024579  0.49440189  0.83175073  1
  I  I132  1  0.66671595  0.83734540  0.16632706  1
  I  I133  1  0.66647552  0.83387693  0.49862540  1
  I  I134  1  0.66673448  0.83357070  0.83511303  1
