# generated using pymatgen
data_Cs27Sn13Pb14I81
_symmetry_space_group_name_H-M   'P 1'
_cell_length_a   18.97156410
_cell_length_b   18.98574883
_cell_length_c   18.97550485
_cell_angle_alpha   89.99806266
_cell_angle_beta   89.99911020
_cell_angle_gamma   89.99979206
_symmetry_Int_Tables_number   1
_chemical_formula_structural   Cs27Sn13Pb14I81
_chemical_formula_sum   'Cs27 Sn13 Pb14 I81'
_cell_volume   6834.77477030
_cell_formula_units_Z   1
loop_
 _symmetry_equiv_pos_site_id
 _symmetry_equiv_pos_as_xyz
  1  'x, y, z'
loop_
 _atom_site_type_symbol
 _atom_site_label
 _atom_site_symmetry_multiplicity
 _atom_site_fract_x
 _atom_site_fract_y
 _atom_site_fract_z
 _atom_site_occupancy
  Cs  Cs0  1  0.00151405  -0.00034318  0.00200521  1
  Cs  Cs1  1  -0.00266356  -0.00188877  0.33316455  1
  Cs  Cs2  1  -0.00151614  0.00176177  0.66577288  1
  Cs  Cs3  1  -0.00471520  0.33502821  0.00128418  1
  Cs  Cs4  1  0.00186277  0.33621508  0.33023834  1
  Cs  Cs5  1  0.00113028  0.33064365  0.66844233  1
  Cs  Cs6  1  -0.00783732  0.66451218  0.00868932  1
  Cs  Cs7  1  -0.00058664  0.66423100  0.32517532  1
  Cs  Cs8  1  0.00343156  0.66786684  0.66691828  1
  Cs  Cs9  1  0.33400377  -0.00001952  0.00448244  1
  Cs  Cs10  1  0.33407828  0.00170643  0.32978585  1
  Cs  Cs11  1  0.33183281  0.00020232  0.66688024  1
  Cs  Cs12  1  0.33437306  0.32974887  -0.00317375  1
  Cs  Cs13  1  0.33358651  0.33288751  0.33331307  1
  Cs  Cs14  1  0.33347789  0.33371982  0.66670549  1
  Cs  Cs15  1  0.33495705  0.67101111  -0.00343329  1
  Cs  Cs16  1  0.33096712  0.66478497  0.33622719  1
  Cs  Cs17  1  0.33304124  0.66668935  0.66625915  1
  Cs  Cs18  1  0.66543084  -0.00864726  0.00100295  1
  Cs  Cs19  1  0.66885809  -0.00028059  0.33372931  1
  Cs  Cs20  1  0.67278622  -0.00066522  0.66554440  1
  Cs  Cs21  1  0.66829470  0.33460482  0.00014588  1
  Cs  Cs22  1  0.66431204  0.33242172  0.33458704  1
  Cs  Cs23  1  0.66600615  0.33275309  0.66571504  1
  Cs  Cs24  1  0.67212552  0.67142082  0.00047969  1
  Cs  Cs25  1  0.66848589  0.66597738  0.33468403  1
  Cs  Cs26  1  0.66600903  0.66788239  0.66697677  1
  Sn  Sn27  1  0.50073638  0.49996288  0.50019634  1
  Sn  Sn28  1  0.16682041  0.83347227  0.83266330  1
  Sn  Sn29  1  0.83285728  0.16673147  0.16670262  1
  Sn  Sn30  1  0.16721981  0.50001855  0.83341359  1
  Sn  Sn31  1  0.49937962  0.50009228  0.16614063  1
  Sn  Sn32  1  0.16765343  0.83427778  0.50057824  1
  Sn  Sn33  1  0.49935683  0.49958746  0.83356217  1
  Sn  Sn34  1  0.49963918  0.16686508  0.83240190  1
  Sn  Sn35  1  0.16766891  0.16656351  0.83249266  1
  Sn  Sn36  1  0.49925587  0.16622753  0.50094769  1
  Sn  Sn37  1  0.83309264  0.49966846  0.50085068  1
  Sn  Sn38  1  0.16758253  0.16596801  0.50049883  1
  Sn  Sn39  1  0.49908922  0.83375323  0.50036623  1
  Pb  Pb40  1  0.83280039  0.16664979  0.83529940  1
  Pb  Pb41  1  0.83420433  0.83079496  0.50015836  1
  Pb  Pb42  1  0.83701936  0.83335651  0.83290736  1
  Pb  Pb43  1  0.83314910  0.83610767  0.16700582  1
  Pb  Pb44  1  0.83273247  0.49989697  0.83112185  1
  Pb  Pb45  1  0.16706631  0.49978068  0.50147439  1
  Pb  Pb46  1  0.83365546  0.16855156  0.49872863  1
  Pb  Pb47  1  0.49969824  0.83035203  0.16993670  1
  Pb  Pb48  1  0.50150976  0.16817553  0.16637160  1
  Pb  Pb49  1  0.83056713  0.49831325  0.16907699  1
  Pb  Pb50  1  0.16966674  0.49977479  0.16285261  1
  Pb  Pb51  1  0.16498238  0.16683543  0.16663885  1
  Pb  Pb52  1  0.16701448  0.83329292  0.16713237  1
  Pb  Pb53  1  0.49846067  0.83372449  0.83115777  1
  I  I54  1  0.16603868  0.00016670  0.16278776  1
  I  I55  1  0.17363854  0.00063127  0.50761519  1
  I  I56  1  0.16990847  0.00089686  0.82893784  1
  I  I57  1  0.16536633  0.33334941  0.16924151  1
  I  I58  1  0.16908706  0.33064693  0.50371939  1
  I  I59  1  0.17095201  0.33270698  0.82877322  1
  I  I60  1  0.16556475  0.66642877  0.16869046  1
  I  I61  1  0.17016139  0.66882710  0.50499667  1
  I  I62  1  0.17194916  0.66644678  0.82742595  1
  I  I63  1  0.50211083  0.00000093  0.16624160  1
  I  I64  1  0.49552351  0.00109097  0.50432523  1
  I  I65  1  0.49656403  0.00320927  0.82974829  1
  I  I66  1  0.50101331  0.33607503  0.17151804  1
  I  I67  1  0.50022315  0.33335067  0.50018768  1
  I  I68  1  0.49238295  0.33372295  0.82884421  1
  I  I69  1  0.50036517  0.66223443  0.16503668  1
  I  I70  1  0.49992452  0.66583513  0.49958089  1
  I  I71  1  0.49546446  0.66371942  0.83182310  1
  I  I72  1  0.83251891  0.00365436  0.16843474  1
  I  I73  1  0.83085824  0.00016883  0.49769714  1
  I  I74  1  0.83156816  0.00018286  0.83364956  1
  I  I75  1  0.83389162  0.33105242  0.16699507  1
  I  I76  1  0.82796542  0.33611629  0.49928691  1
  I  I77  1  0.83852285  0.33331899  0.83363923  1
  I  I78  1  0.83362855  0.66636613  0.16751085  1
  I  I79  1  0.82784048  0.66301277  0.49987385  1
  I  I80  1  0.83253848  0.66643736  0.83337399  1
  I  I81  1  0.17059669  0.16608150  -0.00391091  1
  I  I82  1  0.17031940  0.16254753  0.33700217  1
  I  I83  1  0.16976177  0.16647885  0.66672107  1
  I  I84  1  0.17080263  0.49870905  -0.00548175  1
  I  I85  1  0.16632235  0.50026880  0.33346917  1
  I  I86  1  0.17188181  0.49974400  0.66959396  1
  I  I87  1  0.16709464  0.83474463  -0.00358654  1
  I  I88  1  0.17032051  0.83810250  0.33744892  1
  I  I89  1  0.17101106  0.83370107  0.66615989  1
  I  I90  1  0.49593606  0.17248022  -0.00347719  1
  I  I91  1  0.49715808  0.16827692  0.33681460  1
  I  I92  1  0.49632444  0.17246298  0.66586766  1
  I  I93  1  0.49413861  0.49332181  -0.00158543  1
  I  I94  1  0.50528185  0.49978831  0.33510496  1
  I  I95  1  0.49984219  0.49888673  0.66630691  1
  I  I96  1  0.49880839  0.83362778  -0.00029955  1
  I  I97  1  0.49397476  0.83476865  0.33851186  1
  I  I98  1  0.49762053  0.82799679  0.66297397  1
  I  I99  1  0.83398202  0.16918739  0.00280289  1
  I  I100  1  0.83239746  0.16903974  0.33122953  1
  I  I101  1  0.83368962  0.16775488  0.66657765  1
  I  I102  1  0.83372610  0.49935649  0.00012919  1
  I  I103  1  0.82872902  0.49932043  0.33686323  1
  I  I104  1  0.82640662  0.49833302  0.66341689  1
  I  I105  1  0.83382770  0.83225765  0.00003052  1
  I  I106  1  0.83546655  0.83234044  0.33384167  1
  I  I107  1  0.83083626  0.83404404  0.66619234  1
  I  I108  1  -0.00270091  0.16797203  0.16749314  1
  I  I109  1  0.00338167  0.16399173  0.50351108  1
  I  I110  1  0.00373382  0.16718803  0.82948340  1
  I  I111  1  -0.00019005  0.49980500  0.16771043  1
  I  I112  1  -0.00153154  0.49904719  0.50236819  1
  I  I113  1  0.00316747  0.49879716  0.82956517  1
  I  I114  1  0.00012525  0.83216582  0.16807210  1
  I  I115  1  0.00392502  0.83762911  0.50495367  1
  I  I116  1  0.00575418  0.83447613  0.82518831  1
  I  I117  1  0.33354373  0.16771383  0.16705005  1
  I  I118  1  0.33412066  0.16875667  0.50288252  1
  I  I119  1  0.33321119  0.16902355  0.82963222  1
  I  I120  1  0.33735736  0.49798441  0.17510556  1
  I  I121  1  0.33669092  0.50017584  0.49853407  1
  I  I122  1  0.33432479  0.49876836  0.83052328  1
  I  I123  1  0.33355353  0.83456670  0.16515685  1
  I  I124  1  0.33343838  0.83098586  0.50380069  1
  I  I125  1  0.33018816  0.83220421  0.83032474  1
  I  I126  1  0.66891842  0.16985086  0.16850195  1
  I  I127  1  0.66318414  0.16561695  0.50280237  1
  I  I128  1  0.66270705  0.17372961  0.82885307  1
  I  I129  1  0.66286480  0.49818783  0.16293006  1
  I  I130  1  0.66368245  0.49938297  0.50123106  1
  I  I131  1  0.66254477  0.49403125  0.83397347  1
  I  I132  1  0.66623923  0.83319515  0.16754055  1
  I  I133  1  0.66349828  0.83525011  0.49919835  1
  I  I134  1  0.66631411  0.83321194  0.83266141  1
