# generated using pymatgen
data_Cs27Sn13Pb14I81
_symmetry_space_group_name_H-M   'P 1'
_cell_length_a   18.97721482
_cell_length_b   18.97250551
_cell_length_c   18.98140929
_cell_angle_alpha   89.99897438
_cell_angle_beta   89.99758918
_cell_angle_gamma   89.99767211
_symmetry_Int_Tables_number   1
_chemical_formula_structural   Cs27Sn13Pb14I81
_chemical_formula_sum   'Cs27 Sn13 Pb14 I81'
_cell_volume   6834.16742839
_cell_formula_units_Z   1
loop_
 _symmetry_equiv_pos_site_id
 _symmetry_equiv_pos_as_xyz
  1  'x, y, z'
loop_
 _atom_site_type_symbol
 _atom_site_label
 _atom_site_symmetry_multiplicity
 _atom_site_fract_x
 _atom_site_fract_y
 _atom_site_fract_z
 _atom_site_occupancy
  Cs  Cs0  1  0.00100020  0.00154969  0.00115485  1
  Cs  Cs1  1  0.00462745  0.00175041  0.32733884  1
  Cs  Cs2  1  0.00085786  0.00036698  0.67044240  1
  Cs  Cs3  1  -0.00022909  0.33133377  0.00231358  1
  Cs  Cs4  1  -0.00217898  0.33214806  0.33404123  1
  Cs  Cs5  1  0.00138047  0.33580722  0.66204249  1
  Cs  Cs6  1  -0.00244047  0.66812448  -0.00095302  1
  Cs  Cs7  1  0.00042362  0.66589380  0.33503653  1
  Cs  Cs8  1  -0.00052025  0.66368186  0.66649807  1
  Cs  Cs9  1  0.33055146  -0.00054812  0.00191475  1
  Cs  Cs10  1  0.33124038  -0.00132321  0.33487391  1
  Cs  Cs11  1  0.33428996  0.00114343  0.66362228  1
  Cs  Cs12  1  0.33704788  0.33919504  -0.00153227  1
  Cs  Cs13  1  0.33541599  0.33426655  0.33048095  1
  Cs  Cs14  1  0.33211068  0.33337939  0.66998666  1
  Cs  Cs15  1  0.33567445  0.66306791  -0.00039247  1
  Cs  Cs16  1  0.33321372  0.66844987  0.33611788  1
  Cs  Cs17  1  0.32967973  0.66481202  0.66438207  1
  Cs  Cs18  1  0.66804120  -0.00191004  -0.00105038  1
  Cs  Cs19  1  0.66446960  0.00078914  0.33493097  1
  Cs  Cs20  1  0.66341490  0.00408807  0.66581635  1
  Cs  Cs21  1  0.66297142  0.33279219  -0.00169684  1
  Cs  Cs22  1  0.66780568  0.33403690  0.33644267  1
  Cs  Cs23  1  0.66540712  0.32305507  0.66298532  1
  Cs  Cs24  1  0.66740429  0.66773281  0.00164878  1
  Cs  Cs25  1  0.66670677  0.66566989  0.33164967  1
  Cs  Cs26  1  0.67047134  0.66976549  0.66568665  1
  Sn  Sn27  1  0.50056826  0.83422269  0.16603811  1
  Sn  Sn28  1  0.16655771  0.16632997  0.83277892  1
  Sn  Sn29  1  0.16682178  0.83367126  0.83344631  1
  Sn  Sn30  1  0.83368943  0.83377979  0.49977574  1
  Sn  Sn31  1  0.83285173  0.50008504  0.83388443  1
  Sn  Sn32  1  0.83320982  0.83285082  0.83322863  1
  Sn  Sn33  1  0.83275035  0.83274285  0.16689625  1
  Sn  Sn34  1  0.83418417  0.50072415  0.16566762  1
  Sn  Sn35  1  0.16556880  0.50051266  0.16653725  1
  Sn  Sn36  1  0.50022759  0.50030625  0.50068528  1
  Sn  Sn37  1  0.49992852  0.83310180  0.83376540  1
  Sn  Sn38  1  0.16649619  0.16650574  0.50046046  1
  Sn  Sn39  1  0.50032243  0.16550823  0.16633954  1
  Pb  Pb40  1  0.16676978  0.83135982  0.16457223  1
  Pb  Pb41  1  0.83181681  0.50151535  0.50000458  1
  Pb  Pb42  1  0.16450813  0.50012304  0.83497971  1
  Pb  Pb43  1  0.49786323  0.16856183  0.49794062  1
  Pb  Pb44  1  0.83535785  0.16664810  0.83339532  1
  Pb  Pb45  1  0.83573394  0.16348591  0.49985460  1
  Pb  Pb46  1  0.50106067  0.50096064  0.16766143  1
  Pb  Pb47  1  0.16413988  0.83492193  0.50261603  1
  Pb  Pb48  1  0.16839431  0.49805061  0.49770656  1
  Pb  Pb49  1  0.83094723  0.16666379  0.16647608  1
  Pb  Pb50  1  0.50162671  0.83211881  0.49993328  1
  Pb  Pb51  1  0.16877188  0.16890582  0.16592731  1
  Pb  Pb52  1  0.49749907  0.16413204  0.83529988  1
  Pb  Pb53  1  0.50315805  0.50239136  0.83074354  1
  I  I54  1  0.16498215  -0.00018086  0.16781880  1
  I  I55  1  0.16721221  0.00273482  0.49989182  1
  I  I56  1  0.16429446  -0.00123486  0.83096311  1
  I  I57  1  0.16284259  0.33658789  0.16539578  1
  I  I58  1  0.16723591  0.33030721  0.50709279  1
  I  I59  1  0.16492461  0.33099870  0.83112879  1
  I  I60  1  0.16730070  0.66375354  0.16507654  1
  I  I61  1  0.16726762  0.66675272  0.50040171  1
  I  I62  1  0.16742214  0.66964754  0.83592583  1
  I  I63  1  0.50457309  -0.00198960  0.16361670  1
  I  I64  1  0.50058131  -0.00010399  0.50079148  1
  I  I65  1  0.50632804  -0.00423018  0.83376575  1
  I  I66  1  0.49817643  0.33195420  0.16971757  1
  I  I67  1  0.50160407  0.33620429  0.49649296  1
  I  I68  1  0.49954471  0.33337558  0.83480259  1
  I  I69  1  0.50173109  0.66981928  0.16392898  1
  I  I70  1  0.50000879  0.66457579  0.49644322  1
  I  I71  1  0.49579539  0.67070951  0.84067340  1
  I  I72  1  0.83168102  -0.00376258  0.16507772  1
  I  I73  1  0.83111192  -0.00469892  0.50115192  1
  I  I74  1  0.83207154  -0.00394865  0.83459325  1
  I  I75  1  0.83578690  0.33674649  0.16234045  1
  I  I76  1  0.83236883  0.33336290  0.49988992  1
  I  I77  1  0.83543584  0.33641661  0.83909344  1
  I  I78  1  0.83106104  0.66783283  0.16532554  1
  I  I79  1  0.83290997  0.66970273  0.50059784  1
  I  I80  1  0.83563816  0.66859403  0.83443124  1
  I  I81  1  0.16685395  0.16240840  -0.00269972  1
  I  I82  1  0.16818325  0.16882161  0.33499263  1
  I  I83  1  0.16679248  0.16222307  0.66762268  1
  I  I84  1  0.16670771  0.49812135  0.00281896  1
  I  I85  1  0.16092846  0.49868923  0.32987830  1
  I  I86  1  0.16617040  0.50121266  0.66687910  1
  I  I87  1  0.16226629  0.83942793  -0.00343037  1
  I  I88  1  0.16647823  0.83443652  0.33318645  1
  I  I89  1  0.16731055  0.83369770  0.67090377  1
  I  I90  1  0.49802832  0.16703740  0.00311592  1
  I  I91  1  0.49727425  0.16025488  0.33015573  1
  I  I92  1  0.50072819  0.16664014  0.66684783  1
  I  I93  1  0.49794627  0.49790140  -0.00017995  1
  I  I94  1  0.50116996  0.50152422  0.33502251  1
  I  I95  1  0.50007744  0.50190525  0.66375497  1
  I  I96  1  0.50473062  0.83619644  0.00029758  1
  I  I97  1  0.50496288  0.83474819  0.33028332  1
  I  I98  1  0.50146176  0.83059782  0.66959495  1
  I  I99  1  0.83661992  0.16306315  0.00003426  1
  I  I100  1  0.83616275  0.16703131  0.33309778  1
  I  I101  1  0.83093210  0.16699707  0.66669797  1
  I  I102  1  0.83667845  0.50887941  0.00071040  1
  I  I103  1  0.83499962  0.50474595  0.33026418  1
  I  I104  1  0.83263856  0.50646817  0.66933175  1
  I  I105  1  0.83218763  0.82901776  -0.00007769  1
  I  I106  1  0.82785400  0.82903199  0.33170860  1
  I  I107  1  0.83399210  0.82891790  0.66829577  1
  I  I108  1  0.00017320  0.16502876  0.16718851  1
  I  I109  1  0.00349242  0.16804823  0.50320391  1
  I  I110  1  0.00331921  0.16017836  0.83173807  1
  I  I111  1  -0.00156438  0.50485061  0.16379786  1
  I  I112  1  -0.00017989  0.49969538  0.50067083  1
  I  I113  1  -0.00333058  0.50683539  0.83440372  1
  I  I114  1  -0.00308949  0.83088892  0.16583999  1
  I  I115  1  -0.00389725  0.83211769  0.49867496  1
  I  I116  1  -0.00094456  0.83378140  0.83343519  1
  I  I117  1  0.33636098  0.16190471  0.16705133  1
  I  I118  1  0.33026713  0.16597844  0.50391027  1
  I  I119  1  0.32967501  0.16182115  0.83026748  1
  I  I120  1  0.33202692  0.49893631  0.16854480  1
  I  I121  1  0.33602469  0.50175070  0.49678922  1
  I  I122  1  0.33343159  0.50116187  0.83474447  1
  I  I123  1  0.33609494  0.83476826  0.16232547  1
  I  I124  1  0.33315914  0.83268855  0.49969822  1
  I  I125  1  0.33350147  0.83813585  0.83864781  1
  I  I126  1  0.66320071  0.16680894  0.16710893  1
  I  I127  1  0.66649631  0.16776667  0.49884818  1
  I  I128  1  0.66640207  0.16660460  0.83425766  1
  I  I129  1  0.66979340  0.50223588  0.16455261  1
  I  I130  1  0.66435848  0.50122303  0.49630206  1
  I  I131  1  0.67090861  0.50674690  0.84119102  1
  I  I132  1  0.66744471  0.83131507  0.16219485  1
  I  I133  1  0.66965021  0.83161514  0.50370087  1
  I  I134  1  0.66753659  0.82789027  0.83497785  1
