# generated using pymatgen
data_Cs27Sn13Pb14I81
_symmetry_space_group_name_H-M   'P 1'
_cell_length_a   18.98229948
_cell_length_b   18.98230504
_cell_length_c   18.96563509
_cell_angle_alpha   90.00260405
_cell_angle_beta   90.00177392
_cell_angle_gamma   90.00294464
_symmetry_Int_Tables_number   1
_chemical_formula_structural   Cs27Sn13Pb14I81
_chemical_formula_sum   'Cs27 Sn13 Pb14 I81'
_cell_volume   6833.84553310
_cell_formula_units_Z   1
loop_
 _symmetry_equiv_pos_site_id
 _symmetry_equiv_pos_as_xyz
  1  'x, y, z'
loop_
 _atom_site_type_symbol
 _atom_site_label
 _atom_site_symmetry_multiplicity
 _atom_site_fract_x
 _atom_site_fract_y
 _atom_site_fract_z
 _atom_site_occupancy
  Cs  Cs0  1  -0.00249589  -0.00217167  -0.00121846  1
  Cs  Cs1  1  0.00245997  0.00213851  0.33758646  1
  Cs  Cs2  1  -0.00104252  0.00107842  0.66420440  1
  Cs  Cs3  1  0.00172397  0.33325977  0.00033730  1
  Cs  Cs4  1  0.00006791  0.33272671  0.33380623  1
  Cs  Cs5  1  -0.00255163  0.33223510  0.66521339  1
  Cs  Cs6  1  0.00009953  0.66814221  0.00016496  1
  Cs  Cs7  1  -0.00378444  0.66507274  0.32926028  1
  Cs  Cs8  1  0.00145225  0.66753876  0.66780115  1
  Cs  Cs9  1  0.33349062  0.00137689  -0.00066239  1
  Cs  Cs10  1  0.33333675  0.00194365  0.33653453  1
  Cs  Cs11  1  0.33316054  -0.00057757  0.66542358  1
  Cs  Cs12  1  0.33268157  0.33269968  0.00268210  1
  Cs  Cs13  1  0.33275180  0.33136294  0.32145379  1
  Cs  Cs14  1  0.33423322  0.33420244  0.66834389  1
  Cs  Cs15  1  0.32946377  0.66523324  -0.00338380  1
  Cs  Cs16  1  0.34146191  0.66648720  0.33838807  1
  Cs  Cs17  1  0.33249888  0.66709279  0.66724160  1
  Cs  Cs18  1  0.66826738  -0.00021095  0.00206691  1
  Cs  Cs19  1  0.66393668  -0.00376990  0.32502303  1
  Cs  Cs20  1  0.66831036  0.00260196  0.66789646  1
  Cs  Cs21  1  0.66524032  0.32972304  -0.00084224  1
  Cs  Cs22  1  0.66658514  0.34217387  0.33554450  1
  Cs  Cs23  1  0.66853953  0.33187347  0.66508822  1
  Cs  Cs24  1  0.66981541  0.66979751  0.00204317  1
  Cs  Cs25  1  0.66343181  0.66158259  0.32966817  1
  Cs  Cs26  1  0.66624327  0.66571100  0.66621373  1
  Sn  Sn27  1  0.16683699  0.49990798  0.50057182  1
  Sn  Sn28  1  0.83339165  0.83254153  0.83215781  1
  Sn  Sn29  1  0.50020411  0.49999625  0.83309508  1
  Sn  Sn30  1  0.83351921  0.16693063  0.16690327  1
  Sn  Sn31  1  0.49904627  0.16653796  0.83234397  1
  Sn  Sn32  1  0.83342644  0.50072921  0.83320708  1
  Sn  Sn33  1  0.16710561  0.83322199  0.16656220  1
  Sn  Sn34  1  0.50003735  0.83341845  0.83316815  1
  Sn  Sn35  1  0.83301240  0.83322978  0.50039333  1
  Sn  Sn36  1  0.16643102  0.49973228  0.83239503  1
  Sn  Sn37  1  0.50003670  0.16676516  0.50055068  1
  Sn  Sn38  1  0.16720714  0.16652542  0.83305293  1
  Sn  Sn39  1  0.16658630  0.83373204  0.83380398  1
  Pb  Pb40  1  0.49990728  0.50025951  0.16362400  1
  Pb  Pb41  1  0.16858886  0.16907781  0.50219596  1
  Pb  Pb42  1  0.49770856  0.49776495  0.50231405  1
  Pb  Pb43  1  0.16672139  0.50252320  0.16652992  1
  Pb  Pb44  1  0.83354005  0.49761245  0.16386379  1
  Pb  Pb45  1  0.83514562  0.83452108  0.16660539  1
  Pb  Pb46  1  0.16521320  0.83148744  0.50029438  1
  Pb  Pb47  1  0.49699502  0.83332502  0.16411621  1
  Pb  Pb48  1  0.83518656  0.50210855  0.50232150  1
  Pb  Pb49  1  0.50185246  0.16667548  0.16633301  1
  Pb  Pb50  1  0.16486683  0.16433947  0.16420868  1
  Pb  Pb51  1  0.83076222  0.16458818  0.49719545  1
  Pb  Pb52  1  0.50239956  0.83498996  0.50236908  1
  Pb  Pb53  1  0.83324118  0.16651430  0.83408911  1
  I  I54  1  0.16525005  -0.00322395  0.15925368  1
  I  I55  1  0.16620248  0.00001303  0.50083291  1
  I  I56  1  0.16876546  -0.00065855  0.83805981  1
  I  I57  1  0.16587886  0.33330084  0.16518032  1
  I  I58  1  0.16554014  0.33670480  0.50821562  1
  I  I59  1  0.16863319  0.33379826  0.82934263  1
  I  I60  1  0.16365104  0.66997828  0.15719714  1
  I  I61  1  0.16647487  0.66392750  0.50836855  1
  I  I62  1  0.16840881  0.66683309  0.83379258  1
  I  I63  1  0.50101505  0.00000762  0.16306199  1
  I  I64  1  0.49922134  0.00276389  0.50770133  1
  I  I65  1  0.49731377  0.00000869  0.83022751  1
  I  I66  1  0.49962287  0.33319065  0.16339333  1
  I  I67  1  0.50134898  0.33014964  0.50843487  1
  I  I68  1  0.49763733  0.33311497  0.83028008  1
  I  I69  1  0.50154441  0.66696228  0.16653536  1
  I  I70  1  0.49965325  0.66646478  0.50102839  1
  I  I71  1  0.49726828  0.66683595  0.83457614  1
  I  I72  1  0.83360806  0.00201001  0.16189460  1
  I  I73  1  0.83560553  -0.00307646  0.50909067  1
  I  I74  1  0.83399894  -0.00290920  0.83236792  1
  I  I75  1  0.83359471  0.33008710  0.16370387  1
  I  I76  1  0.83339748  0.33345356  0.50046633  1
  I  I77  1  0.83400004  0.33582235  0.83625335  1
  I  I78  1  0.83482489  0.66673381  0.16703186  1
  I  I79  1  0.83418418  0.67000394  0.50316335  1
  I  I80  1  0.83386556  0.66749659  0.83072016  1
  I  I81  1  0.17244440  0.17124746  -0.00457355  1
  I  I82  1  0.16767177  0.16648768  0.33334620  1
  I  I83  1  0.16674484  0.16133713  0.67105227  1
  I  I84  1  0.16722359  0.49864127  -0.00428131  1
  I  I85  1  0.16570522  0.50168771  0.33610875  1
  I  I86  1  0.16683823  0.50268786  0.67006193  1
  I  I87  1  0.16456440  0.83170961  -0.00350389  1
  I  I88  1  0.16191572  0.83196137  0.33116407  1
  I  I89  1  0.16819482  0.83418418  0.67069938  1
  I  I90  1  0.49727570  0.16715874  -0.00400299  1
  I  I91  1  0.50176174  0.16567587  0.33602200  1
  I  I92  1  0.49723731  0.16619576  0.66960244  1
  I  I93  1  0.49621403  0.49674847  -0.00580153  1
  I  I94  1  0.49802427  0.49760493  0.33386471  1
  I  I95  1  0.50107650  0.50232087  0.67128713  1
  I  I96  1  0.50556305  0.83622660  -0.00525538  1
  I  I97  1  0.50008907  0.83629737  0.33355381  1
  I  I98  1  0.49431708  0.83116924  0.67141097  1
  I  I99  1  0.83226289  0.16445456  0.00131857  1
  I  I100  1  0.83337355  0.16287278  0.33000459  1
  I  I101  1  0.83469355  0.16757958  0.66676421  1
  I  I102  1  0.83624505  0.50703150  -0.00501775  1
  I  I103  1  0.83558468  0.50100824  0.33357752  1
  I  I104  1  0.83185644  0.50023517  0.67109191  1
  I  I105  1  0.83212926  0.83106153  -0.00374303  1
  I  I106  1  0.83722982  0.83747564  0.33569326  1
  I  I107  1  0.83588946  0.83113311  0.66957139  1
  I  I108  1  -0.00249698  0.16539263  0.16313853  1
  I  I109  1  0.00000749  0.16655303  0.50062047  1
  I  I110  1  0.00253994  0.16660258  0.83629704  1
  I  I111  1  0.00017090  0.49984319  0.16305709  1
  I  I112  1  0.00293542  0.49992497  0.50816662  1
  I  I113  1  0.00070028  0.50265023  0.83058455  1
  I  I114  1  0.00264636  0.83391030  0.15799324  1
  I  I115  1  -0.00254058  0.83385815  0.50742802  1
  I  I116  1  0.00029663  0.83101983  0.83420168  1
  I  I117  1  0.33325940  0.16608082  0.16732266  1
  I  I118  1  0.33636431  0.16474082  0.50379010  1
  I  I119  1  0.33347104  0.16616560  0.83091398  1
  I  I120  1  0.33303430  0.49866560  0.16394363  1
  I  I121  1  0.33008232  0.50260056  0.50841457  1
  I  I122  1  0.33281171  0.50252222  0.83001159  1
  I  I123  1  0.32924527  0.83397726  0.15958435  1
  I  I124  1  0.33344275  0.83326733  0.49999908  1
  I  I125  1  0.33288097  0.83165730  0.83802791  1
  I  I126  1  0.66925395  0.16337154  0.16137848  1
  I  I127  1  0.66340482  0.16658023  0.51025131  1
  I  I128  1  0.66384504  0.16691805  0.83215283  1
  I  I129  1  0.66686607  0.50028249  0.16549807  1
  I  I130  1  0.66648711  0.49934241  0.50161922  1
  I  I131  1  0.66648608  0.50208772  0.83467083  1
  I  I132  1  0.66673920  0.83576269  0.16472689  1
  I  I133  1  0.67013734  0.83447648  0.50710743  1
  I  I134  1  0.66694474  0.83137780  0.82876490  1
