# generated using pymatgen
data_Cs27Sn14Pb13I81
_symmetry_space_group_name_H-M   'P 1'
_cell_length_a   18.96389975
_cell_length_b   18.96357800
_cell_length_c   18.95488195
_cell_angle_alpha   90.00098842
_cell_angle_beta   89.99896924
_cell_angle_gamma   90.00036170
_symmetry_Int_Tables_number   1
_chemical_formula_structural   Cs27Sn14Pb13I81
_chemical_formula_sum   'Cs27 Sn14 Pb13 I81'
_cell_volume   6816.61894018
_cell_formula_units_Z   1
loop_
 _symmetry_equiv_pos_site_id
 _symmetry_equiv_pos_as_xyz
  1  'x, y, z'
loop_
 _atom_site_type_symbol
 _atom_site_label
 _atom_site_symmetry_multiplicity
 _atom_site_fract_x
 _atom_site_fract_y
 _atom_site_fract_z
 _atom_site_occupancy
  Cs  Cs0  1  -0.00021553  0.00068761  -0.00077091  1
  Cs  Cs1  1  -0.00122414  -0.00107918  0.33555397  1
  Cs  Cs2  1  -0.00084492  -0.00049881  0.66593496  1
  Cs  Cs3  1  0.00321939  0.33294995  -0.00062100  1
  Cs  Cs4  1  0.00153907  0.33930843  0.33282350  1
  Cs  Cs5  1  -0.00040133  0.33263744  0.66900151  1
  Cs  Cs6  1  -0.00052187  0.66636001  -0.00033527  1
  Cs  Cs7  1  -0.00016592  0.66079772  0.34117678  1
  Cs  Cs8  1  0.00067762  0.66682317  0.66314703  1
  Cs  Cs9  1  0.32918768  -0.00349641  0.00142048  1
  Cs  Cs10  1  0.33502558  0.00001421  0.33252168  1
  Cs  Cs11  1  0.33647756  0.00347380  0.66503383  1
  Cs  Cs12  1  0.32754103  0.33339290  -0.00031063  1
  Cs  Cs13  1  0.33295304  0.33323094  0.33292722  1
  Cs  Cs14  1  0.33819079  0.32964786  0.66716478  1
  Cs  Cs15  1  0.33461559  0.66913910  -0.00258400  1
  Cs  Cs16  1  0.33338989  0.66668181  0.33443721  1
  Cs  Cs17  1  0.33222920  0.66615970  0.66915818  1
  Cs  Cs18  1  0.66938910  -0.00318613  0.00324834  1
  Cs  Cs19  1  0.66611339  0.00029008  0.33229854  1
  Cs  Cs20  1  0.66557761  0.00485634  0.66660962  1
  Cs  Cs21  1  0.66862700  0.33496826  -0.00049904  1
  Cs  Cs22  1  0.66627220  0.33308123  0.33353164  1
  Cs  Cs23  1  0.66302526  0.32820646  0.66861094  1
  Cs  Cs24  1  0.66628626  0.66754269  -0.00027889  1
  Cs  Cs25  1  0.66746789  0.66596636  0.33284412  1
  Cs  Cs26  1  0.66690815  0.66617991  0.66867108  1
  Sn  Sn27  1  0.83407913  0.83344322  0.16661061  1
  Sn  Sn28  1  0.83410559  0.50091619  0.83351189  1
  Sn  Sn29  1  0.83460720  0.16661898  0.49874009  1
  Sn  Sn30  1  0.83301670  0.16626092  0.16767250  1
  Sn  Sn31  1  0.50050466  0.16661003  0.16666133  1
  Sn  Sn32  1  0.16576133  0.50084724  0.83331846  1
  Sn  Sn33  1  0.16590581  0.83291896  0.16681756  1
  Sn  Sn34  1  0.50021772  0.50124782  0.49936433  1
  Sn  Sn35  1  0.16544312  0.16659688  0.49957727  1
  Sn  Sn36  1  0.16552930  0.83259195  0.83379015  1
  Sn  Sn37  1  0.49997298  0.50015849  0.16723682  1
  Sn  Sn38  1  0.50002718  0.83321174  0.16758926  1
  Sn  Sn39  1  0.83422695  0.83248002  0.83385129  1
  Sn  Sn40  1  0.50023787  0.83227094  0.49942486  1
  Pb  Pb41  1  0.16656120  0.16580110  0.83110295  1
  Pb  Pb42  1  0.83091396  0.49731790  0.50274164  1
  Pb  Pb43  1  0.49999116  0.16634784  0.83779108  1
  Pb  Pb44  1  0.83110222  0.83476868  0.50010068  1
  Pb  Pb45  1  0.83335458  0.16607934  0.83421073  1
  Pb  Pb46  1  0.50023319  0.83362749  0.83353302  1
  Pb  Pb47  1  0.16909304  0.49771814  0.50259583  1
  Pb  Pb48  1  0.16907729  0.50287046  0.16484881  1
  Pb  Pb49  1  0.49993571  0.50003777  0.83359378  1
  Pb  Pb50  1  0.16877976  0.83464335  0.50033653  1
  Pb  Pb51  1  0.83174269  0.50020512  0.16505481  1
  Pb  Pb52  1  0.16588926  0.16464592  0.16850282  1
  Pb  Pb53  1  0.50041102  0.16663980  0.49790565  1
  I  I54  1  0.17204610  -0.00365977  0.16069962  1
  I  I55  1  0.16641931  0.00248270  0.50157857  1
  I  I56  1  0.16302595  -0.00371347  0.83710992  1
  I  I57  1  0.16834530  0.33349548  0.16525807  1
  I  I58  1  0.16538829  0.33002498  0.50041939  1
  I  I59  1  0.16365581  0.33595072  0.83211418  1
  I  I60  1  0.16681327  0.67123849  0.16542347  1
  I  I61  1  0.16741531  0.66664463  0.49885262  1
  I  I62  1  0.16365259  0.66778110  0.83702657  1
  I  I63  1  0.50092599  -0.00112294  0.17046206  1
  I  I64  1  0.49957057  -0.00215425  0.49653281  1
  I  I65  1  0.49965424  -0.00042140  0.82921921  1
  I  I66  1  0.50502504  0.33322200  0.17043138  1
  I  I67  1  0.49977397  0.33532335  0.49695961  1
  I  I68  1  0.50035400  0.33357795  0.83109961  1
  I  I69  1  0.50014891  0.66779569  0.17019832  1
  I  I70  1  0.49971738  0.66711123  0.49185019  1
  I  I71  1  0.50033468  0.66680771  0.83656562  1
  I  I72  1  0.82803325  -0.00099296  0.16451398  1
  I  I73  1  0.83322310  0.00282350  0.50076459  1
  I  I74  1  0.83697571  -0.00332664  0.83501728  1
  I  I75  1  0.82725312  0.33066423  0.16842750  1
  I  I76  1  0.83435164  0.32944745  0.49501337  1
  I  I77  1  0.83605589  0.33580739  0.83310867  1
  I  I78  1  0.83096436  0.66991816  0.16301726  1
  I  I79  1  0.83288512  0.66658867  0.49819511  1
  I  I80  1  0.83583222  0.66794280  0.83891701  1
  I  I81  1  0.16796176  0.16808678  0.00021596  1
  I  I82  1  0.16693018  0.16404142  0.33611319  1
  I  I83  1  0.16228524  0.16493410  0.66321870  1
  I  I84  1  0.16563012  0.49989188  -0.00327121  1
  I  I85  1  0.16669151  0.50055475  0.33340765  1
  I  I86  1  0.16498711  0.50689977  0.67049244  1
  I  I87  1  0.16962679  0.83146853  0.00029096  1
  I  I88  1  0.16633830  0.83690315  0.33055197  1
  I  I89  1  0.16363442  0.83114385  0.66970498  1
  I  I90  1  0.50629501  0.16585530  0.00587057  1
  I  I91  1  0.50138900  0.16531308  0.32996577  1
  I  I92  1  0.50034930  0.16708126  0.66621457  1
  I  I93  1  0.50053328  0.50113414  0.00311980  1
  I  I94  1  0.50045067  0.50084216  0.33243217  1
  I  I95  1  0.49982900  0.50413216  0.66410639  1
  I  I96  1  0.50009232  0.83297524  0.00362252  1
  I  I97  1  0.49971077  0.83354791  0.33139095  1
  I  I98  1  0.49953179  0.82893147  0.66395901  1
  I  I99  1  0.82748540  0.16483054  0.00341629  1
  I  I100  1  0.83166591  0.16017267  0.33208453  1
  I  I101  1  0.83616570  0.16669696  0.66433642  1
  I  I102  1  0.83354318  0.49944868  -0.00302480  1
  I  I103  1  0.83310401  0.50174726  0.33339870  1
  I  I104  1  0.83475767  0.50543148  0.67060853  1
  I  I105  1  0.83102469  0.83553596  0.00106420  1
  I  I106  1  0.83394979  0.83688820  0.33011548  1
  I  I107  1  0.83630212  0.83148266  0.66950033  1
  I  I108  1  -0.00319892  0.16125772  0.16788310  1
  I  I109  1  -0.00095370  0.16452589  0.49525215  1
  I  I110  1  -0.00012518  0.16771773  0.83660500  1
  I  I111  1  0.00010859  0.49894758  0.16633148  1
  I  I112  1  -0.00008586  0.49991698  0.49961374  1
  I  I113  1  -0.00016624  0.50377932  0.83392771  1
  I  I114  1  -0.00089731  0.84030714  0.16020322  1
  I  I115  1  -0.00014624  0.83451602  0.49769116  1
  I  I116  1  -0.00025339  0.83018915  0.84119121  1
  I  I117  1  0.33583978  0.16538853  0.16863450  1
  I  I118  1  0.33203446  0.16618492  0.50021952  1
  I  I119  1  0.33311847  0.16771118  0.83054431  1
  I  I120  1  0.33746607  0.49858139  0.16801659  1
  I  I121  1  0.33704256  0.50116355  0.49777313  1
  I  I122  1  0.33075936  0.50477637  0.83379233  1
  I  I123  1  0.33412831  0.83394538  0.16571662  1
  I  I124  1  0.33683113  0.83338490  0.49590428  1
  I  I125  1  0.33049000  0.82906594  0.83688808  1
  I  I126  1  0.66692969  0.16160764  0.17205950  1
  I  I127  1  0.66884871  0.16637267  0.49863026  1
  I  I128  1  0.66698299  0.16774783  0.82649811  1
  I  I129  1  0.66337937  0.50365905  0.16722680  1
  I  I130  1  0.66299547  0.50174249  0.49773573  1
  I  I131  1  0.66923139  0.50416877  0.83403691  1
  I  I132  1  0.66659904  0.83478746  0.16585827  1
  I  I133  1  0.66307752  0.83278482  0.49594127  1
  I  I134  1  0.66979753  0.82952965  0.83694262  1
