# generated using pymatgen
data_Cs27Sn14Pb13I81
_symmetry_space_group_name_H-M   'P 1'
_cell_length_a   18.96174118
_cell_length_b   18.96223834
_cell_length_c   18.96223834
_cell_angle_alpha   89.99757173
_cell_angle_beta   89.99999996
_cell_angle_gamma   89.99999997
_symmetry_Int_Tables_number   1
_chemical_formula_structural   Cs27Sn14Pb13I81
_chemical_formula_sum   'Cs27 Sn14 Pb13 I81'
_cell_volume   6818.00658039
_cell_formula_units_Z   1
loop_
 _symmetry_equiv_pos_site_id
 _symmetry_equiv_pos_as_xyz
  1  'x, y, z'
loop_
 _atom_site_type_symbol
 _atom_site_label
 _atom_site_symmetry_multiplicity
 _atom_site_fract_x
 _atom_site_fract_y
 _atom_site_fract_z
 _atom_site_occupancy
  Cs  Cs0  1  -0.00110119  0.00199388  0.00177831  1
  Cs  Cs1  1  -0.00110124  -0.00199399  0.33155503  1
  Cs  Cs2  1  0.00471478  0.00000009  0.66666674  1
  Cs  Cs3  1  -0.00040556  0.33353646  0.00020313  1
  Cs  Cs4  1  -0.00336461  0.33740702  0.32925950  1
  Cs  Cs5  1  -0.00110117  0.33511162  0.66866068  1
  Cs  Cs6  1  -0.00336446  0.66259287  0.00407380  1
  Cs  Cs7  1  -0.00040560  0.66646359  0.33313015  1
  Cs  Cs8  1  -0.00110114  0.66488829  0.66467273  1
  Cs  Cs9  1  0.33341713  -0.00067720  -0.00155709  1
  Cs  Cs10  1  0.33341704  0.00067715  0.33489050  1
  Cs  Cs11  1  0.32571875  0.00000009  0.66666690  1
  Cs  Cs12  1  0.33357008  0.33459924  0.00126583  1
  Cs  Cs13  1  0.33482571  0.33376617  0.33290058  1
  Cs  Cs14  1  0.33341709  0.33177625  0.66598952  1
  Cs  Cs15  1  0.33482579  0.66623388  0.00043287  1
  Cs  Cs16  1  0.33357010  0.66540085  0.33206754  1
  Cs  Cs17  1  0.33341704  0.66822375  0.66734380  1
  Cs  Cs18  1  0.66715175  0.00012961  -0.00010447  1
  Cs  Cs19  1  0.66715181  -0.00012957  0.33343773  1
  Cs  Cs20  1  0.66546827  -0.00000001  0.66666673  1
  Cs  Cs21  1  0.66533094  0.33141474  -0.00191856  1
  Cs  Cs22  1  0.66572376  0.33275013  0.33391649  1
  Cs  Cs23  1  0.66715185  0.33322897  0.66679619  1
  Cs  Cs24  1  0.66572366  0.66724961  -0.00058303  1
  Cs  Cs25  1  0.66533103  0.66858539  0.33525201  1
  Cs  Cs26  1  0.66715181  0.66677115  0.66653708  1
  Sn  Sn27  1  0.83262885  0.83458919  0.50125584  1
  Sn  Sn28  1  0.83340513  0.83430812  0.83235852  1
  Sn  Sn29  1  0.83340513  0.16569184  0.50097482  1
  Sn  Sn30  1  0.16771704  0.49991850  0.50090028  1
  Sn  Sn31  1  0.50014802  0.83301953  0.49968619  1
  Sn  Sn32  1  0.16771704  0.50008145  0.83243309  1
  Sn  Sn33  1  0.49905635  0.83441198  0.16742505  1
  Sn  Sn34  1  0.50014806  0.16698052  0.83364718  1
  Sn  Sn35  1  0.49905636  0.49924160  0.83225473  1
  Sn  Sn36  1  0.49905638  0.50075842  0.50107866  1
  Sn  Sn37  1  0.16771706  0.83423362  0.16658521  1
  Sn  Sn38  1  0.83262884  0.16541086  0.83207750  1
  Sn  Sn39  1  0.49905633  0.16558804  0.16590830  1
  Sn  Sn40  1  0.16771706  0.16576637  0.16674813  1
  Pb  Pb41  1  0.16697581  0.50000005  0.16666670  1
  Pb  Pb42  1  0.83269325  0.83339980  0.16690003  1
  Pb  Pb43  1  0.16358909  0.83071417  0.83595250  1
  Pb  Pb44  1  0.83269327  0.50023338  0.50006649  1
  Pb  Pb45  1  0.16673137  0.83156906  0.49823574  1
  Pb  Pb46  1  0.83269329  0.49976669  0.83326689  1
  Pb  Pb47  1  0.16673137  0.16843096  0.83509763  1
  Pb  Pb48  1  0.83269330  0.16660021  0.16643327  1
  Pb  Pb49  1  0.50020089  0.50000000  0.16666671  1
  Pb  Pb50  1  0.16358908  0.16928583  0.49738082  1
  Pb  Pb51  1  0.50114098  0.16636940  0.50029722  1
  Pb  Pb52  1  0.83271072  0.49999999  0.16666668  1
  Pb  Pb53  1  0.50114101  0.83363058  0.83303612  1
  I  I54  1  0.17032674  0.00000001  0.16666666  1
  I  I55  1  0.16848677  0.00005459  0.49996585  1
  I  I56  1  0.16848678  -0.00005454  0.83336742  1
  I  I57  1  0.17003302  0.33071607  0.16656128  1
  I  I58  1  0.17201954  0.33711402  0.50152990  1
  I  I59  1  0.16561902  0.33646755  0.83249579  1
  I  I60  1  0.17003296  0.66928388  0.16677204  1
  I  I61  1  0.16561910  0.66353247  0.50083731  1
  I  I62  1  0.17201955  0.66288599  0.83180362  1
  I  I63  1  0.49655368  -0.00000000  0.16666670  1
  I  I64  1  0.50415200  -0.00269261  0.49785957  1
  I  I65  1  0.50415188  0.00269260  0.83547352  1
  I  I66  1  0.49664051  0.33025673  0.16590863  1
  I  I67  1  0.49865631  0.33567259  0.50011358  1
  I  I68  1  0.50268235  0.33299453  0.83428453  1
  I  I69  1  0.49664035  0.66974326  0.16742450  1
  I  I70  1  0.50268236  0.66700542  0.49904901  1
  I  I71  1  0.49865633  0.66432739  0.83321959  1
  I  I72  1  0.83445998  -0.00000005  0.16666695  1
  I  I73  1  0.82709520  -0.00087100  0.50313055  1
  I  I74  1  0.82709532  0.00087104  0.83020254  1
  I  I75  1  0.83486251  0.33255725  0.16757294  1
  I  I76  1  0.83316140  0.33070841  0.50342009  1
  I  I77  1  0.83213805  0.33019235  0.82998025  1
  I  I78  1  0.83486280  0.66744272  0.16576019  1
  I  I79  1  0.83213803  0.66980760  0.50335339  1
  I  I80  1  0.83316140  0.66929158  0.82991312  1
  I  I81  1  0.16561884  0.16582923  0.00313421  1
  I  I82  1  0.17201974  0.16513709  0.32955264  1
  I  I83  1  0.16848687  0.16670062  0.66661212  1
  I  I84  1  0.17003291  0.49989468  -0.00261723  1
  I  I85  1  0.17003319  0.50010511  0.33595055  1
  I  I86  1  0.17032675  0.50000016  0.66666666  1
  I  I87  1  0.17201942  0.83486301  0.00378068  1
  I  I88  1  0.16561893  0.83417082  0.33019912  1
  I  I89  1  0.16848712  0.83329924  0.66672122  1
  I  I90  1  0.50268233  0.16761739  -0.00033880  1
  I  I91  1  0.49865639  0.16655300  0.33099403  1
  I  I92  1  0.50415202  0.16880723  0.66935927  1
  I  I93  1  0.49664056  0.49924228  -0.00307659  1
  I  I94  1  0.49664045  0.50075784  0.33640994  1
  I  I95  1  0.49655351  0.49999984  0.66666668  1
  I  I96  1  0.49865635  0.83344710  0.00233927  1
  I  I97  1  0.50268244  0.83238234  0.33367210  1
  I  I98  1  0.50415188  0.83119287  0.66397406  1
  I  I99  1  0.83213826  0.16331343  -0.00314100  1
  I  I100  1  0.83316138  0.16324667  0.33595825  1
  I  I101  1  0.82709516  0.16353578  0.66753766  1
  I  I102  1  0.83486248  0.50090608  -0.00077604  1
  I  I103  1  0.83486233  0.49909410  0.33410941  1
  I  I104  1  0.83446015  0.49999978  0.66666663  1
  I  I105  1  0.83316158  0.83675369  -0.00262493  1
  I  I106  1  0.83213811  0.83668612  0.33647429  1
  I  I107  1  0.82709503  0.83646431  0.66579565  1
  I  I108  1  0.00240958  0.16378970  0.16711243  1
  I  I109  1  -0.00426088  0.16204955  0.50461714  1
  I  I110  1  -0.00277482  0.16518388  0.83185030  1
  I  I111  1  0.00063461  0.49999987  0.16666675  1
  I  I112  1  0.00240956  0.49955456  0.50287688  1
  I  I113  1  0.00240955  0.50044555  0.83045638  1
  I  I114  1  0.00240955  0.83621036  0.16622117  1
  I  I115  1  -0.00277480  0.83481613  0.50148300  1
  I  I116  1  -0.00426086  0.83795046  0.82871590  1
  I  I117  1  0.33461422  0.16314285  0.16140133  1
  I  I118  1  0.33323798  0.16488668  0.50177998  1
  I  I119  1  0.33626844  0.16955724  0.83622391  1
  I  I120  1  0.33351450  0.49999997  0.16666648  1
  I  I121  1  0.33461421  0.50526528  0.50352384  1
  I  I122  1  0.33461421  0.49473467  0.82980960  1
  I  I123  1  0.33461421  0.83685721  0.17193188  1
  I  I124  1  0.33626846  0.83044271  0.49710915  1
  I  I125  1  0.33323797  0.83511335  0.83155359  1
  I  I126  1  0.66334071  0.16279602  0.16542495  1
  I  I127  1  0.66922250  0.16774823  0.49891845  1
  I  I128  1  0.66612811  0.16957584  0.83624268  1
  I  I129  1  0.66570752  0.50000016  0.16666653  1
  I  I130  1  0.66334077  0.50124160  0.50387088  1
  I  I131  1  0.66334074  0.49875841  0.82946254  1
  I  I132  1  0.66334073  0.83720393  0.16790831  1
  I  I133  1  0.66612812  0.83042398  0.49709076  1
  I  I134  1  0.66922248  0.83225196  0.83441487  1
