# generated using pymatgen
data_Cs27Sn14Pb13I81
_symmetry_space_group_name_H-M   'P 1'
_cell_length_a   18.96536990
_cell_length_b   18.96200009
_cell_length_c   18.95556296
_cell_angle_alpha   90.00006693
_cell_angle_beta   89.99979466
_cell_angle_gamma   90.00003514
_symmetry_Int_Tables_number   1
_chemical_formula_structural   Cs27Sn14Pb13I81
_chemical_formula_sum   'Cs27 Sn14 Pb13 I81'
_cell_volume   6816.82506051
_cell_formula_units_Z   1
loop_
 _symmetry_equiv_pos_site_id
 _symmetry_equiv_pos_as_xyz
  1  'x, y, z'
loop_
 _atom_site_type_symbol
 _atom_site_label
 _atom_site_symmetry_multiplicity
 _atom_site_fract_x
 _atom_site_fract_y
 _atom_site_fract_z
 _atom_site_occupancy
  Cs  Cs0  1  -0.00289773  0.00067115  -0.00215048  1
  Cs  Cs1  1  0.00268164  -0.00095224  0.33625727  1
  Cs  Cs2  1  0.00057587  0.00656037  0.66640267  1
  Cs  Cs3  1  0.00370462  0.33327890  0.00016233  1
  Cs  Cs4  1  -0.00043887  0.33390841  0.33243160  1
  Cs  Cs5  1  -0.00327061  0.32651000  0.67067600  1
  Cs  Cs6  1  -0.00185410  0.66641454  -0.00158377  1
  Cs  Cs7  1  0.00288182  0.66724779  0.33259437  1
  Cs  Cs8  1  -0.00254698  0.66673752  0.67121721  1
  Cs  Cs9  1  0.33609451  -0.00183798  0.00039847  1
  Cs  Cs10  1  0.33318233  -0.00322024  0.33493528  1
  Cs  Cs11  1  0.33325432  -0.00038541  0.66540220  1
  Cs  Cs12  1  0.33243049  0.33365042  -0.00031678  1
  Cs  Cs13  1  0.33351312  0.33431043  0.33226289  1
  Cs  Cs14  1  0.33323072  0.33569255  0.67139879  1
  Cs  Cs15  1  0.33318453  0.66835948  -0.00025729  1
  Cs  Cs16  1  0.33011631  0.66876591  0.33261637  1
  Cs  Cs17  1  0.33459577  0.66545615  0.66804148  1
  Cs  Cs18  1  0.66492552  -0.00095025  -0.00056343  1
  Cs  Cs19  1  0.66502904  -0.00033460  0.33307089  1
  Cs  Cs20  1  0.66575049  -0.00110847  0.66709335  1
  Cs  Cs21  1  0.66467100  0.33168541  0.00389769  1
  Cs  Cs22  1  0.66734776  0.33382363  0.33298273  1
  Cs  Cs23  1  0.66977712  0.34084892  0.66223773  1
  Cs  Cs24  1  0.66859277  0.66863851  -0.00034596  1
  Cs  Cs25  1  0.66687326  0.66694873  0.33397596  1
  Cs  Cs26  1  0.66747786  0.66317601  0.66587196  1
  Sn  Sn27  1  0.83345394  0.50004900  0.16700827  1
  Sn  Sn28  1  0.49990825  0.16646965  0.50008231  1
  Sn  Sn29  1  0.83283066  0.83341331  0.49928036  1
  Sn  Sn30  1  0.50063121  0.83378338  0.50078026  1
  Sn  Sn31  1  0.49957166  0.16721098  0.16693791  1
  Sn  Sn32  1  0.83346967  0.16634590  0.16695405  1
  Sn  Sn33  1  0.83328095  0.83356951  0.16778043  1
  Sn  Sn34  1  0.16683945  0.49942832  0.16753056  1
  Sn  Sn35  1  0.16709879  0.16686140  0.16699685  1
  Sn  Sn36  1  0.49917455  0.83399155  0.83220226  1
  Sn  Sn37  1  0.50030709  0.16630458  0.83292993  1
  Sn  Sn38  1  0.16725766  0.83361784  0.83313789  1
  Sn  Sn39  1  0.16640470  0.49960819  0.50003070  1
  Sn  Sn40  1  0.49972392  0.49961619  0.16683499  1
  Pb  Pb41  1  0.83016919  0.16681450  0.83545565  1
  Pb  Pb42  1  0.83328799  0.49951544  0.83583294  1
  Pb  Pb43  1  0.16663570  0.50168873  0.83363045  1
  Pb  Pb44  1  0.83264897  0.83354002  0.83263981  1
  Pb  Pb45  1  0.16391614  0.83342235  0.16494427  1
  Pb  Pb46  1  0.83109694  0.16472778  0.49777999  1
  Pb  Pb47  1  0.16913498  0.16900539  0.49805415  1
  Pb  Pb48  1  0.49840025  0.50029381  0.49768058  1
  Pb  Pb49  1  0.83596626  0.50212190  0.49787472  1
  Pb  Pb50  1  0.50158468  0.83343976  0.16681322  1
  Pb  Pb51  1  0.16657638  0.83168576  0.50235913  1
  Pb  Pb52  1  0.50017334  0.50008850  0.83594972  1
  Pb  Pb53  1  0.16900492  0.16457787  0.83572420  1
  I  I54  1  0.16841443  0.00273964  0.16439756  1
  I  I55  1  0.16565105  0.00007564  0.49879723  1
  I  I56  1  0.16858547  -0.00325217  0.83491332  1
  I  I57  1  0.16378320  0.33361097  0.16931478  1
  I  I58  1  0.16894186  0.33677532  0.49589294  1
  I  I59  1  0.16843599  0.33301416  0.83324106  1
  I  I60  1  0.16736400  0.66382388  0.16846838  1
  I  I61  1  0.16902325  0.66406235  0.49134142  1
  I  I62  1  0.17310523  0.66973553  0.83612745  1
  I  I63  1  0.50022713  0.00296360  0.16619145  1
  I  I64  1  0.50273058  -0.00025575  0.49744835  1
  I  I65  1  0.49660310  -0.00023588  0.83651576  1
  I  I66  1  0.50360389  0.33202117  0.16646635  1
  I  I67  1  0.49777045  0.33064314  0.50054937  1
  I  I68  1  0.50011292  0.33011876  0.83324439  1
  I  I69  1  0.49994308  0.66434906  0.16673036  1
  I  I70  1  0.50254498  0.66967465  0.50276296  1
  I  I71  1  0.49696588  0.66995324  0.83087061  1
  I  I72  1  0.83178935  0.00031185  0.16920533  1
  I  I73  1  0.83241000  -0.00348822  0.49338424  1
  I  I74  1  0.83539728  -0.00010044  0.83838629  1
  I  I75  1  0.83214945  0.33318837  0.16497773  1
  I  I76  1  0.83171294  0.33331588  0.49864072  1
  I  I77  1  0.83237370  0.33298622  0.83425953  1
  I  I78  1  0.83275146  0.66654846  0.16975832  1
  I  I79  1  0.82631395  0.67023224  0.49376099  1
  I  I80  1  0.83166518  0.66705578  0.83730981  1
  I  I81  1  0.16803023  0.17275651  0.00433367  1
  I  I82  1  0.16879203  0.16689672  0.32925924  1
  I  I83  1  0.16782604  0.16785834  0.66670615  1
  I  I84  1  0.16630690  0.49702208  0.00395048  1
  I  I85  1  0.16713668  0.49844929  0.33077017  1
  I  I86  1  0.16954681  0.50406140  0.66414158  1
  I  I87  1  0.17287370  0.83216264  -0.00256130  1
  I  I88  1  0.16872935  0.83408995  0.33323884  1
  I  I89  1  0.16745777  0.83066724  0.66984414  1
  I  I90  1  0.50047523  0.16601783  0.00133568  1
  I  I91  1  0.50062848  0.16610495  0.33210247  1
  I  I92  1  0.49865973  0.15959466  0.66651323  1
  I  I93  1  0.49804244  0.49668893  0.00463320  1
  I  I94  1  0.50212451  0.49627621  0.32921624  1
  I  I95  1  0.49705965  0.49765994  0.66639423  1
  I  I96  1  0.49826286  0.83569427  -0.00200369  1
  I  I97  1  0.50252213  0.83605257  0.33567623  1
  I  I98  1  0.50114269  0.84070629  0.66628209  1
  I  I99  1  0.83108776  0.16394739  0.00482502  1
  I  I100  1  0.83022378  0.16887210  0.32892257  1
  I  I101  1  0.83327841  0.16383697  0.66630361  1
  I  I102  1  0.83533572  0.50385901  0.00547229  1
  I  I103  1  0.83070666  0.49787040  0.32901008  1
  I  I104  1  0.83458489  0.50318216  0.66600650  1
  I  I105  1  0.83290734  0.83253016  0.00302974  1
  I  I106  1  0.82746398  0.83318091  0.33239801  1
  I  I107  1  0.83173792  0.83240922  0.66359333  1
  I  I108  1  -0.00017472  0.16920837  0.16647111  1
  I  I109  1  0.00005076  0.16514746  0.49769408  1
  I  I110  1  0.00014634  0.16475628  0.83565021  1
  I  I111  1  0.00018390  0.49797507  0.17008224  1
  I  I112  1  0.00345842  0.50299901  0.49215097  1
  I  I113  1  0.00024025  0.50454588  0.83605432  1
  I  I114  1  -0.00408379  0.83316638  0.17014173  1
  I  I115  1  -0.00247696  0.83023723  0.49547708  1
  I  I116  1  0.00200281  0.83034825  0.83609283  1
  I  I117  1  0.33448648  0.17360309  0.16596295  1
  I  I118  1  0.33745024  0.15971443  0.49626908  1
  I  I119  1  0.33724164  0.16460321  0.83693617  1
  I  I120  1  0.33315637  0.49334224  0.16948176  1
  I  I121  1  0.33085840  0.50221132  0.49173447  1
  I  I122  1  0.33351824  0.49979392  0.83719106  1
  I  I123  1  0.33334145  0.83275171  0.16804833  1
  I  I124  1  0.33633938  0.83596515  0.50141280  1
  I  I125  1  0.33514148  0.83631406  0.82992591  1
  I  I126  1  0.66579943  0.16908919  0.16608966  1
  I  I127  1  0.66258870  0.16543636  0.49694059  1
  I  I128  1  0.66188605  0.15831778  0.83749034  1
  I  I129  1  0.66665157  0.49721198  0.16529723  1
  I  I130  1  0.66668535  0.49923624  0.49826574  1
  I  I131  1  0.66630448  0.50333303  0.83484188  1
  I  I132  1  0.66960597  0.83295249  0.16552671  1
  I  I133  1  0.66549889  0.83649854  0.50050874  1
  I  I134  1  0.66335452  0.83783852  0.83397636  1
