# generated using pymatgen
data_Cs27Sn14Pb13I81
_symmetry_space_group_name_H-M   'P 1'
_cell_length_a   18.96327798
_cell_length_b   18.95858130
_cell_length_c   18.96162234
_cell_angle_alpha   90.00026629
_cell_angle_beta   89.99972995
_cell_angle_gamma   89.99861687
_symmetry_Int_Tables_number   1
_chemical_formula_structural   Cs27Sn14Pb13I81
_chemical_formula_sum   'Cs27 Sn14 Pb13 I81'
_cell_volume   6817.02268097
_cell_formula_units_Z   1
loop_
 _symmetry_equiv_pos_site_id
 _symmetry_equiv_pos_as_xyz
  1  'x, y, z'
loop_
 _atom_site_type_symbol
 _atom_site_label
 _atom_site_symmetry_multiplicity
 _atom_site_fract_x
 _atom_site_fract_y
 _atom_site_fract_z
 _atom_site_occupancy
  Cs  Cs0  1  0.00001018  -0.00393836  -0.00145546  1
  Cs  Cs1  1  -0.00103513  0.00447073  0.33576312  1
  Cs  Cs2  1  -0.00040500  -0.00092322  0.66604914  1
  Cs  Cs3  1  -0.00130418  0.33466155  0.00441977  1
  Cs  Cs4  1  0.00082144  0.32952788  0.32713039  1
  Cs  Cs5  1  0.00067588  0.33613017  0.66616298  1
  Cs  Cs6  1  0.00032307  0.66867757  -0.00047958  1
  Cs  Cs7  1  0.00063450  0.66580201  0.33420745  1
  Cs  Cs8  1  0.00111694  0.66602546  0.66693455  1
  Cs  Cs9  1  0.33496248  -0.00075873  -0.00237533  1
  Cs  Cs10  1  0.33408616  0.00058012  0.33246370  1
  Cs  Cs11  1  0.33180980  0.00252254  0.66993450  1
  Cs  Cs12  1  0.33354385  0.33405900  0.00046994  1
  Cs  Cs13  1  0.32897711  0.33253665  0.33201816  1
  Cs  Cs14  1  0.33416826  0.33371351  0.66639707  1
  Cs  Cs15  1  0.33403578  0.66746443  0.00298733  1
  Cs  Cs16  1  0.33837436  0.66716085  0.33256251  1
  Cs  Cs17  1  0.32933100  0.66306512  0.66510467  1
  Cs  Cs18  1  0.66546789  0.00061855  -0.00106779  1
  Cs  Cs19  1  0.66702658  -0.00305116  0.33687378  1
  Cs  Cs20  1  0.66795940  0.00044436  0.66640473  1
  Cs  Cs21  1  0.66791413  0.33378171  -0.00166183  1
  Cs  Cs22  1  0.66949663  0.33369315  0.32902977  1
  Cs  Cs23  1  0.66497579  0.33462923  0.66930421  1
  Cs  Cs24  1  0.66694380  0.66650344  0.00173068  1
  Cs  Cs25  1  0.65853785  0.67001864  0.33401970  1
  Cs  Cs26  1  0.66717362  0.66426676  0.66378514  1
  Sn  Sn27  1  0.83408960  0.49998493  0.50034256  1
  Sn  Sn28  1  0.16585555  0.83348094  0.16820530  1
  Sn  Sn29  1  0.83219828  0.83304768  0.83368919  1
  Sn  Sn30  1  0.16576875  0.49898189  0.83296026  1
  Sn  Sn31  1  0.16546816  0.50063893  0.50048083  1
  Sn  Sn32  1  0.83438815  0.50017413  0.83272129  1
  Sn  Sn33  1  0.50018717  0.16684700  0.50005300  1
  Sn  Sn34  1  0.83408085  0.83323882  0.16646850  1
  Sn  Sn35  1  0.50011759  0.16667690  0.16647064  1
  Sn  Sn36  1  0.16652850  0.83300061  0.49877900  1
  Sn  Sn37  1  0.50097952  0.83340597  0.83275849  1
  Sn  Sn38  1  0.50003171  0.16596167  0.83333007  1
  Sn  Sn39  1  0.16628895  0.16793253  0.83333070  1
  Sn  Sn40  1  0.83376074  0.16670423  0.83321213  1
  Pb  Pb41  1  0.83332130  0.50260989  0.16668392  1
  Pb  Pb42  1  0.16653982  0.50225522  0.16665989  1
  Pb  Pb43  1  0.16819473  0.16404378  0.16375939  1
  Pb  Pb44  1  0.16653054  0.83284825  0.83313842  1
  Pb  Pb45  1  0.83145775  0.16398848  0.16435023  1
  Pb  Pb46  1  0.49976146  0.49750652  0.49996802  1
  Pb  Pb47  1  0.83140060  0.16935996  0.50213216  1
  Pb  Pb48  1  0.49731347  0.83529869  0.50300219  1
  Pb  Pb49  1  0.50003630  0.49699501  0.16667447  1
  Pb  Pb50  1  0.49995198  0.50013303  0.83346369  1
  Pb  Pb51  1  0.50019636  0.83506934  0.16465828  1
  Pb  Pb52  1  0.16797473  0.16714887  0.50182746  1
  Pb  Pb53  1  0.83509126  0.83145078  0.50036077  1
  I  I54  1  0.16328641  -0.00390247  0.17020183  1
  I  I55  1  0.16899189  -0.00224478  0.49898666  1
  I  I56  1  0.16633576  0.00198914  0.83345299  1
  I  I57  1  0.16908677  0.33301171  0.16836937  1
  I  I58  1  0.16559901  0.33629314  0.50422631  1
  I  I59  1  0.16581480  0.33354363  0.82775788  1
  I  I60  1  0.16393298  0.67035409  0.16346347  1
  I  I61  1  0.16370714  0.66597152  0.50421297  1
  I  I62  1  0.16385253  0.66420907  0.83223430  1
  I  I63  1  0.49934856  0.00296536  0.16565915  1
  I  I64  1  0.49873675  0.00329754  0.50007805  1
  I  I65  1  0.50150730  0.00140695  0.83367933  1
  I  I66  1  0.49979137  0.32863554  0.16195885  1
  I  I67  1  0.49812050  0.32953463  0.50540688  1
  I  I68  1  0.50176469  0.32986696  0.83323372  1
  I  I69  1  0.49974951  0.66727834  0.16439466  1
  I  I70  1  0.50100118  0.66674391  0.50166325  1
  I  I71  1  0.50224167  0.66954128  0.83432943  1
  I  I72  1  0.83690743  -0.00391617  0.16059622  1
  I  I73  1  0.83383364  -0.00001232  0.50106806  1
  I  I74  1  0.83238810  -0.00011019  0.83798267  1
  I  I75  1  0.83096549  0.33312023  0.16572839  1
  I  I76  1  0.83908254  0.33732965  0.50629014  1
  I  I77  1  0.83239961  0.33332833  0.82854897  1
  I  I78  1  0.83665995  0.67051118  0.15903684  1
  I  I79  1  0.83510498  0.66350176  0.50696803  1
  I  I80  1  0.83416862  0.66677301  0.83372633  1
  I  I81  1  0.16897647  0.17013701  -0.00473424  1
  I  I82  1  0.17018783  0.16837744  0.33320762  1
  I  I83  1  0.16964456  0.16473798  0.67047113  1
  I  I84  1  0.16311206  0.49734076  -0.00341205  1
  I  I85  1  0.16313477  0.50175971  0.33671988  1
  I  I86  1  0.16344663  0.50272692  0.66733611  1
  I  I87  1  0.16623170  0.83452447  0.00136574  1
  I  I88  1  0.16234883  0.82841219  0.33351904  1
  I  I89  1  0.16750077  0.83237072  0.66494459  1
  I  I90  1  0.49977373  0.16214667  -0.00194355  1
  I  I91  1  0.49838590  0.16747656  0.33333992  1
  I  I92  1  0.49955980  0.16328411  0.66864009  1
  I  I93  1  0.49929249  0.49849696  -0.00056284  1
  I  I94  1  0.50057988  0.49937753  0.33366274  1
  I  I95  1  0.49971601  0.49772831  0.66690620  1
  I  I96  1  0.49856217  0.83946978  -0.00346738  1
  I  I97  1  0.50202776  0.83570946  0.33347974  1
  I  I98  1  0.50455406  0.83978365  0.67092785  1
  I  I99  1  0.83104781  0.17120545  -0.00447295  1
  I  I100  1  0.83057088  0.16696641  0.33331087  1
  I  I101  1  0.83105837  0.16120167  0.67102860  1
  I  I102  1  0.83674008  0.49800478  -0.00377244  1
  I  I103  1  0.83766387  0.50039660  0.33639060  1
  I  I104  1  0.83709404  0.50189535  0.66859954  1
  I  I105  1  0.83573122  0.83231442  -0.00194765  1
  I  I106  1  0.83557861  0.83177647  0.33107153  1
  I  I107  1  0.83129139  0.83537836  0.67011410  1
  I  I108  1  -0.00011098  0.16721870  0.16504047  1
  I  I109  1  -0.00004028  0.16456528  0.50258294  1
  I  I110  1  -0.00033032  0.16560471  0.83256329  1
  I  I111  1  -0.00005816  0.49752762  0.16563825  1
  I  I112  1  0.00076726  0.50420327  0.50695145  1
  I  I113  1  -0.00028598  0.49785336  0.82930654  1
  I  I114  1  -0.00024239  0.83298772  0.16165806  1
  I  I115  1  0.00319601  0.83258538  0.50233233  1
  I  I116  1  -0.00253597  0.83584281  0.83437671  1
  I  I117  1  0.33628562  0.16395047  0.16329534  1
  I  I118  1  0.33606718  0.16737497  0.50435031  1
  I  I119  1  0.33404117  0.16507542  0.83296438  1
  I  I120  1  0.33297584  0.50323753  0.16549705  1
  I  I121  1  0.32980775  0.50252197  0.50543686  1
  I  I122  1  0.33014177  0.49748633  0.82894821  1
  I  I123  1  0.33100331  0.83451681  0.16763257  1
  I  I124  1  0.32943136  0.82716414  0.49634784  1
  I  I125  1  0.33505852  0.83805020  0.83345488  1
  I  I126  1  0.66339584  0.16452347  0.16368945  1
  I  I127  1  0.66335988  0.16698078  0.50326189  1
  I  I128  1  0.66640532  0.16585353  0.83348735  1
  I  I129  1  0.66700671  0.50269772  0.16620866  1
  I  I130  1  0.66962811  0.49823570  0.50607644  1
  I  I131  1  0.67003499  0.49803812  0.82970050  1
  I  I132  1  0.66921264  0.83428910  0.16255708  1
  I  I133  1  0.66662349  0.83225489  0.49780352  1
  I  I134  1  0.66783445  0.83687320  0.83866589  1
