# generated using pymatgen
data_Cs27Sn14Pb13I81
_symmetry_space_group_name_H-M   'P 1'
_cell_length_a   18.97701284
_cell_length_b   18.96888148
_cell_length_c   18.98141942
_cell_angle_alpha   89.99974528
_cell_angle_beta   89.99916951
_cell_angle_gamma   90.00023507
_symmetry_Int_Tables_number   1
_chemical_formula_structural   Cs27Sn14Pb13I81
_chemical_formula_sum   'Cs27 Sn14 Pb13 I81'
_cell_volume   6832.79293863
_cell_formula_units_Z   1
loop_
 _symmetry_equiv_pos_site_id
 _symmetry_equiv_pos_as_xyz
  1  'x, y, z'
loop_
 _atom_site_type_symbol
 _atom_site_label
 _atom_site_symmetry_multiplicity
 _atom_site_fract_x
 _atom_site_fract_y
 _atom_site_fract_z
 _atom_site_occupancy
  Cs  Cs0  1  -0.00180800  0.00026360  -0.00100184  1
  Cs  Cs1  1  -0.00070032  -0.00101851  0.33231774  1
  Cs  Cs2  1  -0.00180696  0.00037711  0.66958824  1
  Cs  Cs3  1  -0.00022594  0.33334686  -0.00147705  1
  Cs  Cs4  1  -0.00128219  0.33545064  0.33316778  1
  Cs  Cs5  1  -0.00118114  0.33541233  0.66741813  1
  Cs  Cs6  1  0.00209658  0.66707469  0.00019659  1
  Cs  Cs7  1  0.00148270  0.66616288  0.33391909  1
  Cs  Cs8  1  0.00167065  0.66505246  0.66622876  1
  Cs  Cs9  1  0.33239259  0.00771287  -0.00583656  1
  Cs  Cs10  1  0.33412888  0.00045395  0.33420625  1
  Cs  Cs11  1  0.33340993  0.00879630  0.67129422  1
  Cs  Cs12  1  0.34210417  0.32941957  0.00156942  1
  Cs  Cs13  1  0.33370868  0.32455027  0.33326322  1
  Cs  Cs14  1  0.33521555  0.32875088  0.66571822  1
  Cs  Cs15  1  0.33330184  0.66556657  -0.00140589  1
  Cs  Cs16  1  0.33121533  0.66941182  0.33581926  1
  Cs  Cs17  1  0.33220927  0.66632126  0.66435296  1
  Cs  Cs18  1  0.67097904  -0.00241293  -0.00148905  1
  Cs  Cs19  1  0.66710441  -0.00223460  0.33403096  1
  Cs  Cs20  1  0.66861259  -0.00065749  0.66694557  1
  Cs  Cs21  1  0.66125876  0.33663422  0.00142746  1
  Cs  Cs22  1  0.66768259  0.33601665  0.33025804  1
  Cs  Cs23  1  0.66838539  0.33237776  0.66704275  1
  Cs  Cs24  1  0.66084803  0.66557453  -0.00071494  1
  Cs  Cs25  1  0.66600694  0.66724674  0.33403940  1
  Cs  Cs26  1  0.66348053  0.66809200  0.66556637  1
  Sn  Sn27  1  0.16785550  0.50034975  0.49965815  1
  Sn  Sn28  1  0.49871603  0.50044924  0.49958193  1
  Sn  Sn29  1  0.49942704  0.83335242  0.16713186  1
  Sn  Sn30  1  0.49941708  0.83283323  0.49949521  1
  Sn  Sn31  1  0.83369561  0.16600991  0.49948577  1
  Sn  Sn32  1  0.16681261  0.50024773  0.16688369  1
  Sn  Sn33  1  0.16713442  0.83284945  0.16711384  1
  Sn  Sn34  1  0.16636173  0.50004450  0.83350642  1
  Sn  Sn35  1  0.83336554  0.83345362  0.16750001  1
  Sn  Sn36  1  0.83363032  0.16637499  0.16690889  1
  Sn  Sn37  1  0.16680817  0.83318196  0.49969759  1
  Sn  Sn38  1  0.83372054  0.83390122  0.49929536  1
  Sn  Sn39  1  0.83369586  0.49985273  0.83340970  1
  Sn  Sn40  1  0.83366408  0.16803665  0.83364560  1
  Pb  Pb41  1  0.49672038  0.50229171  0.16955043  1
  Pb  Pb42  1  0.50289465  0.16611322  0.49979240  1
  Pb  Pb43  1  0.16442350  0.16990555  0.83342398  1
  Pb  Pb44  1  0.49943136  0.50018356  0.83063942  1
  Pb  Pb45  1  0.83351116  0.50074463  0.50140509  1
  Pb  Pb46  1  0.83496796  0.50097227  0.16443222  1
  Pb  Pb47  1  0.50307626  0.16328161  0.16698376  1
  Pb  Pb48  1  0.16403623  0.16626904  0.49986970  1
  Pb  Pb49  1  0.83343092  0.83263777  0.83342952  1
  Pb  Pb50  1  0.16676393  0.83145107  0.83323420  1
  Pb  Pb51  1  0.16453470  0.16603971  0.16681173  1
  Pb  Pb52  1  0.49960202  0.83332243  0.83290173  1
  Pb  Pb53  1  0.50333528  0.16666989  0.83335664  1
  I  I54  1  0.16754028  -0.00401018  0.17327574  1
  I  I55  1  0.16861510  -0.00381286  0.49365148  1
  I  I56  1  0.16571124  0.00020806  0.83315854  1
  I  I57  1  0.16293690  0.33641182  0.16767811  1
  I  I58  1  0.16947803  0.33684745  0.50012177  1
  I  I59  1  0.16314122  0.33822020  0.83171947  1
  I  I60  1  0.16278749  0.66759358  0.16749129  1
  I  I61  1  0.16409746  0.66695663  0.49975663  1
  I  I62  1  0.15827245  0.66312957  0.83272803  1
  I  I63  1  0.49512054  -0.00491211  0.17499864  1
  I  I64  1  0.49818412  -0.00388800  0.49552018  1
  I  I65  1  0.50148794  0.00002705  0.83091787  1
  I  I66  1  0.50042025  0.33342492  0.16708328  1
  I  I67  1  0.49586442  0.33605908  0.50240684  1
  I  I68  1  0.49845529  0.33364989  0.83157536  1
  I  I69  1  0.50782295  0.67040275  0.16820725  1
  I  I70  1  0.50261376  0.66796859  0.49736983  1
  I  I71  1  0.50570417  0.66645180  0.83508550  1
  I  I72  1  0.83509880  -0.00118324  0.16509693  1
  I  I73  1  0.83321301  -0.00128836  0.50184611  1
  I  I74  1  0.83196856  0.00249399  0.83305817  1
  I  I75  1  0.83646939  0.33105900  0.16932984  1
  I  I76  1  0.83350516  0.33123807  0.49881047  1
  I  I77  1  0.83874987  0.33298119  0.83160500  1
  I  I78  1  0.83254121  0.67026336  0.17134407  1
  I  I79  1  0.83342645  0.66993436  0.49650194  1
  I  I80  1  0.83776672  0.66378912  0.83220041  1
  I  I81  1  0.16252750  0.16477021  0.00009353  1
  I  I82  1  0.16259164  0.17291332  0.33341856  1
  I  I83  1  0.16312404  0.16522838  0.66655312  1
  I  I84  1  0.15861853  0.50524508  0.00035450  1
  I  I85  1  0.16904754  0.50547401  0.33396735  1
  I  I86  1  0.16514451  0.50453724  0.66570164  1
  I  I87  1  0.16457065  0.82911781  0.00360241  1
  I  I88  1  0.16475568  0.82541681  0.33365910  1
  I  I89  1  0.16496668  0.82875325  0.66293382  1
  I  I90  1  0.50162559  0.16565381  0.00033780  1
  I  I91  1  0.50263835  0.17041936  0.33343987  1
  I  I92  1  0.50258671  0.16451137  0.66629567  1
  I  I93  1  0.50017954  0.50116122  0.00035891  1
  I  I94  1  0.49840789  0.50251180  0.33736600  1
  I  I95  1  0.49626004  0.50749250  0.66275659  1
  I  I96  1  0.50259446  0.83351399  0.00355591  1
  I  I97  1  0.50162471  0.82919572  0.33420881  1
  I  I98  1  0.50206520  0.82893520  0.66240738  1
  I  I99  1  0.83468322  0.16486575  0.00034191  1
  I  I100  1  0.83384095  0.16086978  0.33336214  1
  I  I101  1  0.83354806  0.16624540  0.66639368  1
  I  I102  1  0.83935950  0.49661490  -0.00336854  1
  I  I103  1  0.83398618  0.49627473  0.33330438  1
  I  I104  1  0.83855780  0.49620378  0.66918543  1
  I  I105  1  0.83388559  0.83648929  0.00337935  1
  I  I106  1  0.83355759  0.84045297  0.33365916  1
  I  I107  1  0.83321376  0.83596333  0.66332236  1
  I  I108  1  -0.00387724  0.16065700  0.16680596  1
  I  I109  1  -0.00421257  0.16332788  0.50016606  1
  I  I110  1  -0.00400569  0.16735534  0.83287996  1
  I  I111  1  0.00303773  0.50524804  0.17197009  1
  I  I112  1  0.00285960  0.50283959  0.49926599  1
  I  I113  1  0.00033570  0.49656812  0.83017380  1
  I  I114  1  -0.00013816  0.83338594  0.17238324  1
  I  I115  1  0.00002380  0.83254345  0.49459675  1
  I  I116  1  -0.00012608  0.83475477  0.83276287  1
  I  I117  1  0.33344969  0.16693223  0.16566172  1
  I  I118  1  0.33332946  0.16496749  0.50114980  1
  I  I119  1  0.33326798  0.16673787  0.83310510  1
  I  I120  1  0.32862518  0.50552135  0.16057056  1
  I  I121  1  0.33198199  0.50945017  0.50238872  1
  I  I122  1  0.32986713  0.50380419  0.83493412  1
  I  I123  1  0.33255555  0.82577309  0.17423360  1
  I  I124  1  0.33282850  0.82563602  0.49290174  1
  I  I125  1  0.33314225  0.83000791  0.83373962  1
  I  I126  1  0.67150501  0.16278887  0.16689489  1
  I  I127  1  0.67113867  0.16307884  0.50088508  1
  I  I128  1  0.67188318  0.17324532  0.83248445  1
  I  I129  1  0.66646346  0.49994923  0.16593625  1
  I  I130  1  0.66490354  0.50323349  0.50281309  1
  I  I131  1  0.66940687  0.49531936  0.83182291  1
  I  I132  1  0.66748789  0.83880353  0.17267037  1
  I  I133  1  0.66704710  0.83289331  0.49502187  1
  I  I134  1  0.66694196  0.83176857  0.83306182  1
