# generated using pymatgen
data_Cs27Sn14Pb13I81
_symmetry_space_group_name_H-M   'P 1'
_cell_length_a   18.96261863
_cell_length_b   18.96144316
_cell_length_c   18.95772516
_cell_angle_alpha   90.00009521
_cell_angle_beta   89.99855051
_cell_angle_gamma   89.99932140
_symmetry_Int_Tables_number   1
_chemical_formula_structural   Cs27Sn14Pb13I81
_chemical_formula_sum   'Cs27 Sn14 Pb13 I81'
_cell_volume   6816.41340524
_cell_formula_units_Z   1
loop_
 _symmetry_equiv_pos_site_id
 _symmetry_equiv_pos_as_xyz
  1  'x, y, z'
loop_
 _atom_site_type_symbol
 _atom_site_label
 _atom_site_symmetry_multiplicity
 _atom_site_fract_x
 _atom_site_fract_y
 _atom_site_fract_z
 _atom_site_occupancy
  Cs  Cs0  1  0.00137990  0.00339927  0.00131696  1
  Cs  Cs1  1  -0.00119552  -0.00207154  0.33163093  1
  Cs  Cs2  1  -0.00192692  -0.00123096  0.66637636  1
  Cs  Cs3  1  0.00217741  0.32872615  -0.00006646  1
  Cs  Cs4  1  0.00007583  0.33275611  0.33334688  1
  Cs  Cs5  1  -0.00084525  0.33480838  0.66793851  1
  Cs  Cs6  1  0.00170296  0.66675691  -0.00161750  1
  Cs  Cs7  1  0.00156965  0.66895841  0.33449220  1
  Cs  Cs8  1  -0.00030604  0.66552380  0.66612390  1
  Cs  Cs9  1  0.33241407  0.00088537  -0.00032140  1
  Cs  Cs10  1  0.33438009  0.00048112  0.33979834  1
  Cs  Cs11  1  0.33865949  -0.00168082  0.66292652  1
  Cs  Cs12  1  0.33120946  0.33127194  -0.00119707  1
  Cs  Cs13  1  0.33429945  0.33424315  0.33550373  1
  Cs  Cs14  1  0.33351698  0.33419130  0.66636554  1
  Cs  Cs15  1  0.33361722  0.66794949  0.00096195  1
  Cs  Cs16  1  0.33025266  0.66628263  0.33031881  1
  Cs  Cs17  1  0.33279446  0.66630252  0.66738313  1
  Cs  Cs18  1  0.66605827  -0.00074087  -0.00156685  1
  Cs  Cs19  1  0.66594545  -0.00609312  0.33347714  1
  Cs  Cs20  1  0.66452739  0.00196068  0.66781390  1
  Cs  Cs21  1  0.66693534  0.33349901  0.00077973  1
  Cs  Cs22  1  0.66573872  0.33459824  0.33356859  1
  Cs  Cs23  1  0.66734017  0.33274193  0.66646433  1
  Cs  Cs24  1  0.66340504  0.66693304  0.00417169  1
  Cs  Cs25  1  0.66817443  0.66914967  0.32210720  1
  Cs  Cs26  1  0.66934030  0.66458796  0.66881908  1
  Sn  Sn27  1  0.16648011  0.49914541  0.49923230  1
  Sn  Sn28  1  0.50061438  0.50011816  0.50044501  1
  Sn  Sn29  1  0.50074040  0.49909124  0.83267194  1
  Sn  Sn30  1  0.83415033  0.16734777  0.50062634  1
  Sn  Sn31  1  0.83264656  0.49985130  0.83304869  1
  Sn  Sn32  1  0.16664802  0.83295725  0.16572408  1
  Sn  Sn33  1  0.83289980  0.49940760  0.50030683  1
  Sn  Sn34  1  0.16610696  0.83345357  0.83375704  1
  Sn  Sn35  1  0.16549997  0.16745787  0.50040438  1
  Sn  Sn36  1  0.83275203  0.16692937  0.83267303  1
  Sn  Sn37  1  0.50022954  0.16686826  0.16605980  1
  Sn  Sn38  1  0.50070388  0.16783729  0.83429750  1
  Sn  Sn39  1  0.16628010  0.50006605  0.16712168  1
  Sn  Sn40  1  0.83420043  0.83319911  0.83322091  1
  Pb  Pb41  1  0.49782727  0.49840279  0.16613054  1
  Pb  Pb42  1  0.50027677  0.83301040  0.83320470  1
  Pb  Pb43  1  0.49716567  0.83624334  0.16653962  1
  Pb  Pb44  1  0.16668257  0.50137618  0.83296699  1
  Pb  Pb45  1  0.50090422  0.16828574  0.50051705  1
  Pb  Pb46  1  0.16658382  0.83311127  0.50025530  1
  Pb  Pb47  1  0.50050320  0.82891946  0.50001941  1
  Pb  Pb48  1  0.83595559  0.49974286  0.16646921  1
  Pb  Pb49  1  0.16694307  0.16421238  0.83081162  1
  Pb  Pb50  1  0.83304615  0.83295775  0.50206366  1
  Pb  Pb51  1  0.83582816  0.83340474  0.16352960  1
  Pb  Pb52  1  0.83101725  0.16676651  0.16715265  1
  Pb  Pb53  1  0.16848997  0.16652583  0.16935757  1
  I  I54  1  0.16801201  -0.00238835  0.16317298  1
  I  I55  1  0.16284185  0.00279395  0.50046116  1
  I  I56  1  0.16264602  -0.00343789  0.83792485  1
  I  I57  1  0.16816280  0.33572558  0.16928971  1
  I  I58  1  0.16622759  0.33475400  0.49513109  1
  I  I59  1  0.16524898  0.33324480  0.83598248  1
  I  I60  1  0.16735796  0.66612127  0.16894008  1
  I  I61  1  0.16629482  0.66319349  0.49931915  1
  I  I62  1  0.16313768  0.66925041  0.83260643  1
  I  I63  1  0.49892535  0.00408436  0.16040787  1
  I  I64  1  0.49813050  0.00039505  0.50009058  1
  I  I65  1  0.50241219  0.00303929  0.83677008  1
  I  I66  1  0.49696206  0.33077330  0.16473948  1
  I  I67  1  0.49838885  0.33650663  0.50141128  1
  I  I68  1  0.50632229  0.33356130  0.83308494  1
  I  I69  1  0.49996876  0.66647752  0.16702733  1
  I  I70  1  0.49787729  0.66060903  0.50752405  1
  I  I71  1  0.50231568  0.66324636  0.82839510  1
  I  I72  1  0.83540741  0.00015297  0.16746365  1
  I  I73  1  0.83883825  0.00337142  0.50398677  1
  I  I74  1  0.83341110  0.00113521  0.82974810  1
  I  I75  1  0.83677305  0.33332813  0.16198116  1
  I  I76  1  0.83497701  0.33397906  0.50782164  1
  I  I77  1  0.82855971  0.33343252  0.82876405  1
  I  I78  1  0.83128290  0.66645644  0.16729190  1
  I  I79  1  0.83512380  0.66277879  0.50506461  1
  I  I80  1  0.83421266  0.66549744  0.82880958  1
  I  I81  1  0.16526393  0.16828309  -0.00018802  1
  I  I82  1  0.16343382  0.16670759  0.33727817  1
  I  I83  1  0.16727126  0.17277208  0.66305691  1
  I  I84  1  0.16738569  0.50335087  0.00184023  1
  I  I85  1  0.16747694  0.50210382  0.33468632  1
  I  I86  1  0.16681635  0.49804194  0.66381503  1
  I  I87  1  0.16310663  0.82768493  -0.00024110  1
  I  I88  1  0.16859195  0.83162038  0.33099474  1
  I  I89  1  0.16280285  0.83260109  0.66938419  1
  I  I90  1  0.50380021  0.17202931  -0.00222628  1
  I  I91  1  0.49754899  0.16838949  0.33195015  1
  I  I92  1  0.50090933  0.16826592  0.66948515  1
  I  I93  1  0.50340981  0.49843431  -0.00327470  1
  I  I94  1  0.50121329  0.49733615  0.33604996  1
  I  I95  1  0.49810571  0.49424541  0.66721544  1
  I  I96  1  0.50106609  0.82905756  -0.00031966  1
  I  I97  1  0.49773669  0.83560410  0.33316852  1
  I  I98  1  0.49538850  0.83894151  0.66707907  1
  I  I99  1  0.83171071  0.16748087  -0.00362886  1
  I  I100  1  0.83621336  0.17244171  0.33700185  1
  I  I101  1  0.83184003  0.16735188  0.66753802  1
  I  I102  1  0.82983795  0.49981221  -0.00383519  1
  I  I103  1  0.83105924  0.49459061  0.33691002  1
  I  I104  1  0.83500607  0.49955718  0.66691591  1
  I  I105  1  0.83462312  0.83311998  -0.00492863  1
  I  I106  1  0.83426799  0.83368633  0.33324831  1
  I  I107  1  0.84062517  0.83265139  0.67061542  1
  I  I108  1  0.00025745  0.16645706  0.16456320  1
  I  I109  1  -0.00070868  0.17413993  0.50484498  1
  I  I110  1  -0.00294978  0.16948250  0.83101451  1
  I  I111  1  0.00406433  0.50289023  0.17013794  1
  I  I112  1  -0.00021021  0.49647009  0.50103005  1
  I  I113  1  -0.00283271  0.49840572  0.83055637  1
  I  I114  1  0.00385710  0.83035172  0.16582786  1
  I  I115  1  0.00002602  0.83001765  0.49916568  1
  I  I116  1  -0.00060690  0.83242711  0.83644481  1
  I  I117  1  0.33616650  0.16729640  0.16114701  1
  I  I118  1  0.33160450  0.17011660  0.49949060  1
  I  I119  1  0.33601055  0.17005531  0.83509994  1
  I  I120  1  0.32988015  0.50297837  0.17060668  1
  I  I121  1  0.33286204  0.49589661  0.50050507  1
  I  I122  1  0.33581632  0.49726120  0.83036579  1
  I  I123  1  0.32927776  0.82838938  0.15976887  1
  I  I124  1  0.33304573  0.83595189  0.50289810  1
  I  I125  1  0.33070269  0.83251839  0.83682435  1
  I  I126  1  0.66320370  0.16878838  0.16617093  1
  I  I127  1  0.66968926  0.17092380  0.50191264  1
  I  I128  1  0.66747579  0.16502067  0.83125869  1
  I  I129  1  0.66652141  0.49926202  0.16931569  1
  I  I130  1  0.66746911  0.49473907  0.50666887  1
  I  I131  1  0.66722429  0.50082422  0.82599786  1
  I  I132  1  0.66658849  0.83343638  0.16657519  1
  I  I133  1  0.66695712  0.83708313  0.50270003  1
  I  I134  1  0.66986049  0.83369309  0.83078362  1
