# generated using pymatgen
data_Cs27Sn14Pb13I81
_symmetry_space_group_name_H-M   'P 1'
_cell_length_a   18.96772980
_cell_length_b   18.95937298
_cell_length_c   18.95937306
_cell_angle_alpha   90.00162787
_cell_angle_beta   90.00055780
_cell_angle_gamma   89.99944218
_symmetry_Int_Tables_number   1
_chemical_formula_structural   Cs27Sn14Pb13I81
_chemical_formula_sum   'Cs27 Sn14 Pb13 I81'
_cell_volume   6818.09890041
_cell_formula_units_Z   1
loop_
 _symmetry_equiv_pos_site_id
 _symmetry_equiv_pos_as_xyz
  1  'x, y, z'
loop_
 _atom_site_type_symbol
 _atom_site_label
 _atom_site_symmetry_multiplicity
 _atom_site_fract_x
 _atom_site_fract_y
 _atom_site_fract_z
 _atom_site_occupancy
  Cs  Cs0  1  0.00233019  -0.00326556  0.00595943  1
  Cs  Cs1  1  0.00127457  -0.00156494  0.33489818  1
  Cs  Cs2  1  -0.00012021  -0.00012109  0.66035222  1
  Cs  Cs3  1  -0.00022544  0.33667747  -0.00334416  1
  Cs  Cs4  1  0.00233047  0.32737385  0.33659881  1
  Cs  Cs5  1  -0.00039114  0.33268357  0.66950819  1
  Cs  Cs6  1  -0.00039108  0.66382514  0.00064975  1
  Cs  Cs7  1  -0.00012005  0.67298100  0.33345405  1
  Cs  Cs8  1  0.00048625  0.66800860  0.66532469  1
  Cs  Cs9  1  0.33222511  -0.00225888  0.00111422  1
  Cs  Cs10  1  0.33023479  0.00334306  0.32999038  1
  Cs  Cs11  1  0.33556624  -0.00343624  0.66866349  1
  Cs  Cs12  1  0.33324272  0.33341531  -0.00008204  1
  Cs  Cs13  1  0.33222510  0.33221904  0.33559224  1
  Cs  Cs14  1  0.33379463  0.33408574  0.66507233  1
  Cs  Cs15  1  0.33379463  0.66826099  -0.00075240  1
  Cs  Cs16  1  0.33556630  0.66466983  0.33676951  1
  Cs  Cs17  1  0.33327958  0.66945256  0.66388082  1
  Cs  Cs18  1  0.66540033  0.00152020  0.00089757  1
  Cs  Cs19  1  0.67061979  0.00033841  0.33299472  1
  Cs  Cs20  1  0.66511708  -0.00022606  0.66654878  1
  Cs  Cs21  1  0.66667131  0.33418704  -0.00085364  1
  Cs  Cs22  1  0.66540035  0.33243586  0.33181313  1
  Cs  Cs23  1  0.66640839  0.33364137  0.66776805  1
  Cs  Cs24  1  0.66640844  0.66556528  -0.00030815  1
  Cs  Cs25  1  0.66511712  0.66678461  0.33355948  1
  Cs  Cs26  1  0.66551648  0.66601050  0.66732277  1
  Sn  Sn27  1  0.16680373  0.50003192  0.16617498  1
  Sn  Sn28  1  0.83361152  0.16611602  0.83348008  1
  Sn  Sn29  1  0.83345397  0.49984946  0.49984269  1
  Sn  Sn30  1  0.16680373  0.16715832  0.83330140  1
  Sn  Sn31  1  0.50027331  0.16565782  0.50072411  1
  Sn  Sn32  1  0.50036887  0.83470182  0.49863149  1
  Sn  Sn33  1  0.49954359  0.49943115  0.83390223  1
  Sn  Sn34  1  0.16706319  0.49955485  0.83377849  1
  Sn  Sn35  1  0.83361159  0.49985323  0.16721732  1
  Sn  Sn36  1  0.83345395  0.83349064  0.83348383  1
  Sn  Sn37  1  0.50027329  0.83260923  0.16767549  1
  Sn  Sn38  1  0.49971235  0.50064202  0.16579042  1
  Sn  Sn39  1  0.83331059  0.50002525  0.83330803  1
  Sn  Sn40  1  0.49971233  0.16754290  0.83269131  1
  Pb  Pb41  1  0.16362555  0.83322534  0.83331796  1
  Pb  Pb42  1  0.50147584  0.83332738  0.83364523  1
  Pb  Pb43  1  0.50147582  0.49968817  0.50000599  1
  Pb  Pb44  1  0.16918505  0.16674333  0.50272674  1
  Pb  Pb45  1  0.83125697  0.83145496  0.50187840  1
  Pb  Pb46  1  0.16941245  0.83340863  0.49992471  1
  Pb  Pb47  1  0.83354090  0.16886662  0.16446672  1
  Pb  Pb48  1  0.83132354  0.16857269  0.50196754  1
  Pb  Pb49  1  0.83132354  0.83136577  0.16476067  1
  Pb  Pb50  1  0.16648802  0.16908061  0.16425271  1
  Pb  Pb51  1  0.50005700  0.16701087  0.16632249  1
  Pb  Pb52  1  0.16362551  0.50001535  0.50010793  1
  Pb  Pb53  1  0.16918503  0.83060665  0.16659000  1
  I  I54  1  0.16947890  -0.00004322  0.16430252  1
  I  I55  1  0.16430807  0.00027170  0.50291133  1
  I  I56  1  0.16888986  0.00327754  0.83165358  1
  I  I57  1  0.17018326  0.33791037  0.16403436  1
  I  I58  1  0.17027855  0.33356655  0.49808431  1
  I  I59  1  0.16356151  0.33469625  0.83672717  1
  I  I60  1  0.16416899  0.66197960  0.15812861  1
  I  I61  1  0.16946065  0.66622812  0.50369626  1
  I  I62  1  0.16711503  0.66284421  0.83712065  1
  I  I63  1  0.50076773  -0.00254187  0.16603808  1
  I  I64  1  0.50076241  0.00034406  0.50296973  1
  I  I65  1  0.50090991  0.00271313  0.83244793  1
  I  I66  1  0.50079972  0.33705802  0.16494424  1
  I  I67  1  0.50172766  0.33115638  0.50279874  1
  I  I68  1  0.50386948  0.33425505  0.83309344  1
  I  I69  1  0.50060342  0.66468687  0.16607146  1
  I  I70  1  0.50233691  0.66837563  0.49972397  1
  I  I71  1  0.50107741  0.66354226  0.83383314  1
  I  I72  1  0.82981356  -0.00020780  0.16307996  1
  I  I73  1  0.83234884  0.00006758  0.50367521  1
  I  I74  1  0.83032466  0.00087127  0.83241466  1
  I  I75  1  0.82851303  0.33825715  0.16341551  1
  I  I76  1  0.82989594  0.33692680  0.50269580  1
  I  I77  1  0.83257808  0.33473421  0.83348185  1
  I  I78  1  0.83424072  0.66228618  0.16246035  1
  I  I79  1  0.82994691  0.66314975  0.50377885  1
  I  I80  1  0.83180437  0.66438292  0.83367870  1
  I  I81  1  0.17018323  0.16929916  -0.00457702  1
  I  I82  1  0.16947886  0.16903106  0.33337659  1
  I  I83  1  0.16416923  0.17520455  0.67135374  1
  I  I84  1  0.16356160  0.49660614  -0.00136295  1
  I  I85  1  0.16888956  0.50168018  0.33005578  1
  I  I86  1  0.16711497  0.49621241  0.67048909  1
  I  I87  1  0.17027823  0.83524893  -0.00023321  1
  I  I88  1  0.16430876  0.83042109  0.33306157  1
  I  I89  1  0.16946038  0.82963811  0.66710523  1
  I  I90  1  0.50079968  0.16838897  -0.00372469  1
  I  I91  1  0.50076793  0.16729492  0.33587519  1
  I  I92  1  0.50060326  0.16726223  0.66864644  1
  I  I93  1  0.50386919  0.50024019  -0.00092172  1
  I  I94  1  0.50091025  0.50088529  0.33062018  1
  I  I95  1  0.50107739  0.49949987  0.66979109  1
  I  I96  1  0.50172788  0.83053425  0.00217692  1
  I  I97  1  0.50076202  0.83036397  0.33298930  1
  I  I98  1  0.50233718  0.83360933  0.66495771  1
  I  I99  1  0.82851317  0.16991763  -0.00492382  1
  I  I100  1  0.82981331  0.17025396  0.33354111  1
  I  I101  1  0.83424074  0.17087264  0.67104718  1
  I  I102  1  0.83257824  0.49985139  -0.00140089  1
  I  I103  1  0.83032436  0.50091869  0.33246205  1
  I  I104  1  0.83180445  0.49965473  0.66895044  1
  I  I105  1  0.82989611  0.83063795  -0.00359340  1
  I  I106  1  0.83234866  0.82965756  0.33326571  1
  I  I107  1  0.82994705  0.82955486  0.67018354  1
  I  I108  1  -0.00000282  0.16844824  0.16488517  1
  I  I109  1  -0.00018093  0.16902881  0.50181942  1
  I  I110  1  -0.00053837  0.17271837  0.83499030  1
  I  I111  1  -0.00053840  0.49834299  0.16061505  1
  I  I112  1  -0.00435647  0.49978045  0.50296282  1
  I  I113  1  -0.00086735  0.49750532  0.83582800  1
  I  I114  1  -0.00018100  0.83151400  0.16430493  1
  I  I115  1  -0.00054193  0.83130558  0.50202742  1
  I  I116  1  -0.00435643  0.83037044  0.83355284  1
  I  I117  1  0.33363382  0.16906714  0.16426639  1
  I  I118  1  0.33756571  0.16550573  0.50569197  1
  I  I119  1  0.33423130  0.17445209  0.82974467  1
  I  I120  1  0.33423128  0.50358886  0.15888154  1
  I  I121  1  0.33350487  0.50053957  0.50059678  1
  I  I122  1  0.33412018  0.49359773  0.83973546  1
  I  I123  1  0.33756567  0.82764119  0.16782711  1
  I  I124  1  0.33816763  0.83372175  0.49961202  1
  I  I125  1  0.33350491  0.83273638  0.83279382  1
  I  I126  1  0.66644725  0.17028175  0.16305138  1
  I  I127  1  0.66316984  0.16484369  0.50699284  1
  I  I128  1  0.66629032  0.17066199  0.82996197  1
  I  I129  1  0.66629031  0.50337134  0.16267103  1
  I  I130  1  0.66922701  0.50011053  0.50265318  1
  I  I131  1  0.66685968  0.49800190  0.83533156  1
  I  I132  1  0.66316987  0.82634091  0.16848987  1
  I  I133  1  0.66309253  0.83567647  0.49765659  1
  I  I134  1  0.66922704  0.83068031  0.83322289  1
