# generated using pymatgen
data_Cs27Sn13Pb14I81
_symmetry_space_group_name_H-M   'P 1'
_cell_length_a   18.97565986
_cell_length_b   18.98363477
_cell_length_c   18.97221416
_cell_angle_alpha   89.99863687
_cell_angle_beta   89.99838348
_cell_angle_gamma   90.00060872
_symmetry_Int_Tables_number   1
_chemical_formula_structural   Cs27Sn13Pb14I81
_chemical_formula_sum   'Cs27 Sn13 Pb14 I81'
_cell_volume   6834.30371607
_cell_formula_units_Z   1
loop_
 _symmetry_equiv_pos_site_id
 _symmetry_equiv_pos_as_xyz
  1  'x, y, z'
loop_
 _atom_site_type_symbol
 _atom_site_label
 _atom_site_symmetry_multiplicity
 _atom_site_fract_x
 _atom_site_fract_y
 _atom_site_fract_z
 _atom_site_occupancy
  Cs  Cs0  1  -0.00027583  -0.00083978  -0.00547302  1
  Cs  Cs1  1  -0.00049548  0.00270647  0.33457703  1
  Cs  Cs2  1  0.00014586  -0.00077376  0.67053209  1
  Cs  Cs3  1  0.00171017  0.33228716  -0.00168828  1
  Cs  Cs4  1  0.00128757  0.33051618  0.33440664  1
  Cs  Cs5  1  -0.00503723  0.33245667  0.66823205  1
  Cs  Cs6  1  -0.00599903  0.66814400  0.00063084  1
  Cs  Cs7  1  0.00242972  0.66426225  0.33453528  1
  Cs  Cs8  1  0.00021353  0.66825864  0.66485327  1
  Cs  Cs9  1  0.33389538  0.00018073  0.00001107  1
  Cs  Cs10  1  0.33329052  0.00124404  0.33242306  1
  Cs  Cs11  1  0.33470049  -0.00113375  0.66719315  1
  Cs  Cs12  1  0.33274475  0.33421053  -0.00016302  1
  Cs  Cs13  1  0.33322659  0.33318522  0.33218853  1
  Cs  Cs14  1  0.33505856  0.33356277  0.66822814  1
  Cs  Cs15  1  0.33356569  0.66410486  -0.00047635  1
  Cs  Cs16  1  0.33059578  0.66329473  0.33455588  1
  Cs  Cs17  1  0.33305595  0.66773092  0.66571415  1
  Cs  Cs18  1  0.66601766  -0.00430890  0.00266017  1
  Cs  Cs19  1  0.66780736  0.00101765  0.33556866  1
  Cs  Cs20  1  0.66449377  0.00040091  0.66369217  1
  Cs  Cs21  1  0.66689708  0.33563153  -0.00018816  1
  Cs  Cs22  1  0.66637015  0.33602984  0.33284905  1
  Cs  Cs23  1  0.66688230  0.33389787  0.66704843  1
  Cs  Cs24  1  0.67480029  0.66894448  0.00635136  1
  Cs  Cs25  1  0.66872899  0.66190346  0.32694064  1
  Cs  Cs26  1  0.66515422  0.66573230  0.66678287  1
  Sn  Sn27  1  0.50085418  0.83379895  0.50006978  1
  Sn  Sn28  1  0.83319484  0.16581462  0.49931811  1
  Sn  Sn29  1  0.16701220  0.49997968  0.83374982  1
  Sn  Sn30  1  0.83249753  0.83396565  0.49977619  1
  Sn  Sn31  1  0.49990938  0.16648452  0.83288061  1
  Sn  Sn32  1  0.16677893  0.16656830  0.50002197  1
  Sn  Sn33  1  0.49989072  0.83314337  0.83307589  1
  Sn  Sn34  1  0.49990884  0.16613473  0.50063983  1
  Sn  Sn35  1  0.83408904  0.16646551  0.16701411  1
  Sn  Sn36  1  0.16686627  0.83375480  0.16666557  1
  Sn  Sn37  1  0.16679987  0.49984054  0.16565833  1
  Sn  Sn38  1  0.49948689  0.50038502  0.83346245  1
  Sn  Sn39  1  0.16579937  0.16622792  0.16698742  1
  Pb  Pb40  1  0.49797850  0.50008346  0.16400977  1
  Pb  Pb41  1  0.83032904  0.16646437  0.83328582  1
  Pb  Pb42  1  0.16864291  0.16809839  0.83342551  1
  Pb  Pb43  1  0.16872928  0.83092418  0.83543191  1
  Pb  Pb44  1  0.50000110  0.50026323  0.50187228  1
  Pb  Pb45  1  0.83592584  0.83584590  0.16941319  1
  Pb  Pb46  1  0.83320272  0.49994343  0.49991000  1
  Pb  Pb47  1  0.49824155  0.83332671  0.16764669  1
  Pb  Pb48  1  0.50010623  0.16662147  0.16711611  1
  Pb  Pb49  1  0.83054254  0.83350885  0.83057019  1
  Pb  Pb50  1  0.83643822  0.49701454  0.16677724  1
  Pb  Pb51  1  0.16702906  0.83563041  0.49847957  1
  Pb  Pb52  1  0.83340585  0.50015299  0.83331495  1
  Pb  Pb53  1  0.16668867  0.49716274  0.50052616  1
  I  I54  1  0.16444192  0.00147900  0.17238642  1
  I  I55  1  0.16767078  0.00386565  0.49428880  1
  I  I56  1  0.16873094  0.00001885  0.83480705  1
  I  I57  1  0.16337839  0.33245408  0.16666934  1
  I  I58  1  0.16722032  0.32871044  0.49446195  1
  I  I59  1  0.17386069  0.33592791  0.83853163  1
  I  I60  1  0.17010897  0.66622487  0.16247851  1
  I  I61  1  0.16691322  0.66682557  0.49812731  1
  I  I62  1  0.17314550  0.66294084  0.83772749  1
  I  I63  1  0.49573736  0.00021267  0.16063633  1
  I  I64  1  0.50005091  0.00107116  0.50795845  1
  I  I65  1  0.50005683  0.00013853  0.82851058  1
  I  I66  1  0.49793982  0.33304753  0.16685390  1
  I  I67  1  0.50027552  0.32980073  0.50333573  1
  I  I68  1  0.49600182  0.33301137  0.82972948  1
  I  I69  1  0.49733918  0.66674713  0.16768286  1
  I  I70  1  0.50349433  0.67020593  0.50411916  1
  I  I71  1  0.49411310  0.66691257  0.82811184  1
  I  I72  1  0.83876139  0.00368303  0.16869581  1
  I  I73  1  0.83162175  0.00152300  0.49578100  1
  I  I74  1  0.83393097  0.00013944  0.83643826  1
  I  I75  1  0.83726775  0.32904419  0.17351227  1
  I  I76  1  0.83308708  0.32917444  0.49670230  1
  I  I77  1  0.83033895  0.33303195  0.83098658  1
  I  I78  1  0.83405735  0.66688376  0.16758825  1
  I  I79  1  0.82821628  0.67017834  0.50186159  1
  I  I80  1  0.83178703  0.66690416  0.83158930  1
  I  I81  1  0.16391148  0.16608335  0.00309688  1
  I  I82  1  0.16836684  0.16871526  0.33299073  1
  I  I83  1  0.16486356  0.16815064  0.66384671  1
  I  I84  1  0.17249137  0.49673359  0.00066121  1
  I  I85  1  0.16544553  0.50110407  0.33031085  1
  I  I86  1  0.17200055  0.49823042  0.66975479  1
  I  I87  1  0.16896329  0.83961671  0.00351965  1
  I  I88  1  0.16912371  0.82917430  0.33041400  1
  I  I89  1  0.16506902  0.83298074  0.66655342  1
  I  I90  1  0.49869337  0.16685585  -0.00286158  1
  I  I91  1  0.49923088  0.16090489  0.33683001  1
  I  I92  1  0.49922802  0.16659449  0.66566314  1
  I  I93  1  0.49718908  0.49778772  -0.00448038  1
  I  I94  1  0.49860997  0.49955099  0.33331357  1
  I  I95  1  0.49241642  0.49914677  0.67020452  1
  I  I96  1  0.49624828  0.83478486  -0.00293104  1
  I  I97  1  0.50205862  0.84127041  0.33714517  1
  I  I98  1  0.50230327  0.83469199  0.66632909  1
  I  I99  1  0.83840797  0.16861037  0.00286612  1
  I  I100  1  0.83310002  0.16312210  0.33450874  1
  I  I101  1  0.83646832  0.16365559  0.66299356  1
  I  I102  1  0.83044989  0.49812289  0.00020657  1
  I  I103  1  0.83460575  0.50162420  0.33316748  1
  I  I104  1  0.83663427  0.49656562  0.66663663  1
  I  I105  1  0.83227325  0.83390963  0.00037690  1
  I  I106  1  0.82567487  0.83636099  0.33715210  1
  I  I107  1  0.83436083  0.84130977  0.66252847  1
  I  I108  1  0.00135363  0.16771590  0.17535572  1
  I  I109  1  -0.00009864  0.16411458  0.49398107  1
  I  I110  1  0.00008480  0.16991951  0.83071388  1
  I  I111  1  0.00460503  0.50209641  0.15984173  1
  I  I112  1  0.00023057  0.50074085  0.50264417  1
  I  I113  1  0.00344546  0.49781355  0.83792263  1
  I  I114  1  0.00382931  0.83078445  0.16820559  1
  I  I115  1  -0.00230753  0.83760680  0.49691211  1
  I  I116  1  0.00009387  0.83126736  0.83265134  1
  I  I117  1  0.33000721  0.16758903  0.16978171  1
  I  I118  1  0.33382814  0.16363583  0.49948396  1
  I  I119  1  0.33678717  0.16532697  0.82947930  1
  I  I120  1  0.32941043  0.49585648  0.16592979  1
  I  I121  1  0.33321476  0.49954002  0.49760369  1
  I  I122  1  0.33391055  0.49899078  0.83764909  1
  I  I123  1  0.33003393  0.83691585  0.16836158  1
  I  I124  1  0.33637822  0.83791030  0.50304969  1
  I  I125  1  0.33699096  0.83576587  0.82666919  1
  I  I126  1  0.66934186  0.16579437  0.16968775  1
  I  I127  1  0.66635725  0.16258460  0.50019020  1
  I  I128  1  0.66204601  0.16957591  0.82942305  1
  I  I129  1  0.66704716  0.49871054  0.16549147  1
  I  I130  1  0.66645691  0.49492936  0.50294026  1
  I  I131  1  0.66294565  0.49838372  0.83021489  1
  I  I132  1  0.66698586  0.83513539  0.16393621  1
  I  I133  1  0.66568793  0.84330147  0.50512437  1
  I  I134  1  0.66198253  0.83192748  0.83330087  1
