# generated using pymatgen
data_Cs27Sn14Pb13I81
_symmetry_space_group_name_H-M   'P 1'
_cell_length_a   18.95878589
_cell_length_b   18.96208011
_cell_length_c   18.96206172
_cell_angle_alpha   90.00083716
_cell_angle_beta   90.00157359
_cell_angle_gamma   90.00006257
_symmetry_Int_Tables_number   1
_chemical_formula_structural   Cs27Sn14Pb13I81
_chemical_formula_sum   'Cs27 Sn14 Pb13 I81'
_cell_volume   6816.82358055
_cell_formula_units_Z   1
loop_
 _symmetry_equiv_pos_site_id
 _symmetry_equiv_pos_as_xyz
  1  'x, y, z'
loop_
 _atom_site_type_symbol
 _atom_site_label
 _atom_site_symmetry_multiplicity
 _atom_site_fract_x
 _atom_site_fract_y
 _atom_site_fract_z
 _atom_site_occupancy
  Cs  Cs0  1  0.00118027  -0.00052145  0.00147132  1
  Cs  Cs1  1  -0.00286033  0.00724946  0.32943241  1
  Cs  Cs2  1  0.00093773  -0.00047793  0.66972718  1
  Cs  Cs3  1  0.00216561  0.33302840  -0.00196925  1
  Cs  Cs4  1  0.00092248  0.33003265  0.33407921  1
  Cs  Cs5  1  0.00009944  0.33468073  0.66846830  1
  Cs  Cs6  1  -0.00061066  0.66784066  -0.00012606  1
  Cs  Cs7  1  0.00071856  0.66642916  0.33331275  1
  Cs  Cs8  1  -0.00110028  0.66537400  0.66712420  1
  Cs  Cs9  1  0.33198798  0.00059646  0.00022689  1
  Cs  Cs10  1  0.33481602  -0.00078703  0.33869882  1
  Cs  Cs11  1  0.33572277  -0.00163084  0.65857937  1
  Cs  Cs12  1  0.33440099  0.33285833  0.00066627  1
  Cs  Cs13  1  0.33269751  0.33307384  0.33475282  1
  Cs  Cs14  1  0.32879382  0.33071148  0.66410647  1
  Cs  Cs15  1  0.33466304  0.66660192  0.00090902  1
  Cs  Cs16  1  0.32994483  0.66739442  0.33281178  1
  Cs  Cs17  1  0.33326370  0.67116457  0.66455257  1
  Cs  Cs18  1  0.66681821  -0.00070662  0.00086547  1
  Cs  Cs19  1  0.66789567  0.00409826  0.33274634  1
  Cs  Cs20  1  0.66405780  0.00003106  0.66538772  1
  Cs  Cs21  1  0.66322935  0.33552926  -0.00164390  1
  Cs  Cs22  1  0.66642304  0.33362615  0.33583102  1
  Cs  Cs23  1  0.66801818  0.33360649  0.66623713  1
  Cs  Cs24  1  0.66514887  0.66586841  -0.00062400  1
  Cs  Cs25  1  0.66903579  0.66378032  0.33160557  1
  Cs  Cs26  1  0.66746349  0.66684430  0.66835275  1
  Sn  Sn27  1  0.83235903  0.16655076  0.83369087  1
  Sn  Sn28  1  0.16622855  0.50121482  0.83430892  1
  Sn  Sn29  1  0.83371030  0.50017047  0.83360779  1
  Sn  Sn30  1  0.49998135  0.16567385  0.16585449  1
  Sn  Sn31  1  0.83422464  0.49994848  0.16638309  1
  Sn  Sn32  1  0.83356897  0.83279877  0.50045385  1
  Sn  Sn33  1  0.16620234  0.83233607  0.83406915  1
  Sn  Sn34  1  0.83249905  0.50086030  0.50014408  1
  Sn  Sn35  1  0.16559541  0.50076113  0.16560394  1
  Sn  Sn36  1  0.50046906  0.16658576  0.83392279  1
  Sn  Sn37  1  0.83373695  0.83333460  0.83268153  1
  Sn  Sn38  1  0.50034587  0.50059510  0.50031229  1
  Sn  Sn39  1  0.16738374  0.83267149  0.16590835  1
  Sn  Sn40  1  0.49943001  0.83403548  0.16631753  1
  Pb  Pb41  1  0.83371264  0.83185212  0.16646969  1
  Pb  Pb42  1  0.49943040  0.50004197  0.16815304  1
  Pb  Pb43  1  0.49976428  0.83525563  0.83482723  1
  Pb  Pb44  1  0.50026368  0.16889657  0.50013806  1
  Pb  Pb45  1  0.83115684  0.16997178  0.16401149  1
  Pb  Pb46  1  0.16575671  0.50010264  0.50015891  1
  Pb  Pb47  1  0.50281792  0.83103624  0.49703563  1
  Pb  Pb48  1  0.16360356  0.83331259  0.49967445  1
  Pb  Pb49  1  0.16689362  0.16613482  0.83335217  1
  Pb  Pb50  1  0.16911308  0.16661176  0.16656919  1
  Pb  Pb51  1  0.16631434  0.16629806  0.49994060  1
  Pb  Pb52  1  0.83343398  0.16676598  0.50267246  1
  Pb  Pb53  1  0.49915601  0.49829236  0.83127066  1
  I  I54  1  0.16779676  -0.00339395  0.16176797  1
  I  I55  1  0.16602416  -0.00081129  0.50118066  1
  I  I56  1  0.16213148  -0.00349380  0.83802248  1
  I  I57  1  0.16396110  0.33679185  0.16275150  1
  I  I58  1  0.16592456  0.33405994  0.50042144  1
  I  I59  1  0.16335960  0.33649721  0.83653608  1
  I  I60  1  0.16914542  0.66639546  0.16268823  1
  I  I61  1  0.16970648  0.66655235  0.49954572  1
  I  I62  1  0.15861637  0.66640330  0.83739980  1
  I  I63  1  0.49564381  -0.00044207  0.16240311  1
  I  I64  1  0.50069176  -0.00028782  0.50100144  1
  I  I65  1  0.50459672  0.00323273  0.83540047  1
  I  I66  1  0.50131341  0.33139898  0.16430922  1
  I  I67  1  0.50662479  0.33675112  0.49788422  1
  I  I68  1  0.50473477  0.33037711  0.83936853  1
  I  I69  1  0.49910046  0.66876482  0.16826117  1
  I  I70  1  0.50266535  0.66330349  0.49926666  1
  I  I71  1  0.50267139  0.66669878  0.83449103  1
  I  I72  1  0.83504326  0.00010122  0.16743806  1
  I  I73  1  0.83448142  -0.00306324  0.50386430  1
  I  I74  1  0.83372622  -0.00106457  0.82878370  1
  I  I75  1  0.83725711  0.33824459  0.16801869  1
  I  I76  1  0.82979898  0.33692311  0.50030150  1
  I  I77  1  0.83336984  0.33476173  0.83349558  1
  I  I78  1  0.83135483  0.66352922  0.16332344  1
  I  I79  1  0.82951938  0.66532135  0.50489808  1
  I  I80  1  0.83762515  0.66610958  0.83220199  1
  I  I81  1  0.16529890  0.16766670  -0.00016435  1
  I  I82  1  0.16832851  0.16795321  0.33265337  1
  I  I83  1  0.16927330  0.16829565  0.66750233  1
  I  I84  1  0.15935427  0.50322940  -0.00027259  1
  I  I85  1  0.16454345  0.50368040  0.33016578  1
  I  I86  1  0.16376139  0.50277735  0.67010606  1
  I  I87  1  0.16424659  0.82924832  -0.00042267  1
  I  I88  1  0.17009218  0.82815817  0.32988256  1
  I  I89  1  0.16421996  0.82897745  0.67007560  1
  I  I90  1  0.50423673  0.16519775  -0.00012539  1
  I  I91  1  0.49866712  0.16425241  0.33045932  1
  I  I92  1  0.50406813  0.16866011  0.66961482  1
  I  I93  1  0.50290996  0.50012459  -0.00001978  1
  I  I94  1  0.50540579  0.49856014  0.33578127  1
  I  I95  1  0.50529233  0.49811617  0.66376611  1
  I  I96  1  0.50133940  0.83304240  0.00294028  1
  I  I97  1  0.49508552  0.83860731  0.32915500  1
  I  I98  1  0.49746646  0.83463351  0.66658578  1
  I  I99  1  0.83191180  0.16542252  -0.00413827  1
  I  I100  1  0.83215105  0.16633278  0.33298435  1
  I  I101  1  0.82759381  0.17104475  0.67103921  1
  I  I102  1  0.83701882  0.50026816  -0.00098603  1
  I  I103  1  0.83246751  0.50536729  0.33347642  1
  I  I104  1  0.83312964  0.49994594  0.66779899  1
  I  I105  1  0.83389259  0.83241843  -0.00305683  1
  I  I106  1  0.83225304  0.82678462  0.33525938  1
  I  I107  1  0.83760286  0.82874949  0.66845052  1
  I  I108  1  -0.00019976  0.16449901  0.16633795  1
  I  I109  1  -0.00077364  0.16947275  0.50075687  1
  I  I110  1  -0.00301581  0.16777782  0.83167526  1
  I  I111  1  0.00002380  0.50582613  0.16734047  1
  I  I112  1  -0.00364584  0.50387076  0.50063494  1
  I  I113  1  -0.00135304  0.49816184  0.83193942  1
  I  I114  1  0.00259681  0.82960548  0.16541466  1
  I  I115  1  -0.00420589  0.82463263  0.50067634  1
  I  I116  1  -0.00079996  0.83411977  0.83517253  1
  I  I117  1  0.33704167  0.16886924  0.15949768  1
  I  I118  1  0.33389975  0.16965756  0.50296432  1
  I  I119  1  0.33608870  0.16861196  0.83764692  1
  I  I120  1  0.33045748  0.50059835  0.16351012  1
  I  I121  1  0.33532434  0.49738043  0.49892794  1
  I  I122  1  0.33005816  0.50251242  0.83724041  1
  I  I123  1  0.33230851  0.83043187  0.16074415  1
  I  I124  1  0.33342290  0.83261539  0.50249425  1
  I  I125  1  0.33035849  0.82926063  0.83658059  1
  I  I126  1  0.66333009  0.16158213  0.16480196  1
  I  I127  1  0.66686105  0.16612167  0.49830884  1
  I  I128  1  0.66764181  0.16777139  0.83698742  1
  I  I129  1  0.66918324  0.50042725  0.16462105  1
  I  I130  1  0.66886863  0.50252954  0.49922643  1
  I  I131  1  0.66981455  0.50197614  0.83554665  1
  I  I132  1  0.66482137  0.83493308  0.16665995  1
  I  I133  1  0.67061870  0.83060733  0.50589805  1
  I  I134  1  0.66979198  0.83056516  0.83174407  1
