# generated using pymatgen
data_Cs27Sn14Pb13I81
_symmetry_space_group_name_H-M   'P 1'
_cell_length_a   18.97521597
_cell_length_b   18.98112777
_cell_length_c   18.97108049
_cell_angle_alpha   90.00100761
_cell_angle_beta   90.00061902
_cell_angle_gamma   90.00011540
_symmetry_Int_Tables_number   1
_chemical_formula_structural   Cs27Sn14Pb13I81
_chemical_formula_sum   'Cs27 Sn14 Pb13 I81'
_cell_volume   6832.83300749
_cell_formula_units_Z   1
loop_
 _symmetry_equiv_pos_site_id
 _symmetry_equiv_pos_as_xyz
  1  'x, y, z'
loop_
 _atom_site_type_symbol
 _atom_site_label
 _atom_site_symmetry_multiplicity
 _atom_site_fract_x
 _atom_site_fract_y
 _atom_site_fract_z
 _atom_site_occupancy
  Cs  Cs0  1  -0.00187045  0.00068846  -0.00043501  1
  Cs  Cs1  1  0.00131986  -0.00065073  0.33776035  1
  Cs  Cs2  1  -0.00584724  0.00618085  0.65869638  1
  Cs  Cs3  1  0.00104675  0.33376533  0.00252379  1
  Cs  Cs4  1  -0.00471943  0.33515664  0.32932171  1
  Cs  Cs5  1  0.00221008  0.32257120  0.66742046  1
  Cs  Cs6  1  0.00158867  0.66514328  0.00176216  1
  Cs  Cs7  1  -0.00151781  0.66610064  0.33223302  1
  Cs  Cs8  1  0.00190937  0.67208713  0.66699514  1
  Cs  Cs9  1  0.33490107  -0.00140801  0.00240035  1
  Cs  Cs10  1  0.33406808  -0.00089738  0.33196057  1
  Cs  Cs11  1  0.33164560  0.00016754  0.66490526  1
  Cs  Cs12  1  0.33274344  0.33419809  -0.00175894  1
  Cs  Cs13  1  0.33402194  0.33475211  0.33331857  1
  Cs  Cs14  1  0.33436072  0.33402951  0.66784778  1
  Cs  Cs15  1  0.33216016  0.66693253  -0.00154670  1
  Cs  Cs16  1  0.33173693  0.66754791  0.33579062  1
  Cs  Cs17  1  0.33420276  0.66568115  0.66799381  1
  Cs  Cs18  1  0.66718769  -0.00092191  0.00337677  1
  Cs  Cs19  1  0.66335769  0.00122012  0.32671436  1
  Cs  Cs20  1  0.67167199  -0.00067461  0.66769204  1
  Cs  Cs21  1  0.66494662  0.33370840  -0.00080284  1
  Cs  Cs22  1  0.66834187  0.33648017  0.33742448  1
  Cs  Cs23  1  0.66485909  0.33448036  0.66318018  1
  Cs  Cs24  1  0.66609287  0.66816680  -0.00242739  1
  Cs  Cs25  1  0.66773418  0.66220033  0.33698095  1
  Cs  Cs26  1  0.66655947  0.66668983  0.66627385  1
  Sn  Sn27  1  0.83385621  0.49996719  0.83295882  1
  Sn  Sn28  1  0.16626478  0.49988657  0.50134987  1
  Sn  Sn29  1  0.16576136  0.83424006  0.16584990  1
  Sn  Sn30  1  0.50015424  0.50013506  0.83421963  1
  Sn  Sn31  1  0.16685663  0.83353414  0.83364672  1
  Sn  Sn32  1  0.49982537  0.50027955  0.16598307  1
  Sn  Sn33  1  0.49987585  0.83441620  0.50126853  1
  Sn  Sn34  1  0.49964562  0.16528959  0.50110965  1
  Sn  Sn35  1  0.16610499  0.16568910  0.16628441  1
  Sn  Sn36  1  0.49927874  0.83376087  0.83241138  1
  Sn  Sn37  1  0.16623076  0.50056066  0.83204785  1
  Sn  Sn38  1  0.49987433  0.16613464  0.83253400  1
  Sn  Sn39  1  0.83432847  0.16598484  0.16624453  1
  Sn  Sn40  1  0.83446588  0.83369619  0.16634783  1
  Pb  Pb41  1  0.83060211  0.16882795  0.83544098  1
  Pb  Pb42  1  0.49989973  0.16873585  0.16659575  1
  Pb  Pb43  1  0.16830880  0.83206822  0.50044745  1
  Pb  Pb44  1  0.49966693  0.83112301  0.16644385  1
  Pb  Pb45  1  0.83386476  0.83192049  0.83491177  1
  Pb  Pb46  1  0.83094959  0.50027966  0.16480265  1
  Pb  Pb47  1  0.83705338  0.50002269  0.50376784  1
  Pb  Pb48  1  0.83032569  0.83328632  0.49703639  1
  Pb  Pb49  1  0.16886126  0.16896154  0.49717720  1
  Pb  Pb50  1  0.16820808  0.50049087  0.16610708  1
  Pb  Pb51  1  0.49874105  0.50019231  0.50090425  1
  Pb  Pb52  1  0.16846970  0.16586909  0.83502598  1
  Pb  Pb53  1  0.83046113  0.16659418  0.49713996  1
  I  I54  1  0.16505234  -0.00105957  0.16113628  1
  I  I55  1  0.16749333  0.00014259  0.50121942  1
  I  I56  1  0.17378173  -0.00322119  0.83806083  1
  I  I57  1  0.16503775  0.33156964  0.16681127  1
  I  I58  1  0.17124589  0.33662639  0.50579574  1
  I  I59  1  0.16897048  0.33613953  0.83195724  1
  I  I60  1  0.16450497  0.66937896  0.16529325  1
  I  I61  1  0.17174519  0.66414456  0.49922181  1
  I  I62  1  0.17233931  0.66640602  0.83618286  1
  I  I63  1  0.50050128  -0.00012576  0.16502716  1
  I  I64  1  0.49848051  -0.00021190  0.50632378  1
  I  I65  1  0.49459357  -0.00089859  0.82969870  1
  I  I66  1  0.49889671  0.33629678  0.16225494  1
  I  I67  1  0.49826010  0.33151487  0.50164562  1
  I  I68  1  0.49967609  0.33430342  0.83460358  1
  I  I69  1  0.49932909  0.66364527  0.16231515  1
  I  I70  1  0.49809492  0.66886030  0.50163078  1
  I  I71  1  0.49907289  0.66645408  0.83425182  1
  I  I72  1  0.83480314  -0.00020497  0.16492021  1
  I  I73  1  0.83604369  -0.00002957  0.50374098  1
  I  I74  1  0.83193463  0.00010913  0.83418460  1
  I  I75  1  0.83640330  0.33113046  0.16503607  1
  I  I76  1  0.82940389  0.33343165  0.49610593  1
  I  I77  1  0.83357608  0.33686942  0.83698000  1
  I  I78  1  0.83679515  0.66914098  0.16497880  1
  I  I79  1  0.82893205  0.66651068  0.49543925  1
  I  I80  1  0.82802602  0.66391340  0.83730006  1
  I  I81  1  0.16699642  0.16867008  0.00304590  1
  I  I82  1  0.16673922  0.16267758  0.32920107  1
  I  I83  1  0.16662372  0.16561506  0.66674916  1
  I  I84  1  0.16710866  0.50097720  -0.00319143  1
  I  I85  1  0.17253150  0.49964424  0.33465673  1
  I  I86  1  0.17118358  0.50579005  0.66918022  1
  I  I87  1  0.17029051  0.82997411  -0.00041095  1
  I  I88  1  0.16574996  0.83442802  0.33050596  1
  I  I89  1  0.17144659  0.82803110  0.66999374  1
  I  I90  1  0.49981265  0.16575582  -0.00258978  1
  I  I91  1  0.49972127  0.16405599  0.33528594  1
  I  I92  1  0.49871540  0.16999921  0.66777769  1
  I  I93  1  0.49735109  0.49945382  -0.00238961  1
  I  I94  1  0.49750205  0.49961251  0.33181274  1
  I  I95  1  0.50084204  0.49985137  0.67025972  1
  I  I96  1  0.49910541  0.83454568  -0.00295249  1
  I  I97  1  0.49998162  0.83604406  0.33517876  1
  I  I98  1  0.49409896  0.83049948  0.66858304  1
  I  I99  1  0.83386206  0.16351666  0.00333388  1
  I  I100  1  0.83467716  0.16463124  0.32905687  1
  I  I101  1  0.83426652  0.16822553  0.66684099  1
  I  I102  1  0.83661804  0.50014596  -0.00293207  1
  I  I103  1  0.83143671  0.49952273  0.33324977  1
  I  I104  1  0.82351434  0.50122226  0.67138400  1
  I  I105  1  0.83114095  0.83608706  0.00299564  1
  I  I106  1  0.83822562  0.83571112  0.32875876  1
  I  I107  1  0.83496169  0.83115121  0.66683905  1
  I  I108  1  0.00046829  0.16479509  0.16523202  1
  I  I109  1  0.00015389  0.16831685  0.50095666  1
  I  I110  1  0.00002117  0.16829269  0.83399628  1
  I  I111  1  -0.00001592  0.49912306  0.16619696  1
  I  I112  1  0.00472562  0.50145635  0.50127000  1
  I  I113  1  0.00143691  0.50618688  0.83042275  1
  I  I114  1  0.00127518  0.83568294  0.16034640  1
  I  I115  1  0.00014727  0.83109821  0.50194825  1
  I  I116  1  0.00327723  0.82580289  0.83790014  1
  I  I117  1  0.33131644  0.16358105  0.16650421  1
  I  I118  1  0.33680055  0.16422254  0.50115673  1
  I  I119  1  0.33679813  0.17212155  0.83345233  1
  I  I120  1  0.33597071  0.49921834  0.16109446  1
  I  I121  1  0.33118957  0.50023210  0.50437170  1
  I  I122  1  0.33383157  0.50076162  0.83387727  1
  I  I123  1  0.33081894  0.83623288  0.16534264  1
  I  I124  1  0.33649289  0.83542362  0.49845226  1
  I  I125  1  0.33391309  0.82776875  0.83643926  1
  I  I126  1  0.66846645  0.16315892  0.16609648  1
  I  I127  1  0.66230461  0.16561557  0.50193436  1
  I  I128  1  0.66211626  0.16684123  0.83300319  1
  I  I129  1  0.66310504  0.49974851  0.16154572  1
  I  I130  1  0.66666107  0.49957260  0.49846346  1
  I  I131  1  0.66481650  0.49995807  0.84018893  1
  I  I132  1  0.66831865  0.83676950  0.16649674  1
  I  I133  1  0.66198892  0.83459207  0.50533960  1
  I  I134  1  0.66345573  0.83140783  0.83197269  1
