# generated using pymatgen
data_Cs27Sn14Pb13I81
_symmetry_space_group_name_H-M   'P 1'
_cell_length_a   18.98288338
_cell_length_b   18.97802382
_cell_length_c   18.96595906
_cell_angle_alpha   89.99824682
_cell_angle_beta   90.00146409
_cell_angle_gamma   89.99864301
_symmetry_Int_Tables_number   1
_chemical_formula_structural   Cs27Sn14Pb13I81
_chemical_formula_sum   'Cs27 Sn14 Pb13 I81'
_cell_volume   6832.63113343
_cell_formula_units_Z   1
loop_
 _symmetry_equiv_pos_site_id
 _symmetry_equiv_pos_as_xyz
  1  'x, y, z'
loop_
 _atom_site_type_symbol
 _atom_site_label
 _atom_site_symmetry_multiplicity
 _atom_site_fract_x
 _atom_site_fract_y
 _atom_site_fract_z
 _atom_site_occupancy
  Cs  Cs0  1  -0.00201062  -0.00089195  0.00039020  1
  Cs  Cs1  1  0.00025009  -0.00190058  0.33328010  1
  Cs  Cs2  1  0.00491013  0.00388067  0.66741698  1
  Cs  Cs3  1  0.00415630  0.33447846  0.00081547  1
  Cs  Cs4  1  -0.00068921  0.33458929  0.33687164  1
  Cs  Cs5  1  -0.00223673  0.32950912  0.66215618  1
  Cs  Cs6  1  0.00134942  0.66569876  -0.00260429  1
  Cs  Cs7  1  0.00193623  0.66816341  0.33195291  1
  Cs  Cs8  1  -0.00459309  0.66624966  0.67155545  1
  Cs  Cs9  1  0.33112074  0.00199229  0.00171194  1
  Cs  Cs10  1  0.33433406  -0.00198251  0.33271843  1
  Cs  Cs11  1  0.33165772  -0.00070474  0.66827021  1
  Cs  Cs12  1  0.33194681  0.33589284  -0.00106847  1
  Cs  Cs13  1  0.33580260  0.33669458  0.33311779  1
  Cs  Cs14  1  0.33198461  0.33105802  0.66688922  1
  Cs  Cs15  1  0.33125255  0.66137919  -0.00495262  1
  Cs  Cs16  1  0.33185103  0.66642484  0.33415545  1
  Cs  Cs17  1  0.33867392  0.66909328  0.66756495  1
  Cs  Cs18  1  0.66870747  0.00427762  0.00302869  1
  Cs  Cs19  1  0.66617746  -0.00175810  0.33087757  1
  Cs  Cs20  1  0.66354771  -0.00182050  0.66790013  1
  Cs  Cs21  1  0.66479297  0.32880638  0.00079320  1
  Cs  Cs22  1  0.66588502  0.33403624  0.33373756  1
  Cs  Cs23  1  0.66898390  0.33529613  0.66574784  1
  Cs  Cs24  1  0.66735429  0.66628740  -0.00419957  1
  Cs  Cs25  1  0.66650889  0.66762894  0.33364804  1
  Cs  Cs26  1  0.66499059  0.66577566  0.67572938  1
  Sn  Sn27  1  0.83336070  0.83275139  0.16729979  1
  Sn  Sn28  1  0.83400570  0.83328794  0.49956888  1
  Sn  Sn29  1  0.49945581  0.49949024  0.49926412  1
  Sn  Sn30  1  0.83270743  0.16656362  0.83382039  1
  Sn  Sn31  1  0.50099217  0.50127389  0.16738563  1
  Sn  Sn32  1  0.16556215  0.16619491  0.16743244  1
  Sn  Sn33  1  0.16665041  0.83395409  0.16710743  1
  Sn  Sn34  1  0.83245572  0.50014960  0.16704181  1
  Sn  Sn35  1  0.50011905  0.16716946  0.50088671  1
  Sn  Sn36  1  0.16558869  0.83210215  0.49932551  1
  Sn  Sn37  1  0.50071315  0.16669433  0.83200354  1
  Sn  Sn38  1  0.83460330  0.16704171  0.16645712  1
  Sn  Sn39  1  0.16713368  0.50119044  0.49979277  1
  Sn  Sn40  1  0.49983638  0.83181665  0.16675127  1
  Pb  Pb41  1  0.83283560  0.50265668  0.49811868  1
  Pb  Pb42  1  0.83337829  0.83582203  0.83357384  1
  Pb  Pb43  1  0.16667831  0.50042847  0.16799786  1
  Pb  Pb44  1  0.50001636  0.83617302  0.83726129  1
  Pb  Pb45  1  0.16662670  0.49995966  0.82869411  1
  Pb  Pb46  1  0.83116181  0.16426747  0.49939678  1
  Pb  Pb47  1  0.16660873  0.83319029  0.83317504  1
  Pb  Pb48  1  0.16894013  0.16624906  0.49752303  1
  Pb  Pb49  1  0.50004238  0.83276178  0.49853984  1
  Pb  Pb50  1  0.83336968  0.49684009  0.83655526  1
  Pb  Pb51  1  0.49993347  0.16701922  0.16688777  1
  Pb  Pb52  1  0.16642248  0.16664798  0.83608435  1
  Pb  Pb53  1  0.50004048  0.49756647  0.83327522  1
  I  I54  1  0.16515292  -0.00108434  0.17151477  1
  I  I55  1  0.16419410  -0.00295325  0.49719278  1
  I  I56  1  0.16782722  0.00019951  0.82900036  1
  I  I57  1  0.16432878  0.33131909  0.16755180  1
  I  I58  1  0.16973730  0.33539802  0.49742878  1
  I  I59  1  0.16724726  0.33299750  0.83631955  1
  I  I60  1  0.16463946  0.66962639  0.16960212  1
  I  I61  1  0.16922106  0.66753830  0.49140658  1
  I  I62  1  0.16653912  0.66664256  0.84058190  1
  I  I63  1  0.50199508  -0.00200138  0.16717748  1
  I  I64  1  0.50051469  0.00187393  0.50116598  1
  I  I65  1  0.50394935  0.00399066  0.82792190  1
  I  I66  1  0.50278899  0.33562841  0.16772336  1
  I  I67  1  0.49516557  0.33411075  0.49643235  1
  I  I68  1  0.50433581  0.32973263  0.83591259  1
  I  I69  1  0.50289821  0.66633944  0.17382667  1
  I  I70  1  0.49826404  0.66406255  0.49516198  1
  I  I71  1  0.49954542  0.66662118  0.83090901  1
  I  I72  1  0.83297490  -0.00024030  0.16605415  1
  I  I73  1  0.83752004  -0.00339699  0.49317748  1
  I  I74  1  0.82874993  0.00349802  0.84083708  1
  I  I75  1  0.83218326  0.33282232  0.16206040  1
  I  I76  1  0.83549034  0.33335481  0.49926912  1
  I  I77  1  0.82844801  0.32889138  0.83798864  1
  I  I78  1  0.83259859  0.66747777  0.17295875  1
  I  I79  1  0.83312991  0.67038515  0.49212975  1
  I  I80  1  0.83352335  0.66668938  0.83348437  1
  I  I81  1  0.16803793  0.16091688  0.00442626  1
  I  I82  1  0.16174835  0.16424318  0.32957291  1
  I  I83  1  0.16495945  0.16699096  0.66632805  1
  I  I84  1  0.16743599  0.49933472  0.00038373  1
  I  I85  1  0.16899775  0.50106594  0.33575157  1
  I  I86  1  0.17395760  0.50558528  0.66066425  1
  I  I87  1  0.16567141  0.83865166  0.00405184  1
  I  I88  1  0.16561895  0.83401607  0.33222991  1
  I  I89  1  0.16228929  0.82969581  0.66267802  1
  I  I90  1  0.50158753  0.16518380  -0.00139126  1
  I  I91  1  0.49965615  0.16784776  0.33514522  1
  I  I92  1  0.50526360  0.17195255  0.66608368  1
  I  I93  1  0.50400484  0.50250355  0.00344645  1
  I  I94  1  0.49992764  0.49630277  0.33294096  1
  I  I95  1  0.49504624  0.49800078  0.66330050  1
  I  I96  1  0.50100395  0.82919700  0.00571101  1
  I  I97  1  0.50064006  0.83603655  0.33011065  1
  I  I98  1  0.50015018  0.83175706  0.66665288  1
  I  I99  1  0.82979643  0.16451149  0.00206913  1
  I  I100  1  0.83505828  0.16739791  0.32984505  1
  I  I101  1  0.83018310  0.16436487  0.66868514  1
  I  I102  1  0.82778112  0.50577527  0.00527947  1
  I  I103  1  0.83123714  0.49421097  0.32967962  1
  I  I104  1  0.83375584  0.50047452  0.66644338  1
  I  I105  1  0.83361447  0.83230527  0.00405402  1
  I  I106  1  0.83399160  0.83637111  0.33122383  1
  I  I107  1  0.83808206  0.83485364  0.66364367  1
  I  I108  1  -0.00126741  0.16371781  0.16128348  1
  I  I109  1  -0.00003133  0.16948557  0.50274136  1
  I  I110  1  -0.00303506  0.16563573  0.83679672  1
  I  I111  1  -0.00250861  0.50073370  0.16808332  1
  I  I112  1  0.00222834  0.50160661  0.49706533  1
  I  I113  1  -0.00017665  0.49771041  0.83506750  1
  I  I114  1  -0.00033935  0.83518009  0.17089817  1
  I  I115  1  0.00062545  0.82924574  0.49039286  1
  I  I116  1  -0.00011927  0.83654695  0.83702490  1
  I  I117  1  0.33149354  0.16277377  0.16761714  1
  I  I118  1  0.33681221  0.16580407  0.50288902  1
  I  I119  1  0.33613874  0.16677924  0.83116055  1
  I  I120  1  0.33597741  0.50133847  0.16905478  1
  I  I121  1  0.33426676  0.50100078  0.49244172  1
  I  I122  1  0.33359475  0.49624603  0.84067361  1
  I  I123  1  0.33282541  0.83605808  0.17155407  1
  I  I124  1  0.33093818  0.83318863  0.49428229  1
  I  I125  1  0.33348569  0.83684990  0.83306983  1
  I  I126  1  0.66898712  0.16400627  0.16583998  1
  I  I127  1  0.66337239  0.17099658  0.49772135  1
  I  I128  1  0.66689171  0.16621655  0.83799337  1
  I  I129  1  0.66613962  0.50165429  0.17256060  1
  I  I130  1  0.66375287  0.49622264  0.49652437  1
  I  I131  1  0.66671832  0.50156268  0.82865202  1
  I  I132  1  0.66745469  0.83487750  0.17118414  1
  I  I133  1  0.66879254  0.83563843  0.49348787  1
  I  I134  1  0.66663866  0.83243566  0.83141512  1
