# generated using pymatgen
data_Cs27Sn13Pb14I81
_symmetry_space_group_name_H-M   'P 1'
_cell_length_a   18.99208734
_cell_length_b   18.98971402
_cell_length_c   18.99188816
_cell_angle_alpha   90.00026602
_cell_angle_beta   89.99931994
_cell_angle_gamma   90.00035922
_symmetry_Int_Tables_number   1
_chemical_formula_structural   Cs27Sn13Pb14I81
_chemical_formula_sum   'Cs27 Sn13 Pb14 I81'
_cell_volume   6849.50627016
_cell_formula_units_Z   1
loop_
 _symmetry_equiv_pos_site_id
 _symmetry_equiv_pos_as_xyz
  1  'x, y, z'
loop_
 _atom_site_type_symbol
 _atom_site_label
 _atom_site_symmetry_multiplicity
 _atom_site_fract_x
 _atom_site_fract_y
 _atom_site_fract_z
 _atom_site_occupancy
  Cs  Cs0  1  0.00242072  -0.00345446  -0.00128546  1
  Cs  Cs1  1  -0.00025057  0.00049647  0.33580786  1
  Cs  Cs2  1  0.00198927  0.00156246  0.66508672  1
  Cs  Cs3  1  -0.00137649  0.33330594  0.00083930  1
  Cs  Cs4  1  0.00059163  0.33298706  0.33319272  1
  Cs  Cs5  1  0.00116710  0.33222739  0.66616103  1
  Cs  Cs6  1  -0.01024751  0.67210673  0.00215172  1
  Cs  Cs7  1  0.00038510  0.66691722  0.33406843  1
  Cs  Cs8  1  -0.00189467  0.66594399  0.66345406  1
  Cs  Cs9  1  0.33342829  -0.00800327  -0.00057407  1
  Cs  Cs10  1  0.33960487  -0.00005802  0.32896641  1
  Cs  Cs11  1  0.33110816  -0.00539924  0.67261629  1
  Cs  Cs12  1  0.33395486  0.33319444  -0.00066969  1
  Cs  Cs13  1  0.33285658  0.33501658  0.33084796  1
  Cs  Cs14  1  0.33199461  0.33623016  0.67018853  1
  Cs  Cs15  1  0.33252840  0.66756204  0.00054326  1
  Cs  Cs16  1  0.33251438  0.66443357  0.33468611  1
  Cs  Cs17  1  0.33714443  0.66368889  0.66531609  1
  Cs  Cs18  1  0.66400632  -0.00355494  0.00174042  1
  Cs  Cs19  1  0.65641188  0.00594190  0.33242190  1
  Cs  Cs20  1  0.66482262  0.00129190  0.66515904  1
  Cs  Cs21  1  0.66683658  0.33393629  -0.00075643  1
  Cs  Cs22  1  0.66367974  0.32813084  0.33435220  1
  Cs  Cs23  1  0.66619026  0.33115183  0.66705583  1
  Cs  Cs24  1  0.67813696  0.67062920  -0.00131495  1
  Cs  Cs25  1  0.66760548  0.66863556  0.33431320  1
  Cs  Cs26  1  0.66510724  0.66950906  0.66708684  1
  Sn  Sn27  1  0.16580334  0.49967139  0.49997176  1
  Sn  Sn28  1  0.49967934  0.49931755  0.83498837  1
  Sn  Sn29  1  0.83377411  0.50017932  0.49997355  1
  Sn  Sn30  1  0.16698986  0.16676578  0.49917780  1
  Sn  Sn31  1  0.50051003  0.16745538  0.83354320  1
  Sn  Sn32  1  0.83387509  0.83302453  0.49958482  1
  Sn  Sn33  1  0.16682593  0.49945091  0.16600248  1
  Sn  Sn34  1  0.16621324  0.83325122  0.49968537  1
  Sn  Sn35  1  0.49977921  0.49991238  0.16532217  1
  Sn  Sn36  1  0.16643040  0.49999136  0.83408614  1
  Sn  Sn37  1  0.83432175  0.16686548  0.16573924  1
  Sn  Sn38  1  0.83278569  0.16697381  0.83440091  1
  Sn  Sn39  1  0.16588459  0.16732019  0.16708206  1
  Pb  Pb40  1  0.83345632  0.83709952  0.16996910  1
  Pb  Pb41  1  0.16658644  0.83302534  0.16902016  1
  Pb  Pb42  1  0.16637997  0.82919412  0.83081785  1
  Pb  Pb43  1  0.49999604  0.82913932  0.16651677  1
  Pb  Pb44  1  0.16679588  0.16820223  0.83417535  1
  Pb  Pb45  1  0.49907241  0.16853860  0.16414980  1
  Pb  Pb46  1  0.83350460  0.83687859  0.83054566  1
  Pb  Pb47  1  0.49982627  0.83334098  0.49991602  1
  Pb  Pb48  1  0.83340612  0.49814390  0.16909810  1
  Pb  Pb49  1  0.49584566  0.16692574  0.50306318  1
  Pb  Pb50  1  0.50005969  0.83227021  0.83347328  1
  Pb  Pb51  1  0.50000218  0.49981328  0.50005409  1
  Pb  Pb52  1  0.83488120  0.16661519  0.49980053  1
  Pb  Pb53  1  0.83321885  0.49835502  0.83116610  1
  I  I54  1  0.16229985  0.00341234  0.17116322  1
  I  I55  1  0.16118524  0.00048182  0.49658791  1
  I  I56  1  0.16762787  -0.00002403  0.83208049  1
  I  I57  1  0.16664267  0.33405632  0.17277664  1
  I  I58  1  0.16220268  0.33439247  0.49970091  1
  I  I59  1  0.16774563  0.33625629  0.82719308  1
  I  I60  1  0.17225816  0.66288444  0.16806985  1
  I  I61  1  0.16259879  0.66525081  0.50068133  1
  I  I62  1  0.17413770  0.66094146  0.83338466  1
  I  I63  1  0.49997100  0.00036418  0.16637013  1
  I  I64  1  0.50168969  0.00036122  0.50125996  1
  I  I65  1  0.50399527  0.00300887  0.83116757  1
  I  I66  1  0.49750964  0.33634799  0.16562051  1
  I  I67  1  0.50266612  0.33338902  0.49866533  1
  I  I68  1  0.49938919  0.33439683  0.83588420  1
  I  I69  1  0.49198805  0.66097853  0.16222597  1
  I  I70  1  0.49617038  0.66629495  0.50186306  1
  I  I71  1  0.49352370  0.66250298  0.83499620  1
  I  I72  1  0.84054372  0.00499488  0.16362132  1
  I  I73  1  0.83994287  -0.00203166  0.50140880  1
  I  I74  1  0.82791298  0.00492315  0.83512566  1
  I  I75  1  0.83557583  0.33045332  0.16639843  1
  I  I76  1  0.83859059  0.33550196  0.50047756  1
  I  I77  1  0.83274590  0.33056639  0.83295876  1
  I  I78  1  0.83274819  0.66662234  0.16586416  1
  I  I79  1  0.84214339  0.66575715  0.50009631  1
  I  I80  1  0.83297454  0.66659558  0.83372308  1
  I  I81  1  0.16516774  0.17350152  0.00289624  1
  I  I82  1  0.15969844  0.17214158  0.33322625  1
  I  I83  1  0.16586879  0.16808525  0.66431205  1
  I  I84  1  0.17328633  0.49164515  0.00058191  1
  I  I85  1  0.16730057  0.49929864  0.33364994  1
  I  I86  1  0.16730664  0.49911398  0.66590557  1
  I  I87  1  0.16838352  0.83501853  0.00006032  1
  I  I88  1  0.16179416  0.82842597  0.33724024  1
  I  I89  1  0.16261620  0.83670941  0.66245577  1
  I  I90  1  0.49960215  0.17080028  -0.00335404  1
  I  I91  1  0.50356633  0.16744930  0.33306977  1
  I  I92  1  0.50666125  0.17423757  0.67061248  1
  I  I93  1  0.48952724  0.49421015  -0.00052142  1
  I  I94  1  0.49571826  0.49983771  0.33074439  1
  I  I95  1  0.49582803  0.49651661  0.66963249  1
  I  I96  1  0.49865124  0.83713797  -0.00008971  1
  I  I97  1  0.50035666  0.83335167  0.33334574  1
  I  I98  1  0.49921772  0.83137035  0.66666765  1
  I  I99  1  0.83632679  0.17029993  0.00022138  1
  I  I100  1  0.83683781  0.16747214  0.33119884  1
  I  I101  1  0.83085678  0.16718616  0.66853957  1
  I  I102  1  0.83598543  0.50001213  0.00009107  1
  I  I103  1  0.83843525  0.50106681  0.33681990  1
  I  I104  1  0.83861855  0.50041373  0.66335633  1
  I  I105  1  0.83217020  0.83124923  0.00018003  1
  I  I106  1  0.83994963  0.82891134  0.33755793  1
  I  I107  1  0.83851459  0.83015450  0.66279050  1
  I  I108  1  0.00117147  0.17367781  0.16559223  1
  I  I109  1  0.00303656  0.16810597  0.50176583  1
  I  I110  1  -0.00179892  0.16872398  0.83265615  1
  I  I111  1  0.00328883  0.49710618  0.16553661  1
  I  I112  1  0.00208155  0.50034008  0.50057221  1
  I  I113  1  0.00282652  0.49709348  0.83354231  1
  I  I114  1  -0.00001079  0.82822258  0.16480092  1
  I  I115  1  0.00109827  0.83151370  0.50041627  1
  I  I116  1  0.00002643  0.83415224  0.83470818  1
  I  I117  1  0.33005991  0.16960827  0.17162327  1
  I  I118  1  0.32787349  0.16904304  0.49381969  1
  I  I119  1  0.33542880  0.17062185  0.83071187  1
  I  I120  1  0.33143817  0.49396820  0.16914792  1
  I  I121  1  0.32972081  0.50041344  0.50037364  1
  I  I122  1  0.33278284  0.49330981  0.83027126  1
  I  I123  1  0.33308346  0.83938885  0.16981261  1
  I  I124  1  0.32960469  0.83141857  0.50049237  1
  I  I125  1  0.33306847  0.83974667  0.82974481  1
  I  I126  1  0.66866761  0.16815937  0.16610582  1
  I  I127  1  0.66652451  0.16631603  0.49745157  1
  I  I128  1  0.66679005  0.17365273  0.83706804  1
  I  I129  1  0.66432698  0.49795434  0.16348403  1
  I  I130  1  0.66958146  0.50517316  0.50029291  1
  I  I131  1  0.66391023  0.49695001  0.83599140  1
  I  I132  1  0.66689665  0.83366769  0.17024440  1
  I  I133  1  0.66999954  0.82675411  0.50099855  1
  I  I134  1  0.66687603  0.82846974  0.82943973  1
