# generated using pymatgen
data_Cs27Sn14Pb13I81
_symmetry_space_group_name_H-M   'P 1'
_cell_length_a   18.97890091
_cell_length_b   18.98422768
_cell_length_c   18.96264245
_cell_angle_alpha   90.00037293
_cell_angle_beta   89.99828179
_cell_angle_gamma   90.00132592
_symmetry_Int_Tables_number   1
_chemical_formula_structural   Cs27Sn14Pb13I81
_chemical_formula_sum   'Cs27 Sn14 Pb13 I81'
_cell_volume   6832.23582036
_cell_formula_units_Z   1
loop_
 _symmetry_equiv_pos_site_id
 _symmetry_equiv_pos_as_xyz
  1  'x, y, z'
loop_
 _atom_site_type_symbol
 _atom_site_label
 _atom_site_symmetry_multiplicity
 _atom_site_fract_x
 _atom_site_fract_y
 _atom_site_fract_z
 _atom_site_occupancy
  Cs  Cs0  1  0.00260492  0.00053162  -0.00058587  1
  Cs  Cs1  1  0.00065872  0.00029746  0.33260307  1
  Cs  Cs2  1  -0.00882787  0.00078610  0.66691563  1
  Cs  Cs3  1  0.00215346  0.33247817  0.00128262  1
  Cs  Cs4  1  0.00049185  0.33570120  0.33085085  1
  Cs  Cs5  1  -0.00094232  0.32832711  0.67048375  1
  Cs  Cs6  1  0.00079584  0.66731214  0.00151038  1
  Cs  Cs7  1  0.00153935  0.66377842  0.33307472  1
  Cs  Cs8  1  -0.00035184  0.67095436  0.66343074  1
  Cs  Cs9  1  0.33368049  -0.00087133  -0.00064596  1
  Cs  Cs10  1  0.33544281  -0.00133749  0.33432398  1
  Cs  Cs11  1  0.33267119  0.00051731  0.67054717  1
  Cs  Cs12  1  0.33249067  0.33157876  0.00013604  1
  Cs  Cs13  1  0.33146794  0.33275796  0.33382083  1
  Cs  Cs14  1  0.33642213  0.33575098  0.66449421  1
  Cs  Cs15  1  0.33283122  0.66949201  0.00025061  1
  Cs  Cs16  1  0.33276782  0.66884250  0.33940174  1
  Cs  Cs17  1  0.33286448  0.66372603  0.66125226  1
  Cs  Cs18  1  0.66162266  -0.00256154  0.00158200  1
  Cs  Cs19  1  0.66373999  -0.00019835  0.33848980  1
  Cs  Cs20  1  0.67501428  0.00091173  0.65814088  1
  Cs  Cs21  1  0.66503817  0.33604663  0.00068528  1
  Cs  Cs22  1  0.66888169  0.33173344  0.33232037  1
  Cs  Cs23  1  0.66473769  0.33541089  0.66486560  1
  Cs  Cs24  1  0.66583413  0.66581144  -0.00179463  1
  Cs  Cs25  1  0.66602220  0.66913064  0.33180987  1
  Cs  Cs26  1  0.66910929  0.66319871  0.67222825  1
  Sn  Sn27  1  0.16691443  0.16645374  0.16743547  1
  Sn  Sn28  1  0.16731353  0.50033953  0.16602062  1
  Sn  Sn29  1  0.49982218  0.16746054  0.16601522  1
  Sn  Sn30  1  0.49940696  0.49948268  0.16664406  1
  Sn  Sn31  1  0.83318605  0.16628244  0.16623969  1
  Sn  Sn32  1  0.49939056  0.83425045  0.83335724  1
  Sn  Sn33  1  0.16748375  0.83239838  0.83398450  1
  Sn  Sn34  1  0.16656925  0.50105373  0.83404300  1
  Sn  Sn35  1  0.16682923  0.16647255  0.49936719  1
  Sn  Sn36  1  0.83410201  0.83344832  0.16634213  1
  Sn  Sn37  1  0.83354699  0.49993598  0.49925780  1
  Sn  Sn38  1  0.83325858  0.50009966  0.16708688  1
  Sn  Sn39  1  0.50028041  0.16569985  0.83391419  1
  Sn  Sn40  1  0.16605754  0.83324898  0.16626089  1
  Pb  Pb41  1  0.16809851  0.16637239  0.83365452  1
  Pb  Pb42  1  0.49797809  0.16663191  0.49965915  1
  Pb  Pb43  1  0.50271313  0.49989023  0.49672322  1
  Pb  Pb44  1  0.82977745  0.16676435  0.83614154  1
  Pb  Pb45  1  0.16667448  0.83586015  0.50031934  1
  Pb  Pb46  1  0.83354125  0.83068631  0.49671681  1
  Pb  Pb47  1  0.16485213  0.49805209  0.50007248  1
  Pb  Pb48  1  0.83563400  0.16884538  0.49725120  1
  Pb  Pb49  1  0.49996745  0.83326471  0.50442681  1
  Pb  Pb50  1  0.83626391  0.49995083  0.83411794  1
  Pb  Pb51  1  0.83364480  0.83344710  0.83572382  1
  Pb  Pb52  1  0.49961469  0.83332408  0.16579617  1
  Pb  Pb53  1  0.49757461  0.50003804  0.83547722  1
  I  I54  1  0.16371063  0.00016106  0.16634921  1
  I  I55  1  0.16699020  0.00350126  0.49347661  1
  I  I56  1  0.16969043  -0.00262383  0.83796272  1
  I  I57  1  0.16467847  0.33349701  0.16626690  1
  I  I58  1  0.16604969  0.33051443  0.49427021  1
  I  I59  1  0.16687737  0.33533366  0.83755406  1
  I  I60  1  0.16352283  0.66637120  0.16157462  1
  I  I61  1  0.16545022  0.66656279  0.49799558  1
  I  I62  1  0.17177287  0.66715459  0.84292441  1
  I  I63  1  0.49984582  0.00278776  0.16418732  1
  I  I64  1  0.50009677  0.00021011  0.49355632  1
  I  I65  1  0.49208862  0.00024944  0.84261367  1
  I  I66  1  0.49999155  0.33256825  0.16114185  1
  I  I67  1  0.49929569  0.33328468  0.50570394  1
  I  I68  1  0.49810522  0.33095277  0.83674902  1
  I  I69  1  0.50123006  0.66419625  0.16460699  1
  I  I70  1  0.49841090  0.66636972  0.49785570  1
  I  I71  1  0.49820149  0.66904249  0.83629543  1
  I  I72  1  0.83702190  0.00034301  0.16374544  1
  I  I73  1  0.83395368  0.00020055  0.49989864  1
  I  I74  1  0.83901024  0.00009296  0.83498421  1
  I  I75  1  0.83544362  0.33358343  0.17017157  1
  I  I76  1  0.83440686  0.33628735  0.49196548  1
  I  I77  1  0.83500741  0.33342847  0.83583352  1
  I  I78  1  0.83613483  0.66604835  0.17011656  1
  I  I79  1  0.83566518  0.66308575  0.49287693  1
  I  I80  1  0.82783355  0.66661277  0.83586799  1
  I  I81  1  0.16472419  0.16735890  0.00362342  1
  I  I82  1  0.16805904  0.16778760  0.32991125  1
  I  I83  1  0.16958310  0.16841517  0.66496007  1
  I  I84  1  0.16447262  0.49806073  0.00247251  1
  I  I85  1  0.16770171  0.50181096  0.32944933  1
  I  I86  1  0.16547826  0.50268856  0.66944877  1
  I  I87  1  0.16630635  0.83447043  0.00150783  1
  I  I88  1  0.16231848  0.83031223  0.32963924  1
  I  I89  1  0.17256638  0.82892231  0.67025263  1
  I  I90  1  0.49740547  0.16695283  0.00194583  1
  I  I91  1  0.50198111  0.17111492  0.32932903  1
  I  I92  1  0.49558810  0.16239047  0.66972077  1
  I  I93  1  0.50515647  0.49797381  0.00387201  1
  I  I94  1  0.49433948  0.49377200  0.32805945  1
  I  I95  1  0.50015781  0.49969825  0.66694932  1
  I  I96  1  0.49804071  0.83489777  -0.00202694  1
  I  I97  1  0.50013614  0.83352795  0.33307464  1
  I  I98  1  0.49180656  0.83913229  0.67254490  1
  I  I99  1  0.84084186  0.17069078  0.00495804  1
  I  I100  1  0.82851249  0.16483335  0.32845394  1
  I  I101  1  0.83474751  0.16840078  0.66642588  1
  I  I102  1  0.83169214  0.49978672  0.00440673  1
  I  I103  1  0.83593127  0.49942739  0.32996642  1
  I  I104  1  0.83535777  0.49975008  0.66432049  1
  I  I105  1  0.83533875  0.82988935  0.00428145  1
  I  I106  1  0.83938577  0.83574975  0.32813632  1
  I  I107  1  0.83312633  0.83171873  0.66664394  1
  I  I108  1  0.00064903  0.16898338  0.17134027  1
  I  I109  1  0.00334681  0.16721807  0.49491987  1
  I  I110  1  0.00013071  0.16662509  0.83303644  1
  I  I111  1  0.00045175  0.49802372  0.16682753  1
  I  I112  1  -0.00258725  0.49904712  0.49129173  1
  I  I113  1  0.00421638  0.50477452  0.84018534  1
  I  I114  1  0.00123348  0.83337005  0.16155992  1
  I  I115  1  0.00013951  0.83442894  0.50509278  1
  I  I116  1  0.00349743  0.82890551  0.83607512  1
  I  I117  1  0.33284071  0.16976131  0.16635129  1
  I  I118  1  0.33024794  0.16847784  0.49234915  1
  I  I119  1  0.33581081  0.16582078  0.84060560  1
  I  I120  1  0.33237760  0.49640380  0.16093524  1
  I  I121  1  0.33310416  0.49879198  0.49964225  1
  I  I122  1  0.32977340  0.50018188  0.83985393  1
  I  I123  1  0.33019116  0.83358022  0.16397118  1
  I  I124  1  0.33297658  0.83249889  0.49306639  1
  I  I125  1  0.33213413  0.83418979  0.84164299  1
  I  I126  1  0.66647210  0.17032117  0.16093240  1
  I  I127  1  0.66691953  0.16731595  0.50014152  1
  I  I128  1  0.66174489  0.16164962  0.83957454  1
  I  I129  1  0.66705633  0.49708301  0.17091248  1
  I  I130  1  0.67054181  0.49874473  0.49402754  1
  I  I131  1  0.66652762  0.50041388  0.83408793  1
  I  I132  1  0.66890900  0.83235485  0.16493797  1
  I  I133  1  0.66694642  0.83474016  0.49785590  1
  I  I134  1  0.66384904  0.83708209  0.83638725  1
