# generated using pymatgen
data_Cs27Sn13Pb14I81
_symmetry_space_group_name_H-M   'P 1'
_cell_length_a   18.96937994
_cell_length_b   18.97436819
_cell_length_c   18.98758993
_cell_angle_alpha   90.00112407
_cell_angle_beta   90.00051344
_cell_angle_gamma   89.99791854
_symmetry_Int_Tables_number   1
_chemical_formula_structural   Cs27Sn13Pb14I81
_chemical_formula_sum   'Cs27 Sn13 Pb14 I81'
_cell_volume   6834.24120391
_cell_formula_units_Z   1
loop_
 _symmetry_equiv_pos_site_id
 _symmetry_equiv_pos_as_xyz
  1  'x, y, z'
loop_
 _atom_site_type_symbol
 _atom_site_label
 _atom_site_symmetry_multiplicity
 _atom_site_fract_x
 _atom_site_fract_y
 _atom_site_fract_z
 _atom_site_occupancy
  Cs  Cs0  1  -0.00011125  -0.00159555  -0.00075550  1
  Cs  Cs1  1  -0.00046053  0.00488018  0.33636687  1
  Cs  Cs2  1  -0.00111378  -0.00027184  0.66528109  1
  Cs  Cs3  1  -0.00047250  0.33438135  0.00348667  1
  Cs  Cs4  1  -0.00247100  0.32830552  0.33265628  1
  Cs  Cs5  1  0.00056145  0.33249470  0.66484227  1
  Cs  Cs6  1  -0.00011070  0.66652164  -0.00051229  1
  Cs  Cs7  1  0.00139116  0.66669758  0.33356861  1
  Cs  Cs8  1  0.00028637  0.66808522  0.66732142  1
  Cs  Cs9  1  0.33541103  0.00251238  -0.00227657  1
  Cs  Cs10  1  0.33397705  -0.00098495  0.33602957  1
  Cs  Cs11  1  0.33301740  0.00218010  0.66701035  1
  Cs  Cs12  1  0.33227913  0.32981075  0.00118816  1
  Cs  Cs13  1  0.33521889  0.33450280  0.33127902  1
  Cs  Cs14  1  0.33698015  0.33275135  0.67077984  1
  Cs  Cs15  1  0.32935602  0.66772260  0.00357824  1
  Cs  Cs16  1  0.33365481  0.66622619  0.33365750  1
  Cs  Cs17  1  0.33597222  0.66577044  0.66179280  1
  Cs  Cs18  1  0.66474772  -0.00385041  -0.00295846  1
  Cs  Cs19  1  0.66640767  0.00257727  0.33243261  1
  Cs  Cs20  1  0.66918816  0.00014850  0.67043745  1
  Cs  Cs21  1  0.66882568  0.33722574  -0.00028100  1
  Cs  Cs22  1  0.66633983  0.33043331  0.33297648  1
  Cs  Cs23  1  0.66328750  0.33650689  0.66765709  1
  Cs  Cs24  1  0.66839332  0.66739425  -0.00177830  1
  Cs  Cs25  1  0.66476351  0.66751644  0.33400613  1
  Cs  Cs26  1  0.66307764  0.66313318  0.66602701  1
  Sn  Sn27  1  0.49990291  0.16652185  0.49966141  1
  Sn  Sn28  1  0.16643564  0.50082792  0.83344794  1
  Sn  Sn29  1  0.83407848  0.50064663  0.49968117  1
  Sn  Sn30  1  0.83342513  0.83249234  0.49991817  1
  Sn  Sn31  1  0.16554263  0.83295194  0.16630725  1
  Sn  Sn32  1  0.50003024  0.16730648  0.16725329  1
  Sn  Sn33  1  0.16605898  0.83239131  0.83378771  1
  Sn  Sn34  1  0.49964896  0.49947215  0.16650941  1
  Sn  Sn35  1  0.16701080  0.50045420  0.16680787  1
  Sn  Sn36  1  0.16586598  0.49991944  0.49979731  1
  Sn  Sn37  1  0.83423657  0.83369619  0.83323094  1
  Sn  Sn38  1  0.83434479  0.83318083  0.16689733  1
  Sn  Sn39  1  0.83386593  0.16665210  0.83361585  1
  Pb  Pb40  1  0.50287899  0.83576292  0.50007162  1
  Pb  Pb41  1  0.49935984  0.83320229  0.16661437  1
  Pb  Pb42  1  0.83542758  0.50070841  0.83120583  1
  Pb  Pb43  1  0.16912092  0.16974476  0.50006024  1
  Pb  Pb44  1  0.83103006  0.16382106  0.16441197  1
  Pb  Pb45  1  0.49667896  0.50035202  0.83652547  1
  Pb  Pb46  1  0.83166701  0.16684174  0.50176899  1
  Pb  Pb47  1  0.83377403  0.50196746  0.16879061  1
  Pb  Pb48  1  0.16492977  0.83176151  0.49995724  1
  Pb  Pb49  1  0.49912877  0.83291625  0.83319566  1
  Pb  Pb50  1  0.16430614  0.16625899  0.83343746  1
  Pb  Pb51  1  0.16854145  0.16600383  0.16673790  1
  Pb  Pb52  1  0.49991866  0.49850129  0.49794702  1
  Pb  Pb53  1  0.50244763  0.16677563  0.83384737  1
  I  I54  1  0.16403926  -0.00377288  0.16104484  1
  I  I55  1  0.16637863  -0.00015526  0.50010554  1
  I  I56  1  0.16494080  -0.00369344  0.83886060  1
  I  I57  1  0.16940813  0.33666234  0.16575243  1
  I  I58  1  0.15918070  0.33837086  0.49933778  1
  I  I59  1  0.16586339  0.33656396  0.83380440  1
  I  I60  1  0.16897182  0.66609453  0.16572855  1
  I  I61  1  0.16581839  0.66334074  0.49953001  1
  I  I62  1  0.16011551  0.66706544  0.83537684  1
  I  I63  1  0.50137632  0.00247803  0.17035345  1
  I  I64  1  0.50110929  0.00358771  0.49240360  1
  I  I65  1  0.49644983  0.00006874  0.83550002  1
  I  I66  1  0.49436295  0.33405257  0.17033974  1
  I  I67  1  0.50229529  0.33082713  0.49736095  1
  I  I68  1  0.50121403  0.33354633  0.83154308  1
  I  I69  1  0.49783550  0.66400255  0.16688070  1
  I  I70  1  0.49942071  0.66637350  0.49874983  1
  I  I71  1  0.50687185  0.66642470  0.83401578  1
  I  I72  1  0.83802005  -0.00436450  0.17150618  1
  I  I73  1  0.83130033  -0.00299082  0.49896584  1
  I  I74  1  0.83757006  -0.00217897  0.83127573  1
  I  I75  1  0.83505572  0.33340199  0.16652379  1
  I  I76  1  0.83621977  0.33607889  0.50167099  1
  I  I77  1  0.83353156  0.33166183  0.83062711  1
  I  I78  1  0.83222082  0.67013680  0.16157264  1
  I  I79  1  0.83673504  0.66713277  0.50178131  1
  I  I80  1  0.83576445  0.67001201  0.83529423  1
  I  I81  1  0.16928728  0.17119720  0.00008093  1
  I  I82  1  0.16392519  0.16579682  0.33332458  1
  I  I83  1  0.16978227  0.16661074  0.66675989  1
  I  I84  1  0.17138117  0.50411241  0.00058014  1
  I  I85  1  0.16795064  0.50455098  0.33250651  1
  I  I86  1  0.16083586  0.50352635  0.66668514  1
  I  I87  1  0.15878409  0.82488200  0.00026498  1
  I  I88  1  0.16342247  0.82880840  0.33044027  1
  I  I89  1  0.16198931  0.82929880  0.66949420  1
  I  I90  1  0.50001603  0.17000111  0.00302599  1
  I  I91  1  0.50144952  0.17091993  0.33248663  1
  I  I92  1  0.50148183  0.16686915  0.66439005  1
  I  I93  1  0.49697215  0.49373257  0.00453937  1
  I  I94  1  0.49447309  0.49871435  0.33021578  1
  I  I95  1  0.49953485  0.49743150  0.66651102  1
  I  I96  1  0.50536885  0.83570416  0.00022782  1
  I  I97  1  0.50031711  0.83222099  0.33316442  1
  I  I98  1  0.49951701  0.83572874  0.66651560  1
  I  I99  1  0.83193755  0.16215412  -0.00323388  1
  I  I100  1  0.83312031  0.16537767  0.33322361  1
  I  I101  1  0.83134307  0.16059642  0.66932758  1
  I  I102  1  0.83266885  0.49985042  0.00007471  1
  I  I103  1  0.83790968  0.50490541  0.33656806  1
  I  I104  1  0.83766271  0.50425841  0.66335008  1
  I  I105  1  0.83637071  0.83802402  -0.00024248  1
  I  I106  1  0.83629073  0.82808306  0.33320161  1
  I  I107  1  0.83723356  0.83469403  0.66724464  1
  I  I108  1  -0.00026698  0.16954064  0.16558561  1
  I  I109  1  -0.00027119  0.16595763  0.50140620  1
  I  I110  1  -0.00343833  0.16387419  0.83192071  1
  I  I111  1  0.00328922  0.50310674  0.16468773  1
  I  I112  1  0.00043044  0.50388110  0.49839438  1
  I  I113  1  0.00354667  0.50140043  0.83870802  1
  I  I114  1  0.00040863  0.82690076  0.16484430  1
  I  I115  1  -0.00348201  0.83232482  0.50032093  1
  I  I116  1  -0.00046992  0.83324901  0.83467570  1
  I  I117  1  0.33660855  0.16667692  0.16959582  1
  I  I118  1  0.33698555  0.16756806  0.49615041  1
  I  I119  1  0.33333335  0.16622344  0.83278895  1
  I  I120  1  0.33180555  0.50210552  0.16849417  1
  I  I121  1  0.33028421  0.49848677  0.50152921  1
  I  I122  1  0.32838662  0.50555858  0.82705544  1
  I  I123  1  0.32972574  0.83190279  0.16138099  1
  I  I124  1  0.33306196  0.83267901  0.49977351  1
  I  I125  1  0.32900289  0.82949378  0.83969660  1
  I  I126  1  0.66326646  0.17212998  0.17045508  1
  I  I127  1  0.66405519  0.16837227  0.49566468  1
  I  I128  1  0.67026480  0.15910315  0.83318495  1
  I  I129  1  0.66457313  0.49757291  0.16979049  1
  I  I130  1  0.66927128  0.50293004  0.49906517  1
  I  I131  1  0.66690723  0.49964235  0.83251776  1
  I  I132  1  0.66961437  0.83365484  0.16599423  1
  I  I133  1  0.67161350  0.82636211  0.49981457  1
  I  I134  1  0.67034323  0.83831768  0.83457042  1
