# generated using pymatgen
data_Cs27Sn14Pb13I81
_symmetry_space_group_name_H-M   'P 1'
_cell_length_a   18.97278541
_cell_length_b   18.97318998
_cell_length_c   18.98171191
_cell_angle_alpha   89.99889922
_cell_angle_beta   89.99815434
_cell_angle_gamma   90.00018616
_symmetry_Int_Tables_number   1
_chemical_formula_structural   Cs27Sn14Pb13I81
_chemical_formula_sum   'Cs27 Sn14 Pb13 I81'
_cell_volume   6832.92773592
_cell_formula_units_Z   1
loop_
 _symmetry_equiv_pos_site_id
 _symmetry_equiv_pos_as_xyz
  1  'x, y, z'
loop_
 _atom_site_type_symbol
 _atom_site_label
 _atom_site_symmetry_multiplicity
 _atom_site_fract_x
 _atom_site_fract_y
 _atom_site_fract_z
 _atom_site_occupancy
  Cs  Cs0  1  -0.00068369  0.00082786  -0.00004792  1
  Cs  Cs1  1  0.00147495  -0.00154305  0.33229783  1
  Cs  Cs2  1  -0.00506105  -0.00270335  0.66863492  1
  Cs  Cs3  1  -0.00235222  0.32814143  0.00210914  1
  Cs  Cs4  1  0.00413185  0.33759261  0.33479809  1
  Cs  Cs5  1  0.00139928  0.33607632  0.66486188  1
  Cs  Cs6  1  0.00068052  0.66801048  0.00168702  1
  Cs  Cs7  1  -0.00215034  0.66630268  0.33369485  1
  Cs  Cs8  1  0.00304987  0.66684977  0.66492866  1
  Cs  Cs9  1  0.33203433  -0.00028595  0.00055329  1
  Cs  Cs10  1  0.33419906  0.00236017  0.33620071  1
  Cs  Cs11  1  0.33609972  -0.00091130  0.66355206  1
  Cs  Cs12  1  0.33464483  0.33330736  0.00111010  1
  Cs  Cs13  1  0.33217889  0.33066949  0.33401520  1
  Cs  Cs14  1  0.33138315  0.33596110  0.66368295  1
  Cs  Cs15  1  0.33457665  0.66693529  -0.00632771  1
  Cs  Cs16  1  0.33564375  0.66796074  0.33036555  1
  Cs  Cs17  1  0.33236602  0.66457569  0.67948850  1
  Cs  Cs18  1  0.66855119  0.00296936  0.00132063  1
  Cs  Cs19  1  0.66503163  -0.00181050  0.33485981  1
  Cs  Cs20  1  0.66991706  0.00178066  0.66223806  1
  Cs  Cs21  1  0.66630823  0.33188858  -0.00019702  1
  Cs  Cs22  1  0.66591468  0.33769138  0.33193176  1
  Cs  Cs23  1  0.66631176  0.33078117  0.66928853  1
  Cs  Cs24  1  0.66451992  0.66553469  0.00122593  1
  Cs  Cs25  1  0.66744311  0.66516473  0.33198153  1
  Cs  Cs26  1  0.66450055  0.66593366  0.66809117  1
  Sn  Sn27  1  0.49979006  0.50045213  0.49942695  1
  Sn  Sn28  1  0.83368033  0.50104116  0.83350072  1
  Sn  Sn29  1  0.16794791  0.16651451  0.83310221  1
  Sn  Sn30  1  0.50074864  0.16721749  0.16617969  1
  Sn  Sn31  1  0.16612206  0.83248822  0.16752110  1
  Sn  Sn32  1  0.83390408  0.83412833  0.16676117  1
  Sn  Sn33  1  0.16758852  0.50092825  0.16643066  1
  Sn  Sn34  1  0.16641324  0.83309667  0.49930513  1
  Sn  Sn35  1  0.83395879  0.83380244  0.49950281  1
  Sn  Sn36  1  0.49845256  0.16647164  0.83387451  1
  Sn  Sn37  1  0.83266060  0.16603246  0.16844408  1
  Sn  Sn38  1  0.49884028  0.49924075  0.16741437  1
  Sn  Sn39  1  0.83360050  0.16663269  0.49807387  1
  Sn  Sn40  1  0.83318096  0.83188677  0.83360875  1
  Pb  Pb41  1  0.50300548  0.83662610  0.83341404  1
  Pb  Pb42  1  0.49985310  0.83059189  0.50006629  1
  Pb  Pb43  1  0.16916902  0.50292757  0.49779588  1
  Pb  Pb44  1  0.49976202  0.83361038  0.16661896  1
  Pb  Pb45  1  0.16669747  0.16613694  0.16585894  1
  Pb  Pb46  1  0.83189794  0.50048625  0.50207837  1
  Pb  Pb47  1  0.50199335  0.16840029  0.49935877  1
  Pb  Pb48  1  0.83320523  0.50002061  0.16529099  1
  Pb  Pb49  1  0.16421977  0.49771932  0.83613564  1
  Pb  Pb50  1  0.50161022  0.49787679  0.83402709  1
  Pb  Pb51  1  0.16472040  0.83516535  0.83362553  1
  Pb  Pb52  1  0.16394978  0.16433799  0.50247695  1
  Pb  Pb53  1  0.83312640  0.16627040  0.83342072  1
  I  I54  1  0.16444302  -0.00280856  0.16812591  1
  I  I55  1  0.16566849  -0.00350912  0.49228695  1
  I  I56  1  0.16700505  0.00280961  0.83697529  1
  I  I57  1  0.16678942  0.33520001  0.16319850  1
  I  I58  1  0.16499247  0.33345484  0.50005224  1
  I  I59  1  0.16635183  0.33006776  0.83570095  1
  I  I60  1  0.16497500  0.66761580  0.16979020  1
  I  I61  1  0.15758470  0.67059549  0.49882938  1
  I  I62  1  0.16679631  0.66675544  0.83179922  1
  I  I63  1  0.50215593  0.00309023  0.16181700  1
  I  I64  1  0.49943117  -0.00003689  0.50034085  1
  I  I65  1  0.49850934  0.00453206  0.84032157  1
  I  I66  1  0.50120302  0.33292863  0.16608871  1
  I  I67  1  0.50319260  0.33607771  0.49845575  1
  I  I68  1  0.50165467  0.33011450  0.83555840  1
  I  I69  1  0.50072365  0.66391465  0.17100454  1
  I  I70  1  0.50396711  0.66304064  0.49204381  1
  I  I71  1  0.50027327  0.66653833  0.83330193  1
  I  I72  1  0.83352301  -0.00035077  0.16392755  1
  I  I73  1  0.83508756  -0.00090407  0.50289859  1
  I  I74  1  0.83365557  -0.00244964  0.83335584  1
  I  I75  1  0.83256451  0.33064136  0.16714670  1
  I  I76  1  0.83021752  0.33091226  0.49836821  1
  I  I77  1  0.83254586  0.33460265  0.83425798  1
  I  I78  1  0.83405590  0.66953445  0.16856287  1
  I  I79  1  0.83562743  0.67012518  0.49729956  1
  I  I80  1  0.83332463  0.66786454  0.83404730  1
  I  I81  1  0.16398220  0.16487836  -0.00191826  1
  I  I82  1  0.16851327  0.16825776  0.33345563  1
  I  I83  1  0.17042429  0.16552195  0.67014917  1
  I  I84  1  0.17311637  0.50717106  0.00385682  1
  I  I85  1  0.16566595  0.49930886  0.32967998  1
  I  I86  1  0.16770576  0.50034823  0.66678710  1
  I  I87  1  0.16193664  0.83153499  0.00301023  1
  I  I88  1  0.15733169  0.83023503  0.33226003  1
  I  I89  1  0.16122511  0.83644262  0.66436485  1
  I  I90  1  0.50384531  0.17244491  0.00136321  1
  I  I91  1  0.50309611  0.16880785  0.33016770  1
  I  I92  1  0.49968809  0.16810994  0.66881602  1
  I  I93  1  0.49819061  0.49752420  0.00310792  1
  I  I94  1  0.49860300  0.49395464  0.33146413  1
  I  I95  1  0.50429216  0.49931372  0.66504990  1
  I  I96  1  0.50014297  0.82854267  0.00013238  1
  I  I97  1  0.50417192  0.83690990  0.33321513  1
  I  I98  1  0.50010913  0.83251593  0.66671323  1
  I  I99  1  0.83262728  0.16405367  0.00246897  1
  I  I100  1  0.82754858  0.15880370  0.33203318  1
  I  I101  1  0.83318230  0.16329862  0.66488448  1
  I  I102  1  0.83152916  0.50243378  -0.00239308  1
  I  I103  1  0.83390104  0.50110712  0.33318800  1
  I  I104  1  0.83030450  0.50153440  0.66983262  1
  I  I105  1  0.83715828  0.83484131  0.00112875  1
  I  I106  1  0.83729158  0.83874429  0.33289002  1
  I  I107  1  0.83648213  0.83505414  0.66603136  1
  I  I108  1  -0.00278064  0.16584751  0.16643875  1
  I  I109  1  -0.00422300  0.16612619  0.49588529  1
  I  I110  1  0.00123298  0.16616926  0.83464463  1
  I  I111  1  0.00195343  0.50056359  0.16362913  1
  I  I112  1  0.00012995  0.49756789  0.50008681  1
  I  I113  1  -0.00344983  0.50069346  0.83397863  1
  I  I114  1  -0.00113560  0.83356791  0.16664877  1
  I  I115  1  -0.00162419  0.83704476  0.49937273  1
  I  I116  1  -0.00361152  0.83404175  0.83378426  1
  I  I117  1  0.33588229  0.16792330  0.16291049  1
  I  I118  1  0.33328068  0.16539557  0.49889012  1
  I  I119  1  0.33415883  0.16727477  0.84091869  1
  I  I120  1  0.33406132  0.49910842  0.17024864  1
  I  I121  1  0.33684114  0.49891541  0.49877125  1
  I  I122  1  0.33324208  0.50023741  0.83152220  1
  I  I123  1  0.33017297  0.83328596  0.17170286  1
  I  I124  1  0.33026861  0.83322447  0.49329015  1
  I  I125  1  0.33316455  0.83278437  0.83280328  1
  I  I126  1  0.66711228  0.16698646  0.16293758  1
  I  I127  1  0.67006479  0.15985367  0.50222096  1
  I  I128  1  0.66487966  0.16727999  0.83518505  1
  I  I129  1  0.66429647  0.49866591  0.16814762  1
  I  I130  1  0.66427003  0.50119496  0.49277469  1
  I  I131  1  0.66946259  0.50127198  0.83570372  1
  I  I132  1  0.66999271  0.83429505  0.16712123  1
  I  I133  1  0.67025210  0.83687491  0.49953337  1
  I  I134  1  0.67150846  0.83158986  0.83389415  1
