# generated using pymatgen
data_Cs27Sn14Pb13I81
_symmetry_space_group_name_H-M   'P 1'
_cell_length_a   18.98331613
_cell_length_b   18.97404879
_cell_length_c   18.97362177
_cell_angle_alpha   90.00012405
_cell_angle_beta   90.00024458
_cell_angle_gamma   89.99965633
_symmetry_Int_Tables_number   1
_chemical_formula_structural   Cs27Sn14Pb13I81
_chemical_formula_sum   'Cs27 Sn14 Pb13 I81'
_cell_volume   6834.11577596
_cell_formula_units_Z   1
loop_
 _symmetry_equiv_pos_site_id
 _symmetry_equiv_pos_as_xyz
  1  'x, y, z'
loop_
 _atom_site_type_symbol
 _atom_site_label
 _atom_site_symmetry_multiplicity
 _atom_site_fract_x
 _atom_site_fract_y
 _atom_site_fract_z
 _atom_site_occupancy
  Cs  Cs0  1  0.00108182  -0.00205333  -0.00117401  1
  Cs  Cs1  1  0.00057241  -0.00148015  0.33487061  1
  Cs  Cs2  1  -0.00303089  0.00018103  0.66437175  1
  Cs  Cs3  1  0.00156239  0.33452736  0.00182943  1
  Cs  Cs4  1  0.00141617  0.33269828  0.33501344  1
  Cs  Cs5  1  -0.00861686  0.33287353  0.65986617  1
  Cs  Cs6  1  0.00099306  0.66684903  -0.00118145  1
  Cs  Cs7  1  0.00126130  0.66919797  0.33307974  1
  Cs  Cs8  1  -0.00354544  0.66705462  0.66716280  1
  Cs  Cs9  1  0.33266600  0.00291998  -0.00218969  1
  Cs  Cs10  1  0.33267213  0.00137663  0.33318165  1
  Cs  Cs11  1  0.33427906  -0.00030742  0.67084893  1
  Cs  Cs12  1  0.33384795  0.33283362  0.00087753  1
  Cs  Cs13  1  0.33237172  0.33303921  0.33231505  1
  Cs  Cs14  1  0.33331799  0.33263912  0.66912507  1
  Cs  Cs15  1  0.33052419  0.66245027  -0.00171685  1
  Cs  Cs16  1  0.33390341  0.66646579  0.33580538  1
  Cs  Cs17  1  0.33643642  0.66799270  0.66667087  1
  Cs  Cs18  1  0.66864560  -0.00466146  0.00079455  1
  Cs  Cs19  1  0.66509864  -0.00322994  0.33099868  1
  Cs  Cs20  1  0.66681069  0.00121360  0.66896040  1
  Cs  Cs21  1  0.66380377  0.33277375  0.00045260  1
  Cs  Cs22  1  0.66556642  0.33365814  0.33137679  1
  Cs  Cs23  1  0.67350089  0.33402972  0.66783936  1
  Cs  Cs24  1  0.66966418  0.67112748  0.00052302  1
  Cs  Cs25  1  0.66338836  0.67142151  0.33503185  1
  Cs  Cs26  1  0.66609138  0.66521462  0.66280736  1
  Sn  Sn27  1  0.16704646  0.49833350  0.83365219  1
  Sn  Sn28  1  0.16627207  0.83345081  0.49962871  1
  Sn  Sn29  1  0.16638374  0.16664184  0.16622345  1
  Sn  Sn30  1  0.49932014  0.49899934  0.83445264  1
  Sn  Sn31  1  0.83326335  0.49945071  0.16669995  1
  Sn  Sn32  1  0.16671267  0.49993443  0.16645205  1
  Sn  Sn33  1  0.16719051  0.83335137  0.16731383  1
  Sn  Sn34  1  0.50006676  0.49944098  0.16584368  1
  Sn  Sn35  1  0.49938333  0.16782272  0.83370427  1
  Sn  Sn36  1  0.49972541  0.16718117  0.50011926  1
  Sn  Sn37  1  0.50011778  0.16725233  0.16634223  1
  Sn  Sn38  1  0.16667005  0.16823088  0.83378136  1
  Sn  Sn39  1  0.83390630  0.83343649  0.49970090  1
  Sn  Sn40  1  0.83357948  0.16724860  0.16653070  1
  Pb  Pb41  1  0.83359556  0.16678206  0.83605171  1
  Pb  Pb42  1  0.83584833  0.83326741  0.16773551  1
  Pb  Pb43  1  0.83344989  0.83326269  0.83041629  1
  Pb  Pb44  1  0.83071467  0.16497721  0.49694718  1
  Pb  Pb45  1  0.49941352  0.83585428  0.49997221  1
  Pb  Pb46  1  0.16670521  0.83322389  0.83326790  1
  Pb  Pb47  1  0.16819259  0.16511472  0.50055515  1
  Pb  Pb48  1  0.83330134  0.49981054  0.83584801  1
  Pb  Pb49  1  0.49699799  0.83293891  0.16631158  1
  Pb  Pb50  1  0.16678829  0.50190776  0.50070391  1
  Pb  Pb51  1  0.49992357  0.83279290  0.83371615  1
  Pb  Pb52  1  0.83327913  0.50208692  0.49662801  1
  Pb  Pb53  1  0.49975007  0.49731135  0.50022754  1
  I  I54  1  0.16665115  0.00145129  0.16677863  1
  I  I55  1  0.16414396  -0.00282447  0.49435342  1
  I  I56  1  0.17182221  0.00328298  0.83745836  1
  I  I57  1  0.16695391  0.33311856  0.16250030  1
  I  I58  1  0.16835985  0.33314335  0.49673686  1
  I  I59  1  0.17245765  0.33305515  0.84335534  1
  I  I60  1  0.16611527  0.66544060  0.16649706  1
  I  I61  1  0.16369469  0.67005807  0.49440775  1
  I  I62  1  0.17121522  0.66330924  0.83761216  1
  I  I63  1  0.50083206  0.00366366  0.16657266  1
  I  I64  1  0.49938120  0.00385038  0.49834432  1
  I  I65  1  0.49518661  0.00399411  0.83378144  1
  I  I66  1  0.49658673  0.33253888  0.16686804  1
  I  I67  1  0.49879396  0.32943493  0.49745356  1
  I  I68  1  0.49468302  0.33252819  0.83521884  1
  I  I69  1  0.50107001  0.66285626  0.16244537  1
  I  I70  1  0.50094133  0.66663285  0.49986492  1
  I  I71  1  0.49472301  0.66248923  0.83855316  1
  I  I72  1  0.83212367  0.00287831  0.16801726  1
  I  I73  1  0.83842125  -0.00268346  0.49674607  1
  I  I74  1  0.83307356  0.00040269  0.83712140  1
  I  I75  1  0.83700881  0.33310293  0.16700312  1
  I  I76  1  0.83214367  0.33308905  0.50156534  1
  I  I77  1  0.83409688  0.33324490  0.82822966  1
  I  I78  1  0.83288770  0.66372060  0.16768348  1
  I  I79  1  0.83751361  0.67002727  0.49792477  1
  I  I80  1  0.83381701  0.66626814  0.83699783  1
  I  I81  1  0.17093111  0.16467339  0.00162124  1
  I  I82  1  0.16784263  0.16873831  0.32982366  1
  I  I83  1  0.17291285  0.16848724  0.66997973  1
  I  I84  1  0.16741274  0.50195301  0.00173282  1
  I  I85  1  0.16732407  0.49736796  0.32954564  1
  I  I86  1  0.17319785  0.49736817  0.67052184  1
  I  I87  1  0.16724506  0.83365565  0.00303434  1
  I  I88  1  0.16317768  0.83382103  0.33189905  1
  I  I89  1  0.16259488  0.83418401  0.66399924  1
  I  I90  1  0.49839445  0.17080161  0.00081090  1
  I  I91  1  0.49977495  0.16907694  0.33118241  1
  I  I92  1  0.49362649  0.16817088  0.66811216  1
  I  I93  1  0.49822778  0.49184956  0.00121455  1
  I  I94  1  0.49922576  0.49631438  0.32967376  1
  I  I95  1  0.49376010  0.49739771  0.67031565  1
  I  I96  1  0.49965643  0.83886696  0.00029839  1
  I  I97  1  0.50099950  0.83371735  0.33307582  1
  I  I98  1  0.49815132  0.83361914  0.66661415  1
  I  I99  1  0.82956252  0.16970583  0.00435943  1
  I  I100  1  0.83491075  0.17017165  0.32878952  1
  I  I101  1  0.83319328  0.16358159  0.66650889  1
  I  I102  1  0.83405605  0.49658824  0.00420562  1
  I  I103  1  0.83397199  0.49534869  0.32825347  1
  I  I104  1  0.83328472  0.50295554  0.66667372  1
  I  I105  1  0.83366793  0.83349257  0.00053088  1
  I  I106  1  0.83612257  0.83366317  0.33544936  1
  I  I107  1  0.84151855  0.83439535  0.66234588  1
  I  I108  1  0.00137693  0.16870725  0.16267336  1
  I  I109  1  -0.00012053  0.16645474  0.50007971  1
  I  I110  1  0.00359976  0.16935289  0.83859154  1
  I  I111  1  0.00126282  0.49795800  0.16354942  1
  I  I112  1  0.00007151  0.49746416  0.50024586  1
  I  I113  1  0.00347828  0.49755457  0.83831377  1
  I  I114  1  0.00382220  0.83369613  0.16843133  1
  I  I115  1  0.00107964  0.83437034  0.49417182  1
  I  I116  1  0.00059592  0.83342035  0.83613897  1
  I  I117  1  0.33329208  0.16779171  0.16689918  1
  I  I118  1  0.33603518  0.16395027  0.49444144  1
  I  I119  1  0.33341070  0.16893859  0.83805001  1
  I  I120  1  0.33304028  0.49800857  0.16348373  1
  I  I121  1  0.33332309  0.50412152  0.49430532  1
  I  I122  1  0.33305561  0.49649792  0.84208277  1
  I  I123  1  0.32892162  0.83415824  0.17344475  1
  I  I124  1  0.33035641  0.83376912  0.49553123  1
  I  I125  1  0.33302383  0.83403791  0.82991067  1
  I  I126  1  0.66555724  0.17310273  0.16772829  1
  I  I127  1  0.66283896  0.16421970  0.50082487  1
  I  I128  1  0.66306622  0.17055762  0.83297371  1
  I  I129  1  0.66566814  0.49215313  0.16381413  1
  I  I130  1  0.66648980  0.50370657  0.50026769  1
  I  I131  1  0.66313041  0.49508695  0.83694167  1
  I  I132  1  0.66674096  0.83357791  0.16949534  1
  I  I133  1  0.66901220  0.83433791  0.49890768  1
  I  I134  1  0.66654779  0.83405408  0.83167110  1
