# generated using pymatgen
data_Cs27Sn13Pb14I81
_symmetry_space_group_name_H-M   'P 1'
_cell_length_a   18.97656075
_cell_length_b   18.97424193
_cell_length_c   18.98092725
_cell_angle_alpha   90.00013312
_cell_angle_beta   89.99981724
_cell_angle_gamma   90.00157721
_symmetry_Int_Tables_number   1
_chemical_formula_structural   Cs27Sn13Pb14I81
_chemical_formula_sum   'Cs27 Sn13 Pb14 I81'
_cell_volume   6834.38379068
_cell_formula_units_Z   1
loop_
 _symmetry_equiv_pos_site_id
 _symmetry_equiv_pos_as_xyz
  1  'x, y, z'
loop_
 _atom_site_type_symbol
 _atom_site_label
 _atom_site_symmetry_multiplicity
 _atom_site_fract_x
 _atom_site_fract_y
 _atom_site_fract_z
 _atom_site_occupancy
  Cs  Cs0  1  -0.00122244  -0.00134224  -0.00146483  1
  Cs  Cs1  1  -0.00170697  -0.00082623  0.33460280  1
  Cs  Cs2  1  0.00077161  0.00235767  0.66663021  1
  Cs  Cs3  1  0.00071265  0.33376488  0.00176202  1
  Cs  Cs4  1  -0.00164880  0.33316566  0.33194708  1
  Cs  Cs5  1  -0.00765713  0.32554522  0.66671279  1
  Cs  Cs6  1  0.00070407  0.66685614  0.00345388  1
  Cs  Cs7  1  -0.00051765  0.66652461  0.33001289  1
  Cs  Cs8  1  0.00402423  0.66872805  0.66677057  1
  Cs  Cs9  1  0.33609728  0.00555215  0.00013762  1
  Cs  Cs10  1  0.33505028  0.00026112  0.33406218  1
  Cs  Cs11  1  0.33169324  -0.00178855  0.66641884  1
  Cs  Cs12  1  0.33332175  0.32439930  0.00374214  1
  Cs  Cs13  1  0.33386053  0.33410684  0.33064277  1
  Cs  Cs14  1  0.33215510  0.33627826  0.66622101  1
  Cs  Cs15  1  0.33231622  0.66681603  -0.00193489  1
  Cs  Cs16  1  0.33379252  0.66648127  0.33534729  1
  Cs  Cs17  1  0.33255127  0.66737925  0.66557781  1
  Cs  Cs18  1  0.66440199  0.00230116  0.00207304  1
  Cs  Cs19  1  0.66536852  -0.00101938  0.33122512  1
  Cs  Cs20  1  0.66688017  -0.00125137  0.66774728  1
  Cs  Cs21  1  0.66658285  0.33006332  -0.01013045  1
  Cs  Cs22  1  0.66542011  0.33358475  0.33563205  1
  Cs  Cs23  1  0.67606766  0.33490265  0.67191860  1
  Cs  Cs24  1  0.66766969  0.66457775  -0.00166356  1
  Cs  Cs25  1  0.66641969  0.66725983  0.33320925  1
  Cs  Cs26  1  0.66500815  0.66513232  0.66803618  1
  Sn  Sn27  1  0.83330153  0.16683297  0.16706768  1
  Sn  Sn28  1  0.49944897  0.49999304  0.49948098  1
  Sn  Sn29  1  0.16783059  0.83332786  0.16676904  1
  Sn  Sn30  1  0.16699752  0.50058727  0.83242128  1
  Sn  Sn31  1  0.49987305  0.16710634  0.50044072  1
  Sn  Sn32  1  0.50017141  0.50085348  0.16690583  1
  Sn  Sn33  1  0.49908072  0.83214393  0.16721681  1
  Sn  Sn34  1  0.50014889  0.83314502  0.49930895  1
  Sn  Sn35  1  0.83332846  0.83293041  0.50080721  1
  Sn  Sn36  1  0.16652162  0.83268837  0.49979033  1
  Sn  Sn37  1  0.83390498  0.83288737  0.83260448  1
  Sn  Sn38  1  0.16599048  0.83276305  0.83337843  1
  Sn  Sn39  1  0.16692780  0.50063819  0.50076509  1
  Pb  Pb40  1  0.50154402  0.16685778  0.16844985  1
  Pb  Pb41  1  0.49985082  0.16682261  0.82960658  1
  Pb  Pb42  1  0.83089303  0.16394867  0.49843795  1
  Pb  Pb43  1  0.83358165  0.16361025  0.83561427  1
  Pb  Pb44  1  0.83373681  0.50242081  0.49988033  1
  Pb  Pb45  1  0.49738228  0.50010152  0.83309217  1
  Pb  Pb46  1  0.49948796  0.83335185  0.83344827  1
  Pb  Pb47  1  0.16857420  0.16713609  0.49989130  1
  Pb  Pb48  1  0.82992364  0.49727728  0.16665324  1
  Pb  Pb49  1  0.16669793  0.16674605  0.83306166  1
  Pb  Pb50  1  0.83287320  0.83402742  0.16654711  1
  Pb  Pb51  1  0.83672529  0.50282495  0.83322677  1
  Pb  Pb52  1  0.16442057  0.16368423  0.16708773  1
  Pb  Pb53  1  0.16864274  0.50190163  0.16696642  1
  I  I54  1  0.17332815  -0.00523878  0.16711605  1
  I  I55  1  0.16750919  -0.00391577  0.50077753  1
  I  I56  1  0.16301907  -0.00416596  0.83191409  1
  I  I57  1  0.16759241  0.33363561  0.16599619  1
  I  I58  1  0.17227394  0.33715834  0.50437066  1
  I  I59  1  0.16926174  0.33694455  0.82798882  1
  I  I60  1  0.16654503  0.67055548  0.16700991  1
  I  I61  1  0.17143366  0.66834579  0.50104146  1
  I  I62  1  0.16336812  0.66843523  0.83168308  1
  I  I63  1  0.49800176  -0.00316486  0.17081041  1
  I  I64  1  0.50021556  -0.00216906  0.49584324  1
  I  I65  1  0.49829484  -0.00046165  0.83434596  1
  I  I66  1  0.50093976  0.33614955  0.17210609  1
  I  I67  1  0.49359770  0.33474391  0.49439534  1
  I  I68  1  0.49754988  0.33363367  0.83568729  1
  I  I69  1  0.49714553  0.66807117  0.17524386  1
  I  I70  1  0.49895332  0.66760263  0.49576141  1
  I  I71  1  0.50305746  0.66693714  0.83064531  1
  I  I72  1  0.83103809  0.00131432  0.16727859  1
  I  I73  1  0.83446480  -0.00456726  0.50260898  1
  I  I74  1  0.84020470  -0.00438525  0.82876490  1
  I  I75  1  0.83272583  0.32976051  0.16847104  1
  I  I76  1  0.83319289  0.33324738  0.49857863  1
  I  I77  1  0.83379249  0.33328466  0.83444111  1
  I  I78  1  0.83446183  0.66687787  0.16652494  1
  I  I79  1  0.82903039  0.67105129  0.50164291  1
  I  I80  1  0.83383766  0.67092344  0.83068478  1
  I  I81  1  0.16746153  0.16653994  0.00015478  1
  I  I82  1  0.16592285  0.16575758  0.33346957  1
  I  I83  1  0.16777665  0.16135862  0.66638313  1
  I  I84  1  0.16681946  0.50628246  -0.00225688  1
  I  I85  1  0.16937863  0.50489512  0.33652723  1
  I  I86  1  0.17414726  0.51041683  0.66528271  1
  I  I87  1  0.16506752  0.82928276  -0.00027994  1
  I  I88  1  0.16682699  0.83040613  0.33442613  1
  I  I89  1  0.16669607  0.83009373  0.66567206  1
  I  I90  1  0.50153275  0.16602554  0.00031829  1
  I  I91  1  0.50091555  0.16449497  0.33626747  1
  I  I92  1  0.49948245  0.16328767  0.66149447  1
  I  I93  1  0.49983560  0.50652678  0.00297674  1
  I  I94  1  0.49438539  0.50141776  0.33490976  1
  I  I95  1  0.49753051  0.50252391  0.66284652  1
  I  I96  1  0.49792769  0.82954168  0.00332320  1
  I  I97  1  0.49785442  0.83345205  0.33455700  1
  I  I98  1  0.49845436  0.83290293  0.66303611  1
  I  I99  1  0.83084153  0.16311589  0.00303774  1
  I  I100  1  0.83277213  0.16209730  0.33105916  1
  I  I101  1  0.83174916  0.16724763  0.66662917  1
  I  I102  1  0.83311028  0.50300381  -0.00005356  1
  I  I103  1  0.83809856  0.50298679  0.33336172  1
  I  I104  1  0.82727237  0.49767152  0.66647255  1
  I  I105  1  0.83733932  0.83538271  -0.00226469  1
  I  I106  1  0.83504196  0.83530556  0.33597089  1
  I  I107  1  0.83565272  0.83376397  0.66567109  1
  I  I108  1  -0.00311174  0.16360187  0.16725775  1
  I  I109  1  -0.00029654  0.16608072  0.49944397  1
  I  I110  1  -0.00000107  0.16740082  0.83275124  1
  I  I111  1  0.00029994  0.50059359  0.16713758  1
  I  I112  1  0.00367649  0.50586917  0.50342927  1
  I  I113  1  0.00475395  0.50299660  0.82731986  1
  I  I114  1  0.00255710  0.83554133  0.16910428  1
  I  I115  1  0.00120988  0.82936171  0.49962698  1
  I  I116  1  0.00120371  0.83031836  0.83070648  1
  I  I117  1  0.33361969  0.16726404  0.16675888  1
  I  I118  1  0.33667450  0.16062373  0.49748031  1
  I  I119  1  0.33324576  0.16275659  0.83617405  1
  I  I120  1  0.33669002  0.50183825  0.16933867  1
  I  I121  1  0.33376750  0.50525451  0.50023439  1
  I  I122  1  0.32966261  0.50975582  0.83065764  1
  I  I123  1  0.33368871  0.83044600  0.17022102  1
  I  I124  1  0.33341137  0.83331606  0.49960614  1
  I  I125  1  0.32987015  0.82935634  0.83063723  1
  I  I126  1  0.66878920  0.16143259  0.16884000  1
  I  I127  1  0.66291080  0.16612869  0.49769213  1
  I  I128  1  0.66685882  0.16480100  0.83415378  1
  I  I129  1  0.66177478  0.50896142  0.17492475  1
  I  I130  1  0.66320716  0.50160851  0.49490942  1
  I  I131  1  0.66666083  0.50019040  0.83350056  1
  I  I132  1  0.66368032  0.83231245  0.17071669  1
  I  I133  1  0.66543734  0.83402536  0.49903751  1
  I  I134  1  0.66905240  0.83535954  0.83000427  1
