# generated using pymatgen
data_Cs27Sn14Pb13I81
_symmetry_space_group_name_H-M   'P 1'
_cell_length_a   18.97729181
_cell_length_b   18.98123374
_cell_length_c   18.96913353
_cell_angle_alpha   89.99844968
_cell_angle_beta   90.00216579
_cell_angle_gamma   89.99990279
_symmetry_Int_Tables_number   1
_chemical_formula_structural   Cs27Sn14Pb13I81
_chemical_formula_sum   'Cs27 Sn14 Pb13 I81'
_cell_volume   6832.91732994
_cell_formula_units_Z   1
loop_
 _symmetry_equiv_pos_site_id
 _symmetry_equiv_pos_as_xyz
  1  'x, y, z'
loop_
 _atom_site_type_symbol
 _atom_site_label
 _atom_site_symmetry_multiplicity
 _atom_site_fract_x
 _atom_site_fract_y
 _atom_site_fract_z
 _atom_site_occupancy
  Cs  Cs0  1  -0.00372034  0.00274621  -0.00231127  1
  Cs  Cs1  1  -0.00041393  0.00205980  0.33542228  1
  Cs  Cs2  1  0.00097754  -0.00520485  0.66868813  1
  Cs  Cs3  1  -0.00007038  0.33450480  0.00094526  1
  Cs  Cs4  1  -0.00206303  0.33124029  0.33353429  1
  Cs  Cs5  1  0.00361000  0.33429141  0.66683141  1
  Cs  Cs6  1  -0.00202403  0.66294804  0.00156999  1
  Cs  Cs7  1  0.00340211  0.66947443  0.33311205  1
  Cs  Cs8  1  -0.00303675  0.67056897  0.66559638  1
  Cs  Cs9  1  0.33516332  0.00128743  -0.00097598  1
  Cs  Cs10  1  0.33359650  -0.00853922  0.33353465  1
  Cs  Cs11  1  0.33209811  0.00310599  0.66861330  1
  Cs  Cs12  1  0.33379060  0.33393860  -0.00114135  1
  Cs  Cs13  1  0.33353513  0.33329865  0.33448651  1
  Cs  Cs14  1  0.33256485  0.33259756  0.66760933  1
  Cs  Cs15  1  0.33326951  0.66442673  0.00236687  1
  Cs  Cs16  1  0.33256161  0.67908993  0.33158626  1
  Cs  Cs17  1  0.33329899  0.66587911  0.66672540  1
  Cs  Cs18  1  0.66660658  -0.00031578  -0.00065506  1
  Cs  Cs19  1  0.66623235  0.00215882  0.33861817  1
  Cs  Cs20  1  0.66888320  -0.00205511  0.66524764  1
  Cs  Cs21  1  0.66595193  0.33416720  0.00032208  1
  Cs  Cs22  1  0.66958112  0.33390069  0.33775514  1
  Cs  Cs23  1  0.66438306  0.33569579  0.66259314  1
  Cs  Cs24  1  0.66714833  0.66602383  -0.00026452  1
  Cs  Cs25  1  0.66336034  0.66441756  0.33599782  1
  Cs  Cs26  1  0.67154329  0.66474268  0.66263332  1
  Sn  Sn27  1  0.83299970  0.83254232  0.16647293  1
  Sn  Sn28  1  0.83293581  0.16797906  0.83341750  1
  Sn  Sn29  1  0.50048118  0.16680348  0.83397924  1
  Sn  Sn30  1  0.16713388  0.16755106  0.49991158  1
  Sn  Sn31  1  0.83257955  0.49878266  0.83401716  1
  Sn  Sn32  1  0.50047545  0.49906543  0.16613162  1
  Sn  Sn33  1  0.16709393  0.49959985  0.49967093  1
  Sn  Sn34  1  0.16746860  0.83365592  0.83425523  1
  Sn  Sn35  1  0.50089430  0.50004705  0.83401998  1
  Sn  Sn36  1  0.49935318  0.83308523  0.83363711  1
  Sn  Sn37  1  0.16655622  0.16615642  0.83377279  1
  Sn  Sn38  1  0.83249507  0.50084792  0.16599987  1
  Sn  Sn39  1  0.49931937  0.16752642  0.16604526  1
  Sn  Sn40  1  0.16774702  0.16688488  0.16654502  1
  Pb  Pb41  1  0.83249920  0.16731897  0.16506320  1
  Pb  Pb42  1  0.16713659  0.49807721  0.16894144  1
  Pb  Pb43  1  0.49742830  0.49993955  0.49938981  1
  Pb  Pb44  1  0.16676860  0.83385177  0.50265828  1
  Pb  Pb45  1  0.83332695  0.83320486  0.49615285  1
  Pb  Pb46  1  0.50193509  0.83359390  0.16456476  1
  Pb  Pb47  1  0.49765579  0.16671793  0.49982055  1
  Pb  Pb48  1  0.50006990  0.83335329  0.50354932  1
  Pb  Pb49  1  0.83569412  0.49989898  0.49971398  1
  Pb  Pb50  1  0.83298263  0.83283012  0.83449104  1
  Pb  Pb51  1  0.83600950  0.16681065  0.50378687  1
  Pb  Pb52  1  0.16448440  0.83642772  0.16366763  1
  Pb  Pb53  1  0.16665455  0.49999802  0.83226140  1
  I  I54  1  0.17126499  0.00455775  0.17090361  1
  I  I55  1  0.16662384  0.00341289  0.49926706  1
  I  I56  1  0.16858980  0.00209369  0.83116510  1
  I  I57  1  0.16526684  0.32989386  0.15993821  1
  I  I58  1  0.16651666  0.33174695  0.50425388  1
  I  I59  1  0.16819812  0.33017190  0.83429561  1
  I  I60  1  0.16833139  0.66678032  0.16791633  1
  I  I61  1  0.16624082  0.66439838  0.50225497  1
  I  I62  1  0.16928167  0.66877669  0.83007809  1
  I  I63  1  0.49703157  0.00310185  0.16181534  1
  I  I64  1  0.49730499  0.00022507  0.49840395  1
  I  I65  1  0.49865571  0.00147432  0.83707111  1
  I  I66  1  0.50095914  0.33324568  0.15774335  1
  I  I67  1  0.49983969  0.33331822  0.50517345  1
  I  I68  1  0.49943410  0.33292655  0.83691403  1
  I  I69  1  0.50229437  0.66376097  0.16206802  1
  I  I70  1  0.49566311  0.66640728  0.49954921  1
  I  I71  1  0.49904567  0.66571389  0.83738538  1
  I  I72  1  0.83501636  -0.00118669  0.16313741  1
  I  I73  1  0.83599620  0.00021442  0.50017260  1
  I  I74  1  0.83268921  0.00245798  0.83554155  1
  I  I75  1  0.83327373  0.33604825  0.16368483  1
  I  I76  1  0.83319556  0.33326140  0.49554998  1
  I  I77  1  0.83251665  0.33359700  0.83953190  1
  I  I78  1  0.82927352  0.66476554  0.15890346  1
  I  I79  1  0.83778622  0.66633845  0.50722454  1
  I  I80  1  0.83136006  0.66365882  0.83530252  1
  I  I81  1  0.16723158  0.16217847  -0.00116529  1
  I  I82  1  0.17000857  0.17289960  0.33276615  1
  I  I83  1  0.16628856  0.16682762  0.66830783  1
  I  I84  1  0.16576588  0.49977925  0.00010596  1
  I  I85  1  0.16546000  0.49232457  0.33636956  1
  I  I86  1  0.16714583  0.49384283  0.66475242  1
  I  I87  1  0.17079857  0.83835055  -0.00408154  1
  I  I88  1  0.16449827  0.83407399  0.33301041  1
  I  I89  1  0.16903543  0.83939411  0.67069079  1
  I  I90  1  0.49469138  0.16761136  -0.00139078  1
  I  I91  1  0.49678790  0.17189538  0.32963500  1
  I  I92  1  0.49906806  0.16720087  0.67059786  1
  I  I93  1  0.50297806  0.49856820  -0.00106194  1
  I  I94  1  0.50485224  0.49356147  0.32952143  1
  I  I95  1  0.50289127  0.49906859  0.67030821  1
  I  I96  1  0.49626313  0.83444090  -0.00370159  1
  I  I97  1  0.50143192  0.83308868  0.33279331  1
  I  I98  1  0.49627378  0.83465469  0.67236455  1
  I  I99  1  0.83888625  0.16749929  -0.00328024  1
  I  I100  1  0.83415175  0.16589825  0.33329063  1
  I  I101  1  0.83146469  0.17165352  0.67234195  1
  I  I102  1  0.83104656  0.49978914  -0.00061786  1
  I  I103  1  0.82943841  0.50386240  0.32977278  1
  I  I104  1  0.82963319  0.49591261  0.67006336  1
  I  I105  1  0.83405402  0.83212279  0.00193143  1
  I  I106  1  0.83413817  0.82755772  0.32815673  1
  I  I107  1  0.83421965  0.83360800  0.66708723  1
  I  I108  1  0.00224652  0.16634036  0.16507908  1
  I  I109  1  0.00433413  0.17084922  0.49780696  1
  I  I110  1  0.00086754  0.16591878  0.83375643  1
  I  I111  1  -0.00261060  0.50172782  0.16249911  1
  I  I112  1  0.00329459  0.49444460  0.50170326  1
  I  I113  1  -0.00257406  0.49687613  0.83629945  1
  I  I114  1  -0.00299587  0.82742008  0.16288694  1
  I  I115  1  0.00034391  0.83333201  0.50432815  1
  I  I116  1  0.00205166  0.83796535  0.83395967  1
  I  I117  1  0.33382619  0.17249531  0.16081891  1
  I  I118  1  0.32956310  0.17114484  0.50639499  1
  I  I119  1  0.33328613  0.16603312  0.83306883  1
  I  I120  1  0.33647788  0.49661836  0.16126286  1
  I  I121  1  0.32999043  0.49360922  0.50315760  1
  I  I122  1  0.33628743  0.49802286  0.83596500  1
  I  I123  1  0.33341741  0.83069226  0.16810383  1
  I  I124  1  0.33303078  0.83228656  0.49588921  1
  I  I125  1  0.33359968  0.83721563  0.83343580  1
  I  I126  1  0.66365140  0.16674318  0.15972487  1
  I  I127  1  0.66658406  0.16567844  0.49936847  1
  I  I128  1  0.66559091  0.16593190  0.84004137  1
  I  I129  1  0.66625261  0.49798049  0.16158658  1
  I  I130  1  0.66655809  0.50115087  0.50090308  1
  I  I131  1  0.66620184  0.49717069  0.83681469  1
  I  I132  1  0.66940035  0.83431814  0.16108942  1
  I  I133  1  0.66676751  0.83325030  0.50395114  1
  I  I134  1  0.66399444  0.83695701  0.83591188  1
