# generated using pymatgen
data_Cs27Sn14Pb13I81
_symmetry_space_group_name_H-M   'P 1'
_cell_length_a   18.96937215
_cell_length_b   18.97570112
_cell_length_c   18.97908698
_cell_angle_alpha   89.99910941
_cell_angle_beta   89.99869914
_cell_angle_gamma   90.00229373
_symmetry_Int_Tables_number   1
_chemical_formula_structural   Cs27Sn14Pb13I81
_chemical_formula_sum   'Cs27 Sn14 Pb13 I81'
_cell_volume   6831.65779272
_cell_formula_units_Z   1
loop_
 _symmetry_equiv_pos_site_id
 _symmetry_equiv_pos_as_xyz
  1  'x, y, z'
loop_
 _atom_site_type_symbol
 _atom_site_label
 _atom_site_symmetry_multiplicity
 _atom_site_fract_x
 _atom_site_fract_y
 _atom_site_fract_z
 _atom_site_occupancy
  Cs  Cs0  1  -0.00080668  -0.00079907  0.00039313  1
  Cs  Cs1  1  0.00115714  0.00207666  0.32977850  1
  Cs  Cs2  1  -0.00242783  0.00275749  0.66786835  1
  Cs  Cs3  1  -0.00180377  0.33286709  -0.00104481  1
  Cs  Cs4  1  -0.00296902  0.33317902  0.33300494  1
  Cs  Cs5  1  0.00110165  0.33099916  0.66825359  1
  Cs  Cs6  1  0.00253448  0.66845246  -0.00311779  1
  Cs  Cs7  1  0.00363879  0.66512815  0.33515168  1
  Cs  Cs8  1  -0.00106770  0.66697063  0.66865074  1
  Cs  Cs9  1  0.33336925  -0.00140713  0.00140397  1
  Cs  Cs10  1  0.33380259  -0.00092621  0.33231019  1
  Cs  Cs11  1  0.33520483  0.00818730  0.66507233  1
  Cs  Cs12  1  0.33618703  0.33371414  -0.00292922  1
  Cs  Cs13  1  0.33330700  0.33180242  0.33478754  1
  Cs  Cs14  1  0.34002253  0.32370458  0.66850858  1
  Cs  Cs15  1  0.33194454  0.66780910  0.00073717  1
  Cs  Cs16  1  0.33015001  0.66823819  0.33184732  1
  Cs  Cs17  1  0.33167286  0.66601606  0.66759778  1
  Cs  Cs18  1  0.66782050  -0.00166453  0.00182770  1
  Cs  Cs19  1  0.66425931  -0.00045977  0.33265652  1
  Cs  Cs20  1  0.66880351  -0.00216877  0.66215107  1
  Cs  Cs21  1  0.66655285  0.33651842  0.00066267  1
  Cs  Cs22  1  0.67207453  0.34363032  0.33215053  1
  Cs  Cs23  1  0.65980340  0.33312237  0.66761169  1
  Cs  Cs24  1  0.66273823  0.66716229  -0.00062273  1
  Cs  Cs25  1  0.66686022  0.65895753  0.34229183  1
  Cs  Cs26  1  0.66899127  0.66743315  0.65731710  1
  Sn  Sn27  1  0.16664061  0.83334686  0.16651582  1
  Sn  Sn28  1  0.83289044  0.83251574  0.16709493  1
  Sn  Sn29  1  0.50025516  0.83365954  0.16618458  1
  Sn  Sn30  1  0.83335120  0.16662322  0.50059347  1
  Sn  Sn31  1  0.83331297  0.16741036  0.83269908  1
  Sn  Sn32  1  0.16656737  0.83334953  0.50056585  1
  Sn  Sn33  1  0.16654222  0.49963469  0.16631737  1
  Sn  Sn34  1  0.16744733  0.16685122  0.16617964  1
  Sn  Sn35  1  0.16668432  0.50012900  0.50088861  1
  Sn  Sn36  1  0.49959340  0.16637843  0.16662903  1
  Sn  Sn37  1  0.16764124  0.83327695  0.83284364  1
  Sn  Sn38  1  0.16626242  0.50021331  0.83281693  1
  Sn  Sn39  1  0.83378528  0.49944607  0.83354959  1
  Sn  Sn40  1  0.49911574  0.83326178  0.83354903  1
  Pb  Pb41  1  0.50310913  0.16374939  0.83576069  1
  Pb  Pb42  1  0.83580318  0.50315236  0.16433695  1
  Pb  Pb43  1  0.49745109  0.50064566  0.16668989  1
  Pb  Pb44  1  0.83603342  0.49787388  0.50290162  1
  Pb  Pb45  1  0.83281410  0.16540685  0.16639400  1
  Pb  Pb46  1  0.50319199  0.16662490  0.49646418  1
  Pb  Pb47  1  0.49642917  0.49998033  0.50022227  1
  Pb  Pb48  1  0.83315470  0.83290951  0.83464356  1
  Pb  Pb49  1  0.49957005  0.50281642  0.83322978  1
  Pb  Pb50  1  0.83615023  0.83495080  0.49707960  1
  Pb  Pb51  1  0.16539816  0.16678838  0.49758558  1
  Pb  Pb52  1  0.49717339  0.83336863  0.49970116  1
  Pb  Pb53  1  0.16545295  0.16646368  0.83568425  1
  I  I54  1  0.16641496  -0.00152788  0.16691260  1
  I  I55  1  0.16507678  -0.00272335  0.49872257  1
  I  I56  1  0.16792183  -0.00316187  0.83463350  1
  I  I57  1  0.17015991  0.33348457  0.16700842  1
  I  I58  1  0.16387966  0.33611580  0.49864031  1
  I  I59  1  0.16284367  0.33606425  0.83430002  1
  I  I60  1  0.16616742  0.66782095  0.16668692  1
  I  I61  1  0.16607433  0.66712288  0.49472971  1
  I  I62  1  0.16423054  0.66716126  0.83778159  1
  I  I63  1  0.49458470  -0.00145357  0.16313278  1
  I  I64  1  0.49718206  -0.00002771  0.50170527  1
  I  I65  1  0.49342943  -0.00393430  0.83659355  1
  I  I66  1  0.49529618  0.33069238  0.16735099  1
  I  I67  1  0.49687479  0.33301929  0.49894881  1
  I  I68  1  0.49792579  0.33311008  0.83438474  1
  I  I69  1  0.49820089  0.67039373  0.16183456  1
  I  I70  1  0.50457950  0.66699582  0.49764729  1
  I  I71  1  0.49908935  0.67071005  0.84230360  1
  I  I72  1  0.83952700  -0.00252922  0.16376300  1
  I  I73  1  0.83668828  0.00254456  0.50689178  1
  I  I74  1  0.83428502  0.00180896  0.83220203  1
  I  I75  1  0.83389979  0.33368470  0.16827183  1
  I  I76  1  0.83700555  0.33029252  0.49774084  1
  I  I77  1  0.84127090  0.33359164  0.83150928  1
  I  I78  1  0.83391006  0.67106126  0.16410970  1
  I  I79  1  0.83193172  0.66647679  0.50011042  1
  I  I80  1  0.83676403  0.66442757  0.83726049  1
  I  I81  1  0.16649596  0.16496215  0.00383909  1
  I  I82  1  0.16667417  0.16499593  0.32941765  1
  I  I83  1  0.16585326  0.16590805  0.66679620  1
  I  I84  1  0.16287841  0.50379203  -0.00014128  1
  I  I85  1  0.16797540  0.50416036  0.33269427  1
  I  I86  1  0.16130737  0.50978082  0.66756129  1
  I  I87  1  0.16683241  0.83108581  0.00081489  1
  I  I88  1  0.16599261  0.83091815  0.33169665  1
  I  I89  1  0.16977285  0.82547823  0.66764390  1
  I  I90  1  0.49673959  0.16386897  0.00349909  1
  I  I91  1  0.49573016  0.15774946  0.32875522  1
  I  I92  1  0.49891589  0.16573568  0.66678933  1
  I  I93  1  0.49834903  0.49799713  0.00001371  1
  I  I94  1  0.49995086  0.50146399  0.33310723  1
  I  I95  1  0.49855379  0.50195739  0.66701861  1
  I  I96  1  0.49479122  0.83639811  0.00125498  1
  I  I97  1  0.49822388  0.83817830  0.32970038  1
  I  I98  1  0.49598449  0.83184896  0.66962458  1
  I  I99  1  0.83471526  0.16870796  -0.00213877  1
  I  I100  1  0.83529013  0.16284158  0.33473306  1
  I  I101  1  0.83703040  0.16860638  0.66763012  1
  I  I102  1  0.84024146  0.49290615  -0.00320669  1
  I  I103  1  0.83430102  0.49851422  0.33338094  1
  I  I104  1  0.84033211  0.50125787  0.67055903  1
  I  I105  1  0.83903540  0.83646544  0.00257544  1
  I  I106  1  0.83427734  0.83725593  0.32903790  1
  I  I107  1  0.83325324  0.83267090  0.66658813  1
  I  I108  1  0.00254540  0.16449780  0.16677167  1
  I  I109  1  -0.00227064  0.16587301  0.50077816  1
  I  I110  1  -0.00245701  0.16491736  0.83368113  1
  I  I111  1  0.00440560  0.49934037  0.16873457  1
  I  I112  1  0.00406530  0.50447843  0.49637339  1
  I  I113  1  0.00187345  0.50272746  0.83437241  1
  I  I114  1  0.00215300  0.83463519  0.16578073  1
  I  I115  1  0.00433333  0.82956881  0.50010090  1
  I  I116  1  0.00312338  0.83236522  0.83561965  1
  I  I117  1  0.33206393  0.16117567  0.16674052  1
  I  I118  1  0.33328607  0.16715273  0.50050325  1
  I  I119  1  0.33353001  0.16924155  0.83261229  1
  I  I120  1  0.32860511  0.50485102  0.16373562  1
  I  I121  1  0.32785473  0.50456368  0.50064237  1
  I  I122  1  0.32939890  0.50342495  0.83483086  1
  I  I123  1  0.33166491  0.83388032  0.16603442  1
  I  I124  1  0.32882347  0.82987280  0.49452819  1
  I  I125  1  0.33129091  0.82744083  0.83940964  1
  I  I126  1  0.66421592  0.15861583  0.16602557  1
  I  I127  1  0.67073987  0.16457289  0.50354455  1
  I  I128  1  0.67079006  0.17154032  0.83242886  1
  I  I129  1  0.66693017  0.49926064  0.16518966  1
  I  I130  1  0.66718611  0.49908217  0.50039734  1
  I  I131  1  0.66944079  0.49654467  0.83517075  1
  I  I132  1  0.66568796  0.84177771  0.15891255  1
  I  I133  1  0.66684940  0.83496564  0.49998458  1
  I  I134  1  0.66441525  0.83477732  0.84123339  1
