# generated using pymatgen
data_Cs27Sn13Pb14I81
_symmetry_space_group_name_H-M   'P 1'
_cell_length_a   18.97355735
_cell_length_b   18.98066854
_cell_length_c   18.97553890
_cell_angle_alpha   89.99787009
_cell_angle_beta   90.00068377
_cell_angle_gamma   89.99847506
_symmetry_Int_Tables_number   1
_chemical_formula_structural   Cs27Sn13Pb14I81
_chemical_formula_sum   'Cs27 Sn13 Pb14 I81'
_cell_volume   6833.67605306
_cell_formula_units_Z   1
loop_
 _symmetry_equiv_pos_site_id
 _symmetry_equiv_pos_as_xyz
  1  'x, y, z'
loop_
 _atom_site_type_symbol
 _atom_site_label
 _atom_site_symmetry_multiplicity
 _atom_site_fract_x
 _atom_site_fract_y
 _atom_site_fract_z
 _atom_site_occupancy
  Cs  Cs0  1  -0.00046589  -0.00120606  -0.00005988  1
  Cs  Cs1  1  0.00070777  0.00133847  0.33210914  1
  Cs  Cs2  1  -0.00133935  0.00286655  0.66685831  1
  Cs  Cs3  1  -0.00250073  0.33415891  -0.00186799  1
  Cs  Cs4  1  0.00086010  0.33379839  0.33396711  1
  Cs  Cs5  1  -0.00002296  0.33296038  0.66692326  1
  Cs  Cs6  1  0.00146744  0.66716313  -0.00217004  1
  Cs  Cs7  1  -0.00091753  0.66465390  0.33460112  1
  Cs  Cs8  1  0.00153596  0.66519212  0.66770784  1
  Cs  Cs9  1  0.33869550  -0.00569091  0.00501424  1
  Cs  Cs10  1  0.32858712  -0.00000226  0.32482905  1
  Cs  Cs11  1  0.33475910  -0.00100405  0.66903875  1
  Cs  Cs12  1  0.34721941  0.33279791  -0.00033704  1
  Cs  Cs13  1  0.33124016  0.33303376  0.33444388  1
  Cs  Cs14  1  0.33334664  0.33289158  0.66442224  1
  Cs  Cs15  1  0.33713636  0.67397145  -0.00571926  1
  Cs  Cs16  1  0.33373441  0.66577304  0.33251407  1
  Cs  Cs17  1  0.33001741  0.67010602  0.67144065  1
  Cs  Cs18  1  0.66668966  0.00293624  -0.00132993  1
  Cs  Cs19  1  0.66878514  -0.00459531  0.33597849  1
  Cs  Cs20  1  0.66638159  -0.00153311  0.66569229  1
  Cs  Cs21  1  0.66261151  0.33344542  -0.00106007  1
  Cs  Cs22  1  0.66784966  0.33479700  0.33424141  1
  Cs  Cs23  1  0.66741948  0.33332179  0.66625089  1
  Cs  Cs24  1  0.66341914  0.66273979  0.00052775  1
  Cs  Cs25  1  0.66594121  0.66773045  0.33547633  1
  Cs  Cs26  1  0.66568304  0.66927476  0.66385684  1
  Sn  Sn27  1  0.83341465  0.49922888  0.49937227  1
  Sn  Sn28  1  0.83266745  0.16750845  0.49987288  1
  Sn  Sn29  1  0.50060492  0.16688810  0.49965123  1
  Sn  Sn30  1  0.83376157  0.83281177  0.16561460  1
  Sn  Sn31  1  0.16624344  0.83296449  0.49979600  1
  Sn  Sn32  1  0.83441682  0.16598758  0.83331071  1
  Sn  Sn33  1  0.83441827  0.50005995  0.16746687  1
  Sn  Sn34  1  0.49999556  0.49933810  0.49992521  1
  Sn  Sn35  1  0.16621716  0.49963637  0.16644356  1
  Sn  Sn36  1  0.16655417  0.50097806  0.49942938  1
  Sn  Sn37  1  0.83373955  0.83378808  0.83409012  1
  Sn  Sn38  1  0.16650668  0.16710052  0.83424948  1
  Sn  Sn39  1  0.83365060  0.16697264  0.16682268  1
  Pb  Pb40  1  0.49997240  0.50012562  0.16891533  1
  Pb  Pb41  1  0.83328072  0.49989069  0.83342651  1
  Pb  Pb42  1  0.50285537  0.16662765  0.16992996  1
  Pb  Pb43  1  0.49987663  0.50009168  0.83008497  1
  Pb  Pb44  1  0.83495275  0.83331765  0.50000393  1
  Pb  Pb45  1  0.50051564  0.16655896  0.83098378  1
  Pb  Pb46  1  0.49676239  0.83370827  0.49975477  1
  Pb  Pb47  1  0.16673337  0.49762349  0.83407834  1
  Pb  Pb48  1  0.50333166  0.83361515  0.83314777  1
  Pb  Pb49  1  0.50296816  0.83318207  0.16698762  1
  Pb  Pb50  1  0.16443723  0.83582785  0.83162751  1
  Pb  Pb51  1  0.16430235  0.83078287  0.16827026  1
  Pb  Pb52  1  0.16483937  0.16938109  0.16352484  1
  Pb  Pb53  1  0.16659761  0.16695569  0.50100074  1
  I  I54  1  0.16453033  0.00009090  0.16934566  1
  I  I55  1  0.16444734  -0.00158863  0.50322595  1
  I  I56  1  0.16185932  0.00350228  0.82860897  1
  I  I57  1  0.15880886  0.33704502  0.17628178  1
  I  I58  1  0.16596085  0.33635112  0.49814434  1
  I  I59  1  0.15686996  0.33005925  0.82875670  1
  I  I60  1  0.15914759  0.66277319  0.17008289  1
  I  I61  1  0.16485625  0.66464665  0.49725950  1
  I  I62  1  0.16488448  0.66671589  0.83280044  1
  I  I63  1  0.50045112  0.00015619  0.16994736  1
  I  I64  1  0.50649862  0.00313941  0.50173778  1
  I  I65  1  0.49869671  0.00035303  0.82865200  1
  I  I66  1  0.50233366  0.33335395  0.16489583  1
  I  I67  1  0.50015057  0.33385217  0.50029471  1
  I  I68  1  0.50280008  0.33307127  0.83489552  1
  I  I69  1  0.50355134  0.66637520  0.17028522  1
  I  I70  1  0.50484005  0.66339310  0.49908571  1
  I  I71  1  0.50124463  0.66686090  0.83089250  1
  I  I72  1  0.83212312  0.00067726  0.16720876  1
  I  I73  1  0.83108421  0.00282952  0.49838893  1
  I  I74  1  0.83705873  0.00136641  0.83502040  1
  I  I75  1  0.83715697  0.33354632  0.16851389  1
  I  I76  1  0.83460316  0.33348686  0.49812947  1
  I  I77  1  0.83647863  0.33007962  0.83365293  1
  I  I78  1  0.83697607  0.66579772  0.16791042  1
  I  I79  1  0.83141975  0.66368341  0.49741827  1
  I  I80  1  0.83332814  0.66925877  0.83521016  1
  I  I81  1  0.15747858  0.16786158  -0.00383196  1
  I  I82  1  0.16625547  0.16478171  0.33315783  1
  I  I83  1  0.15936107  0.16818133  0.66853177  1
  I  I84  1  0.15676105  0.49774545  0.00338808  1
  I  I85  1  0.16443541  0.50253266  0.33492733  1
  I  I86  1  0.16519657  0.50214847  0.66315221  1
  I  I87  1  0.16659071  0.83201522  0.00006719  1
  I  I88  1  0.16366157  0.83329881  0.33639580  1
  I  I89  1  0.16385463  0.82627216  0.66364687  1
  I  I90  1  0.50074294  0.16678888  0.00011164  1
  I  I91  1  0.50421288  0.17177150  0.33793313  1
  I  I92  1  0.50623934  0.17159659  0.66293729  1
  I  I93  1  0.50077695  0.49994084  0.00033102  1
  I  I94  1  0.50120958  0.49570142  0.33733075  1
  I  I95  1  0.50193811  0.49510266  0.66133034  1
  I  I96  1  0.49651232  0.83312658  -0.00000109  1
  I  I97  1  0.50400687  0.83363189  0.33380158  1
  I  I98  1  0.50314377  0.83271220  0.66615239  1
  I  I99  1  0.83913830  0.16586588  0.00002156  1
  I  I100  1  0.82894729  0.16724444  0.33380201  1
  I  I101  1  0.83351837  0.16649412  0.66597098  1
  I  I102  1  0.83883998  0.49818015  0.00342343  1
  I  I103  1  0.83391930  0.49738580  0.33422311  1
  I  I104  1  0.83391410  0.49696546  0.66311032  1
  I  I105  1  0.83456598  0.83698488  0.00046506  1
  I  I106  1  0.83487831  0.83552820  0.33096088  1
  I  I107  1  0.83512137  0.83720535  0.66860214  1
  I  I108  1  -0.00423738  0.16512760  0.17296759  1
  I  I109  1  -0.00332146  0.16943535  0.49922276  1
  I  I110  1  -0.00266863  0.16398545  0.82931699  1
  I  I111  1  -0.00172678  0.49959645  0.17596209  1
  I  I112  1  -0.00077778  0.49944737  0.49630078  1
  I  I113  1  -0.00025031  0.50053297  0.82738240  1
  I  I114  1  -0.00416170  0.83564056  0.16430250  1
  I  I115  1  0.00236133  0.82897268  0.50013896  1
  I  I116  1  -0.00368982  0.83572401  0.83616485  1
  I  I117  1  0.33322160  0.16819858  0.16652274  1
  I  I118  1  0.33541145  0.17057698  0.50423465  1
  I  I119  1  0.33088245  0.16961391  0.82828283  1
  I  I120  1  0.33025612  0.49845607  0.17279283  1
  I  I121  1  0.33270964  0.49844839  0.49625457  1
  I  I122  1  0.33310366  0.49674500  0.83322217  1
  I  I123  1  0.33277236  0.83251631  0.16851920  1
  I  I124  1  0.32913537  0.82937400  0.50109935  1
  I  I125  1  0.33298826  0.83462237  0.83103204  1
  I  I126  1  0.67195671  0.17019369  0.16103614  1
  I  I127  1  0.66886847  0.17386260  0.50155934  1
  I  I128  1  0.67067323  0.16315090  0.83472097  1
  I  I129  1  0.67057991  0.49998707  0.17018551  1
  I  I130  1  0.66807714  0.49519261  0.49679236  1
  I  I131  1  0.66710244  0.49835719  0.83385866  1
  I  I132  1  0.67212246  0.83097213  0.16542315  1
  I  I133  1  0.66699709  0.83105733  0.50043299  1
  I  I134  1  0.67177498  0.84040035  0.83455309  1
