# generated using pymatgen
data_Cs27Sn14Pb13I81
_symmetry_space_group_name_H-M   'P 1'
_cell_length_a   18.98142123
_cell_length_b   18.97486615
_cell_length_c   18.96984843
_cell_angle_alpha   90.00146337
_cell_angle_beta   90.00185946
_cell_angle_gamma   89.99969099
_symmetry_Int_Tables_number   1
_chemical_formula_structural   Cs27Sn14Pb13I81
_chemical_formula_sum   'Cs27 Sn14 Pb13 I81'
_cell_volume   6832.36892126
_cell_formula_units_Z   1
loop_
 _symmetry_equiv_pos_site_id
 _symmetry_equiv_pos_as_xyz
  1  'x, y, z'
loop_
 _atom_site_type_symbol
 _atom_site_label
 _atom_site_symmetry_multiplicity
 _atom_site_fract_x
 _atom_site_fract_y
 _atom_site_fract_z
 _atom_site_occupancy
  Cs  Cs0  1  0.00040343  -0.00949044  0.00003312  1
  Cs  Cs1  1  0.00029259  0.00099721  0.33363273  1
  Cs  Cs2  1  -0.00092248  0.00069668  0.66750237  1
  Cs  Cs3  1  0.00062370  0.33208936  -0.00363728  1
  Cs  Cs4  1  0.00274843  0.33445828  0.33411652  1
  Cs  Cs5  1  -0.00002190  0.33446745  0.66673405  1
  Cs  Cs6  1  -0.00185052  0.67792531  0.00615058  1
  Cs  Cs7  1  -0.00016517  0.66420810  0.32954004  1
  Cs  Cs8  1  0.00192331  0.66249472  0.66464789  1
  Cs  Cs9  1  0.32937546  0.00049490  0.00306084  1
  Cs  Cs10  1  0.33661713  0.00198120  0.33349555  1
  Cs  Cs11  1  0.33330701  -0.00117407  0.66488539  1
  Cs  Cs12  1  0.33525475  0.33383057  -0.00024935  1
  Cs  Cs13  1  0.33028598  0.33272106  0.33309241  1
  Cs  Cs14  1  0.33103882  0.33314910  0.66688742  1
  Cs  Cs15  1  0.33666865  0.66772854  -0.00416731  1
  Cs  Cs16  1  0.33130733  0.66183827  0.33398782  1
  Cs  Cs17  1  0.33527043  0.66905328  0.66922950  1
  Cs  Cs18  1  0.67059484  0.00122571  0.00090809  1
  Cs  Cs19  1  0.66349685  0.00183801  0.33498137  1
  Cs  Cs20  1  0.66744221  -0.00030404  0.66615983  1
  Cs  Cs21  1  0.66462707  0.33509662  0.00021305  1
  Cs  Cs22  1  0.66701547  0.33100060  0.33451413  1
  Cs  Cs23  1  0.66915474  0.33216679  0.66635798  1
  Cs  Cs24  1  0.66525062  0.66379031  0.00331379  1
  Cs  Cs25  1  0.66875665  0.66701361  0.33203684  1
  Cs  Cs26  1  0.66280388  0.66643633  0.66626436  1
  Sn  Sn27  1  0.49935557  0.16652754  0.83310215  1
  Sn  Sn28  1  0.49994153  0.16759323  0.50037045  1
  Sn  Sn29  1  0.50090061  0.16586985  0.16660453  1
  Sn  Sn30  1  0.49988922  0.83407047  0.16680640  1
  Sn  Sn31  1  0.83420595  0.83332256  0.50024066  1
  Sn  Sn32  1  0.83243837  0.49993942  0.50068174  1
  Sn  Sn33  1  0.83429908  0.50017222  0.83293300  1
  Sn  Sn34  1  0.83313523  0.16712957  0.16722651  1
  Sn  Sn35  1  0.16541230  0.49950169  0.83339023  1
  Sn  Sn36  1  0.16652794  0.16577974  0.50086813  1
  Sn  Sn37  1  0.16718455  0.16724876  0.83254034  1
  Sn  Sn38  1  0.50075054  0.49893272  0.50004631  1
  Sn  Sn39  1  0.16592717  0.83419809  0.49999069  1
  Sn  Sn40  1  0.83353733  0.16671866  0.49932655  1
  Pb  Pb41  1  0.83308681  0.82979052  0.83066355  1
  Pb  Pb42  1  0.50018972  0.49782964  0.83100541  1
  Pb  Pb43  1  0.83128715  0.83606104  0.16953086  1
  Pb  Pb44  1  0.50017593  0.83667347  0.83626798  1
  Pb  Pb45  1  0.50000647  0.83330194  0.49864857  1
  Pb  Pb46  1  0.16941685  0.83351571  0.16999781  1
  Pb  Pb47  1  0.83373928  0.16782285  0.83339878  1
  Pb  Pb48  1  0.16650496  0.49992975  0.16233065  1
  Pb  Pb49  1  0.16654918  0.49979785  0.50118898  1
  Pb  Pb50  1  0.49999809  0.49912870  0.16943814  1
  Pb  Pb51  1  0.16642996  0.16686739  0.16635856  1
  Pb  Pb52  1  0.16662398  0.83370495  0.83097930  1
  Pb  Pb53  1  0.83352313  0.49739254  0.16684189  1
  I  I54  1  0.16448945  0.00038416  0.16174583  1
  I  I55  1  0.16449317  0.00209641  0.50527807  1
  I  I56  1  0.17153061  0.00351042  0.83111753  1
  I  I57  1  0.16920087  0.33286069  0.17340576  1
  I  I58  1  0.16549961  0.33015345  0.50172761  1
  I  I59  1  0.16685161  0.33197383  0.82601687  1
  I  I60  1  0.16860789  0.66693166  0.16899338  1
  I  I61  1  0.16476631  0.66865158  0.50102826  1
  I  I62  1  0.16281737  0.66376447  0.83061270  1
  I  I63  1  0.50338986  0.00263262  0.17038408  1
  I  I64  1  0.50187791  0.00344328  0.50108605  1
  I  I65  1  0.49471756  0.00517751  0.82594861  1
  I  I66  1  0.50393603  0.32935891  0.16522053  1
  I  I67  1  0.50279446  0.33132816  0.49830129  1
  I  I68  1  0.49873958  0.32959408  0.83727276  1
  I  I69  1  0.49911270  0.66893636  0.17007727  1
  I  I70  1  0.50270316  0.66427577  0.49825275  1
  I  I71  1  0.49899863  0.66634725  0.83297575  1
  I  I72  1  0.83105769  0.00407587  0.17127332  1
  I  I73  1  0.83311464  0.00143715  0.49516625  1
  I  I74  1  0.83344820  0.00013947  0.83319021  1
  I  I75  1  0.82556586  0.32940424  0.17339524  1
  I  I76  1  0.83200271  0.33246390  0.50006240  1
  I  I77  1  0.83410090  0.33562686  0.82642816  1
  I  I78  1  0.83161773  0.66685954  0.16695688  1
  I  I79  1  0.83267453  0.66601067  0.50567826  1
  I  I80  1  0.83918138  0.66160442  0.82758534  1
  I  I81  1  0.17062036  0.17271623  -0.00326145  1
  I  I82  1  0.16895133  0.16279436  0.33680469  1
  I  I83  1  0.16985774  0.16681988  0.66544603  1
  I  I84  1  0.16240944  0.49066519  -0.00577525  1
  I  I85  1  0.16713586  0.49993969  0.33378281  1
  I  I86  1  0.16541481  0.49714764  0.66889131  1
  I  I87  1  0.16756401  0.83304804  0.00005154  1
  I  I88  1  0.16264257  0.84023211  0.33803319  1
  I  I89  1  0.16463330  0.83585304  0.66285676  1
  I  I90  1  0.50018486  0.16236790  0.00018270  1
  I  I91  1  0.50088230  0.16609805  0.33452534  1
  I  I92  1  0.49980471  0.17176122  0.66532959  1
  I  I93  1  0.49969139  0.49940016  -0.00021381  1
  I  I94  1  0.50572181  0.49477095  0.33769328  1
  I  I95  1  0.50183536  0.49504109  0.66295309  1
  I  I96  1  0.50004401  0.83791176  0.00416437  1
  I  I97  1  0.50021223  0.84108265  0.33122112  1
  I  I98  1  0.49952442  0.83333927  0.66631239  1
  I  I99  1  0.82859872  0.17012448  0.00218044  1
  I  I100  1  0.82972304  0.16795146  0.33560733  1
  I  I101  1  0.83075785  0.16547218  0.66326542  1
  I  I102  1  0.83720600  0.49574123  -0.00298966  1
  I  I103  1  0.82858051  0.50163175  0.33716359  1
  I  I104  1  0.83335657  0.49655332  0.66486893  1
  I  I105  1  0.83267217  0.83388395  0.00041579  1
  I  I106  1  0.83694328  0.82827135  0.33769766  1
  I  I107  1  0.83508552  0.84103745  0.66210277  1
  I  I108  1  -0.00286434  0.16887702  0.17179682  1
  I  I109  1  -0.00042835  0.16644640  0.49974529  1
  I  I110  1  0.00258881  0.17004468  0.82888891  1
  I  I111  1  -0.00026107  0.49734625  0.17349040  1
  I  I112  1  -0.00281292  0.49736318  0.50236623  1
  I  I113  1  -0.00010951  0.49132940  0.82452123  1
  I  I114  1  -0.00019495  0.83450370  0.16495008  1
  I  I115  1  -0.00046890  0.83740058  0.50090072  1
  I  I116  1  -0.00010160  0.83903709  0.83621653  1
  I  I117  1  0.33653065  0.16326460  0.16959454  1
  I  I118  1  0.33381794  0.16663080  0.50002560  1
  I  I119  1  0.33316082  0.17233275  0.82981914  1
  I  I120  1  0.33360863  0.49761966  0.16961084  1
  I  I121  1  0.33553152  0.49690824  0.50035417  1
  I  I122  1  0.33108580  0.49724749  0.83110468  1
  I  I123  1  0.33696310  0.84243046  0.16906563  1
  I  I124  1  0.33117126  0.83702078  0.49872436  1
  I  I125  1  0.33337782  0.82764290  0.82992692  1
  I  I126  1  0.66573596  0.16322015  0.17072546  1
  I  I127  1  0.66658815  0.16726972  0.49941859  1
  I  I128  1  0.66431578  0.16822571  0.83093752  1
  I  I129  1  0.66667215  0.50170130  0.16170245  1
  I  I130  1  0.66770051  0.49674421  0.50538374  1
  I  I131  1  0.66914816  0.49790067  0.82998498  1
  I  I132  1  0.66370851  0.83673280  0.17027750  1
  I  I133  1  0.66923242  0.83542179  0.49826262  1
  I  I134  1  0.66662284  0.83408421  0.82924402  1
