# generated using pymatgen
data_Cs27Sn13Pb14I81
_symmetry_space_group_name_H-M   'P 1'
_cell_length_a   18.97749514
_cell_length_b   18.97776838
_cell_length_c   18.97455325
_cell_angle_alpha   90.00005333
_cell_angle_beta   90.00066640
_cell_angle_gamma   90.00107250
_symmetry_Int_Tables_number   1
_chemical_formula_structural   Cs27Sn13Pb14I81
_chemical_formula_sum   'Cs27 Sn13 Pb14 I81'
_cell_volume   6833.69497488
_cell_formula_units_Z   1
loop_
 _symmetry_equiv_pos_site_id
 _symmetry_equiv_pos_as_xyz
  1  'x, y, z'
loop_
 _atom_site_type_symbol
 _atom_site_label
 _atom_site_symmetry_multiplicity
 _atom_site_fract_x
 _atom_site_fract_y
 _atom_site_fract_z
 _atom_site_occupancy
  Cs  Cs0  1  0.00169632  0.00045247  -0.00100629  1
  Cs  Cs1  1  -0.00249914  -0.00119412  0.33047596  1
  Cs  Cs2  1  0.00056084  -0.00248630  0.67577953  1
  Cs  Cs3  1  -0.00444577  0.33264901  -0.00039246  1
  Cs  Cs4  1  0.00222427  0.33895877  0.33440619  1
  Cs  Cs5  1  0.00219197  0.33370939  0.66712288  1
  Cs  Cs6  1  -0.00062215  0.66583873  -0.00217089  1
  Cs  Cs7  1  0.00031941  0.66226403  0.33683761  1
  Cs  Cs8  1  -0.00915965  0.66952872  0.66469847  1
  Cs  Cs9  1  0.33174533  -0.00175319  0.00073423  1
  Cs  Cs10  1  0.33297399  -0.00059009  0.33395758  1
  Cs  Cs11  1  0.33217387  0.00060536  0.66549307  1
  Cs  Cs12  1  0.33509715  0.33635268  -0.00050580  1
  Cs  Cs13  1  0.32858295  0.33385063  0.33806267  1
  Cs  Cs14  1  0.33389201  0.33383287  0.66434770  1
  Cs  Cs15  1  0.33619230  0.66563652  -0.00064248  1
  Cs  Cs16  1  0.33277242  0.66767247  0.33152016  1
  Cs  Cs17  1  0.33460787  0.66655290  0.66888582  1
  Cs  Cs18  1  0.66636133  0.00240404  0.00334987  1
  Cs  Cs19  1  0.66840212  0.00129954  0.33198288  1
  Cs  Cs20  1  0.66695455  -0.00161565  0.66420249  1
  Cs  Cs21  1  0.66787840  0.33331897  -0.00061338  1
  Cs  Cs22  1  0.66826074  0.32846288  0.33176424  1
  Cs  Cs23  1  0.66378351  0.33426956  0.66938084  1
  Cs  Cs24  1  0.66251866  0.66165574  0.00193850  1
  Cs  Cs25  1  0.66712623  0.66642571  0.33325088  1
  Cs  Cs26  1  0.66896467  0.66762956  0.66529888  1
  Sn  Sn27  1  0.49968617  0.16632261  0.83397685  1
  Sn  Sn28  1  0.49927882  0.83258723  0.50053275  1
  Sn  Sn29  1  0.16705133  0.50023403  0.83316863  1
  Sn  Sn30  1  0.49910639  0.50014200  0.83225151  1
  Sn  Sn31  1  0.16666724  0.16630716  0.16674614  1
  Sn  Sn32  1  0.49990528  0.83353499  0.83264379  1
  Sn  Sn33  1  0.49929092  0.16660863  0.16622690  1
  Sn  Sn34  1  0.83388129  0.16640440  0.49987897  1
  Sn  Sn35  1  0.49998320  0.50084779  0.50023574  1
  Sn  Sn36  1  0.16571385  0.83377143  0.16744958  1
  Sn  Sn37  1  0.83434856  0.83361944  0.16656616  1
  Sn  Sn38  1  0.83393617  0.16578151  0.16777054  1
  Sn  Sn39  1  0.16702743  0.83369308  0.49966904  1
  Pb  Pb40  1  0.83343139  0.49996421  0.16685220  1
  Pb  Pb41  1  0.16672639  0.50054014  0.16467287  1
  Pb  Pb42  1  0.16918260  0.16859278  0.83564401  1
  Pb  Pb43  1  0.83117016  0.16650603  0.83360122  1
  Pb  Pb44  1  0.49977224  0.83507643  0.16705987  1
  Pb  Pb45  1  0.16384674  0.16422887  0.49813487  1
  Pb  Pb46  1  0.49985284  0.49692078  0.16726595  1
  Pb  Pb47  1  0.83046213  0.49709037  0.49998136  1
  Pb  Pb48  1  0.50096387  0.16630627  0.50000787  1
  Pb  Pb49  1  0.83289012  0.50005894  0.83316140  1
  Pb  Pb50  1  0.16852377  0.83156531  0.83362413  1
  Pb  Pb51  1  0.83321473  0.83513054  0.49810121  1
  Pb  Pb52  1  0.16865032  0.50278980  0.50240599  1
  Pb  Pb53  1  0.83009307  0.83342407  0.83673576  1
  I  I54  1  0.16672611  -0.00007776  0.16899712  1
  I  I55  1  0.17528921  -0.00362647  0.49910276  1
  I  I56  1  0.16869919  -0.00017384  0.83224785  1
  I  I57  1  0.16651995  0.33019084  0.16450041  1
  I  I58  1  0.16744527  0.33336332  0.49883588  1
  I  I59  1  0.17351198  0.33634032  0.83474740  1
  I  I60  1  0.16270387  0.67037642  0.16944312  1
  I  I61  1  0.16841886  0.67064806  0.49211149  1
  I  I62  1  0.17522097  0.66401272  0.83623337  1
  I  I63  1  0.50080261  0.00314346  0.16307853  1
  I  I64  1  0.49812628  -0.00275751  0.50288032  1
  I  I65  1  0.50127584  -0.00005219  0.83376801  1
  I  I66  1  0.50159206  0.32860632  0.16253180  1
  I  I67  1  0.50277258  0.33522931  0.50329651  1
  I  I68  1  0.49721657  0.33354809  0.83370817  1
  I  I69  1  0.50057749  0.66686634  0.16374412  1
  I  I70  1  0.49722565  0.66760349  0.50751154  1
  I  I71  1  0.49626784  0.66655490  0.82968344  1
  I  I72  1  0.83259170  0.00112638  0.17026812  1
  I  I73  1  0.82849526  0.00274095  0.49598193  1
  I  I74  1  0.83150167  -0.00004508  0.83134415  1
  I  I75  1  0.83267603  0.32936610  0.16926793  1
  I  I76  1  0.83110691  0.32933001  0.49197575  1
  I  I77  1  0.83019424  0.33311026  0.83638852  1
  I  I78  1  0.83711908  0.67011355  0.16596253  1
  I  I79  1  0.83421888  0.66693341  0.49845417  1
  I  I80  1  0.83118172  0.66692264  0.83525736  1
  I  I81  1  0.16252192  0.16007626  0.00407016  1
  I  I82  1  0.17330889  0.16568271  0.32949709  1
  I  I83  1  0.16628021  0.16600673  0.66671123  1
  I  I84  1  0.17559230  0.50169509  -0.00300837  1
  I  I85  1  0.16844343  0.49817331  0.33359225  1
  I  I86  1  0.17147274  0.49965186  0.67005255  1
  I  I87  1  0.16453789  0.83663850  0.00308240  1
  I  I88  1  0.17043228  0.83724408  0.33262443  1
  I  I89  1  0.17040133  0.83177197  0.66425144  1
  I  I90  1  0.50214212  0.16628221  0.00012019  1
  I  I91  1  0.50007819  0.16584085  0.33067924  1
  I  I92  1  0.50298179  0.16725561  0.66918978  1
  I  I93  1  0.49707024  0.50291091  -0.00314549  1
  I  I94  1  0.50108258  0.50452125  0.33643817  1
  I  I95  1  0.49625467  0.49778356  0.66769800  1
  I  I96  1  0.50031740  0.83117997  -0.00228121  1
  I  I97  1  0.49931899  0.83059499  0.33596935  1
  I  I98  1  0.49476416  0.83504708  0.66637274  1
  I  I99  1  0.83403811  0.16326395  0.00369138  1
  I  I100  1  0.82827942  0.16262068  0.33129803  1
  I  I101  1  0.82902882  0.16720335  0.66417707  1
  I  I102  1  0.82996073  0.49804288  0.00000318  1
  I  I103  1  0.83088457  0.50095276  0.33350034  1
  I  I104  1  0.83468397  0.49817035  0.66647850  1
  I  I105  1  0.83858360  0.84113426  0.00460193  1
  I  I106  1  0.83107293  0.83746306  0.33009687  1
  I  I107  1  0.83554013  0.83518174  0.66659836  1
  I  I108  1  -0.00014107  0.16193852  0.17104934  1
  I  I109  1  -0.00372799  0.16553240  0.49351694  1
  I  I110  1  0.00025713  0.16918402  0.83381967  1
  I  I111  1  0.00019497  0.49567052  0.16341638  1
  I  I112  1  0.00018243  0.50062497  0.50160622  1
  I  I113  1  0.00290441  0.50000757  0.83623908  1
  I  I114  1  0.00086410  0.84230291  0.17157773  1
  I  I115  1  0.00252771  0.83514624  0.49695075  1
  I  I116  1  0.00011634  0.83087972  0.83066671  1
  I  I117  1  0.33337804  0.16235644  0.16131272  1
  I  I118  1  0.33321732  0.16807633  0.49852553  1
  I  I119  1  0.33759845  0.16475564  0.83794895  1
  I  I120  1  0.33348802  0.49973225  0.16716326  1
  I  I121  1  0.33689286  0.49902678  0.50195509  1
  I  I122  1  0.33563717  0.49967912  0.83117873  1
  I  I123  1  0.33094835  0.83810273  0.16740173  1
  I  I124  1  0.33439075  0.83104351  0.49719127  1
  I  I125  1  0.33696055  0.83502847  0.83495203  1
  I  I126  1  0.66675274  0.16305384  0.16653665  1
  I  I127  1  0.66855668  0.16497553  0.49331444  1
  I  I128  1  0.66248337  0.16957772  0.83918744  1
  I  I129  1  0.66634415  0.50058670  0.16380806  1
  I  I130  1  0.66225119  0.50673022  0.50694311  1
  I  I131  1  0.66241737  0.49935602  0.83044860  1
  I  I132  1  0.66843619  0.83881436  0.16610953  1
  I  I133  1  0.66362365  0.83109980  0.50282666  1
  I  I134  1  0.66168266  0.83115361  0.82814704  1
