# generated using pymatgen
data_Cs27Sn13Pb14I81
_symmetry_space_group_name_H-M   'P 1'
_cell_length_a   18.97904220
_cell_length_b   18.96763692
_cell_length_c   18.98293578
_cell_angle_alpha   90.00230344
_cell_angle_beta   89.99738320
_cell_angle_gamma   89.99949425
_symmetry_Int_Tables_number   1
_chemical_formula_structural   Cs27Sn13Pb14I81
_chemical_formula_sum   'Cs27 Sn13 Pb14 I81'
_cell_volume   6833.62112712
_cell_formula_units_Z   1
loop_
 _symmetry_equiv_pos_site_id
 _symmetry_equiv_pos_as_xyz
  1  'x, y, z'
loop_
 _atom_site_type_symbol
 _atom_site_label
 _atom_site_symmetry_multiplicity
 _atom_site_fract_x
 _atom_site_fract_y
 _atom_site_fract_z
 _atom_site_occupancy
  Cs  Cs0  1  -0.00422182  0.00366277  -0.00167680  1
  Cs  Cs1  1  -0.00289922  0.00244304  0.33192007  1
  Cs  Cs2  1  -0.00208637  0.00451625  0.66793715  1
  Cs  Cs3  1  0.00461414  0.32801111  -0.00391604  1
  Cs  Cs4  1  -0.00054325  0.33196989  0.33402750  1
  Cs  Cs5  1  0.00332491  0.33115167  0.66932513  1
  Cs  Cs6  1  0.00015059  0.66783804  0.00216057  1
  Cs  Cs7  1  0.00052411  0.66665137  0.33368778  1
  Cs  Cs8  1  0.00356875  0.66479129  0.66201034  1
  Cs  Cs9  1  0.33139886  -0.00049258  0.00111026  1
  Cs  Cs10  1  0.33503218  0.00164804  0.33572085  1
  Cs  Cs11  1  0.33678577  -0.00676783  0.66212278  1
  Cs  Cs12  1  0.33261907  0.33139681  -0.00100654  1
  Cs  Cs13  1  0.33542190  0.33139400  0.33139544  1
  Cs  Cs14  1  0.33011265  0.33536556  0.67066480  1
  Cs  Cs15  1  0.33357713  0.66689517  0.00163887  1
  Cs  Cs16  1  0.33128522  0.66748671  0.33213372  1
  Cs  Cs17  1  0.33038185  0.67029684  0.66428480  1
  Cs  Cs18  1  0.67554575  -0.00333105  -0.00192057  1
  Cs  Cs19  1  0.66839919  0.01086503  0.33499895  1
  Cs  Cs20  1  0.66555296  -0.00000903  0.66711535  1
  Cs  Cs21  1  0.66254232  0.33689113  -0.00081932  1
  Cs  Cs22  1  0.66566669  0.33266190  0.33503823  1
  Cs  Cs23  1  0.66693342  0.33379409  0.66574875  1
  Cs  Cs24  1  0.66635254  0.66658171  0.00008467  1
  Cs  Cs25  1  0.66888083  0.66410494  0.33162406  1
  Cs  Cs26  1  0.66576165  0.66712805  0.66778949  1
  Sn  Sn27  1  0.49976999  0.50080546  0.16677066  1
  Sn  Sn28  1  0.50003740  0.16658152  0.83368458  1
  Sn  Sn29  1  0.83357480  0.50020167  0.16634229  1
  Sn  Sn30  1  0.49989261  0.83294060  0.16696980  1
  Sn  Sn31  1  0.83315250  0.50040356  0.83324672  1
  Sn  Sn32  1  0.83268734  0.50093795  0.50024378  1
  Sn  Sn33  1  0.16676000  0.50037712  0.16648861  1
  Sn  Sn34  1  0.16718167  0.83274850  0.16573485  1
  Sn  Sn35  1  0.16712615  0.16679151  0.49987595  1
  Sn  Sn36  1  0.83287803  0.83270839  0.49981094  1
  Sn  Sn37  1  0.16645408  0.83297268  0.83409357  1
  Sn  Sn38  1  0.50034944  0.49966372  0.83315423  1
  Sn  Sn39  1  0.50017204  0.50042895  0.50012126  1
  Pb  Pb40  1  0.49876218  0.83255432  0.83545518  1
  Pb  Pb41  1  0.83314706  0.17026130  0.16634310  1
  Pb  Pb42  1  0.50006019  0.16640390  0.16433008  1
  Pb  Pb43  1  0.83563151  0.83055649  0.83113089  1
  Pb  Pb44  1  0.16663200  0.49862873  0.49755126  1
  Pb  Pb45  1  0.83485176  0.16769241  0.50019574  1
  Pb  Pb46  1  0.16700766  0.50159666  0.83571981  1
  Pb  Pb47  1  0.16464209  0.83528518  0.49891096  1
  Pb  Pb48  1  0.16688355  0.16597242  0.16815282  1
  Pb  Pb49  1  0.50243466  0.83112822  0.49695393  1
  Pb  Pb50  1  0.83069000  0.16949824  0.83323943  1
  Pb  Pb51  1  0.16921270  0.16360387  0.83143358  1
  Pb  Pb52  1  0.49812091  0.16949504  0.50235660  1
  Pb  Pb53  1  0.83327310  0.83165619  0.16844984  1
  I  I54  1  0.17236355  -0.00375875  0.16498251  1
  I  I55  1  0.16515460  0.00260039  0.49941244  1
  I  I56  1  0.16799926  -0.00387618  0.83994811  1
  I  I57  1  0.16694133  0.33655458  0.16862973  1
  I  I58  1  0.16535425  0.33126543  0.49879886  1
  I  I59  1  0.16469402  0.33353184  0.83378621  1
  I  I60  1  0.16781982  0.66602621  0.16443850  1
  I  I61  1  0.16751206  0.66662066  0.50131802  1
  I  I62  1  0.16859245  0.66923357  0.83381990  1
  I  I63  1  0.49284637  -0.00322821  0.16561936  1
  I  I64  1  0.50086942  -0.00009198  0.50022212  1
  I  I65  1  0.49563179  0.00181457  0.83451346  1
  I  I66  1  0.50008743  0.33737428  0.16852247  1
  I  I67  1  0.50639289  0.33789938  0.49404542  1
  I  I68  1  0.50302688  0.33610461  0.83507838  1
  I  I69  1  0.49896413  0.66439839  0.16440950  1
  I  I70  1  0.50006201  0.66257121  0.50494310  1
  I  I71  1  0.50331505  0.66295659  0.83284978  1
  I  I72  1  0.83339390  -0.00035026  0.16981544  1
  I  I73  1  0.83656325  -0.00236638  0.49856569  1
  I  I74  1  0.83257064  -0.00027697  0.83106084  1
  I  I75  1  0.83249578  0.33937425  0.17072008  1
  I  I76  1  0.82996349  0.33754706  0.49867268  1
  I  I77  1  0.83368690  0.33819161  0.83113610  1
  I  I78  1  0.83276705  0.66276060  0.16550337  1
  I  I79  1  0.83168798  0.66422152  0.49941026  1
  I  I80  1  0.82576837  0.66232394  0.83606892  1
  I  I81  1  0.16743336  0.16877335  -0.00018450  1
  I  I82  1  0.16668798  0.16654577  0.33579926  1
  I  I83  1  0.16606247  0.16770134  0.66405441  1
  I  I84  1  0.16673703  0.50132665  0.00383703  1
  I  I85  1  0.16685709  0.50567613  0.32950597  1
  I  I86  1  0.16675315  0.50072215  0.66671942  1
  I  I87  1  0.17060096  0.82820967  0.00140312  1
  I  I88  1  0.16915668  0.82940429  0.32997025  1
  I  I89  1  0.16580388  0.83441252  0.66830483  1
  I  I90  1  0.49821005  0.17541113  -0.00311370  1
  I  I91  1  0.49902693  0.16762580  0.33348611  1
  I  I92  1  0.49904828  0.17252957  0.66996990  1
  I  I93  1  0.50286955  0.49967709  0.00037009  1
  I  I94  1  0.50242573  0.50420136  0.33261538  1
  I  I95  1  0.50714192  0.49504948  0.66696027  1
  I  I96  1  0.49840666  0.82644766  0.00334299  1
  I  I97  1  0.49230089  0.82649417  0.32926816  1
  I  I98  1  0.49792797  0.83246941  0.66651295  1
  I  I99  1  0.83505669  0.16574483  -0.00036553  1
  I  I100  1  0.83367178  0.16809363  0.33352881  1
  I  I101  1  0.83484303  0.16868265  0.66668015  1
  I  I102  1  0.82926768  0.49968546  0.00033608  1
  I  I103  1  0.83105300  0.50378018  0.33332700  1
  I  I104  1  0.82600337  0.50346297  0.66634154  1
  I  I105  1  0.83226582  0.83204381  0.00013603  1
  I  I106  1  0.83588227  0.82550652  0.33605510  1
  I  I107  1  0.83540103  0.82646247  0.66347163  1
  I  I108  1  0.00018082  0.16724206  0.16733379  1
  I  I109  1  0.00251088  0.16873860  0.49994517  1
  I  I110  1  0.00017094  0.16781955  0.83207309  1
  I  I111  1  -0.00009772  0.50450254  0.16815483  1
  I  I112  1  -0.00296577  0.50209187  0.49962414  1
  I  I113  1  -0.00253549  0.50293031  0.83253693  1
  I  I114  1  0.00277335  0.82795853  0.16550625  1
  I  I115  1  -0.00286090  0.82529000  0.49853004  1
  I  I116  1  0.00331365  0.83175847  0.84008350  1
  I  I117  1  0.33343307  0.17242111  0.16733530  1
  I  I118  1  0.33077509  0.16687878  0.49933107  1
  I  I119  1  0.33644947  0.17660179  0.83337885  1
  I  I120  1  0.33410425  0.50371930  0.16701099  1
  I  I121  1  0.33612305  0.49752168  0.50017907  1
  I  I122  1  0.33646929  0.49727959  0.83333585  1
  I  I123  1  0.33296658  0.82387347  0.16350190  1
  I  I124  1  0.33345913  0.83311130  0.50157862  1
  I  I125  1  0.33075163  0.83091605  0.83409000  1
  I  I126  1  0.66641952  0.16527010  0.16824503  1
  I  I127  1  0.66645396  0.16520746  0.50039073  1
  I  I128  1  0.66290625  0.16825940  0.83274603  1
  I  I129  1  0.66605815  0.50348063  0.16650721  1
  I  I130  1  0.66683645  0.50278182  0.49598498  1
  I  I131  1  0.66601802  0.49694326  0.83694135  1
  I  I132  1  0.66405335  0.82732791  0.16699403  1
  I  I133  1  0.67001058  0.83022740  0.49987678  1
  I  I134  1  0.66673521  0.83544548  0.83419968  1
