# generated using pymatgen
data_Cs27Sn14Pb13I81
_symmetry_space_group_name_H-M   'P 1'
_cell_length_a   18.97562806
_cell_length_b   18.98143949
_cell_length_c   18.97056397
_cell_angle_alpha   90.00021252
_cell_angle_beta   90.00010109
_cell_angle_gamma   89.99722315
_symmetry_Int_Tables_number   1
_chemical_formula_structural   Cs27Sn14Pb13I81
_chemical_formula_sum   'Cs27 Sn14 Pb13 I81'
_cell_volume   6832.90756504
_cell_formula_units_Z   1
loop_
 _symmetry_equiv_pos_site_id
 _symmetry_equiv_pos_as_xyz
  1  'x, y, z'
loop_
 _atom_site_type_symbol
 _atom_site_label
 _atom_site_symmetry_multiplicity
 _atom_site_fract_x
 _atom_site_fract_y
 _atom_site_fract_z
 _atom_site_occupancy
  Cs  Cs0  1  -0.00403733  0.00308021  -0.00173318  1
  Cs  Cs1  1  0.00878563  0.00111748  0.33400036  1
  Cs  Cs2  1  -0.00052483  -0.00133934  0.66701056  1
  Cs  Cs3  1  0.00040942  0.33428927  0.00065671  1
  Cs  Cs4  1  0.00263935  0.32898090  0.32738441  1
  Cs  Cs5  1  -0.00114611  0.33482926  0.67009831  1
  Cs  Cs6  1  -0.00040731  0.66324363  -0.00173758  1
  Cs  Cs7  1  0.00057433  0.67027771  0.33860803  1
  Cs  Cs8  1  -0.00109472  0.66747601  0.66470857  1
  Cs  Cs9  1  0.33850261  -0.00546977  -0.00094090  1
  Cs  Cs10  1  0.32423892  -0.00289414  0.33682294  1
  Cs  Cs11  1  0.33331278  0.00164653  0.66569939  1
  Cs  Cs12  1  0.33445452  0.33709751  -0.00145540  1
  Cs  Cs13  1  0.33442799  0.33065587  0.33820663  1
  Cs  Cs14  1  0.33443085  0.33276663  0.66467080  1
  Cs  Cs15  1  0.33403818  0.66657588  0.00372778  1
  Cs  Cs16  1  0.33015259  0.67111052  0.32984597  1
  Cs  Cs17  1  0.33393114  0.66485727  0.66810992  1
  Cs  Cs18  1  0.66647180  -0.00052129  -0.00033050  1
  Cs  Cs19  1  0.66711895  0.00077873  0.33149361  1
  Cs  Cs20  1  0.66695028  0.00067219  0.66863420  1
  Cs  Cs21  1  0.66745972  0.33300700  0.00026127  1
  Cs  Cs22  1  0.66435594  0.33563705  0.33257695  1
  Cs  Cs23  1  0.66568482  0.33350980  0.66516293  1
  Cs  Cs24  1  0.66553689  0.66717815  -0.00002516  1
  Cs  Cs25  1  0.66807774  0.66395416  0.33593160  1
  Cs  Cs26  1  0.66813271  0.66599806  0.66350933  1
  Sn  Sn27  1  0.83311343  0.16679743  0.50029372  1
  Sn  Sn28  1  0.83223953  0.50005690  0.83383964  1
  Sn  Sn29  1  0.16692419  0.16589426  0.83365819  1
  Sn  Sn30  1  0.16587603  0.83387077  0.83358506  1
  Sn  Sn31  1  0.49983822  0.16708858  0.16604048  1
  Sn  Sn32  1  0.16641787  0.49970512  0.50002292  1
  Sn  Sn33  1  0.50080496  0.49909343  0.16581610  1
  Sn  Sn34  1  0.83322350  0.16687385  0.83245403  1
  Sn  Sn35  1  0.50039887  0.83347176  0.50001523  1
  Sn  Sn36  1  0.50099586  0.49935554  0.83388083  1
  Sn  Sn37  1  0.83268223  0.50110493  0.16589145  1
  Sn  Sn38  1  0.83402302  0.83306101  0.83396734  1
  Sn  Sn39  1  0.49991561  0.16759894  0.83412764  1
  Sn  Sn40  1  0.83330890  0.83249779  0.16613683  1
  Pb  Pb41  1  0.83222133  0.83554208  0.49998233  1
  Pb  Pb42  1  0.16410695  0.16847925  0.50268479  1
  Pb  Pb43  1  0.50210422  0.83316857  0.16890050  1
  Pb  Pb44  1  0.16324701  0.83330984  0.16351312  1
  Pb  Pb45  1  0.83497643  0.49783833  0.49954386  1
  Pb  Pb46  1  0.50057192  0.83304844  0.83219855  1
  Pb  Pb47  1  0.16670841  0.49997532  0.83239634  1
  Pb  Pb48  1  0.16661012  0.49992156  0.16914332  1
  Pb  Pb49  1  0.50159755  0.16489343  0.50007610  1
  Pb  Pb50  1  0.16871445  0.83165826  0.50287399  1
  Pb  Pb51  1  0.83187395  0.16690864  0.16620563  1
  Pb  Pb52  1  0.49846855  0.50160258  0.49970178  1
  Pb  Pb53  1  0.17043104  0.16674437  0.16329139  1
  I  I54  1  0.16658071  0.00005578  0.17100398  1
  I  I55  1  0.16705290  0.00012458  0.49894679  1
  I  I56  1  0.16336144  0.00056132  0.83241024  1
  I  I57  1  0.16021201  0.33329185  0.16470169  1
  I  I58  1  0.16839441  0.33576491  0.50296917  1
  I  I59  1  0.16430505  0.33080616  0.83114192  1
  I  I60  1  0.17258914  0.66664861  0.16436657  1
  I  I61  1  0.16580415  0.66423977  0.50316004  1
  I  I62  1  0.16314136  0.66879055  0.83047245  1
  I  I63  1  0.50315794  0.00248680  0.16143650  1
  I  I64  1  0.50174432  -0.00246427  0.50182576  1
  I  I65  1  0.50232460  0.00279991  0.83581134  1
  I  I66  1  0.50684939  0.33415513  0.16287372  1
  I  I67  1  0.49922983  0.33329361  0.50019766  1
  I  I68  1  0.50253517  0.33312455  0.83590623  1
  I  I69  1  0.50171822  0.66355779  0.16257700  1
  I  I70  1  0.50080757  0.66899290  0.50219094  1
  I  I71  1  0.50210412  0.66376348  0.83551595  1
  I  I72  1  0.83048619  -0.00190948  0.16254002  1
  I  I73  1  0.83135079  0.00310406  0.50559681  1
  I  I74  1  0.83363136  0.00033351  0.83334955  1
  I  I75  1  0.83143988  0.33611788  0.16390852  1
  I  I76  1  0.83243634  0.33034388  0.50647343  1
  I  I77  1  0.83336857  0.33328185  0.83290670  1
  I  I78  1  0.82727433  0.66568735  0.15851176  1
  I  I79  1  0.83369157  0.66658192  0.50243009  1
  I  I80  1  0.83363047  0.66635994  0.83770773  1
  I  I81  1  0.15832302  0.16521251  -0.00482766  1
  I  I82  1  0.16543315  0.16797613  0.33341209  1
  I  I83  1  0.17168483  0.16357866  0.67085789  1
  I  I84  1  0.16689490  0.50016906  -0.00008918  1
  I  I85  1  0.16670485  0.50037328  0.33660006  1
  I  I86  1  0.16696805  0.50003080  0.66501710  1
  I  I87  1  0.16820045  0.83573176  -0.00449616  1
  I  I88  1  0.16674806  0.83188858  0.33341870  1
  I  I89  1  0.15966452  0.83666538  0.67053019  1
  I  I90  1  0.50270606  0.16970266  -0.00178660  1
  I  I91  1  0.50522534  0.17092003  0.33071771  1
  I  I92  1  0.49903278  0.16979619  0.67030595  1
  I  I93  1  0.50322915  0.49644968  -0.00087255  1
  I  I94  1  0.50411777  0.49673201  0.33010428  1
  I  I95  1  0.50300990  0.49695973  0.66980815  1
  I  I96  1  0.49770224  0.83357799  -0.00004777  1
  I  I97  1  0.50310099  0.83277862  0.33608869  1
  I  I98  1  0.50187871  0.83318325  0.66489283  1
  I  I99  1  0.83490455  0.16618218  -0.00354107  1
  I  I100  1  0.82959782  0.16727786  0.33493176  1
  I  I101  1  0.83098239  0.16642447  0.66980108  1
  I  I102  1  0.83034934  0.49876075  -0.00139048  1
  I  I103  1  0.82954324  0.50297185  0.33010647  1
  I  I104  1  0.83040545  0.50198029  0.67007799  1
  I  I105  1  0.83579818  0.83506721  -0.00174710  1
  I  I106  1  0.82810787  0.82923002  0.33071729  1
  I  I107  1  0.83558825  0.83126998  0.67016449  1
  I  I108  1  -0.00007733  0.16688396  0.16748074  1
  I  I109  1  -0.00370809  0.16599348  0.50499994  1
  I  I110  1  -0.00130185  0.16612128  0.82779573  1
  I  I111  1  -0.00360077  0.50321287  0.16194986  1
  I  I112  1  0.00226801  0.50031436  0.50307954  1
  I  I113  1  -0.00317067  0.49755651  0.83593422  1
  I  I114  1  -0.00493946  0.82728128  0.16690038  1
  I  I115  1  -0.00000321  0.83335589  0.49821190  1
  I  I116  1  -0.00158989  0.83626416  0.83597939  1
  I  I117  1  0.33850654  0.17363198  0.16282768  1
  I  I118  1  0.33324976  0.16624079  0.50044363  1
  I  I119  1  0.33429282  0.16686159  0.83780316  1
  I  I120  1  0.33688822  0.49615567  0.16201179  1
  I  I121  1  0.33108633  0.50040105  0.50302434  1
  I  I122  1  0.33623889  0.49756337  0.83512238  1
  I  I123  1  0.33344504  0.83298602  0.16719111  1
  I  I124  1  0.33625620  0.83392656  0.50103866  1
  I  I125  1  0.33161835  0.83663464  0.82889375  1
  I  I126  1  0.66404197  0.16746538  0.16065081  1
  I  I127  1  0.66923309  0.16689563  0.50762725  1
  I  I128  1  0.66701438  0.16656114  0.83317846  1
  I  I129  1  0.66684921  0.49979844  0.16282799  1
  I  I130  1  0.66678762  0.50036820  0.50057596  1
  I  I131  1  0.66723426  0.49738593  0.83585861  1
  I  I132  1  0.66982639  0.83296076  0.15856869  1
  I  I133  1  0.66473982  0.83233814  0.50354723  1
  I  I134  1  0.66981968  0.83597939  0.83565137  1
