# generated using pymatgen
data_Cs27Sn13Pb14I81
_symmetry_space_group_name_H-M   'P 1'
_cell_length_a   18.97481913
_cell_length_b   18.96945990
_cell_length_c   18.98384824
_cell_angle_alpha   90.00049360
_cell_angle_beta   89.99978037
_cell_angle_gamma   90.00002241
_symmetry_Int_Tables_number   1
_chemical_formula_structural   Cs27Sn13Pb14I81
_chemical_formula_sum   'Cs27 Sn13 Pb14 I81'
_cell_volume   6833.08564543
_cell_formula_units_Z   1
loop_
 _symmetry_equiv_pos_site_id
 _symmetry_equiv_pos_as_xyz
  1  'x, y, z'
loop_
 _atom_site_type_symbol
 _atom_site_label
 _atom_site_symmetry_multiplicity
 _atom_site_fract_x
 _atom_site_fract_y
 _atom_site_fract_z
 _atom_site_occupancy
  Cs  Cs0  1  0.00851208  -0.00082958  0.00441696  1
  Cs  Cs1  1  0.00793857  0.00107260  0.33111216  1
  Cs  Cs2  1  0.00473551  -0.00809814  0.66633915  1
  Cs  Cs3  1  -0.00305141  0.33467053  0.00335684  1
  Cs  Cs4  1  -0.00148830  0.33217804  0.33404046  1
  Cs  Cs5  1  -0.00219122  0.33557514  0.66420113  1
  Cs  Cs6  1  -0.00057516  0.66637795  -0.00255613  1
  Cs  Cs7  1  -0.00013093  0.66532370  0.33239371  1
  Cs  Cs8  1  -0.00431407  0.66898588  0.66988873  1
  Cs  Cs9  1  0.33172629  -0.00018718  -0.00279940  1
  Cs  Cs10  1  0.32681483  -0.00184172  0.33467483  1
  Cs  Cs11  1  0.32633123  0.00286824  0.66820024  1
  Cs  Cs12  1  0.33571742  0.33440238  -0.00475109  1
  Cs  Cs13  1  0.33479013  0.33726676  0.33540728  1
  Cs  Cs14  1  0.33274405  0.33155746  0.66924995  1
  Cs  Cs15  1  0.33428188  0.66602162  0.00156611  1
  Cs  Cs16  1  0.33717901  0.66514248  0.33445490  1
  Cs  Cs17  1  0.33586645  0.66623887  0.66420671  1
  Cs  Cs18  1  0.66424653  0.00157237  0.00240368  1
  Cs  Cs19  1  0.66755429  0.00065180  0.33234609  1
  Cs  Cs20  1  0.66666827  0.00113289  0.66531639  1
  Cs  Cs21  1  0.66704037  0.33124236  -0.00052937  1
  Cs  Cs22  1  0.66691465  0.33258769  0.33346288  1
  Cs  Cs23  1  0.66907192  0.33051691  0.66690241  1
  Cs  Cs24  1  0.66661730  0.66715082  0.00026498  1
  Cs  Cs25  1  0.66331302  0.66799210  0.33348631  1
  Cs  Cs26  1  0.66878862  0.67124604  0.66631330  1
  Sn  Sn27  1  0.83361641  0.49966463  0.49912824  1
  Sn  Sn28  1  0.50075933  0.83447979  0.16603742  1
  Sn  Sn29  1  0.50042500  0.16660583  0.49899117  1
  Sn  Sn30  1  0.83386285  0.16595392  0.83256110  1
  Sn  Sn31  1  0.83287644  0.16683335  0.50093945  1
  Sn  Sn32  1  0.49989350  0.16580249  0.16775977  1
  Sn  Sn33  1  0.83280125  0.83281369  0.16681256  1
  Sn  Sn34  1  0.16730075  0.49988867  0.83316910  1
  Sn  Sn35  1  0.16570797  0.49975938  0.50014249  1
  Sn  Sn36  1  0.83364630  0.50083458  0.16748433  1
  Sn  Sn37  1  0.50004404  0.50085377  0.83318302  1
  Sn  Sn38  1  0.16594037  0.49990981  0.16672559  1
  Sn  Sn39  1  0.50041860  0.83271561  0.83378392  1
  Pb  Pb40  1  0.16655031  0.82971365  0.50000119  1
  Pb  Pb41  1  0.16731079  0.83059659  0.16663975  1
  Pb  Pb42  1  0.50003962  0.83655082  0.49995314  1
  Pb  Pb43  1  0.83328503  0.83376076  0.49732427  1
  Pb  Pb44  1  0.16301912  0.16917402  0.83333521  1
  Pb  Pb45  1  0.50088936  0.49811293  0.50271057  1
  Pb  Pb46  1  0.83320509  0.49914668  0.83331067  1
  Pb  Pb47  1  0.16944605  0.83048330  0.83344780  1
  Pb  Pb48  1  0.83135441  0.83659930  0.83609191  1
  Pb  Pb49  1  0.17036246  0.16982270  0.16654074  1
  Pb  Pb50  1  0.83221747  0.16651156  0.16729461  1
  Pb  Pb51  1  0.50110405  0.16622791  0.83307002  1
  Pb  Pb52  1  0.16600569  0.16879866  0.50005514  1
  Pb  Pb53  1  0.50054974  0.50005896  0.16514936  1
  I  I54  1  0.16340434  -0.00008207  0.16676100  1
  I  I55  1  0.16674064  0.00019209  0.50007665  1
  I  I56  1  0.16787309  -0.00009512  0.83331009  1
  I  I57  1  0.16060214  0.33799721  0.16682657  1
  I  I58  1  0.16563654  0.33730799  0.49948998  1
  I  I59  1  0.17522063  0.33768734  0.83365052  1
  I  I60  1  0.16760470  0.66229785  0.16685832  1
  I  I61  1  0.16178050  0.66107665  0.49948950  1
  I  I62  1  0.16620429  0.66202534  0.83383609  1
  I  I63  1  0.50795867  -0.00068311  0.16406515  1
  I  I64  1  0.50811022  0.00445536  0.50036056  1
  I  I65  1  0.50433578  -0.00237614  0.83591045  1
  I  I66  1  0.50041893  0.33133835  0.16814699  1
  I  I67  1  0.50175823  0.33036018  0.49495077  1
  I  I68  1  0.49698818  0.33552365  0.83427651  1
  I  I69  1  0.50073648  0.66886435  0.16337535  1
  I  I70  1  0.49920621  0.66647140  0.49818353  1
  I  I71  1  0.49664634  0.66629634  0.83954524  1
  I  I72  1  0.82814382  -0.00228468  0.16548438  1
  I  I73  1  0.82660824  0.00344226  0.50303331  1
  I  I74  1  0.82834266  0.00412186  0.82760335  1
  I  I75  1  0.83558135  0.33606152  0.16719204  1
  I  I76  1  0.83323341  0.33413584  0.49783803  1
  I  I77  1  0.83015750  0.33139344  0.83438493  1
  I  I78  1  0.83096042  0.66528996  0.17095618  1
  I  I79  1  0.83790947  0.66331949  0.49839244  1
  I  I80  1  0.83433243  0.66684880  0.83154412  1
  I  I81  1  0.16595574  0.17038395  0.00002877  1
  I  I82  1  0.16316671  0.16911789  0.33324141  1
  I  I83  1  0.17294057  0.17028191  0.66664445  1
  I  I84  1  0.16681402  0.50005044  0.00019554  1
  I  I85  1  0.16198725  0.49942885  0.33328979  1
  I  I86  1  0.16705459  0.49873673  0.66651014  1
  I  I87  1  0.16443722  0.83041962  0.00013646  1
  I  I88  1  0.16872221  0.83175199  0.33297488  1
  I  I89  1  0.16857932  0.83186261  0.66691376  1
  I  I90  1  0.50286374  0.16682674  0.00204691  1
  I  I91  1  0.50679883  0.16398922  0.33309622  1
  I  I92  1  0.50333012  0.16903909  0.66437703  1
  I  I93  1  0.49676952  0.49834866  -0.00267370  1
  I  I94  1  0.49705430  0.50138219  0.33344849  1
  I  I95  1  0.49627565  0.50316067  0.67047159  1
  I  I96  1  0.50420132  0.83450133  0.00096009  1
  I  I97  1  0.50394439  0.83419394  0.32997752  1
  I  I98  1  0.49973226  0.82873302  0.66953857  1
  I  I99  1  0.82974147  0.16914952  -0.00131909  1
  I  I100  1  0.82961671  0.16969927  0.33603746  1
  I  I101  1  0.82536715  0.17551875  0.66523800  1
  I  I102  1  0.83567601  0.50096687  0.00255999  1
  I  I103  1  0.84014429  0.49749559  0.33320173  1
  I  I104  1  0.83587684  0.49615041  0.66410114  1
  I  I105  1  0.83047206  0.82698675  0.00381997  1
  I  I106  1  0.82574757  0.83200079  0.32933477  1
  I  I107  1  0.83190243  0.83064009  0.66680121  1
  I  I108  1  0.00002711  0.16436866  0.16653162  1
  I  I109  1  -0.00355530  0.17063359  0.50335497  1
  I  I110  1  -0.00473127  0.16974450  0.82802528  1
  I  I111  1  -0.00092716  0.50444747  0.16504083  1
  I  I112  1  -0.00078110  0.49399715  0.50002492  1
  I  I113  1  0.00231890  0.49625765  0.83380732  1
  I  I114  1  -0.00272998  0.83121383  0.16770685  1
  I  I115  1  -0.00032237  0.83821456  0.49828441  1
  I  I116  1  -0.00011544  0.83314961  0.83417382  1
  I  I117  1  0.33840826  0.16176434  0.17106501  1
  I  I118  1  0.33604113  0.16802693  0.49611142  1
  I  I119  1  0.33332365  0.16611571  0.83336892  1
  I  I120  1  0.33121639  0.49917261  0.16848013  1
  I  I121  1  0.33109502  0.49882683  0.49743106  1
  I  I122  1  0.33328090  0.50243482  0.83460573  1
  I  I123  1  0.33688303  0.83610225  0.16255779  1
  I  I124  1  0.33363343  0.83284581  0.49741213  1
  I  I125  1  0.33760482  0.83347432  0.84078388  1
  I  I126  1  0.66415258  0.16862351  0.16709681  1
  I  I127  1  0.66744829  0.17353606  0.49993451  1
  I  I128  1  0.66875373  0.17120142  0.83239651  1
  I  I129  1  0.66938886  0.50026494  0.16956139  1
  I  I130  1  0.66979738  0.49709986  0.49575044  1
  I  I131  1  0.66435674  0.50119694  0.83471795  1
  I  I132  1  0.66605060  0.83020669  0.16331812  1
  I  I133  1  0.66660502  0.82744371  0.50124752  1
  I  I134  1  0.66337595  0.82534183  0.83570373  1
