# generated using pymatgen
data_Cs27Sn14Pb13I81
_symmetry_space_group_name_H-M   'P 1'
_cell_length_a   18.98201681
_cell_length_b   18.97231734
_cell_length_c   18.97233751
_cell_angle_alpha   90.00133025
_cell_angle_beta   90.00212982
_cell_angle_gamma   90.00044013
_symmetry_Int_Tables_number   1
_chemical_formula_structural   Cs27Sn14Pb13I81
_chemical_formula_sum   'Cs27 Sn14 Pb13 I81'
_cell_volume   6832.56191069
_cell_formula_units_Z   1
loop_
 _symmetry_equiv_pos_site_id
 _symmetry_equiv_pos_as_xyz
  1  'x, y, z'
loop_
 _atom_site_type_symbol
 _atom_site_label
 _atom_site_symmetry_multiplicity
 _atom_site_fract_x
 _atom_site_fract_y
 _atom_site_fract_z
 _atom_site_occupancy
  Cs  Cs0  1  0.00279621  0.00270796  -0.00299511  1
  Cs  Cs1  1  0.00000222  0.00375838  0.33269433  1
  Cs  Cs2  1  0.00424834  -0.00447449  0.67032808  1
  Cs  Cs3  1  0.00022955  0.33271889  0.00169076  1
  Cs  Cs4  1  -0.00975639  0.32889579  0.33503268  1
  Cs  Cs5  1  -0.00312735  0.33531966  0.66406783  1
  Cs  Cs6  1  -0.00059286  0.66545445  -0.00226444  1
  Cs  Cs7  1  0.00146824  0.66539511  0.33513594  1
  Cs  Cs8  1  0.00528961  0.66938379  0.66758682  1
  Cs  Cs9  1  0.33307428  0.00436497  0.00124240  1
  Cs  Cs10  1  0.33240033  -0.00227023  0.33040294  1
  Cs  Cs11  1  0.32941104  0.00440401  0.66786046  1
  Cs  Cs12  1  0.33217196  0.33431382  -0.00130655  1
  Cs  Cs13  1  0.33355607  0.33414181  0.33570065  1
  Cs  Cs14  1  0.33623562  0.33143664  0.66452263  1
  Cs  Cs15  1  0.33695585  0.66364135  0.00359640  1
  Cs  Cs16  1  0.33355609  0.66767276  0.33226749  1
  Cs  Cs17  1  0.33018312  0.66509494  0.66392288  1
  Cs  Cs18  1  0.66431678  -0.00387314  -0.00045776  1
  Cs  Cs19  1  0.66702469  -0.00216784  0.33452158  1
  Cs  Cs20  1  0.66658662  0.00188185  0.66576774  1
  Cs  Cs21  1  0.66815890  0.33595346  -0.00125073  1
  Cs  Cs22  1  0.67545016  0.33110978  0.34133051  1
  Cs  Cs23  1  0.66637366  0.32906696  0.66189593  1
  Cs  Cs24  1  0.66549506  0.66660096  0.00026787  1
  Cs  Cs25  1  0.66638375  0.66888736  0.33186056  1
  Cs  Cs26  1  0.66632868  0.66760484  0.66960245  1
  Sn  Sn27  1  0.49989900  0.83323124  0.16646614  1
  Sn  Sn28  1  0.16697805  0.50051304  0.16623898  1
  Sn  Sn29  1  0.16720978  0.50002032  0.83403469  1
  Sn  Sn30  1  0.16688127  0.16679869  0.49965537  1
  Sn  Sn31  1  0.50031352  0.83315828  0.50032834  1
  Sn  Sn32  1  0.49950154  0.83289827  0.83318085  1
  Sn  Sn33  1  0.50058218  0.16771091  0.16687944  1
  Sn  Sn34  1  0.83303056  0.16726344  0.83388565  1
  Sn  Sn35  1  0.83287770  0.83297776  0.49939432  1
  Sn  Sn36  1  0.49986844  0.50064174  0.83374177  1
  Sn  Sn37  1  0.16648679  0.83267959  0.16622200  1
  Sn  Sn38  1  0.49990918  0.49934332  0.16656597  1
  Sn  Sn39  1  0.83375724  0.83326382  0.16714426  1
  Sn  Sn40  1  0.83293646  0.49918357  0.83346173  1
  Pb  Pb41  1  0.16468875  0.16983747  0.83170120  1
  Pb  Pb42  1  0.16686446  0.83460455  0.49755509  1
  Pb  Pb43  1  0.83163346  0.83287786  0.83346971  1
  Pb  Pb44  1  0.83317377  0.50200772  0.16515119  1
  Pb  Pb45  1  0.16840607  0.16775863  0.16797497  1
  Pb  Pb46  1  0.17004456  0.83122438  0.83615617  1
  Pb  Pb47  1  0.83074624  0.16394308  0.16465153  1
  Pb  Pb48  1  0.83518487  0.16354381  0.50247971  1
  Pb  Pb49  1  0.50145275  0.16724750  0.83516281  1
  Pb  Pb50  1  0.49858426  0.16388147  0.49732479  1
  Pb  Pb51  1  0.83320876  0.50314744  0.50307207  1
  Pb  Pb52  1  0.16667102  0.49782598  0.49885140  1
  Pb  Pb53  1  0.50013581  0.50223969  0.49955937  1
  I  I54  1  0.16864877  -0.00256714  0.16956518  1
  I  I55  1  0.16697890  0.00210372  0.49827998  1
  I  I56  1  0.16537090  -0.00005675  0.83349135  1
  I  I57  1  0.17283731  0.33697446  0.16286740  1
  I  I58  1  0.16739225  0.33040230  0.49912350  1
  I  I59  1  0.17259435  0.33780972  0.84054096  1
  I  I60  1  0.17196276  0.66678631  0.16402725  1
  I  I61  1  0.16609682  0.66673779  0.50199811  1
  I  I62  1  0.16025591  0.66322096  0.83275487  1
  I  I63  1  0.49990255  -0.00223913  0.16644352  1
  I  I64  1  0.50386044  -0.00436914  0.49999368  1
  I  I65  1  0.50381705  -0.00274814  0.83527929  1
  I  I66  1  0.49292066  0.33490928  0.15925774  1
  I  I67  1  0.49828780  0.33310447  0.50009842  1
  I  I68  1  0.49805820  0.33690503  0.83914721  1
  I  I69  1  0.49938656  0.66755183  0.16561835  1
  I  I70  1  0.50230851  0.67059764  0.49556741  1
  I  I71  1  0.50317604  0.66628951  0.83837604  1
  I  I72  1  0.83284379  -0.00430982  0.16765172  1
  I  I73  1  0.82838353  -0.00394954  0.49770529  1
  I  I74  1  0.83056816  0.00134729  0.83325552  1
  I  I75  1  0.83348812  0.33336202  0.16701725  1
  I  I76  1  0.83495850  0.33311590  0.49899770  1
  I  I77  1  0.83139918  0.33468123  0.83467933  1
  I  I78  1  0.82815059  0.67022932  0.16711070  1
  I  I79  1  0.82990364  0.67094356  0.49698412  1
  I  I80  1  0.83408886  0.66402808  0.83358229  1
  I  I81  1  0.16620095  0.16415711  0.00006305  1
  I  I82  1  0.16779712  0.16622046  0.33549331  1
  I  I83  1  0.16716596  0.16499445  0.66412494  1
  I  I84  1  0.16801454  0.50402260  0.00037402  1
  I  I85  1  0.17381530  0.50461014  0.32935190  1
  I  I86  1  0.16726211  0.49862426  0.66963096  1
  I  I87  1  0.16488315  0.83381441  0.00425300  1
  I  I88  1  0.17199948  0.82768543  0.32949761  1
  I  I89  1  0.16604291  0.83320445  0.66688049  1
  I  I90  1  0.49926314  0.16005088  0.00306833  1
  I  I91  1  0.49908077  0.16638513  0.32926608  1
  I  I92  1  0.50003914  0.16587446  0.66658858  1
  I  I93  1  0.49970105  0.50563855  0.00020937  1
  I  I94  1  0.49327117  0.50223644  0.32945135  1
  I  I95  1  0.49910114  0.50514154  0.67015254  1
  I  I96  1  0.50139223  0.83228809  0.00133817  1
  I  I97  1  0.50054708  0.83351048  0.33163186  1
  I  I98  1  0.50651091  0.82838166  0.66702166  1
  I  I99  1  0.83416611  0.16859252  -0.00292125  1
  I  I100  1  0.83359075  0.16755736  0.33331858  1
  I  I101  1  0.83165145  0.16988365  0.67002247  1
  I  I102  1  0.83265050  0.50011761  -0.00312665  1
  I  I103  1  0.83389567  0.49899228  0.33321429  1
  I  I104  1  0.83277268  0.49800730  0.67147913  1
  I  I105  1  0.83108211  0.83291938  0.00253620  1
  I  I106  1  0.82727150  0.83357931  0.33230655  1
  I  I107  1  0.82764486  0.83365063  0.66470522  1
  I  I108  1  -0.00021071  0.16558787  0.16735830  1
  I  I109  1  0.00250534  0.16520173  0.49802298  1
  I  I110  1  -0.00316956  0.16926466  0.83356333  1
  I  I111  1  0.00265923  0.50566029  0.16194009  1
  I  I112  1  -0.00002491  0.50232953  0.50051744  1
  I  I113  1  0.00021336  0.49537423  0.83751996  1
  I  I114  1  0.00011606  0.82833624  0.17178611  1
  I  I115  1  -0.00238776  0.83507709  0.49619113  1
  I  I116  1  0.00025401  0.83285350  0.83278852  1
  I  I117  1  0.33633852  0.16033723  0.16610524  1
  I  I118  1  0.33112095  0.16464988  0.50101727  1
  I  I119  1  0.33335136  0.16582874  0.83267096  1
  I  I120  1  0.33421405  0.50590968  0.15838274  1
  I  I121  1  0.33340379  0.50183478  0.50473493  1
  I  I122  1  0.33416325  0.50578673  0.83810055  1
  I  I123  1  0.33483475  0.83264217  0.16708126  1
  I  I124  1  0.33615941  0.83431406  0.49853353  1
  I  I125  1  0.33810414  0.82952971  0.83216015  1
  I  I126  1  0.66277526  0.16633339  0.16593625  1
  I  I127  1  0.66677539  0.16731672  0.50001560  1
  I  I128  1  0.66915427  0.17124536  0.83389757  1
  I  I129  1  0.66343916  0.50270521  0.16136380  1
  I  I130  1  0.66662950  0.49724299  0.49944851  1
  I  I131  1  0.66550572  0.50177934  0.83832698  1
  I  I132  1  0.66501910  0.83329139  0.16692985  1
  I  I133  1  0.66573442  0.83344107  0.49454513  1
  I  I134  1  0.66362119  0.82827766  0.83838199  1
