# generated using pymatgen
data_Cs27Sn14Pb13I81
_symmetry_space_group_name_H-M   'P 1'
_cell_length_a   18.98720227
_cell_length_b   18.96855043
_cell_length_c   18.96939692
_cell_angle_alpha   90.00218304
_cell_angle_beta   89.99946405
_cell_angle_gamma   90.00078941
_symmetry_Int_Tables_number   1
_chemical_formula_structural   Cs27Sn14Pb13I81
_chemical_formula_sum   'Cs27 Sn14 Pb13 I81'
_cell_volume   6832.01237161
_cell_formula_units_Z   1
loop_
 _symmetry_equiv_pos_site_id
 _symmetry_equiv_pos_as_xyz
  1  'x, y, z'
loop_
 _atom_site_type_symbol
 _atom_site_label
 _atom_site_symmetry_multiplicity
 _atom_site_fract_x
 _atom_site_fract_y
 _atom_site_fract_z
 _atom_site_occupancy
  Cs  Cs0  1  0.00011541  0.00009149  -0.00158836  1
  Cs  Cs1  1  0.00105304  -0.00133107  0.33238206  1
  Cs  Cs2  1  0.00392388  0.00313191  0.67064566  1
  Cs  Cs3  1  -0.00698866  0.33264474  0.00310531  1
  Cs  Cs4  1  -0.00154509  0.33466944  0.33326202  1
  Cs  Cs5  1  -0.00041399  0.33489939  0.66391905  1
  Cs  Cs6  1  0.00108809  0.66798362  -0.00259545  1
  Cs  Cs7  1  0.00154160  0.66559828  0.33461639  1
  Cs  Cs8  1  -0.00077362  0.66565251  0.66732474  1
  Cs  Cs9  1  0.33171488  -0.00347029  0.00257060  1
  Cs  Cs10  1  0.33415731  0.00137067  0.33227166  1
  Cs  Cs11  1  0.33101131  0.01041843  0.66677585  1
  Cs  Cs12  1  0.34140250  0.33722976  0.00199795  1
  Cs  Cs13  1  0.33107545  0.33190618  0.33363896  1
  Cs  Cs14  1  0.33561323  0.32826632  0.66629916  1
  Cs  Cs15  1  0.33539333  0.66781239  0.00031197  1
  Cs  Cs16  1  0.33078340  0.66574160  0.33230112  1
  Cs  Cs17  1  0.33034206  0.66544902  0.66768271  1
  Cs  Cs18  1  0.66770522  0.00006191  0.00161230  1
  Cs  Cs19  1  0.66365350  -0.00399180  0.33409900  1
  Cs  Cs20  1  0.66403560  0.00011076  0.66301340  1
  Cs  Cs21  1  0.66691761  0.33128487  -0.00152623  1
  Cs  Cs22  1  0.67238227  0.33545379  0.33137147  1
  Cs  Cs23  1  0.66589773  0.33383802  0.66970383  1
  Cs  Cs24  1  0.66462548  0.66737287  -0.00133630  1
  Cs  Cs25  1  0.66715731  0.66940937  0.33623177  1
  Cs  Cs26  1  0.66918127  0.66674711  0.66481504  1
  Sn  Sn27  1  0.16611065  0.49970025  0.83288845  1
  Sn  Sn28  1  0.83350222  0.83290628  0.16600622  1
  Sn  Sn29  1  0.83418973  0.50085754  0.83271308  1
  Sn  Sn30  1  0.49948882  0.16613456  0.16691776  1
  Sn  Sn31  1  0.49979161  0.50025625  0.49980948  1
  Sn  Sn32  1  0.16715949  0.16622688  0.16637678  1
  Sn  Sn33  1  0.83339243  0.16697265  0.50015960  1
  Sn  Sn34  1  0.83234903  0.83278625  0.83385350  1
  Sn  Sn35  1  0.16656380  0.83383320  0.16754111  1
  Sn  Sn36  1  0.16703718  0.50068515  0.50097401  1
  Sn  Sn37  1  0.83328409  0.49926026  0.50084559  1
  Sn  Sn38  1  0.49995215  0.83377229  0.16613073  1
  Sn  Sn39  1  0.16686366  0.83314882  0.49982686  1
  Sn  Sn40  1  0.50056927  0.83336643  0.83312801  1
  Pb  Pb41  1  0.50018546  0.50045135  0.16895122  1
  Pb  Pb42  1  0.16655282  0.49998387  0.16627055  1
  Pb  Pb43  1  0.16505857  0.16713643  0.49812970  1
  Pb  Pb44  1  0.50003025  0.16347620  0.83600906  1
  Pb  Pb45  1  0.83319597  0.16390438  0.16853178  1
  Pb  Pb46  1  0.83545940  0.83308013  0.50076760  1
  Pb  Pb47  1  0.16660502  0.17073111  0.83690608  1
  Pb  Pb48  1  0.49704258  0.83194931  0.50035789  1
  Pb  Pb49  1  0.83333623  0.16638509  0.83098822  1
  Pb  Pb50  1  0.50031069  0.50195787  0.83120537  1
  Pb  Pb51  1  0.50235546  0.16924929  0.49739485  1
  Pb  Pb52  1  0.83324255  0.50282173  0.16622388  1
  Pb  Pb53  1  0.16671128  0.83216295  0.83338971  1
  I  I54  1  0.16735518  -0.00202373  0.17285080  1
  I  I55  1  0.16415480  -0.00242029  0.49723796  1
  I  I56  1  0.16636320  0.00001524  0.82985906  1
  I  I57  1  0.17195829  0.33068825  0.16718979  1
  I  I58  1  0.16742680  0.33673851  0.50191230  1
  I  I59  1  0.16018638  0.33857048  0.82601666  1
  I  I60  1  0.16750617  0.66985001  0.16849829  1
  I  I61  1  0.16412227  0.66577925  0.49657166  1
  I  I62  1  0.16491230  0.66411547  0.83312867  1
  I  I63  1  0.49918423  -0.00171815  0.16372668  1
  I  I64  1  0.50103907  -0.00004161  0.50176135  1
  I  I65  1  0.50613956  -0.00483291  0.83330756  1
  I  I66  1  0.49373100  0.33066845  0.16976232  1
  I  I67  1  0.49432291  0.33725654  0.49916836  1
  I  I68  1  0.50026982  0.33352948  0.83475282  1
  I  I69  1  0.49856370  0.67041288  0.16373260  1
  I  I70  1  0.50531207  0.66400797  0.49757833  1
  I  I71  1  0.50093487  0.66978696  0.84124308  1
  I  I72  1  0.83394885  -0.00420770  0.16313346  1
  I  I73  1  0.83544240  0.00154848  0.49800195  1
  I  I74  1  0.82980437  -0.00355098  0.83652342  1
  I  I75  1  0.83342407  0.33325480  0.16527310  1
  I  I76  1  0.83556683  0.33561684  0.50360855  1
  I  I77  1  0.83802061  0.33671856  0.83083851  1
  I  I78  1  0.83378205  0.67107735  0.16854670  1
  I  I79  1  0.83255074  0.66385940  0.50053715  1
  I  I80  1  0.83369458  0.66660314  0.83117457  1
  I  I81  1  0.16867375  0.15833127  0.00469195  1
  I  I82  1  0.16965439  0.16617008  0.33021006  1
  I  I83  1  0.16511053  0.16276289  0.66660221  1
  I  I84  1  0.16101529  0.50102105  -0.00292891  1
  I  I85  1  0.16547176  0.50168833  0.33635779  1
  I  I86  1  0.16498963  0.50760648  0.66514359  1
  I  I87  1  0.16664753  0.83508280  0.00289022  1
  I  I88  1  0.16592155  0.83036544  0.33237605  1
  I  I89  1  0.16520771  0.82893152  0.66435683  1
  I  I90  1  0.49715448  0.16727564  0.00422694  1
  I  I91  1  0.49604459  0.15827077  0.32975795  1
  I  I92  1  0.50086619  0.16544126  0.66639319  1
  I  I93  1  0.49957616  0.49825491  -0.00013554  1
  I  I94  1  0.49956196  0.50259108  0.33700263  1
  I  I95  1  0.50018892  0.50303371  0.66330213  1
  I  I96  1  0.49856997  0.83542971  0.00126921  1
  I  I97  1  0.50273173  0.83553679  0.33035096  1
  I  I98  1  0.50558700  0.82853437  0.66910070  1
  I  I99  1  0.83309995  0.16996994  0.00023227  1
  I  I100  1  0.83421293  0.17342333  0.33615987  1
  I  I101  1  0.83461393  0.16642616  0.66308583  1
  I  I102  1  0.83909326  0.50247220  -0.00341240  1
  I  I103  1  0.83483233  0.49744158  0.33655556  1
  I  I104  1  0.83437366  0.50297640  0.66613648  1
  I  I105  1  0.83486926  0.82826949  0.00001845  1
  I  I106  1  0.83123593  0.83375821  0.33112172  1
  I  I107  1  0.82969285  0.83128925  0.66946139  1
  I  I108  1  0.00230575  0.16266677  0.16851856  1
  I  I109  1  -0.00252398  0.17195899  0.49688914  1
  I  I110  1  -0.00001023  0.16089701  0.83620315  1
  I  I111  1  -0.00003360  0.49939812  0.17107309  1
  I  I112  1  0.00004692  0.50036489  0.50365471  1
  I  I113  1  -0.00091274  0.50730579  0.82507483  1
  I  I114  1  0.00053624  0.83635941  0.16718074  1
  I  I115  1  0.00305161  0.82788750  0.49487854  1
  I  I116  1  -0.00250986  0.83040220  0.83623975  1
  I  I117  1  0.33318263  0.15815740  0.16784107  1
  I  I118  1  0.33334344  0.16743318  0.50023288  1
  I  I119  1  0.33324235  0.16685362  0.82916663  1
  I  I120  1  0.33324264  0.50388779  0.16642107  1
  I  I121  1  0.33193094  0.50629792  0.50241214  1
  I  I122  1  0.33096374  0.50217842  0.82972714  1
  I  I123  1  0.33324970  0.83685299  0.16658631  1
  I  I124  1  0.32937099  0.82682522  0.49557210  1
  I  I125  1  0.33532806  0.83018917  0.83756987  1
  I  I126  1  0.66423350  0.16213682  0.16888009  1
  I  I127  1  0.67003485  0.17079257  0.49781760  1
  I  I128  1  0.66673517  0.17200235  0.83562661  1
  I  I129  1  0.66676505  0.49925540  0.16836369  1
  I  I130  1  0.66796360  0.49614605  0.50260304  1
  I  I131  1  0.66967322  0.50285271  0.82864328  1
  I  I132  1  0.66635482  0.83650816  0.16274072  1
  I  I133  1  0.66672584  0.83209068  0.49687522  1
  I  I134  1  0.66760449  0.82709371  0.84174247  1
