# generated using pymatgen
data_Cs27Sn14Pb13I81
_symmetry_space_group_name_H-M   'P 1'
_cell_length_a   18.97888353
_cell_length_b   18.98026684
_cell_length_c   18.96941487
_cell_angle_alpha   90.00092917
_cell_angle_beta   90.00233111
_cell_angle_gamma   89.99954155
_symmetry_Int_Tables_number   1
_chemical_formula_structural   Cs27Sn14Pb13I81
_chemical_formula_sum   'Cs27 Sn14 Pb13 I81'
_cell_volume   6833.24369107
_cell_formula_units_Z   1
loop_
 _symmetry_equiv_pos_site_id
 _symmetry_equiv_pos_as_xyz
  1  'x, y, z'
loop_
 _atom_site_type_symbol
 _atom_site_label
 _atom_site_symmetry_multiplicity
 _atom_site_fract_x
 _atom_site_fract_y
 _atom_site_fract_z
 _atom_site_occupancy
  Cs  Cs0  1  -0.00070829  -0.00258062  0.00114674  1
  Cs  Cs1  1  0.00029150  -0.00006710  0.33613116  1
  Cs  Cs2  1  0.00143830  -0.00018593  0.66510523  1
  Cs  Cs3  1  -0.00138747  0.33210933  0.00070562  1
  Cs  Cs4  1  0.00063693  0.33494367  0.33251701  1
  Cs  Cs5  1  -0.00134696  0.33204588  0.66595254  1
  Cs  Cs6  1  -0.00208882  0.67211493  -0.00097489  1
  Cs  Cs7  1  0.00177812  0.66626854  0.33753498  1
  Cs  Cs8  1  0.00170730  0.66884251  0.66414717  1
  Cs  Cs9  1  0.33098096  0.00196125  0.00074294  1
  Cs  Cs10  1  0.33747319  0.00063613  0.33279059  1
  Cs  Cs11  1  0.33105585  -0.00027881  0.66553321  1
  Cs  Cs12  1  0.33211483  0.33337970  0.00234600  1
  Cs  Cs13  1  0.33774758  0.33981834  0.32167892  1
  Cs  Cs14  1  0.33326079  0.33213262  0.66851931  1
  Cs  Cs15  1  0.33349995  0.66471392  -0.00224883  1
  Cs  Cs16  1  0.33762658  0.66104327  0.33129564  1
  Cs  Cs17  1  0.33267026  0.66756978  0.66785890  1
  Cs  Cs18  1  0.67017861  -0.00280737  0.00185766  1
  Cs  Cs19  1  0.66083490  -0.00297511  0.33342018  1
  Cs  Cs20  1  0.66668317  0.00267843  0.66545256  1
  Cs  Cs21  1  0.66983568  0.33345164  -0.00384252  1
  Cs  Cs22  1  0.66428909  0.33430896  0.33486503  1
  Cs  Cs23  1  0.66812571  0.33252095  0.66862806  1
  Cs  Cs24  1  0.66921842  0.66872667  0.00165364  1
  Cs  Cs25  1  0.65853120  0.66873076  0.33319131  1
  Cs  Cs26  1  0.66520634  0.66366530  0.66578921  1
  Sn  Sn27  1  0.83397060  0.49957383  0.83401069  1
  Sn  Sn28  1  0.16650006  0.16669111  0.49989324  1
  Sn  Sn29  1  0.83350182  0.16711369  0.16702137  1
  Sn  Sn30  1  0.16628419  0.83413729  0.49853522  1
  Sn  Sn31  1  0.16580515  0.49901970  0.83311231  1
  Sn  Sn32  1  0.50028317  0.49994276  0.83336678  1
  Sn  Sn33  1  0.83415641  0.16574270  0.49972305  1
  Sn  Sn34  1  0.50032391  0.83379734  0.83321255  1
  Sn  Sn35  1  0.83380635  0.16693148  0.83337040  1
  Sn  Sn36  1  0.16654205  0.83342160  0.16815991  1
  Sn  Sn37  1  0.83373090  0.49973542  0.16616466  1
  Sn  Sn38  1  0.83361040  0.83400816  0.50015646  1
  Sn  Sn39  1  0.49993193  0.16622687  0.83322562  1
  Sn  Sn40  1  0.16621305  0.16740092  0.83273840  1
  Pb  Pb41  1  0.49975694  0.49952755  0.50235514  1
  Pb  Pb42  1  0.16677139  0.49905411  0.50183208  1
  Pb  Pb43  1  0.16467015  0.16539174  0.16710946  1
  Pb  Pb44  1  0.83473440  0.83315413  0.16958834  1
  Pb  Pb45  1  0.50320256  0.16664349  0.16373326  1
  Pb  Pb46  1  0.83330793  0.49954058  0.49997873  1
  Pb  Pb47  1  0.16818971  0.83384431  0.83265548  1
  Pb  Pb48  1  0.16399304  0.50230309  0.16380238  1
  Pb  Pb49  1  0.49934672  0.16697262  0.50163254  1
  Pb  Pb50  1  0.49691278  0.83344560  0.16394519  1
  Pb  Pb51  1  0.49925530  0.83348428  0.50207456  1
  Pb  Pb52  1  0.83152015  0.83337462  0.83107732  1
  Pb  Pb53  1  0.50317419  0.49989413  0.16364206  1
  I  I54  1  0.16301264  -0.00242281  0.16333911  1
  I  I55  1  0.16134977  0.00058170  0.50452186  1
  I  I56  1  0.16636337  0.00311900  0.83273292  1
  I  I57  1  0.16776032  0.33344259  0.16869193  1
  I  I58  1  0.15975676  0.32940735  0.50549313  1
  I  I59  1  0.16988883  0.33212607  0.82835333  1
  I  I60  1  0.16387609  0.66994514  0.17060392  1
  I  I61  1  0.16153944  0.66958442  0.49949936  1
  I  I62  1  0.16738216  0.66437941  0.83404215  1
  I  I63  1  0.50336280  0.00001339  0.16197111  1
  I  I64  1  0.50148826  0.00017259  0.50528620  1
  I  I65  1  0.49972124  0.00119966  0.83245816  1
  I  I66  1  0.49523330  0.33327430  0.16598634  1
  I  I67  1  0.50194309  0.33292569  0.50360719  1
  I  I68  1  0.50110482  0.33307827  0.83233222  1
  I  I69  1  0.50295772  0.66668558  0.16316773  1
  I  I70  1  0.50169404  0.66688383  0.50463495  1
  I  I71  1  0.49909379  0.66576931  0.83272902  1
  I  I72  1  0.83498083  0.00281489  0.16145604  1
  I  I73  1  0.83754133  0.00148603  0.50205999  1
  I  I74  1  0.83359306  0.00337822  0.83584497  1
  I  I75  1  0.83460102  0.33252952  0.16548048  1
  I  I76  1  0.83758472  0.32967904  0.50172678  1
  I  I77  1  0.82963662  0.33229751  0.83186154  1
  I  I78  1  0.83510608  0.66421230  0.15981202  1
  I  I79  1  0.83808178  0.66923840  0.50202184  1
  I  I80  1  0.83293645  0.66379949  0.83675089  1
  I  I81  1  0.16664631  0.16836238  -0.00328946  1
  I  I82  1  0.15949159  0.16225841  0.33650591  1
  I  I83  1  0.16231782  0.16412970  0.66788944  1
  I  I84  1  0.16982861  0.49526197  -0.00459485  1
  I  I85  1  0.16446218  0.49844664  0.33300660  1
  I  I86  1  0.16398475  0.50158592  0.67085752  1
  I  I87  1  0.16862716  0.83280088  0.00122351  1
  I  I88  1  0.16055383  0.83961032  0.33485933  1
  I  I89  1  0.16415935  0.83421734  0.66417155  1
  I  I90  1  0.49794976  0.16762597  -0.00527566  1
  I  I91  1  0.50006778  0.16527705  0.33311610  1
  I  I92  1  0.50496202  0.16755446  0.67091502  1
  I  I93  1  0.49713317  0.49921975  -0.00489064  1
  I  I94  1  0.50119136  0.50137703  0.33257828  1
  I  I95  1  0.50431902  0.49990274  0.67186965  1
  I  I96  1  0.49971086  0.83316521  -0.00433056  1
  I  I97  1  0.50261570  0.83301958  0.33337433  1
  I  I98  1  0.49792898  0.83272704  0.67031482  1
  I  I99  1  0.83256502  0.17159748  -0.00151240  1
  I  I100  1  0.84017827  0.16723624  0.33411068  1
  I  I101  1  0.83305274  0.16686499  0.66775551  1
  I  I102  1  0.83272896  0.49235116  -0.00195953  1
  I  I103  1  0.83519047  0.49622681  0.33064100  1
  I  I104  1  0.83195233  0.49686817  0.67022563  1
  I  I105  1  0.83390239  0.83537036  -0.00005189  1
  I  I106  1  0.83541430  0.83746065  0.33730252  1
  I  I107  1  0.83994027  0.83723136  0.66348278  1
  I  I108  1  -0.00346919  0.16937467  0.16060546  1
  I  I109  1  -0.00066471  0.16194636  0.50688943  1
  I  I110  1  -0.00051472  0.17324173  0.83240293  1
  I  I111  1  -0.00358415  0.49563813  0.15945796  1
  I  I112  1  -0.00012241  0.50192645  0.50428920  1
  I  I113  1  -0.00072374  0.49314222  0.83651892  1
  I  I114  1  0.00241777  0.83352927  0.16477105  1
  I  I115  1  0.00044960  0.83734718  0.49881953  1
  I  I116  1  0.00000224  0.83199339  0.83484157  1
  I  I117  1  0.33320629  0.16425101  0.16590006  1
  I  I118  1  0.32954610  0.16008605  0.50845754  1
  I  I119  1  0.33257464  0.16852632  0.82810683  1
  I  I120  1  0.33319742  0.50199226  0.16568141  1
  I  I121  1  0.33295516  0.50173084  0.50331991  1
  I  I122  1  0.33318335  0.49802839  0.83063019  1
  I  I123  1  0.32918749  0.83458666  0.17294948  1
  I  I124  1  0.32970730  0.83872130  0.49908337  1
  I  I125  1  0.33605871  0.83279228  0.83201719  1
  I  I126  1  0.67164888  0.16932788  0.16714399  1
  I  I127  1  0.67013981  0.16300054  0.50163685  1
  I  I128  1  0.66777950  0.16935397  0.83303676  1
  I  I129  1  0.67103672  0.49680059  0.16072842  1
  I  I130  1  0.66711197  0.50097757  0.50267939  1
  I  I131  1  0.66737485  0.49710040  0.83637168  1
  I  I132  1  0.66682534  0.83287679  0.16710108  1
  I  I133  1  0.66933903  0.83766667  0.50252398  1
  I  I134  1  0.66372246  0.83354981  0.83136088  1
