# generated using pymatgen
data_Cs27Sn13Pb14I81
_symmetry_space_group_name_H-M   'P 1'
_cell_length_a   18.97830381
_cell_length_b   18.98034485
_cell_length_c   18.97371709
_cell_angle_alpha   89.99939596
_cell_angle_beta   89.99921634
_cell_angle_gamma   90.00048258
_symmetry_Int_Tables_number   1
_chemical_formula_structural   Cs27Sn13Pb14I81
_chemical_formula_sum   'Cs27 Sn13 Pb14 I81'
_cell_volume   6834.61277445
_cell_formula_units_Z   1
loop_
 _symmetry_equiv_pos_site_id
 _symmetry_equiv_pos_as_xyz
  1  'x, y, z'
loop_
 _atom_site_type_symbol
 _atom_site_label
 _atom_site_symmetry_multiplicity
 _atom_site_fract_x
 _atom_site_fract_y
 _atom_site_fract_z
 _atom_site_occupancy
  Cs  Cs0  1  0.00153451  -0.00318328  0.00029605  1
  Cs  Cs1  1  -0.00067679  0.00093865  0.33480287  1
  Cs  Cs2  1  0.00238044  0.00135760  0.66281792  1
  Cs  Cs3  1  0.00060164  0.33403298  -0.00188549  1
  Cs  Cs4  1  -0.00173785  0.33214400  0.33422439  1
  Cs  Cs5  1  -0.00032437  0.33430825  0.66677120  1
  Cs  Cs6  1  0.00510819  0.67193108  -0.00484151  1
  Cs  Cs7  1  0.00091978  0.66692580  0.33546831  1
  Cs  Cs8  1  -0.00176416  0.66340934  0.66653725  1
  Cs  Cs9  1  0.33168628  -0.00282325  -0.00366626  1
  Cs  Cs10  1  0.33334126  0.00143671  0.33565434  1
  Cs  Cs11  1  0.33419387  -0.00174618  0.66741630  1
  Cs  Cs12  1  0.33282881  0.33453762  -0.00043824  1
  Cs  Cs13  1  0.33534281  0.33487377  0.33238863  1
  Cs  Cs14  1  0.33516993  0.33250662  0.66771721  1
  Cs  Cs15  1  0.32794466  0.67135752  0.00868990  1
  Cs  Cs16  1  0.33860012  0.66314859  0.32564308  1
  Cs  Cs17  1  0.33715040  0.67164611  0.66630106  1
  Cs  Cs18  1  0.66710649  -0.00121680  0.00067739  1
  Cs  Cs19  1  0.66766993  0.00157070  0.33286138  1
  Cs  Cs20  1  0.66353750  0.00068264  0.66659158  1
  Cs  Cs21  1  0.66653469  0.33215805  -0.00109827  1
  Cs  Cs22  1  0.66781887  0.33276607  0.33259288  1
  Cs  Cs23  1  0.66605026  0.33307582  0.66811660  1
  Cs  Cs24  1  0.66776265  0.67638206  -0.00285976  1
  Cs  Cs25  1  0.66156263  0.66505947  0.33079877  1
  Cs  Cs26  1  0.66584975  0.66777323  0.67060630  1
  Sn  Sn27  1  0.83362834  0.16755569  0.16634866  1
  Sn  Sn28  1  0.83358332  0.49965268  0.16656848  1
  Sn  Sn29  1  0.83392886  0.16687601  0.50023071  1
  Sn  Sn30  1  0.83357949  0.83315988  0.49970837  1
  Sn  Sn31  1  0.83369574  0.49994893  0.49917030  1
  Sn  Sn32  1  0.49991053  0.16710841  0.16569145  1
  Sn  Sn33  1  0.16651541  0.49985772  0.50005169  1
  Sn  Sn34  1  0.83284245  0.16690515  0.83334794  1
  Sn  Sn35  1  0.16643988  0.16710459  0.16742919  1
  Sn  Sn36  1  0.50086144  0.16777303  0.83436331  1
  Sn  Sn37  1  0.16602088  0.16719154  0.49919240  1
  Sn  Sn38  1  0.16600843  0.83293095  0.49957464  1
  Sn  Sn39  1  0.49970134  0.49949923  0.83398971  1
  Pb  Pb40  1  0.16940089  0.49992710  0.83099100  1
  Pb  Pb41  1  0.16402125  0.49773563  0.16867279  1
  Pb  Pb42  1  0.49994074  0.83372113  0.83350034  1
  Pb  Pb43  1  0.83356486  0.83652314  0.83043240  1
  Pb  Pb44  1  0.50284762  0.49796095  0.16398126  1
  Pb  Pb45  1  0.50012454  0.83648393  0.16683505  1
  Pb  Pb46  1  0.16634808  0.83596419  0.16964161  1
  Pb  Pb47  1  0.83347496  0.83315415  0.16906660  1
  Pb  Pb48  1  0.50011203  0.83320434  0.49964781  1
  Pb  Pb49  1  0.16643678  0.83319118  0.83052171  1
  Pb  Pb50  1  0.50046635  0.49985410  0.50168989  1
  Pb  Pb51  1  0.83211238  0.49835075  0.83365556  1
  Pb  Pb52  1  0.49996466  0.16678106  0.50005063  1
  Pb  Pb53  1  0.16666763  0.16679471  0.83319304  1
  I  I54  1  0.16389317  0.00479362  0.17186856  1
  I  I55  1  0.16044085  0.00121741  0.49656194  1
  I  I56  1  0.16885399  0.00056860  0.83092321  1
  I  I57  1  0.16825514  0.32927611  0.17310295  1
  I  I58  1  0.16036096  0.33240324  0.49708242  1
  I  I59  1  0.16537504  0.33298304  0.82911504  1
  I  I60  1  0.16640597  0.66642184  0.16771336  1
  I  I61  1  0.15860025  0.66639277  0.50348400  1
  I  I62  1  0.16828903  0.66649305  0.83185547  1
  I  I63  1  0.50368071  0.00548952  0.16145420  1
  I  I64  1  0.50024492  0.00042885  0.50191524  1
  I  I65  1  0.50400359  0.00390127  0.83645371  1
  I  I66  1  0.49887404  0.32941376  0.16594622  1
  I  I67  1  0.49933906  0.33303058  0.49966312  1
  I  I68  1  0.50438915  0.33121564  0.83499329  1
  I  I69  1  0.50131258  0.66614408  0.16585786  1
  I  I70  1  0.50038998  0.66647600  0.50371074  1
  I  I71  1  0.50140401  0.66390075  0.82829278  1
  I  I72  1  0.83252519  0.00409145  0.16754708  1
  I  I73  1  0.83853058  0.00165249  0.50044408  1
  I  I74  1  0.82693640  0.00524329  0.83459728  1
  I  I75  1  0.83292882  0.33115542  0.17265934  1
  I  I76  1  0.83855502  0.33234339  0.49951865  1
  I  I77  1  0.83117676  0.32966653  0.82835852  1
  I  I78  1  0.83178085  0.66339333  0.17262879  1
  I  I79  1  0.83974802  0.66578944  0.49602482  1
  I  I80  1  0.83003968  0.66662797  0.83280185  1
  I  I81  1  0.16390871  0.16746661  0.00307955  1
  I  I82  1  0.16375419  0.16597561  0.33450583  1
  I  I83  1  0.16334149  0.16591088  0.66295991  1
  I  I84  1  0.16564617  0.49725956  0.00039186  1
  I  I85  1  0.16566708  0.50109647  0.33741461  1
  I  I86  1  0.15899389  0.49588226  0.66188411  1
  I  I87  1  0.16826836  0.83506988  0.00052557  1
  I  I88  1  0.16082963  0.83319955  0.33781042  1
  I  I89  1  0.16298639  0.83846607  0.66163175  1
  I  I90  1  0.50407624  0.17058283  0.00011378  1
  I  I91  1  0.50244375  0.16588841  0.33054815  1
  I  I92  1  0.50363069  0.16921874  0.66942822  1
  I  I93  1  0.50220578  0.49405475  -0.00344325  1
  I  I94  1  0.49859618  0.49904694  0.33291106  1
  I  I95  1  0.50185844  0.49163048  0.66935863  1
  I  I96  1  0.50081003  0.83210974  0.00000757  1
  I  I97  1  0.50040053  0.83499282  0.33337169  1
  I  I98  1  0.49942705  0.83686797  0.66661570  1
  I  I99  1  0.83250232  0.17226955  0.00097550  1
  I  I100  1  0.83335800  0.16658373  0.33381008  1
  I  I101  1  0.83311542  0.16660922  0.66533227  1
  I  I102  1  0.83034497  0.49155909  0.00279798  1
  I  I103  1  0.83627404  0.49406358  0.33476803  1
  I  I104  1  0.83586106  0.49858500  0.66329853  1
  I  I105  1  0.83137412  0.83339575  0.00001899  1
  I  I106  1  0.83784949  0.83936095  0.33746947  1
  I  I107  1  0.83742335  0.83246295  0.66197258  1
  I  I108  1  -0.00102124  0.16967296  0.16870150  1
  I  I109  1  -0.00091543  0.16611808  0.49803686  1
  I  I110  1  -0.00309230  0.16666822  0.83385935  1
  I  I111  1  -0.00400184  0.49219555  0.16878117  1
  I  I112  1  -0.00105580  0.49889317  0.49754182  1
  I  I113  1  -0.00015150  0.49793316  0.83353191  1
  I  I114  1  -0.00013030  0.83685420  0.16487092  1
  I  I115  1  -0.00045107  0.83550761  0.50000036  1
  I  I116  1  -0.00032177  0.83512709  0.83551360  1
  I  I117  1  0.33314474  0.16555927  0.16801087  1
  I  I118  1  0.32994225  0.16590011  0.49741446  1
  I  I119  1  0.33633874  0.16971597  0.83544657  1
  I  I120  1  0.33338728  0.49802687  0.16832749  1
  I  I121  1  0.33022946  0.49844914  0.50265454  1
  I  I122  1  0.33722143  0.48985886  0.83048562  1
  I  I123  1  0.33313129  0.83417985  0.16988399  1
  I  I124  1  0.32971741  0.83626175  0.50138725  1
  I  I125  1  0.33339914  0.83729862  0.82861412  1
  I  I126  1  0.66788652  0.16982550  0.16723607  1
  I  I127  1  0.67021499  0.16680538  0.49819206  1
  I  I128  1  0.66720952  0.17012741  0.83450354  1
  I  I129  1  0.67058450  0.49205698  0.17604326  1
  I  I130  1  0.67055212  0.49806463  0.49749566  1
  I  I131  1  0.66425025  0.49499814  0.82980668  1
  I  I132  1  0.66703240  0.83568522  0.17011173  1
  I  I133  1  0.67036298  0.83543620  0.50043326  1
  I  I134  1  0.66686393  0.83239393  0.82925189  1
