# generated using pymatgen
data_Cs27Sn14Pb13I81
_symmetry_space_group_name_H-M   'P 1'
_cell_length_a   18.98364076
_cell_length_b   18.97202519
_cell_length_c   18.97402710
_cell_angle_alpha   90.00198582
_cell_angle_beta   90.00039983
_cell_angle_gamma   89.99823043
_symmetry_Int_Tables_number   1
_chemical_formula_structural   Cs27Sn14Pb13I81
_chemical_formula_sum   'Cs27 Sn14 Pb13 I81'
_cell_volume   6833.64974347
_cell_formula_units_Z   1
loop_
 _symmetry_equiv_pos_site_id
 _symmetry_equiv_pos_as_xyz
  1  'x, y, z'
loop_
 _atom_site_type_symbol
 _atom_site_label
 _atom_site_symmetry_multiplicity
 _atom_site_fract_x
 _atom_site_fract_y
 _atom_site_fract_z
 _atom_site_occupancy
  Cs  Cs0  1  0.00230980  -0.00256944  -0.00311241  1
  Cs  Cs1  1  -0.00919798  -0.00045388  0.33394724  1
  Cs  Cs2  1  -0.00059202  0.00131888  0.66711596  1
  Cs  Cs3  1  0.00013969  0.33451978  0.00036169  1
  Cs  Cs4  1  0.00052036  0.33436329  0.33144871  1
  Cs  Cs5  1  0.00204094  0.33384484  0.66703226  1
  Cs  Cs6  1  0.00088243  0.66608978  -0.00065510  1
  Cs  Cs7  1  0.00033094  0.66591370  0.33331662  1
  Cs  Cs8  1  0.00038131  0.66633143  0.66722431  1
  Cs  Cs9  1  0.33497200  0.00049514  0.00391919  1
  Cs  Cs10  1  0.33704284  0.00022142  0.32964936  1
  Cs  Cs11  1  0.33182418  0.00313883  0.66669448  1
  Cs  Cs12  1  0.33338021  0.33285705  -0.00191695  1
  Cs  Cs13  1  0.33158257  0.33535389  0.33496779  1
  Cs  Cs14  1  0.33383887  0.32872213  0.66739886  1
  Cs  Cs15  1  0.33254276  0.66750840  0.00030311  1
  Cs  Cs16  1  0.33262449  0.66526526  0.33548961  1
  Cs  Cs17  1  0.33425879  0.66632610  0.66444980  1
  Cs  Cs18  1  0.66403002  0.00161258  0.00682438  1
  Cs  Cs19  1  0.67298410  0.00927372  0.32681888  1
  Cs  Cs20  1  0.66937318  -0.00320378  0.66351164  1
  Cs  Cs21  1  0.66573363  0.33167853  0.00040413  1
  Cs  Cs22  1  0.66782962  0.32854381  0.33000358  1
  Cs  Cs23  1  0.66263945  0.33447697  0.66852899  1
  Cs  Cs24  1  0.66724747  0.66559901  -0.00172838  1
  Cs  Cs25  1  0.66722030  0.66642237  0.33510932  1
  Cs  Cs26  1  0.66505954  0.66718231  0.66690065  1
  Sn  Sn27  1  0.49918690  0.50064942  0.16749023  1
  Sn  Sn28  1  0.83327446  0.83324290  0.83316675  1
  Sn  Sn29  1  0.49941417  0.83300007  0.50044135  1
  Sn  Sn30  1  0.83328379  0.16693990  0.83298130  1
  Sn  Sn31  1  0.16765009  0.49931085  0.16654966  1
  Sn  Sn32  1  0.16734027  0.83243181  0.83217823  1
  Sn  Sn33  1  0.49993834  0.50050411  0.49917092  1
  Sn  Sn34  1  0.16687059  0.50053224  0.50046152  1
  Sn  Sn35  1  0.83395098  0.49986881  0.83234743  1
  Sn  Sn36  1  0.16644977  0.16711845  0.16684789  1
  Sn  Sn37  1  0.49950240  0.83306746  0.83250873  1
  Sn  Sn38  1  0.16636004  0.50059660  0.83300747  1
  Sn  Sn39  1  0.83325864  0.50001439  0.50093651  1
  Sn  Sn40  1  0.16741817  0.83285063  0.50073966  1
  Pb  Pb41  1  0.49963545  0.50138877  0.83299040  1
  Pb  Pb42  1  0.49741491  0.16995564  0.16667575  1
  Pb  Pb43  1  0.16662134  0.16588361  0.49774840  1
  Pb  Pb44  1  0.49992719  0.83082986  0.16785877  1
  Pb  Pb45  1  0.83328555  0.83135035  0.50168028  1
  Pb  Pb46  1  0.16665523  0.83277011  0.16745567  1
  Pb  Pb47  1  0.16535802  0.16640172  0.83483247  1
  Pb  Pb48  1  0.83345210  0.50021804  0.16648961  1
  Pb  Pb49  1  0.49990780  0.16604233  0.50013054  1
  Pb  Pb50  1  0.83326445  0.83296496  0.16386139  1
  Pb  Pb51  1  0.83351651  0.17003283  0.50261131  1
  Pb  Pb52  1  0.50268259  0.16278230  0.83307054  1
  Pb  Pb53  1  0.83626402  0.16702846  0.16393085  1
  I  I54  1  0.16515460  0.00203936  0.16404116  1
  I  I55  1  0.17154793  -0.00394019  0.50469916  1
  I  I56  1  0.16500574  -0.00352979  0.83095978  1
  I  I57  1  0.16986478  0.33617734  0.16589108  1
  I  I58  1  0.16720911  0.33716164  0.50294151  1
  I  I59  1  0.16214326  0.33679170  0.83140623  1
  I  I60  1  0.17005517  0.66304164  0.16573093  1
  I  I61  1  0.16712061  0.66520683  0.49930130  1
  I  I62  1  0.16169830  0.66604418  0.83535297  1
  I  I63  1  0.49904843  0.00002632  0.16562912  1
  I  I64  1  0.49375026  -0.00421587  0.50651282  1
  I  I65  1  0.49742033  -0.00557505  0.82753390  1
  I  I66  1  0.49919680  0.33805288  0.17202090  1
  I  I67  1  0.49915524  0.33734568  0.49617787  1
  I  I68  1  0.50056148  0.33346960  0.83381765  1
  I  I69  1  0.49181683  0.66296713  0.16741395  1
  I  I70  1  0.49861875  0.66562952  0.50060951  1
  I  I71  1  0.50414294  0.66944153  0.83277122  1
  I  I72  1  0.83514476  0.00025661  0.16615189  1
  I  I73  1  0.83384331  -0.00023878  0.50123128  1
  I  I74  1  0.83457242  -0.00120405  0.83498925  1
  I  I75  1  0.83106757  0.33385503  0.16383588  1
  I  I76  1  0.83442081  0.33855708  0.50527508  1
  I  I77  1  0.83952386  0.33511158  0.82997350  1
  I  I78  1  0.83644173  0.66603682  0.16334283  1
  I  I79  1  0.83382711  0.66302426  0.50593709  1
  I  I80  1  0.83480516  0.66612034  0.82990513  1
  I  I81  1  0.16477310  0.17243594  0.00257754  1
  I  I82  1  0.16757351  0.17341399  0.33003775  1
  I  I83  1  0.16519240  0.16926465  0.66675075  1
  I  I84  1  0.16586114  0.50028359  -0.00081582  1
  I  I85  1  0.16674852  0.50000258  0.33421237  1
  I  I86  1  0.16506577  0.50475215  0.66672218  1
  I  I87  1  0.16539625  0.83009460  -0.00321510  1
  I  I88  1  0.17281255  0.82899410  0.33701332  1
  I  I89  1  0.16656541  0.82539712  0.66753968  1
  I  I90  1  0.50077468  0.16709872  -0.00011139  1
  I  I91  1  0.50099636  0.16164255  0.33319789  1
  I  I92  1  0.49864263  0.17366880  0.66684230  1
  I  I93  1  0.49680189  0.50147375  0.00174798  1
  I  I94  1  0.49639846  0.50565776  0.33467526  1
  I  I95  1  0.49887333  0.50239753  0.66377924  1
  I  I96  1  0.50028371  0.83189420  -0.00287587  1
  I  I97  1  0.49186394  0.82937016  0.33732648  1
  I  I98  1  0.49997260  0.82596714  0.66664735  1
  I  I99  1  0.83379281  0.16965383  -0.00395172  1
  I  I100  1  0.83310493  0.16691309  0.33325933  1
  I  I101  1  0.83611762  0.16341477  0.67052004  1
  I  I102  1  0.83652695  0.50094588  -0.00371436  1
  I  I103  1  0.83610290  0.50123366  0.33641797  1
  I  I104  1  0.83662364  0.50053685  0.66774069  1
  I  I105  1  0.83491825  0.82885512  -0.00568459  1
  I  I106  1  0.83439538  0.83174354  0.33396525  1
  I  I107  1  0.83358630  0.83438055  0.67036741  1
  I  I108  1  0.00355440  0.17564533  0.16693015  1
  I  I109  1  0.00007119  0.16596200  0.49895964  1
  I  I110  1  -0.00260920  0.16327265  0.83490650  1
  I  I111  1  0.00337608  0.49665978  0.16814579  1
  I  I112  1  0.00117482  0.50340505  0.50046547  1
  I  I113  1  0.00054458  0.50391482  0.83156661  1
  I  I114  1  0.00038575  0.83112036  0.16697512  1
  I  I115  1  0.00293298  0.82884905  0.50334707  1
  I  I116  1  0.00059748  0.83251554  0.83065137  1
  I  I117  1  0.32984049  0.16811368  0.16419918  1
  I  I118  1  0.33313325  0.17154345  0.50103951  1
  I  I119  1  0.33330238  0.16750891  0.83512913  1
  I  I120  1  0.33201289  0.49670976  0.16903354  1
  I  I121  1  0.33263805  0.50407140  0.49860148  1
  I  I122  1  0.33020403  0.50436453  0.83275577  1
  I  I123  1  0.33315673  0.83605598  0.15953415  1
  I  I124  1  0.33286059  0.82377639  0.50908324  1
  I  I125  1  0.33223166  0.82675112  0.83035005  1
  I  I126  1  0.66676588  0.16686215  0.16579167  1
  I  I127  1  0.66681909  0.16640364  0.50009832  1
  I  I128  1  0.67071043  0.17142063  0.83347393  1
  I  I129  1  0.66389911  0.50247593  0.16906534  1
  I  I130  1  0.66618852  0.50444676  0.50085140  1
  I  I131  1  0.66925122  0.50122633  0.83111950  1
  I  I132  1  0.66639301  0.83084941  0.16569419  1
  I  I133  1  0.66397433  0.82651563  0.50624443  1
  I  I134  1  0.66678466  0.83181108  0.82939121  1
