# generated using pymatgen
data_Cs27Sn13Pb14I81
_symmetry_space_group_name_H-M   'P 1'
_cell_length_a   19.00487278
_cell_length_b   18.98598090
_cell_length_c   18.98493581
_cell_angle_alpha   89.99979284
_cell_angle_beta   89.99995650
_cell_angle_gamma   90.00106420
_symmetry_Int_Tables_number   1
_chemical_formula_structural   Cs27Sn13Pb14I81
_chemical_formula_sum   'Cs27 Sn13 Pb14 I81'
_cell_volume   6850.26132535
_cell_formula_units_Z   1
loop_
 _symmetry_equiv_pos_site_id
 _symmetry_equiv_pos_as_xyz
  1  'x, y, z'
loop_
 _atom_site_type_symbol
 _atom_site_label
 _atom_site_symmetry_multiplicity
 _atom_site_fract_x
 _atom_site_fract_y
 _atom_site_fract_z
 _atom_site_occupancy
  Cs  Cs0  1  -0.00125966  0.00165539  0.01058971  1
  Cs  Cs1  1  0.00080164  -0.00054458  0.32891766  1
  Cs  Cs2  1  0.00108968  -0.00123782  0.66525292  1
  Cs  Cs3  1  -0.00230437  0.33072600  -0.00173053  1
  Cs  Cs4  1  0.00183058  0.33605085  0.33408216  1
  Cs  Cs5  1  -0.00130005  0.33258127  0.66698440  1
  Cs  Cs6  1  0.00367506  0.66770281  -0.00210324  1
  Cs  Cs7  1  -0.00030804  0.66366847  0.33265503  1
  Cs  Cs8  1  -0.00075419  0.66897945  0.67087270  1
  Cs  Cs9  1  0.33338187  0.00179545  0.01158389  1
  Cs  Cs10  1  0.33240443  -0.00008666  0.33068961  1
  Cs  Cs11  1  0.33217684  -0.00111286  0.66451750  1
  Cs  Cs12  1  0.33597821  0.33320427  -0.00264160  1
  Cs  Cs13  1  0.33196299  0.33527868  0.33411267  1
  Cs  Cs14  1  0.33305729  0.33107202  0.66627748  1
  Cs  Cs15  1  0.33103520  0.66568017  -0.00384522  1
  Cs  Cs16  1  0.33499843  0.66357576  0.33376561  1
  Cs  Cs17  1  0.33231835  0.66937006  0.66933817  1
  Cs  Cs18  1  0.66792830  0.00450482  0.00432675  1
  Cs  Cs19  1  0.66663441  -0.00184689  0.33185500  1
  Cs  Cs20  1  0.66725817  -0.00233615  0.66613976  1
  Cs  Cs21  1  0.66666970  0.32541556  -0.01010982  1
  Cs  Cs22  1  0.66612762  0.33827901  0.33614952  1
  Cs  Cs23  1  0.66908867  0.33250307  0.67070932  1
  Cs  Cs24  1  0.66559157  0.66897961  0.00050696  1
  Cs  Cs25  1  0.66632210  0.66539972  0.33338482  1
  Cs  Cs26  1  0.66778330  0.66979187  0.66623369  1
  Sn  Sn27  1  0.50064395  0.83330700  0.50053108  1
  Sn  Sn28  1  0.83261983  0.83382703  0.83290301  1
  Sn  Sn29  1  0.50036914  0.49978934  0.16678723  1
  Sn  Sn30  1  0.16693579  0.49969402  0.16728946  1
  Sn  Sn31  1  0.83336931  0.16590583  0.49986898  1
  Sn  Sn32  1  0.83276885  0.49967242  0.16609399  1
  Sn  Sn33  1  0.50053002  0.83396224  0.83281490  1
  Sn  Sn34  1  0.83281822  0.83396592  0.50042151  1
  Sn  Sn35  1  0.50014553  0.16671889  0.50009209  1
  Sn  Sn36  1  0.49928853  0.49999065  0.50013552  1
  Sn  Sn37  1  0.16737334  0.49958817  0.50002290  1
  Sn  Sn38  1  0.16658654  0.16739033  0.50078801  1
  Sn  Sn39  1  0.16682247  0.16583184  0.83259782  1
  Pb  Pb40  1  0.16672747  0.16942724  0.16748889  1
  Pb  Pb41  1  0.50003037  0.83103367  0.16714333  1
  Pb  Pb42  1  0.16680724  0.83666734  0.83331419  1
  Pb  Pb43  1  0.16682377  0.83007127  0.16690202  1
  Pb  Pb44  1  0.50008204  0.50198944  0.83240228  1
  Pb  Pb45  1  0.83535489  0.16374240  0.83086055  1
  Pb  Pb46  1  0.49803326  0.16345457  0.83083200  1
  Pb  Pb47  1  0.16668367  0.83310598  0.49983306  1
  Pb  Pb48  1  0.16672351  0.49775478  0.83255743  1
  Pb  Pb49  1  0.83314586  0.83124493  0.16713782  1
  Pb  Pb50  1  0.83299475  0.16958288  0.16978674  1
  Pb  Pb51  1  0.83324693  0.50250786  0.83629815  1
  Pb  Pb52  1  0.50024964  0.16988179  0.16952034  1
  Pb  Pb53  1  0.83336332  0.50040742  0.49940327  1
  I  I54  1  0.16589864  0.00060259  0.16650500  1
  I  I55  1  0.16889518  0.00309640  0.50509823  1
  I  I56  1  0.16692698  0.00389745  0.82191978  1
  I  I57  1  0.16715076  0.33732432  0.17017397  1
  I  I58  1  0.16941672  0.33338711  0.49926199  1
  I  I59  1  0.16675465  0.33014163  0.83033915  1
  I  I60  1  0.16664152  0.66154413  0.17391272  1
  I  I61  1  0.16974906  0.66341680  0.49421042  1
  I  I62  1  0.16621984  0.66697421  0.83443361  1
  I  I63  1  0.49982457  0.00007195  0.16694570  1
  I  I64  1  0.50020824  -0.00015679  0.50600573  1
  I  I65  1  0.50390142  -0.00422668  0.82589858  1
  I  I66  1  0.49823135  0.33809461  0.17331013  1
  I  I67  1  0.49872821  0.33357714  0.49362209  1
  I  I68  1  0.49856729  0.33291574  0.83402716  1
  I  I69  1  0.49948793  0.66296089  0.17421574  1
  I  I70  1  0.50037923  0.66647431  0.49890085  1
  I  I71  1  0.50276633  0.66986000  0.82713701  1
  I  I72  1  0.83421602  0.00006024  0.16491639  1
  I  I73  1  0.83053464  -0.00020242  0.50412966  1
  I  I74  1  0.82867053  -0.00390773  0.83073620  1
  I  I75  1  0.83472006  0.33754539  0.17025899  1
  I  I76  1  0.83189046  0.33097931  0.49647778  1
  I  I77  1  0.83462309  0.33277919  0.83350901  1
  I  I78  1  0.83385605  0.66333797  0.17079794  1
  I  I79  1  0.82991312  0.66936388  0.50153605  1
  I  I80  1  0.83102404  0.67039772  0.82459363  1
  I  I81  1  0.16610789  0.16676907  -0.00234578  1
  I  I82  1  0.16702037  0.16884971  0.33724412  1
  I  I83  1  0.16692552  0.17313136  0.66386686  1
  I  I84  1  0.16750083  0.50016399  0.00300640  1
  I  I85  1  0.16746565  0.49452181  0.33457275  1
  I  I86  1  0.17223097  0.49822271  0.66298694  1
  I  I87  1  0.16651345  0.83351455  -0.00026136  1
  I  I88  1  0.16595557  0.83872209  0.33383284  1
  I  I89  1  0.16640486  0.82721847  0.66643943  1
  I  I90  1  0.49746563  0.16675798  -0.00021590  1
  I  I91  1  0.49622522  0.16045313  0.33840862  1
  I  I92  1  0.50184549  0.17327432  0.66217662  1
  I  I93  1  0.49775664  0.50371175  0.00285597  1
  I  I94  1  0.49892471  0.50198240  0.33501447  1
  I  I95  1  0.49452859  0.49829472  0.66252033  1
  I  I96  1  0.50380064  0.83036359  -0.00286753  1
  I  I97  1  0.50433895  0.83482284  0.33727305  1
  I  I98  1  0.50413296  0.83042041  0.66455354  1
  I  I99  1  0.83635394  0.16617097  -0.00012983  1
  I  I100  1  0.83656399  0.15897321  0.33820189  1
  I  I101  1  0.83106371  0.16781621  0.66247932  1
  I  I102  1  0.83480792  0.50244480  0.00460451  1
  I  I103  1  0.83371231  0.50184364  0.33139634  1
  I  I104  1  0.83374702  0.49832377  0.66658078  1
  I  I105  1  0.82940457  0.82958956  -0.00284921  1
  I  I106  1  0.82873103  0.83634317  0.33689064  1
  I  I107  1  0.82887402  0.83563790  0.66513962  1
  I  I108  1  -0.00002645  0.16905271  0.16848724  1
  I  I109  1  0.00038710  0.16773956  0.50400341  1
  I  I110  1  0.00288331  0.16677800  0.82584942  1
  I  I111  1  0.00072106  0.50056727  0.17294814  1
  I  I112  1  0.00249185  0.49663826  0.49482473  1
  I  I113  1  0.00008676  0.50322236  0.83284253  1
  I  I114  1  -0.00026650  0.83022494  0.16634104  1
  I  I115  1  -0.00308250  0.83536857  0.50416196  1
  I  I116  1  -0.00295762  0.83243329  0.82733486  1
  I  I117  1  0.33337156  0.16733414  0.16766387  1
  I  I118  1  0.33337463  0.16804437  0.50395708  1
  I  I119  1  0.33052361  0.16667974  0.82604494  1
  I  I120  1  0.33343116  0.50050048  0.17329162  1
  I  I121  1  0.33376241  0.49738419  0.49198677  1
  I  I122  1  0.33337767  0.50353667  0.83799629  1
  I  I123  1  0.33365736  0.83195949  0.16629713  1
  I  I124  1  0.33662189  0.83434542  0.50399974  1
  I  I125  1  0.33639254  0.83212611  0.82702705  1
  I  I126  1  0.66663687  0.16979995  0.16725647  1
  I  I127  1  0.66627226  0.16703092  0.49786611  1
  I  I128  1  0.66666276  0.16883977  0.83284063  1
  I  I129  1  0.66576328  0.50232619  0.17468976  1
  I  I130  1  0.66385626  0.49832552  0.49470665  1
  I  I131  1  0.66659806  0.49693922  0.83317017  1
  I  I132  1  0.66658597  0.82817830  0.16752730  1
  I  I133  1  0.66606762  0.83514183  0.50353132  1
  I  I134  1  0.66648237  0.83127068  0.82676331  1
