# generated using pymatgen
data_Cs27Sn14Pb13I81
_symmetry_space_group_name_H-M   'P 1'
_cell_length_a   18.97109458
_cell_length_b   18.97181600
_cell_length_c   18.98531374
_cell_angle_alpha   89.99964773
_cell_angle_beta   89.99735607
_cell_angle_gamma   90.00187458
_symmetry_Int_Tables_number   1
_chemical_formula_structural   Cs27Sn14Pb13I81
_chemical_formula_sum   'Cs27 Sn14 Pb13 I81'
_cell_volume   6833.12036373
_cell_formula_units_Z   1
loop_
 _symmetry_equiv_pos_site_id
 _symmetry_equiv_pos_as_xyz
  1  'x, y, z'
loop_
 _atom_site_type_symbol
 _atom_site_label
 _atom_site_symmetry_multiplicity
 _atom_site_fract_x
 _atom_site_fract_y
 _atom_site_fract_z
 _atom_site_occupancy
  Cs  Cs0  1  0.00344198  0.00239922  -0.00609291  1
  Cs  Cs1  1  -0.00012243  -0.00235495  0.33970218  1
  Cs  Cs2  1  0.00520095  -0.00395046  0.66690065  1
  Cs  Cs3  1  0.00113176  0.33720356  0.00480725  1
  Cs  Cs4  1  0.00298650  0.33434920  0.33204639  1
  Cs  Cs5  1  -0.00113117  0.33358137  0.66519209  1
  Cs  Cs6  1  -0.00067087  0.66087674  0.00310241  1
  Cs  Cs7  1  -0.00315466  0.66769580  0.33215809  1
  Cs  Cs8  1  0.00219427  0.66909501  0.66530657  1
  Cs  Cs9  1  0.33370829  -0.00192547  -0.00245720  1
  Cs  Cs10  1  0.33407290  0.00032715  0.33385729  1
  Cs  Cs11  1  0.32922306  -0.00126792  0.66876213  1
  Cs  Cs12  1  0.33114309  0.33257648  0.00441012  1
  Cs  Cs13  1  0.33220882  0.33389614  0.33200045  1
  Cs  Cs14  1  0.33476820  0.33689497  0.66494465  1
  Cs  Cs15  1  0.33253302  0.66978215  0.00178933  1
  Cs  Cs16  1  0.33583928  0.66487455  0.32994644  1
  Cs  Cs17  1  0.33339840  0.66425728  0.66695433  1
  Cs  Cs18  1  0.66474017  0.00086937  -0.00019228  1
  Cs  Cs19  1  0.66615811  -0.00020178  0.33277272  1
  Cs  Cs20  1  0.66707752  0.00189768  0.66778771  1
  Cs  Cs21  1  0.66811592  0.33130297  -0.00251424  1
  Cs  Cs22  1  0.66491894  0.32991161  0.33690857  1
  Cs  Cs23  1  0.66634320  0.33377646  0.66629835  1
  Cs  Cs24  1  0.67030815  0.66737483  0.00014878  1
  Cs  Cs25  1  0.66771432  0.67348150  0.33131141  1
  Cs  Cs26  1  0.66484729  0.66330056  0.66834380  1
  Sn  Sn27  1  0.50010552  0.83435282  0.50127188  1
  Sn  Sn28  1  0.16670644  0.49960115  0.83273294  1
  Sn  Sn29  1  0.16574885  0.49985458  0.50057615  1
  Sn  Sn30  1  0.16619992  0.83403042  0.16686265  1
  Sn  Sn31  1  0.83291324  0.16636591  0.16677819  1
  Sn  Sn32  1  0.50101364  0.49920052  0.16639806  1
  Sn  Sn33  1  0.50092963  0.83392449  0.83220685  1
  Sn  Sn34  1  0.83283532  0.16720062  0.50016878  1
  Sn  Sn35  1  0.50042425  0.16566140  0.50045936  1
  Sn  Sn36  1  0.50034273  0.16616509  0.83298068  1
  Sn  Sn37  1  0.83254776  0.83387842  0.83312216  1
  Sn  Sn38  1  0.83277187  0.16597939  0.83311290  1
  Sn  Sn39  1  0.83384782  0.49956290  0.50002726  1
  Sn  Sn40  1  0.50077267  0.16764270  0.16656242  1
  Pb  Pb41  1  0.83566854  0.83658227  0.16386222  1
  Pb  Pb42  1  0.83119647  0.83388941  0.50222773  1
  Pb  Pb43  1  0.16828501  0.50153552  0.16722458  1
  Pb  Pb44  1  0.16670170  0.16908792  0.83319656  1
  Pb  Pb45  1  0.16677575  0.16857263  0.50012794  1
  Pb  Pb46  1  0.50052092  0.49988348  0.49831164  1
  Pb  Pb47  1  0.49935917  0.83439491  0.16610934  1
  Pb  Pb48  1  0.16957729  0.83072861  0.49809418  1
  Pb  Pb49  1  0.49854325  0.49974386  0.83554950  1
  Pb  Pb50  1  0.16662052  0.16432086  0.16679275  1
  Pb  Pb51  1  0.83070206  0.49764274  0.16945165  1
  Pb  Pb52  1  0.16674785  0.83123048  0.83462378  1
  Pb  Pb53  1  0.83507787  0.49947339  0.83145405  1
  I  I54  1  0.17037170  -0.00290829  0.16463624  1
  I  I55  1  0.16455268  -0.00027901  0.49838268  1
  I  I56  1  0.16666592  -0.00006384  0.83553357  1
  I  I57  1  0.16634191  0.33326825  0.16627701  1
  I  I58  1  0.16822984  0.33659871  0.50233901  1
  I  I59  1  0.16740067  0.33673664  0.83051855  1
  I  I60  1  0.17121368  0.66900085  0.16581599  1
  I  I61  1  0.16208806  0.66296147  0.50361426  1
  I  I62  1  0.16747601  0.66371098  0.83012640  1
  I  I63  1  0.50263815  0.00349246  0.16711571  1
  I  I64  1  0.50557939  0.00158608  0.49719516  1
  I  I65  1  0.50291322  0.00084020  0.83536770  1
  I  I66  1  0.50119123  0.33126114  0.16733403  1
  I  I67  1  0.50101584  0.33021344  0.50219959  1
  I  I68  1  0.50390006  0.32982250  0.83043105  1
  I  I69  1  0.49531342  0.66538615  0.16807896  1
  I  I70  1  0.49917051  0.66886237  0.50237279  1
  I  I71  1  0.50233762  0.66955632  0.83025059  1
  I  I72  1  0.82495401  0.00442946  0.17259850  1
  I  I73  1  0.83009031  0.00346423  0.49716977  1
  I  I74  1  0.82968024  0.00138288  0.83223072  1
  I  I75  1  0.83287490  0.32942595  0.16036430  1
  I  I76  1  0.83084588  0.33164164  0.50243345  1
  I  I77  1  0.82914751  0.32971908  0.83438472  1
  I  I78  1  0.83262620  0.66678060  0.16661030  1
  I  I79  1  0.83558282  0.66452509  0.50216693  1
  I  I80  1  0.82970272  0.66908341  0.83134686  1
  I  I81  1  0.16667841  0.16985554  -0.00005619  1
  I  I82  1  0.16765409  0.16900517  0.33341270  1
  I  I83  1  0.16710563  0.16498854  0.66669977  1
  I  I84  1  0.16864071  0.50156412  -0.00164428  1
  I  I85  1  0.16457752  0.50083785  0.33597580  1
  I  I86  1  0.16493385  0.50031445  0.66591701  1
  I  I87  1  0.17023989  0.83055294  0.00197024  1
  I  I88  1  0.16924887  0.83194128  0.33075009  1
  I  I89  1  0.16600471  0.83300215  0.66659453  1
  I  I90  1  0.50527039  0.16679493  -0.00033738  1
  I  I91  1  0.50516855  0.16664199  0.33368106  1
  I  I92  1  0.50596652  0.16253825  0.66668344  1
  I  I93  1  0.49639486  0.49609998  0.00311463  1
  I  I94  1  0.49708841  0.49615045  0.33073841  1
  I  I95  1  0.49975026  0.49855314  0.66660825  1
  I  I96  1  0.50103092  0.83606652  -0.00289819  1
  I  I97  1  0.49733536  0.83524101  0.33526117  1
  I  I98  1  0.50250144  0.84007631  0.66741997  1
  I  I99  1  0.82686349  0.16179269  -0.00057711  1
  I  I100  1  0.82672929  0.17221492  0.33390490  1
  I  I101  1  0.82663042  0.16823545  0.66662354  1
  I  I102  1  0.83553293  0.49973565  0.00007615  1
  I  I103  1  0.83977344  0.49529488  0.33724303  1
  I  I104  1  0.83325644  0.49381178  0.66365330  1
  I  I105  1  0.82619415  0.83724324  -0.00392027  1
  I  I106  1  0.83311342  0.83301773  0.33345903  1
  I  I107  1  0.83279267  0.83883444  0.66996184  1
  I  I108  1  -0.00338901  0.16508033  0.16607555  1
  I  I109  1  -0.00353325  0.16920245  0.49940715  1
  I  I110  1  -0.00366107  0.16278499  0.83305148  1
  I  I111  1  -0.00036280  0.49966930  0.16513637  1
  I  I112  1  -0.00049286  0.49392055  0.50340042  1
  I  I113  1  0.00288451  0.50054902  0.83272555  1
  I  I114  1  0.00283457  0.83192200  0.16544015  1
  I  I115  1  -0.00013019  0.83549631  0.50049246  1
  I  I116  1  -0.00264210  0.83822213  0.83492780  1
  I  I117  1  0.33692560  0.16954196  0.16676948  1
  I  I118  1  0.33708258  0.16459078  0.49934793  1
  I  I119  1  0.33704541  0.16284895  0.83405668  1
  I  I120  1  0.33613034  0.49377469  0.16919584  1
  I  I121  1  0.33165674  0.50068673  0.50179504  1
  I  I122  1  0.33082111  0.50053041  0.82687294  1
  I  I123  1  0.33180168  0.83341254  0.16488936  1
  I  I124  1  0.33753633  0.83853171  0.50560784  1
  I  I125  1  0.33648490  0.83717993  0.83194746  1
  I  I126  1  0.66565404  0.17031447  0.16676194  1
  I  I127  1  0.66642795  0.16957654  0.49992350  1
  I  I128  1  0.66627490  0.16353811  0.83377232  1
  I  I129  1  0.66293235  0.50024666  0.16702538  1
  I  I130  1  0.66901480  0.49721929  0.49889526  1
  I  I131  1  0.66673197  0.50090242  0.83261332  1
  I  I132  1  0.66687228  0.83016733  0.16834971  1
  I  I133  1  0.66315881  0.83185810  0.49912489  1
  I  I134  1  0.66562820  0.83679754  0.83070264  1
