# generated using pymatgen
data_Cs27Sn13Pb14I81
_symmetry_space_group_name_H-M   'P 1'
_cell_length_a   18.97599973
_cell_length_b   18.97387492
_cell_length_c   18.98208794
_cell_angle_alpha   89.99893391
_cell_angle_beta   89.99918262
_cell_angle_gamma   89.99968199
_symmetry_Int_Tables_number   1
_chemical_formula_structural   Cs27Sn13Pb14I81
_chemical_formula_sum   'Cs27 Sn13 Pb14 I81'
_cell_volume   6834.46745594
_cell_formula_units_Z   1
loop_
 _symmetry_equiv_pos_site_id
 _symmetry_equiv_pos_as_xyz
  1  'x, y, z'
loop_
 _atom_site_type_symbol
 _atom_site_label
 _atom_site_symmetry_multiplicity
 _atom_site_fract_x
 _atom_site_fract_y
 _atom_site_fract_z
 _atom_site_occupancy
  Cs  Cs0  1  -0.00426451  0.00914136  -0.00345225  1
  Cs  Cs1  1  0.00252104  0.00242915  0.33550864  1
  Cs  Cs2  1  -0.00203255  -0.00128888  0.66705751  1
  Cs  Cs3  1  -0.00165268  0.32519681  -0.00050305  1
  Cs  Cs4  1  -0.00293340  0.33440736  0.33077837  1
  Cs  Cs5  1  0.00419600  0.33480536  0.66993626  1
  Cs  Cs6  1  -0.00226009  0.66714603  0.00079104  1
  Cs  Cs7  1  -0.00435691  0.66341168  0.33430076  1
  Cs  Cs8  1  -0.00091891  0.66659616  0.66499233  1
  Cs  Cs9  1  0.33357594  -0.00154806  0.00043649  1
  Cs  Cs10  1  0.33378612  -0.00051403  0.33431574  1
  Cs  Cs11  1  0.33519232  -0.00114032  0.66429433  1
  Cs  Cs12  1  0.33207301  0.33429941  -0.00055502  1
  Cs  Cs13  1  0.33400294  0.33263389  0.33331234  1
  Cs  Cs14  1  0.33422645  0.33987217  0.66853112  1
  Cs  Cs15  1  0.33367082  0.66746784  0.00073780  1
  Cs  Cs16  1  0.33227349  0.66871779  0.33085977  1
  Cs  Cs17  1  0.33275188  0.66368560  0.66816259  1
  Cs  Cs18  1  0.66892167  -0.00252906  -0.00097930  1
  Cs  Cs19  1  0.66362779  -0.00184571  0.33436310  1
  Cs  Cs20  1  0.66623837  0.00107650  0.66642205  1
  Cs  Cs21  1  0.66774508  0.33470394  0.00014704  1
  Cs  Cs22  1  0.66728783  0.33474563  0.33349515  1
  Cs  Cs23  1  0.66231839  0.33401587  0.66619092  1
  Cs  Cs24  1  0.66960078  0.66816570  0.00305412  1
  Cs  Cs25  1  0.67614743  0.66561328  0.33048208  1
  Cs  Cs26  1  0.66923167  0.66369010  0.66636172  1
  Sn  Sn27  1  0.16670602  0.83298580  0.16656698  1
  Sn  Sn28  1  0.49937548  0.83334097  0.50073966  1
  Sn  Sn29  1  0.49941411  0.16619895  0.50017539  1
  Sn  Sn30  1  0.16723920  0.83361398  0.83330740  1
  Sn  Sn31  1  0.83340517  0.49987253  0.83324126  1
  Sn  Sn32  1  0.16713911  0.16634448  0.50018710  1
  Sn  Sn33  1  0.49941828  0.16601398  0.83324896  1
  Sn  Sn34  1  0.83325011  0.16668602  0.50008908  1
  Sn  Sn35  1  0.49921993  0.83386555  0.83236203  1
  Sn  Sn36  1  0.49922054  0.49959355  0.16690295  1
  Sn  Sn37  1  0.49962251  0.16738920  0.16660161  1
  Sn  Sn38  1  0.16771566  0.83383625  0.50008523  1
  Sn  Sn39  1  0.16740339  0.50039935  0.16662633  1
  Pb  Pb40  1  0.83749818  0.83385429  0.16673616  1
  Pb  Pb41  1  0.49993161  0.50101591  0.49745819  1
  Pb  Pb42  1  0.16865418  0.16636863  0.16852174  1
  Pb  Pb43  1  0.83054780  0.16842150  0.83091727  1
  Pb  Pb44  1  0.83377014  0.49973274  0.16474929  1
  Pb  Pb45  1  0.83010202  0.16645351  0.16902513  1
  Pb  Pb46  1  0.16917622  0.16442950  0.83069575  1
  Pb  Pb47  1  0.16691401  0.50052198  0.49775686  1
  Pb  Pb48  1  0.49883468  0.83341479  0.16689675  1
  Pb  Pb49  1  0.50103996  0.50083750  0.83570175  1
  Pb  Pb50  1  0.83322025  0.83528154  0.50004208  1
  Pb  Pb51  1  0.83341274  0.49708047  0.50238455  1
  Pb  Pb52  1  0.83295055  0.83195844  0.83310315  1
  Pb  Pb53  1  0.16480744  0.50250052  0.83610023  1
  I  I54  1  0.16916606  -0.00293132  0.16662107  1
  I  I55  1  0.16781531  -0.00070590  0.49702867  1
  I  I56  1  0.16729770  -0.00385886  0.83909471  1
  I  I57  1  0.16925982  0.33544328  0.16907925  1
  I  I58  1  0.16797702  0.33013773  0.49797490  1
  I  I59  1  0.16668123  0.33315751  0.83295711  1
  I  I60  1  0.17383489  0.66730836  0.16800291  1
  I  I61  1  0.17216520  0.67056047  0.50187651  1
  I  I62  1  0.17340767  0.67078627  0.82796310  1
  I  I63  1  0.49850010  0.00258072  0.16798226  1
  I  I64  1  0.49946584  0.00094551  0.49827565  1
  I  I65  1  0.49686098  -0.00008669  0.83421122  1
  I  I66  1  0.49455674  0.33264231  0.16718243  1
  I  I67  1  0.49943812  0.32989290  0.50238215  1
  I  I68  1  0.50272010  0.33068058  0.83030917  1
  I  I69  1  0.49710313  0.66467548  0.16566429  1
  I  I70  1  0.49363317  0.67055525  0.50438035  1
  I  I71  1  0.49721160  0.67015754  0.82984069  1
  I  I72  1  0.83233559  0.00032675  0.16499713  1
  I  I73  1  0.83229008  0.00326762  0.50128099  1
  I  I74  1  0.83488832  0.00028146  0.83286458  1
  I  I75  1  0.83768857  0.33313548  0.16680543  1
  I  I76  1  0.83146528  0.32900216  0.49924055  1
  I  I77  1  0.83198724  0.33590035  0.83340373  1
  I  I78  1  0.82745266  0.66653422  0.16696391  1
  I  I79  1  0.83299144  0.66663002  0.49985137  1
  I  I80  1  0.83104001  0.66424037  0.83419593  1
  I  I81  1  0.16796293  0.16592746  -0.00010042  1
  I  I82  1  0.16950386  0.16125580  0.33670706  1
  I  I83  1  0.16793270  0.16186170  0.66249141  1
  I  I84  1  0.17138315  0.50516390  0.00383560  1
  I  I85  1  0.17040747  0.50519318  0.32990835  1
  I  I86  1  0.16483624  0.50008139  0.66687366  1
  I  I87  1  0.17241740  0.82702111  -0.00016667  1
  I  I88  1  0.17183108  0.83401682  0.33416909  1
  I  I89  1  0.17037378  0.83864195  0.66607216  1
  I  I90  1  0.49927019  0.16635773  -0.00017111  1
  I  I91  1  0.49991819  0.16636797  0.33450865  1
  I  I92  1  0.50117209  0.16157008  0.66580229  1
  I  I93  1  0.49678302  0.49592244  0.00338853  1
  I  I94  1  0.49647373  0.49559539  0.32958623  1
  I  I95  1  0.50201911  0.49724544  0.66686955  1
  I  I96  1  0.49588941  0.83623825  -0.00238825  1
  I  I97  1  0.49504858  0.83782326  0.33608310  1
  I  I98  1  0.49246789  0.84194499  0.66635904  1
  I  I99  1  0.83294307  0.16797496  -0.00036153  1
  I  I100  1  0.83228030  0.16673415  0.33714223  1
  I  I101  1  0.83133253  0.16673847  0.66317280  1
  I  I102  1  0.83194539  0.50030175  -0.00259353  1
  I  I103  1  0.83308289  0.49973358  0.33320641  1
  I  I104  1  0.83179952  0.50128853  0.66970961  1
  I  I105  1  0.83106951  0.83246138  -0.00020660  1
  I  I106  1  0.83052845  0.83229059  0.33357138  1
  I  I107  1  0.83761267  0.83194631  0.66656866  1
  I  I108  1  0.00028894  0.16723914  0.16855160  1
  I  I109  1  0.00104998  0.16201859  0.49912643  1
  I  I110  1  0.00020072  0.16650898  0.83222542  1
  I  I111  1  0.00316228  0.50635803  0.16708882  1
  I  I112  1  0.00022301  0.50000386  0.49747275  1
  I  I113  1  -0.00264863  0.50117624  0.83417132  1
  I  I114  1  0.00599207  0.82573965  0.16825563  1
  I  I115  1  0.00367500  0.83740934  0.50013498  1
  I  I116  1  0.00330683  0.83030226  0.83251703  1
  I  I117  1  0.33688829  0.16769320  0.16946944  1
  I  I118  1  0.33444166  0.16128056  0.49848160  1
  I  I119  1  0.33740283  0.16671143  0.83194697  1
  I  I120  1  0.33354124  0.49994290  0.16630924  1
  I  I121  1  0.33346868  0.49486505  0.50242046  1
  I  I122  1  0.33330329  0.49845661  0.83317978  1
  I  I123  1  0.33067182  0.83220706  0.16732137  1
  I  I124  1  0.33320170  0.84183137  0.50022721  1
  I  I125  1  0.33381580  0.83644431  0.83247292  1
  I  I126  1  0.66157042  0.17263821  0.16858026  1
  I  I127  1  0.66464606  0.16337357  0.50000169  1
  I  I128  1  0.66229407  0.16075964  0.83162542  1
  I  I129  1  0.66385822  0.49545535  0.16596166  1
  I  I130  1  0.66647730  0.50036099  0.49718863  1
  I  I131  1  0.66857584  0.50064822  0.83543434  1
  I  I132  1  0.66629570  0.83212705  0.16675650  1
  I  I133  1  0.66300576  0.83794827  0.50467860  1
  I  I134  1  0.66281284  0.83657448  0.82866761  1
