# generated using pymatgen
data_Cs27Sn14Pb13I81
_symmetry_space_group_name_H-M   'P 1'
_cell_length_a   18.97046385
_cell_length_b   18.97539263
_cell_length_c   18.97986648
_cell_angle_alpha   90.00069782
_cell_angle_beta   89.99732898
_cell_angle_gamma   90.00175763
_symmetry_Int_Tables_number   1
_chemical_formula_structural   Cs27Sn14Pb13I81
_chemical_formula_sum   'Cs27 Sn14 Pb13 I81'
_cell_volume   6832.22048317
_cell_formula_units_Z   1
loop_
 _symmetry_equiv_pos_site_id
 _symmetry_equiv_pos_as_xyz
  1  'x, y, z'
loop_
 _atom_site_type_symbol
 _atom_site_label
 _atom_site_symmetry_multiplicity
 _atom_site_fract_x
 _atom_site_fract_y
 _atom_site_fract_z
 _atom_site_occupancy
  Cs  Cs0  1  0.00100567  -0.00144905  -0.00318469  1
  Cs  Cs1  1  -0.00022368  0.00020226  0.33437900  1
  Cs  Cs2  1  0.00031485  -0.00074899  0.66882936  1
  Cs  Cs3  1  -0.00051712  0.33664931  -0.00072017  1
  Cs  Cs4  1  0.00116251  0.33173021  0.33404951  1
  Cs  Cs5  1  0.00028642  0.33419643  0.66591834  1
  Cs  Cs6  1  -0.00224833  0.66459123  0.00099851  1
  Cs  Cs7  1  0.00103349  0.66760374  0.33331885  1
  Cs  Cs8  1  -0.00088811  0.66711776  0.66503947  1
  Cs  Cs9  1  0.33546078  0.00277886  -0.00595905  1
  Cs  Cs10  1  0.33196322  -0.00185014  0.33247198  1
  Cs  Cs11  1  0.33891589  -0.00818042  0.67721980  1
  Cs  Cs12  1  0.33217737  0.33360450  -0.00075886  1
  Cs  Cs13  1  0.33080063  0.33638747  0.33252303  1
  Cs  Cs14  1  0.33358356  0.33435011  0.66814897  1
  Cs  Cs15  1  0.33439072  0.66528442  0.00244999  1
  Cs  Cs16  1  0.33322914  0.66595329  0.33271003  1
  Cs  Cs17  1  0.33655451  0.67041526  0.66457336  1
  Cs  Cs18  1  0.66423266  0.00070754  -0.00019506  1
  Cs  Cs19  1  0.66829509  0.00978297  0.33348851  1
  Cs  Cs20  1  0.66361408  0.00258976  0.66710782  1
  Cs  Cs21  1  0.66898134  0.33398797  0.00235652  1
  Cs  Cs22  1  0.66696724  0.32166554  0.33577200  1
  Cs  Cs23  1  0.66562040  0.33207211  0.66103877  1
  Cs  Cs24  1  0.66852035  0.66573627  0.00029008  1
  Cs  Cs25  1  0.66482414  0.66691598  0.33319019  1
  Cs  Cs26  1  0.66619095  0.66631136  0.66556208  1
  Sn  Sn27  1  0.16645345  0.16674700  0.16714171  1
  Sn  Sn28  1  0.50013372  0.83276544  0.16691751  1
  Sn  Sn29  1  0.16696608  0.50001187  0.16668553  1
  Sn  Sn30  1  0.83303309  0.83308655  0.16699757  1
  Sn  Sn31  1  0.49976108  0.50038170  0.16611365  1
  Sn  Sn32  1  0.83359366  0.16628149  0.83350984  1
  Sn  Sn33  1  0.16706274  0.16654735  0.50024823  1
  Sn  Sn34  1  0.16688237  0.83354648  0.16646271  1
  Sn  Sn35  1  0.83386516  0.50056237  0.49928808  1
  Sn  Sn36  1  0.16588964  0.49959592  0.49999860  1
  Sn  Sn37  1  0.83341601  0.83270054  0.49959075  1
  Sn  Sn38  1  0.83344293  0.83408940  0.83337206  1
  Sn  Sn39  1  0.16736066  0.50054336  0.83310005  1
  Sn  Sn40  1  0.49945322  0.50014361  0.83416888  1
  Pb  Pb41  1  0.50267465  0.16989059  0.83355955  1
  Pb  Pb42  1  0.50304223  0.83348404  0.49703996  1
  Pb  Pb43  1  0.83610243  0.16385813  0.16457564  1
  Pb  Pb44  1  0.49954946  0.49986765  0.49913026  1
  Pb  Pb45  1  0.16538120  0.16873636  0.83305061  1
  Pb  Pb46  1  0.50270363  0.83081518  0.83579805  1
  Pb  Pb47  1  0.83284768  0.50135312  0.16932483  1
  Pb  Pb48  1  0.49541667  0.16646934  0.50020651  1
  Pb  Pb49  1  0.83554204  0.16629986  0.50189936  1
  Pb  Pb50  1  0.83299607  0.50032241  0.83132648  1
  Pb  Pb51  1  0.49705380  0.16706494  0.16669868  1
  Pb  Pb52  1  0.16486123  0.83043453  0.83583726  1
  Pb  Pb53  1  0.16530376  0.83338856  0.49838637  1
  I  I54  1  0.16439320  -0.00049628  0.17277271  1
  I  I55  1  0.16309573  0.00236427  0.49258669  1
  I  I56  1  0.16585914  -0.00032074  0.83362283  1
  I  I57  1  0.17125074  0.33481772  0.16732905  1
  I  I58  1  0.16019449  0.33521529  0.49460801  1
  I  I59  1  0.16625824  0.33697075  0.83815117  1
  I  I60  1  0.16648592  0.66605438  0.16655701  1
  I  I61  1  0.16387421  0.66356224  0.49890855  1
  I  I62  1  0.16699754  0.66226741  0.83251042  1
  I  I63  1  0.50069410  -0.00314804  0.16800003  1
  I  I64  1  0.50139941  -0.00015376  0.49767709  1
  I  I65  1  0.49908911  -0.00028352  0.83426763  1
  I  I66  1  0.49505645  0.33685860  0.16307093  1
  I  I67  1  0.50769757  0.33367696  0.49781189  1
  I  I68  1  0.49768149  0.33779205  0.84042851  1
  I  I69  1  0.49538623  0.66619999  0.16316409  1
  I  I70  1  0.49652914  0.66653367  0.50186020  1
  I  I71  1  0.49769425  0.66308871  0.83535188  1
  I  I72  1  0.83269093  -0.00458828  0.17226579  1
  I  I73  1  0.83487838  -0.00295984  0.49710574  1
  I  I74  1  0.83570588  -0.00135305  0.83245406  1
  I  I75  1  0.83300899  0.33320501  0.16577758  1
  I  I76  1  0.83533219  0.33573212  0.50285989  1
  I  I77  1  0.83441551  0.33185900  0.83113253  1
  I  I78  1  0.83823676  0.66976662  0.16173210  1
  I  I79  1  0.83995499  0.66672988  0.50204083  1
  I  I80  1  0.83387371  0.66916738  0.83559363  1
  I  I81  1  0.16487658  0.16719535  0.00277001  1
  I  I82  1  0.16496576  0.17210992  0.33253015  1
  I  I83  1  0.16252466  0.17407721  0.66406753  1
  I  I84  1  0.17030148  0.50017404  0.00108594  1
  I  I85  1  0.16657508  0.49981400  0.33244293  1
  I  I86  1  0.16507186  0.49402457  0.66610910  1
  I  I87  1  0.16377981  0.83387080  0.00439790  1
  I  I88  1  0.16418737  0.82882499  0.32967059  1
  I  I89  1  0.16350186  0.83344932  0.66688879  1
  I  I90  1  0.49808414  0.16473244  0.00019666  1
  I  I91  1  0.50551274  0.16894166  0.33310850  1
  I  I92  1  0.49929306  0.16908298  0.66699585  1
  I  I93  1  0.49228000  0.50390037  0.00110645  1
  I  I94  1  0.49578157  0.50548454  0.32983278  1
  I  I95  1  0.49765520  0.49886003  0.66899678  1
  I  I96  1  0.50111402  0.83091354  0.00385565  1
  I  I97  1  0.49951019  0.82468015  0.32867522  1
  I  I98  1  0.50101063  0.83210488  0.66698303  1
  I  I99  1  0.83600088  0.16326034  -0.00296630  1
  I  I100  1  0.83217456  0.16654352  0.33333561  1
  I  I101  1  0.83670782  0.16209604  0.66933096  1
  I  I102  1  0.83605781  0.50082059  0.00013856  1
  I  I103  1  0.83826349  0.50562822  0.33697356  1
  I  I104  1  0.83798451  0.50511355  0.66371294  1
  I  I105  1  0.83428754  0.83725077  0.00072039  1
  I  I106  1  0.83471833  0.82665842  0.33279692  1
  I  I107  1  0.83549024  0.83212750  0.66649821  1
  I  I108  1  0.00406228  0.16921287  0.17017573  1
  I  I109  1  0.00316668  0.16959179  0.49523630  1
  I  I110  1  -0.00245929  0.16460610  0.83378334  1
  I  I111  1  0.00316397  0.50099429  0.16395395  1
  I  I112  1  0.00127946  0.50045156  0.50026729  1
  I  I113  1  0.00247231  0.50000639  0.83653915  1
  I  I114  1  0.00013423  0.83246965  0.16668532  1
  I  I115  1  -0.00307266  0.83128514  0.49707328  1
  I  I116  1  -0.00332123  0.83382170  0.83615198  1
  I  I117  1  0.32887193  0.16316160  0.16977571  1
  I  I118  1  0.32764448  0.17625021  0.49436166  1
  I  I119  1  0.33318911  0.16601098  0.83316993  1
  I  I120  1  0.33171652  0.50463676  0.16789257  1
  I  I121  1  0.32971748  0.49524520  0.49932678  1
  I  I122  1  0.33219918  0.49879252  0.83305183  1
  I  I123  1  0.33258234  0.83120277  0.16777735  1
  I  I124  1  0.33326113  0.83281660  0.49821971  1
  I  I125  1  0.33341664  0.83486233  0.83390539  1
  I  I126  1  0.66683632  0.16737335  0.16565013  1
  I  I127  1  0.66700282  0.16794412  0.50100152  1
  I  I128  1  0.67057689  0.16318400  0.83307407  1
  I  I129  1  0.66395198  0.50645972  0.16154709  1
  I  I130  1  0.66935693  0.50561879  0.50196781  1
  I  I131  1  0.66442019  0.50099806  0.83799948  1
  I  I132  1  0.66696336  0.82604001  0.16556415  1
  I  I133  1  0.67160998  0.82525027  0.49935962  1
  I  I134  1  0.67077508  0.83402143  0.83554624  1
