# generated using pymatgen
data_Cs27Sn14Pb13I81
_symmetry_space_group_name_H-M   'P 1'
_cell_length_a   18.97564343
_cell_length_b   18.97069222
_cell_length_c   18.97929701
_cell_angle_alpha   89.99919679
_cell_angle_beta   89.99921350
_cell_angle_gamma   90.00030994
_symmetry_Int_Tables_number   1
_chemical_formula_structural   Cs27Sn14Pb13I81
_chemical_formula_sum   'Cs27 Sn14 Pb13 I81'
_cell_volume   6832.18804501
_cell_formula_units_Z   1
loop_
 _symmetry_equiv_pos_site_id
 _symmetry_equiv_pos_as_xyz
  1  'x, y, z'
loop_
 _atom_site_type_symbol
 _atom_site_label
 _atom_site_symmetry_multiplicity
 _atom_site_fract_x
 _atom_site_fract_y
 _atom_site_fract_z
 _atom_site_occupancy
  Cs  Cs0  1  -0.00030640  0.00152596  0.00159884  1
  Cs  Cs1  1  0.00109290  0.00002293  0.33199385  1
  Cs  Cs2  1  -0.00349543  0.00095476  0.66556110  1
  Cs  Cs3  1  0.00239826  0.33161509  0.00066265  1
  Cs  Cs4  1  -0.00252319  0.33310520  0.33170724  1
  Cs  Cs5  1  0.00303137  0.33689340  0.66655131  1
  Cs  Cs6  1  0.00106052  0.66572237  -0.00058476  1
  Cs  Cs7  1  -0.00072263  0.66629221  0.33410772  1
  Cs  Cs8  1  0.00116504  0.66287771  0.66884421  1
  Cs  Cs9  1  0.33282829  -0.00047145  0.00171135  1
  Cs  Cs10  1  0.32930902  0.00063724  0.33587702  1
  Cs  Cs11  1  0.33369298  0.00163724  0.66320405  1
  Cs  Cs12  1  0.33056275  0.33264748  0.00168628  1
  Cs  Cs13  1  0.34308673  0.33165469  0.33780880  1
  Cs  Cs14  1  0.33100938  0.33424802  0.65692293  1
  Cs  Cs15  1  0.33192588  0.66781422  -0.00309063  1
  Cs  Cs16  1  0.33205394  0.67003907  0.33539551  1
  Cs  Cs17  1  0.33190144  0.66444878  0.67089595  1
  Cs  Cs18  1  0.66742532  0.00045552  -0.00153553  1
  Cs  Cs19  1  0.67006101  -0.00173890  0.33329277  1
  Cs  Cs20  1  0.66880838  -0.00140586  0.66862530  1
  Cs  Cs21  1  0.66352282  0.33058942  0.00122776  1
  Cs  Cs22  1  0.66104417  0.34334967  0.33192021  1
  Cs  Cs23  1  0.66464062  0.32997371  0.66734616  1
  Cs  Cs24  1  0.66675460  0.66809842  -0.00019058  1
  Cs  Cs25  1  0.66798434  0.66211204  0.33341313  1
  Cs  Cs26  1  0.66680548  0.67007767  0.66791763  1
  Sn  Sn27  1  0.83208303  0.50033346  0.83386677  1
  Sn  Sn28  1  0.50086197  0.83363338  0.16670262  1
  Sn  Sn29  1  0.83351841  0.16623801  0.16774062  1
  Sn  Sn30  1  0.83330502  0.16636411  0.49849915  1
  Sn  Sn31  1  0.83264570  0.83379441  0.16654530  1
  Sn  Sn32  1  0.16680843  0.49890046  0.16688226  1
  Sn  Sn33  1  0.16678849  0.16576410  0.83364149  1
  Sn  Sn34  1  0.49994971  0.83312869  0.83340104  1
  Sn  Sn35  1  0.50093785  0.83342739  0.50011028  1
  Sn  Sn36  1  0.83361150  0.83266818  0.83348405  1
  Sn  Sn37  1  0.50100680  0.50023168  0.83371863  1
  Sn  Sn38  1  0.83263126  0.83384397  0.49993145  1
  Sn  Sn39  1  0.16638921  0.83479617  0.83334407  1
  Sn  Sn40  1  0.16618198  0.16779650  0.16606268  1
  Pb  Pb41  1  0.16657334  0.49989615  0.49601236  1
  Pb  Pb42  1  0.49684327  0.16656352  0.83328138  1
  Pb  Pb43  1  0.50029653  0.50320076  0.50297474  1
  Pb  Pb44  1  0.16595971  0.83323083  0.50325664  1
  Pb  Pb45  1  0.83493708  0.16676525  0.83363511  1
  Pb  Pb46  1  0.83444682  0.49998125  0.16438896  1
  Pb  Pb47  1  0.50031262  0.16423195  0.16664262  1
  Pb  Pb48  1  0.16414419  0.16658432  0.49925666  1
  Pb  Pb49  1  0.83325945  0.50022632  0.50269542  1
  Pb  Pb50  1  0.50348912  0.16394498  0.49984161  1
  Pb  Pb51  1  0.49753316  0.50298716  0.16428665  1
  Pb  Pb52  1  0.16628167  0.83381995  0.16498423  1
  Pb  Pb53  1  0.16699246  0.49960801  0.83433559  1
  I  I54  1  0.16514126  0.00245427  0.16356319  1
  I  I55  1  0.16961627  -0.00029077  0.49657632  1
  I  I56  1  0.16585525  -0.00097143  0.83968988  1
  I  I57  1  0.15902236  0.33170283  0.15752764  1
  I  I58  1  0.16373942  0.33302097  0.50846102  1
  I  I59  1  0.16453505  0.33083770  0.83671790  1
  I  I60  1  0.16690181  0.66539818  0.16295822  1
  I  I61  1  0.16420380  0.66702344  0.50026139  1
  I  I62  1  0.16661606  0.66932772  0.83524217  1
  I  I63  1  0.49915997  -0.00434300  0.16203382  1
  I  I64  1  0.50051111  -0.00444797  0.50429033  1
  I  I65  1  0.50344490  -0.00400452  0.83338781  1
  I  I66  1  0.50192318  0.33352385  0.16435510  1
  I  I67  1  0.49985001  0.33346589  0.50196232  1
  I  I68  1  0.50504203  0.33622006  0.83496719  1
  I  I69  1  0.50507160  0.67121903  0.16772790  1
  I  I70  1  0.50792730  0.67139579  0.49754140  1
  I  I71  1  0.49833291  0.66911519  0.83323456  1
  I  I72  1  0.83582562  -0.00121569  0.16468474  1
  I  I73  1  0.83019232  -0.00172502  0.50230415  1
  I  I74  1  0.83104250  -0.00326808  0.83323306  1
  I  I75  1  0.83752637  0.33041671  0.16880100  1
  I  I76  1  0.83684176  0.33037896  0.49709087  1
  I  I77  1  0.83134010  0.33570793  0.83346696  1
  I  I78  1  0.83163212  0.67009461  0.16834183  1
  I  I79  1  0.82921752  0.67054253  0.49741173  1
  I  I80  1  0.83544401  0.66924511  0.83336544  1
  I  I81  1  0.16020485  0.16579164  0.00055979  1
  I  I82  1  0.16387329  0.16959323  0.32974359  1
  I  I83  1  0.16569320  0.16169642  0.66929712  1
  I  I84  1  0.16588526  0.49926537  0.00191198  1
  I  I85  1  0.16430562  0.49580189  0.32813684  1
  I  I86  1  0.16679315  0.50011316  0.66702211  1
  I  I87  1  0.16664872  0.83386990  -0.00320929  1
  I  I88  1  0.16794993  0.83286654  0.33326538  1
  I  I89  1  0.16659293  0.83778608  0.67169693  1
  I  I90  1  0.50479946  0.16301306  -0.00013598  1
  I  I91  1  0.49345617  0.16457801  0.33320628  1
  I  I92  1  0.50008248  0.16456557  0.66675924  1
  I  I93  1  0.50357659  0.50777965  -0.00346804  1
  I  I94  1  0.49740954  0.50100578  0.33321318  1
  I  I95  1  0.50243227  0.50635207  0.67100268  1
  I  I96  1  0.50235729  0.83005396  -0.00089688  1
  I  I97  1  0.50637562  0.83510928  0.33312278  1
  I  I98  1  0.50289600  0.83004322  0.66762035  1
  I  I99  1  0.83637644  0.16254678  0.00271616  1
  I  I100  1  0.84073229  0.15597274  0.33214033  1
  I  I101  1  0.83420809  0.16218894  0.66488793  1
  I  I102  1  0.83114202  0.50592744  -0.00351579  1
  I  I103  1  0.83676174  0.50282355  0.33310482  1
  I  I104  1  0.83169021  0.50483145  0.67087367  1
  I  I105  1  0.83129376  0.83371914  -0.00029350  1
  I  I106  1  0.82713188  0.83847520  0.33286850  1
  I  I107  1  0.83098583  0.83433151  0.66732132  1
  I  I108  1  -0.00058080  0.16334658  0.16572977  1
  I  I109  1  -0.00363283  0.15753922  0.49955982  1
  I  I110  1  0.00272393  0.16213273  0.83509348  1
  I  I111  1  0.00227241  0.50173525  0.16146097  1
  I  I112  1  -0.00035555  0.50368951  0.50547910  1
  I  I113  1  -0.00211869  0.50467008  0.83417882  1
  I  I114  1  -0.00310882  0.83412412  0.16612728  1
  I  I115  1  -0.00390727  0.83729422  0.49908125  1
  I  I116  1  -0.00106097  0.83263683  0.83416971  1
  I  I117  1  0.33027298  0.16838786  0.16043077  1
  I  I118  1  0.33342985  0.16599710  0.50059118  1
  I  I119  1  0.32893769  0.16173003  0.84078802  1
  I  I120  1  0.32991496  0.49537420  0.16216506  1
  I  I121  1  0.33358184  0.50183290  0.50391207  1
  I  I122  1  0.33560200  0.50623744  0.83578641  1
  I  I123  1  0.33561767  0.83234124  0.16515908  1
  I  I124  1  0.33632885  0.83157067  0.49931193  1
  I  I125  1  0.33409050  0.83207727  0.83459467  1
  I  I126  1  0.67024688  0.16304843  0.16918019  1
  I  I127  1  0.67145174  0.16367281  0.49597209  1
  I  I128  1  0.66682016  0.16522945  0.83358684  1
  I  I129  1  0.66645442  0.49750419  0.16701989  1
  I  I130  1  0.66681073  0.49683511  0.49616679  1
  I  I131  1  0.66694606  0.50977044  0.83384309  1
  I  I132  1  0.66800384  0.83851815  0.16161813  1
  I  I133  1  0.66767183  0.83786719  0.50513860  1
  I  I134  1  0.66706896  0.82877349  0.83331296  1
