# generated using pymatgen
data_Cs27Sn13Pb14I81
_symmetry_space_group_name_H-M   'P 1'
_cell_length_a   18.97737297
_cell_length_b   18.97089891
_cell_length_c   18.98312062
_cell_angle_alpha   90.00046058
_cell_angle_beta   89.99984726
_cell_angle_gamma   89.99979340
_symmetry_Int_Tables_number   1
_chemical_formula_structural   Cs27Sn13Pb14I81
_chemical_formula_sum   'Cs27 Sn13 Pb14 I81'
_cell_volume   6834.26178264
_cell_formula_units_Z   1
loop_
 _symmetry_equiv_pos_site_id
 _symmetry_equiv_pos_as_xyz
  1  'x, y, z'
loop_
 _atom_site_type_symbol
 _atom_site_label
 _atom_site_symmetry_multiplicity
 _atom_site_fract_x
 _atom_site_fract_y
 _atom_site_fract_z
 _atom_site_occupancy
  Cs  Cs0  1  0.00536387  -0.00715087  0.00257094  1
  Cs  Cs1  1  0.00074873  0.00223094  0.33053845  1
  Cs  Cs2  1  -0.00238439  -0.00117850  0.66653596  1
  Cs  Cs3  1  0.00065808  0.33329384  0.00166319  1
  Cs  Cs4  1  -0.00108015  0.33283229  0.33336270  1
  Cs  Cs5  1  -0.00163411  0.33549846  0.66547253  1
  Cs  Cs6  1  -0.00062547  0.67160432  -0.00155110  1
  Cs  Cs7  1  0.00119699  0.66634325  0.33416666  1
  Cs  Cs8  1  0.00590157  0.66481650  0.66737993  1
  Cs  Cs9  1  0.32488733  -0.00199506  -0.00857916  1
  Cs  Cs10  1  0.33037061  -0.00412248  0.33321633  1
  Cs  Cs11  1  0.33701228  -0.00534680  0.67275959  1
  Cs  Cs12  1  0.33148755  0.33105502  -0.00149374  1
  Cs  Cs13  1  0.33605713  0.33333404  0.33230623  1
  Cs  Cs14  1  0.33282720  0.33384359  0.66932399  1
  Cs  Cs15  1  0.33565703  0.67139831  0.00356261  1
  Cs  Cs16  1  0.33566708  0.67405334  0.33350040  1
  Cs  Cs17  1  0.32384843  0.67035315  0.66442783  1
  Cs  Cs18  1  0.66671954  -0.00552179  -0.00424142  1
  Cs  Cs19  1  0.66803108  0.00325345  0.33588305  1
  Cs  Cs20  1  0.66477453  0.00034122  0.66738430  1
  Cs  Cs21  1  0.66641050  0.33491734  0.00034438  1
  Cs  Cs22  1  0.66714514  0.33340482  0.33372933  1
  Cs  Cs23  1  0.66748284  0.33308963  0.66587606  1
  Cs  Cs24  1  0.66552248  0.66914943  0.00255527  1
  Cs  Cs25  1  0.66390625  0.66515973  0.33107626  1
  Cs  Cs26  1  0.66766617  0.66490407  0.66649229  1
  Sn  Sn27  1  0.83334496  0.16736201  0.83391234  1
  Sn  Sn28  1  0.83294079  0.83290829  0.49970138  1
  Sn  Sn29  1  0.50061304  0.16667184  0.16677165  1
  Sn  Sn30  1  0.49969062  0.16755922  0.49936613  1
  Sn  Sn31  1  0.16603050  0.49966762  0.16704326  1
  Sn  Sn32  1  0.50040132  0.49922806  0.50103970  1
  Sn  Sn33  1  0.16730528  0.16708794  0.50039514  1
  Sn  Sn34  1  0.83248072  0.49895081  0.83343227  1
  Sn  Sn35  1  0.50065835  0.49972604  0.83220015  1
  Sn  Sn36  1  0.83440367  0.49919156  0.16666329  1
  Sn  Sn37  1  0.83231293  0.16731531  0.16597697  1
  Sn  Sn38  1  0.83320175  0.16677519  0.50004859  1
  Sn  Sn39  1  0.83271842  0.50017073  0.49992457  1
  Pb  Pb40  1  0.16666612  0.16807173  0.16840897  1
  Pb  Pb41  1  0.50225363  0.83332416  0.49996036  1
  Pb  Pb42  1  0.16336442  0.16712935  0.83047639  1
  Pb  Pb43  1  0.16725780  0.49823532  0.49813284  1
  Pb  Pb44  1  0.16656940  0.49983005  0.83594562  1
  Pb  Pb45  1  0.83318089  0.83273032  0.83074789  1
  Pb  Pb46  1  0.50051670  0.82938637  0.83290733  1
  Pb  Pb47  1  0.50210695  0.16832627  0.83329217  1
  Pb  Pb48  1  0.16632952  0.83312500  0.83308386  1
  Pb  Pb49  1  0.16641036  0.83016776  0.16711622  1
  Pb  Pb50  1  0.83297419  0.83351052  0.16911696  1
  Pb  Pb51  1  0.50035991  0.49852477  0.16686823  1
  Pb  Pb52  1  0.16380790  0.83666744  0.49985135  1
  Pb  Pb53  1  0.50043933  0.83814086  0.16680892  1
  I  I54  1  0.16609529  0.00024044  0.16807794  1
  I  I55  1  0.16599113  0.00484299  0.49767086  1
  I  I56  1  0.16520067  0.00055640  0.83388482  1
  I  I57  1  0.16300425  0.33588377  0.16765602  1
  I  I58  1  0.16053648  0.33041891  0.49871315  1
  I  I59  1  0.16798307  0.33344862  0.83347935  1
  I  I60  1  0.15976243  0.66187860  0.16773687  1
  I  I61  1  0.16624571  0.66656729  0.49890197  1
  I  I62  1  0.16418354  0.66596089  0.83230448  1
  I  I63  1  0.50802311  0.00613054  0.17541067  1
  I  I64  1  0.50191197  0.00388042  0.49524341  1
  I  I65  1  0.50139859  0.00027322  0.83310762  1
  I  I66  1  0.50270083  0.33053520  0.16973813  1
  I  I67  1  0.50576594  0.33297714  0.49958152  1
  I  I68  1  0.50325930  0.33642580  0.83131565  1
  I  I69  1  0.49942803  0.66641985  0.16676266  1
  I  I70  1  0.50529074  0.66294739  0.50292275  1
  I  I71  1  0.50839696  0.66096791  0.82871800  1
  I  I72  1  0.82941979  0.00386901  0.16793057  1
  I  I73  1  0.83365086  0.00224357  0.49985285  1
  I  I74  1  0.83355203  0.00321800  0.83208145  1
  I  I75  1  0.83358565  0.33335174  0.17103694  1
  I  I76  1  0.83305515  0.33303489  0.49983736  1
  I  I77  1  0.83035261  0.33398435  0.82893796  1
  I  I78  1  0.83711737  0.66295090  0.16658528  1
  I  I79  1  0.82865789  0.66477456  0.49969407  1
  I  I80  1  0.82994324  0.66256799  0.83387273  1
  I  I81  1  0.16743499  0.16752390  0.00008243  1
  I  I82  1  0.16088726  0.16878605  0.33629527  1
  I  I83  1  0.16609357  0.16889289  0.66231233  1
  I  I84  1  0.16199508  0.49744195  0.00366329  1
  I  I85  1  0.16039187  0.49705244  0.33061745  1
  I  I86  1  0.16426222  0.49950960  0.66643580  1
  I  I87  1  0.16561281  0.83446879  0.00029487  1
  I  I88  1  0.16600753  0.83328559  0.33368461  1
  I  I89  1  0.16526620  0.83178858  0.66601047  1
  I  I90  1  0.50573434  0.17027067  0.00256675  1
  I  I91  1  0.50589331  0.17331235  0.33491722  1
  I  I92  1  0.50176095  0.16855968  0.66335280  1
  I  I93  1  0.50384510  0.49788169  -0.00200098  1
  I  I94  1  0.50412466  0.49716189  0.33622162  1
  I  I95  1  0.50942078  0.49351337  0.66521413  1
  I  I96  1  0.50124477  0.83161511  -0.00006977  1
  I  I97  1  0.50079651  0.82696464  0.33355295  1
  I  I98  1  0.50184600  0.83913348  0.66627795  1
  I  I99  1  0.82794860  0.17567634  0.00076766  1
  I  I100  1  0.83303835  0.16891576  0.33429891  1
  I  I101  1  0.83388151  0.16903207  0.66524217  1
  I  I102  1  0.83319905  0.49228243  0.00008964  1
  I  I103  1  0.83345450  0.49724408  0.33406176  1
  I  I104  1  0.82891242  0.49687328  0.66574379  1
  I  I105  1  0.83408474  0.83372488  -0.00001301  1
  I  I106  1  0.83314226  0.83411235  0.33705295  1
  I  I107  1  0.83281667  0.83528419  0.66280094  1
  I  I108  1  -0.00355740  0.16923751  0.16885945  1
  I  I109  1  -0.00239465  0.16699814  0.49971164  1
  I  I110  1  -0.00522729  0.17395773  0.83292917  1
  I  I111  1  -0.00293247  0.49372651  0.16785301  1
  I  I112  1  -0.00355852  0.49866146  0.50215497  1
  I  I113  1  -0.00390785  0.49643860  0.82960195  1
  I  I114  1  -0.00048035  0.83796217  0.16773991  1
  I  I115  1  -0.00441144  0.83180211  0.50027589  1
  I  I116  1  -0.00076014  0.83186019  0.83228376  1
  I  I117  1  0.33612082  0.17063530  0.17335971  1
  I  I118  1  0.33479425  0.17361848  0.49357102  1
  I  I119  1  0.33357675  0.16812027  0.83378988  1
  I  I120  1  0.33183317  0.49689570  0.16715764  1
  I  I121  1  0.33663418  0.49405095  0.50267094  1
  I  I122  1  0.33649755  0.49923922  0.82925706  1
  I  I123  1  0.33338609  0.83079210  0.16843028  1
  I  I124  1  0.33335596  0.83253750  0.49995385  1
  I  I125  1  0.33357540  0.83329809  0.83254925  1
  I  I126  1  0.66840173  0.17347149  0.17307812  1
  I  I127  1  0.66800380  0.16734065  0.49887224  1
  I  I128  1  0.67045367  0.16931103  0.82860429  1
  I  I129  1  0.66999084  0.49774490  0.16739197  1
  I  I130  1  0.66825773  0.49586270  0.49867360  1
  I  I131  1  0.66840928  0.49557280  0.83337349  1
  I  I132  1  0.66696994  0.82715759  0.16709166  1
  I  I133  1  0.67026598  0.83763453  0.49991830  1
  I  I134  1  0.66713656  0.83606804  0.83286242  1
