# generated using pymatgen
data_Cs27Sn13Pb14I81
_symmetry_space_group_name_H-M   'P 1'
_cell_length_a   18.96889443
_cell_length_b   18.98592566
_cell_length_c   18.98160296
_cell_angle_alpha   89.99924270
_cell_angle_beta   90.00058207
_cell_angle_gamma   89.99768740
_symmetry_Int_Tables_number   1
_chemical_formula_structural   Cs27Sn13Pb14I81
_chemical_formula_sum   'Cs27 Sn13 Pb14 I81'
_cell_volume   6836.07281673
_cell_formula_units_Z   1
loop_
 _symmetry_equiv_pos_site_id
 _symmetry_equiv_pos_as_xyz
  1  'x, y, z'
loop_
 _atom_site_type_symbol
 _atom_site_label
 _atom_site_symmetry_multiplicity
 _atom_site_fract_x
 _atom_site_fract_y
 _atom_site_fract_z
 _atom_site_occupancy
  Cs  Cs0  1  0.00400692  -0.00013497  -0.00315830  1
  Cs  Cs1  1  0.00174907  0.00104326  0.33492010  1
  Cs  Cs2  1  0.00674452  0.00081748  0.66911075  1
  Cs  Cs3  1  -0.00057006  0.33274775  0.00105865  1
  Cs  Cs4  1  0.00285296  0.33516220  0.33510397  1
  Cs  Cs5  1  0.00059716  0.33263669  0.66301992  1
  Cs  Cs6  1  -0.00001865  0.66830771  -0.00422670  1
  Cs  Cs7  1  0.00250009  0.66437219  0.33430566  1
  Cs  Cs8  1  0.00089973  0.66825637  0.66937657  1
  Cs  Cs9  1  0.32748122  0.00126847  -0.00144102  1
  Cs  Cs10  1  0.33023545  -0.00145536  0.33351889  1
  Cs  Cs11  1  0.32882834  0.00733150  0.66936575  1
  Cs  Cs12  1  0.33123029  0.33130376  -0.00366409  1
  Cs  Cs13  1  0.32718436  0.33662980  0.33390149  1
  Cs  Cs14  1  0.33335651  0.32594427  0.67125538  1
  Cs  Cs15  1  0.33492221  0.66639449  0.00162146  1
  Cs  Cs16  1  0.33261319  0.66570792  0.33473932  1
  Cs  Cs17  1  0.33391781  0.66621603  0.66298110  1
  Cs  Cs18  1  0.66807455  -0.00133415  0.00349268  1
  Cs  Cs19  1  0.66686412  -0.00164983  0.33218119  1
  Cs  Cs20  1  0.66581913  0.00069754  0.66226837  1
  Cs  Cs21  1  0.66709094  0.33437173  0.00027652  1
  Cs  Cs22  1  0.66803741  0.33379585  0.33238928  1
  Cs  Cs23  1  0.66440229  0.33168025  0.66699019  1
  Cs  Cs24  1  0.66686494  0.66634233  -0.00028856  1
  Cs  Cs25  1  0.66585574  0.66749151  0.33269142  1
  Cs  Cs26  1  0.66728673  0.66618475  0.66674856  1
  Sn  Sn27  1  0.83266084  0.83243175  0.49918497  1
  Sn  Sn28  1  0.50060984  0.83346390  0.16675064  1
  Sn  Sn29  1  0.83252706  0.16651031  0.16575184  1
  Sn  Sn30  1  0.83256705  0.50039128  0.16727662  1
  Sn  Sn31  1  0.50084120  0.83280771  0.49998050  1
  Sn  Sn32  1  0.50117458  0.50032408  0.49929536  1
  Sn  Sn33  1  0.83195507  0.50106642  0.49922191  1
  Sn  Sn34  1  0.83304571  0.83307478  0.16739726  1
  Sn  Sn35  1  0.83229440  0.16654517  0.83385718  1
  Sn  Sn36  1  0.50042993  0.83337697  0.83314943  1
  Sn  Sn37  1  0.16674085  0.50047658  0.83341880  1
  Sn  Sn38  1  0.50058720  0.16678718  0.16703190  1
  Sn  Sn39  1  0.50082663  0.49973160  0.16738199  1
  Pb  Pb40  1  0.16696231  0.50017833  0.50216179  1
  Pb  Pb41  1  0.83156032  0.83524547  0.83295575  1
  Pb  Pb42  1  0.16628435  0.16677982  0.16681681  1
  Pb  Pb43  1  0.50009538  0.16672400  0.49701203  1
  Pb  Pb44  1  0.83321203  0.16641079  0.49905072  1
  Pb  Pb45  1  0.16663234  0.83308871  0.49984062  1
  Pb  Pb46  1  0.16684850  0.16674734  0.49963865  1
  Pb  Pb47  1  0.16620481  0.83302277  0.16678188  1
  Pb  Pb48  1  0.50225727  0.16399823  0.83606039  1
  Pb  Pb49  1  0.16369056  0.16897008  0.83373527  1
  Pb  Pb50  1  0.16657728  0.50021275  0.16491474  1
  Pb  Pb51  1  0.16990281  0.83115177  0.83335337  1
  Pb  Pb52  1  0.49872917  0.50152631  0.83323059  1
  Pb  Pb53  1  0.83442867  0.49840874  0.83305483  1
  I  I54  1  0.16735666  -0.00008618  0.16513935  1
  I  I55  1  0.16607542  -0.00039598  0.50146720  1
  I  I56  1  0.16689967  0.00015020  0.83280489  1
  I  I57  1  0.16702379  0.33355099  0.16581351  1
  I  I58  1  0.16560554  0.33400895  0.50054867  1
  I  I59  1  0.16937263  0.33622592  0.83340386  1
  I  I60  1  0.16716939  0.66653110  0.16481278  1
  I  I61  1  0.16663007  0.66652371  0.50121559  1
  I  I62  1  0.16332019  0.66392914  0.83400286  1
  I  I63  1  0.50654255  -0.00101737  0.16648372  1
  I  I64  1  0.50509656  -0.00363221  0.49914495  1
  I  I65  1  0.50124861  -0.00386360  0.83192520  1
  I  I66  1  0.50660063  0.33425647  0.17033903  1
  I  I67  1  0.50455371  0.33690484  0.49642177  1
  I  I68  1  0.49816230  0.33312107  0.83295722  1
  I  I69  1  0.50478024  0.66687391  0.16635214  1
  I  I70  1  0.50317162  0.66692613  0.49573232  1
  I  I71  1  0.50051856  0.66941608  0.83839010  1
  I  I72  1  0.82674763  -0.00061489  0.16682678  1
  I  I73  1  0.82810515  -0.00342479  0.49664954  1
  I  I74  1  0.83152832  0.00283911  0.83872407  1
  I  I75  1  0.82757830  0.33391081  0.16586682  1
  I  I76  1  0.83011365  0.33656933  0.49762665  1
  I  I77  1  0.83411525  0.33071099  0.83852013  1
  I  I78  1  0.82755529  0.66661945  0.17040720  1
  I  I79  1  0.82959969  0.66655061  0.49309707  1
  I  I80  1  0.83489600  0.66678708  0.83595615  1
  I  I81  1  0.16859029  0.16764118  0.00010160  1
  I  I82  1  0.16436462  0.16752482  0.33286160  1
  I  I83  1  0.16499074  0.16755915  0.66719173  1
  I  I84  1  0.16686060  0.49973199  -0.00254666  1
  I  I85  1  0.16662516  0.49937739  0.33347025  1
  I  I86  1  0.16589177  0.50025993  0.66945633  1
  I  I87  1  0.16657683  0.83253541  -0.00001850  1
  I  I88  1  0.17070071  0.83299937  0.33331055  1
  I  I89  1  0.16529647  0.83246441  0.66666075  1
  I  I90  1  0.50245728  0.16832428  0.00419748  1
  I  I91  1  0.50852709  0.16266201  0.32893277  1
  I  I92  1  0.50018202  0.16676402  0.66675945  1
  I  I93  1  0.50323788  0.50150877  0.00348296  1
  I  I94  1  0.50338308  0.50422455  0.33251805  1
  I  I95  1  0.50323656  0.50593003  0.66341567  1
  I  I96  1  0.50390779  0.83230747  0.00193356  1
  I  I97  1  0.50423623  0.83279947  0.33271252  1
  I  I98  1  0.50458448  0.82670354  0.66518503  1
  I  I99  1  0.82958744  0.16740307  0.00223608  1
  I  I100  1  0.82868251  0.16643561  0.32955570  1
  I  I101  1  0.83517232  0.16736812  0.66866793  1
  I  I102  1  0.83011131  0.50201527  0.00342874  1
  I  I103  1  0.83011105  0.49847420  0.33248321  1
  I  I104  1  0.83069645  0.50298864  0.66330235  1
  I  I105  1  0.82862114  0.83066498  0.00324167  1
  I  I106  1  0.82576277  0.83465167  0.33244673  1
  I  I107  1  0.82842474  0.82956931  0.66350773  1
  I  I108  1  -0.00425723  0.16686268  0.16321472  1
  I  I109  1  -0.00075881  0.16725898  0.49849736  1
  I  I110  1  -0.00401825  0.16493092  0.84050605  1
  I  I111  1  -0.00394851  0.49919721  0.17010955  1
  I  I112  1  -0.00357441  0.50278142  0.49617477  1
  I  I113  1  0.00212140  0.49870004  0.83400482  1
  I  I114  1  -0.00443396  0.83340586  0.17095284  1
  I  I115  1  -0.00401884  0.82942939  0.49476704  1
  I  I116  1  -0.00021861  0.83466532  0.83349195  1
  I  I117  1  0.33699069  0.16606655  0.16763166  1
  I  I118  1  0.33408017  0.16692297  0.49911071  1
  I  I119  1  0.33352751  0.16609232  0.83401200  1
  I  I120  1  0.33720961  0.50074175  0.17005655  1
  I  I121  1  0.33710940  0.50527494  0.49497402  1
  I  I122  1  0.33107892  0.50171750  0.83414169  1
  I  I123  1  0.33764781  0.83325327  0.16734700  1
  I  I124  1  0.33753370  0.82818770  0.49779292  1
  I  I125  1  0.33812014  0.83334377  0.83486741  1
  I  I126  1  0.66732201  0.16650833  0.16273896  1
  I  I127  1  0.66675009  0.16723144  0.50427175  1
  I  I128  1  0.66984917  0.16944383  0.83576621  1
  I  I129  1  0.66670636  0.50011553  0.16904804  1
  I  I130  1  0.66678039  0.50442605  0.49646940  1
  I  I131  1  0.66663429  0.49950748  0.83359453  1
  I  I132  1  0.66626542  0.83348533  0.16721958  1
  I  I133  1  0.66623748  0.82922669  0.49855845  1
  I  I134  1  0.66360417  0.83138082  0.83471080  1
