# generated using pymatgen
data_Cs27Sn13Pb14I81
_symmetry_space_group_name_H-M   'P 1'
_cell_length_a   18.98412237
_cell_length_b   18.97330985
_cell_length_c   18.97541628
_cell_angle_alpha   90.00025841
_cell_angle_beta   89.99862426
_cell_angle_gamma   90.00032151
_symmetry_Int_Tables_number   1
_chemical_formula_structural   Cs27Sn13Pb14I81
_chemical_formula_sum   'Cs27 Sn13 Pb14 I81'
_cell_volume   6834.78622857
_cell_formula_units_Z   1
loop_
 _symmetry_equiv_pos_site_id
 _symmetry_equiv_pos_as_xyz
  1  'x, y, z'
loop_
 _atom_site_type_symbol
 _atom_site_label
 _atom_site_symmetry_multiplicity
 _atom_site_fract_x
 _atom_site_fract_y
 _atom_site_fract_z
 _atom_site_occupancy
  Cs  Cs0  1  -0.00137797  0.00115062  0.00067545  1
  Cs  Cs1  1  -0.00044769  0.00194932  0.33269607  1
  Cs  Cs2  1  0.00315821  -0.00530623  0.66629085  1
  Cs  Cs3  1  0.00059790  0.33147928  -0.00178688  1
  Cs  Cs4  1  -0.00013249  0.33265366  0.33460355  1
  Cs  Cs5  1  -0.00009586  0.33610608  0.66694694  1
  Cs  Cs6  1  0.00054288  0.66715049  0.00111553  1
  Cs  Cs7  1  -0.00198115  0.66628907  0.33230609  1
  Cs  Cs8  1  0.00001232  0.66561966  0.66842005  1
  Cs  Cs9  1  0.33499291  0.00147229  -0.00267663  1
  Cs  Cs10  1  0.33264137  0.00600374  0.34129452  1
  Cs  Cs11  1  0.33971320  -0.00551337  0.66145563  1
  Cs  Cs12  1  0.33331941  0.33372952  0.00043236  1
  Cs  Cs13  1  0.33443473  0.33021568  0.33200133  1
  Cs  Cs14  1  0.33214058  0.33453492  0.66768287  1
  Cs  Cs15  1  0.33219082  0.66543475  0.00209542  1
  Cs  Cs16  1  0.33452391  0.66591530  0.33093787  1
  Cs  Cs17  1  0.33273446  0.66872510  0.66666507  1
  Cs  Cs18  1  0.66579427  0.00753306  -0.00756042  1
  Cs  Cs19  1  0.66895552  -0.00123097  0.33449998  1
  Cs  Cs20  1  0.65782547  0.00071429  0.67243676  1
  Cs  Cs21  1  0.66474003  0.32501933  -0.00182055  1
  Cs  Cs22  1  0.66587019  0.33377673  0.33230635  1
  Cs  Cs23  1  0.66751867  0.33390534  0.66796395  1
  Cs  Cs24  1  0.66787476  0.66704813  0.00311053  1
  Cs  Cs25  1  0.66817924  0.66625347  0.33185447  1
  Cs  Cs26  1  0.66783494  0.66592564  0.66746284  1
  Sn  Sn27  1  0.16659657  0.16692509  0.83272462  1
  Sn  Sn28  1  0.16689505  0.83299619  0.16701034  1
  Sn  Sn29  1  0.16686841  0.50023371  0.49956737  1
  Sn  Sn30  1  0.83330131  0.50027928  0.49909009  1
  Sn  Sn31  1  0.49944058  0.50048288  0.83302528  1
  Sn  Sn32  1  0.83399824  0.50009365  0.16708278  1
  Sn  Sn33  1  0.50012166  0.83363198  0.16682549  1
  Sn  Sn34  1  0.83314084  0.83269884  0.16713881  1
  Sn  Sn35  1  0.83336132  0.16645216  0.50039549  1
  Sn  Sn36  1  0.16746513  0.49948056  0.83348210  1
  Sn  Sn37  1  0.16576709  0.50037104  0.16684209  1
  Sn  Sn38  1  0.50003263  0.50029673  0.50065764  1
  Sn  Sn39  1  0.83327735  0.83319514  0.49969532  1
  Pb  Pb40  1  0.83344657  0.16674197  0.16844905  1
  Pb  Pb41  1  0.50031552  0.50074227  0.16654962  1
  Pb  Pb42  1  0.49990547  0.83030136  0.83578851  1
  Pb  Pb43  1  0.50246610  0.16940341  0.49996753  1
  Pb  Pb44  1  0.83594951  0.16668680  0.83008444  1
  Pb  Pb45  1  0.16671677  0.83282601  0.83557178  1
  Pb  Pb46  1  0.50242083  0.83076821  0.49791587  1
  Pb  Pb47  1  0.16659575  0.16688151  0.16502201  1
  Pb  Pb48  1  0.16482493  0.16880000  0.50232621  1
  Pb  Pb49  1  0.83336163  0.50002593  0.83403790  1
  Pb  Pb50  1  0.49993226  0.16289142  0.16691449  1
  Pb  Pb51  1  0.83326992  0.83325736  0.83372632  1
  Pb  Pb52  1  0.16473508  0.83100911  0.49750501  1
  Pb  Pb53  1  0.49706198  0.16942241  0.83299265  1
  I  I54  1  0.16434643  -0.00331987  0.16386549  1
  I  I55  1  0.16415393  -0.00022166  0.50043952  1
  I  I56  1  0.16312824  0.00243452  0.83644202  1
  I  I57  1  0.16187046  0.33736901  0.16835408  1
  I  I58  1  0.16404052  0.33795159  0.49518737  1
  I  I59  1  0.16959819  0.33620113  0.83522163  1
  I  I60  1  0.16512813  0.66510309  0.16471484  1
  I  I61  1  0.16456894  0.66219789  0.50518903  1
  I  I62  1  0.16971042  0.66275373  0.83190822  1
  I  I63  1  0.50094693  -0.00533477  0.16680659  1
  I  I64  1  0.50121002  -0.00036180  0.49845682  1
  I  I65  1  0.49931558  0.00000623  0.83524132  1
  I  I66  1  0.50045111  0.33361280  0.16609556  1
  I  I67  1  0.50171163  0.33817998  0.50213533  1
  I  I68  1  0.49929711  0.33758880  0.83114475  1
  I  I69  1  0.50051394  0.66864914  0.16680177  1
  I  I70  1  0.50146482  0.66243278  0.50331260  1
  I  I71  1  0.49303809  0.66240974  0.82863866  1
  I  I72  1  0.83504414  -0.00365182  0.17143562  1
  I  I73  1  0.83520459  -0.00092626  0.49377368  1
  I  I74  1  0.83611854  0.00007771  0.83467253  1
  I  I75  1  0.83841933  0.33690076  0.17094967  1
  I  I76  1  0.83387662  0.33556610  0.49653409  1
  I  I77  1  0.83139701  0.33373130  0.83399554  1
  I  I78  1  0.83461696  0.66617926  0.17412732  1
  I  I79  1  0.83330798  0.66521850  0.49513296  1
  I  I80  1  0.83563127  0.66623359  0.82909327  1
  I  I81  1  0.16627560  0.17386006  -0.00279173  1
  I  I82  1  0.16579425  0.16732247  0.33368576  1
  I  I83  1  0.16390845  0.17509718  0.66995364  1
  I  I84  1  0.16693333  0.50048046  0.00050745  1
  I  I85  1  0.16526140  0.50500474  0.33312394  1
  I  I86  1  0.16612424  0.49508764  0.66635591  1
  I  I87  1  0.16298317  0.82651401  0.00406881  1
  I  I88  1  0.16766347  0.82712660  0.32924854  1
  I  I89  1  0.16396173  0.83207666  0.66635448  1
  I  I90  1  0.50143340  0.16946553  -0.00028916  1
  I  I91  1  0.49844818  0.17108980  0.33365405  1
  I  I92  1  0.50139992  0.16418709  0.66654344  1
  I  I93  1  0.49574758  0.50263377  -0.00217718  1
  I  I94  1  0.49905422  0.50191676  0.33592872  1
  I  I95  1  0.49772403  0.49967256  0.66594902  1
  I  I96  1  0.50248198  0.82928245  0.00394025  1
  I  I97  1  0.49853885  0.82821491  0.33005449  1
  I  I98  1  0.50176518  0.83439851  0.66638051  1
  I  I99  1  0.83317239  0.16685752  -0.00020142  1
  I  I100  1  0.83518674  0.16851160  0.33644459  1
  I  I101  1  0.83401948  0.17065898  0.66212571  1
  I  I102  1  0.83661222  0.50649397  0.00359846  1
  I  I103  1  0.83592879  0.50087671  0.33414124  1
  I  I104  1  0.83557970  0.50081110  0.66329786  1
  I  I105  1  0.83458146  0.82618088  0.00433404  1
  I  I106  1  0.83358366  0.83101890  0.33269071  1
  I  I107  1  0.83452370  0.83018897  0.66302985  1
  I  I108  1  0.00000445  0.16344322  0.16582181  1
  I  I109  1  -0.00316831  0.16985001  0.49962068  1
  I  I110  1  0.00333565  0.17592561  0.83461395  1
  I  I111  1  0.00021952  0.50702620  0.16941040  1
  I  I112  1  -0.00045115  0.49984703  0.49968774  1
  I  I113  1  0.00322401  0.49696755  0.83131892  1
  I  I114  1  -0.00046112  0.82802424  0.16988708  1
  I  I115  1  -0.00357163  0.83083752  0.49494921  1
  I  I116  1  0.00017340  0.83060390  0.83491949  1
  I  I117  1  0.33308789  0.16866343  0.16670630  1
  I  I118  1  0.33321250  0.16775450  0.50046574  1
  I  I119  1  0.32954274  0.17079924  0.83458759  1
  I  I120  1  0.33052710  0.50438780  0.16830922  1
  I  I121  1  0.33265383  0.50015711  0.50020963  1
  I  I122  1  0.33207029  0.49650547  0.83095321  1
  I  I123  1  0.33248400  0.82592976  0.16375810  1
  I  I124  1  0.33337123  0.83202841  0.49819214  1
  I  I125  1  0.33319179  0.83445594  0.83565981  1
  I  I126  1  0.66690546  0.16968344  0.16605558  1
  I  I127  1  0.67067888  0.16915801  0.49861960  1
  I  I128  1  0.66648014  0.16737710  0.83383923  1
  I  I129  1  0.66950825  0.50525744  0.17075223  1
  I  I130  1  0.66789275  0.50020021  0.49984071  1
  I  I131  1  0.66411696  0.50194092  0.82964922  1
  I  I132  1  0.66816138  0.82631461  0.17176316  1
  I  I133  1  0.67064105  0.83000035  0.49337040  1
  I  I134  1  0.66654177  0.83139975  0.83561778  1
