# generated using pymatgen
data_Cs27Sn14Pb13I81
_symmetry_space_group_name_H-M   'P 1'
_cell_length_a   18.96911491
_cell_length_b   18.97860593
_cell_length_c   18.97756265
_cell_angle_alpha   89.99992332
_cell_angle_beta   89.99997387
_cell_angle_gamma   90.00198964
_symmetry_Int_Tables_number   1
_chemical_formula_structural   Cs27Sn14Pb13I81
_chemical_formula_sum   'Cs27 Sn14 Pb13 I81'
_cell_volume   6832.06216287
_cell_formula_units_Z   1
loop_
 _symmetry_equiv_pos_site_id
 _symmetry_equiv_pos_as_xyz
  1  'x, y, z'
loop_
 _atom_site_type_symbol
 _atom_site_label
 _atom_site_symmetry_multiplicity
 _atom_site_fract_x
 _atom_site_fract_y
 _atom_site_fract_z
 _atom_site_occupancy
  Cs  Cs0  1  0.00248244  0.00138436  0.00554217  1
  Cs  Cs1  1  -0.00319048  -0.00341830  0.32832201  1
  Cs  Cs2  1  0.00283256  0.00361898  0.66504323  1
  Cs  Cs3  1  -0.00076988  0.33399200  -0.00076073  1
  Cs  Cs4  1  -0.00200993  0.33454888  0.33495974  1
  Cs  Cs5  1  -0.00083849  0.33260805  0.66568354  1
  Cs  Cs6  1  0.00101955  0.66451578  -0.00120819  1
  Cs  Cs7  1  0.00162250  0.66724312  0.33359470  1
  Cs  Cs8  1  -0.00180367  0.66488532  0.66823495  1
  Cs  Cs9  1  0.33202538  0.00008182  -0.00046560  1
  Cs  Cs10  1  0.33308301  0.00081525  0.33125116  1
  Cs  Cs11  1  0.33532009  0.00296561  0.66522149  1
  Cs  Cs12  1  0.33496818  0.33319021  0.00001545  1
  Cs  Cs13  1  0.33623593  0.33642167  0.33853162  1
  Cs  Cs14  1  0.33184573  0.33004004  0.66102518  1
  Cs  Cs15  1  0.33242066  0.66712294  0.00168849  1
  Cs  Cs16  1  0.33244225  0.66259162  0.33108464  1
  Cs  Cs17  1  0.33382562  0.66782890  0.66563019  1
  Cs  Cs18  1  0.66612533  0.00167890  0.00112111  1
  Cs  Cs19  1  0.67098612  -0.00078109  0.33462044  1
  Cs  Cs20  1  0.66340350  -0.00612455  0.66497747  1
  Cs  Cs21  1  0.66500131  0.33308036  -0.00095838  1
  Cs  Cs22  1  0.66583122  0.33410097  0.33371972  1
  Cs  Cs23  1  0.66977060  0.33210363  0.66893663  1
  Cs  Cs24  1  0.66629407  0.66511758  -0.00646049  1
  Cs  Cs25  1  0.66425104  0.66493324  0.33687233  1
  Cs  Cs26  1  0.66867924  0.67832621  0.67104678  1
  Sn  Sn27  1  0.16597212  0.49948006  0.16607756  1
  Sn  Sn28  1  0.16672106  0.83269304  0.83325986  1
  Sn  Sn29  1  0.49912309  0.16594735  0.16615101  1
  Sn  Sn30  1  0.50070337  0.16758435  0.83391203  1
  Sn  Sn31  1  0.16677945  0.83331249  0.49994716  1
  Sn  Sn32  1  0.83309952  0.49976161  0.49947918  1
  Sn  Sn33  1  0.49875847  0.49916004  0.83298429  1
  Sn  Sn34  1  0.16760655  0.16751283  0.16679757  1
  Sn  Sn35  1  0.83369470  0.50010411  0.16731149  1
  Sn  Sn36  1  0.83257466  0.16641862  0.83271996  1
  Sn  Sn37  1  0.49963615  0.83405985  0.16647116  1
  Sn  Sn38  1  0.83322238  0.16710668  0.50097024  1
  Sn  Sn39  1  0.16790898  0.50022902  0.83381808  1
  Sn  Sn40  1  0.16749455  0.83310256  0.16641809  1
  Pb  Pb41  1  0.50241214  0.16675347  0.49977619  1
  Pb  Pb42  1  0.83648482  0.83705396  0.83373980  1
  Pb  Pb43  1  0.16430684  0.16462353  0.49649328  1
  Pb  Pb44  1  0.16712296  0.16717495  0.83486818  1
  Pb  Pb45  1  0.83550016  0.83320867  0.49995497  1
  Pb  Pb46  1  0.83290909  0.83007109  0.16641636  1
  Pb  Pb47  1  0.50322249  0.50009213  0.50414002  1
  Pb  Pb48  1  0.16510629  0.50156792  0.50027959  1
  Pb  Pb49  1  0.83359439  0.49858587  0.83324510  1
  Pb  Pb50  1  0.49711013  0.83333800  0.49672285  1
  Pb  Pb51  1  0.83282306  0.16855880  0.16657342  1
  Pb  Pb52  1  0.49980489  0.49984484  0.16527559  1
  Pb  Pb53  1  0.49760793  0.83390864  0.83540474  1
  I  I54  1  0.17021544  -0.00039621  0.16584707  1
  I  I55  1  0.16433023  -0.00327686  0.50154457  1
  I  I56  1  0.16526171  -0.00222364  0.83535952  1
  I  I57  1  0.16543733  0.33405561  0.16028123  1
  I  I58  1  0.16649293  0.33322313  0.50004963  1
  I  I59  1  0.16635583  0.33599057  0.83941227  1
  I  I60  1  0.16652795  0.66680202  0.16620406  1
  I  I61  1  0.16380973  0.66945726  0.49522999  1
  I  I62  1  0.17101918  0.66587034  0.83870293  1
  I  I63  1  0.49154372  0.00091183  0.16075443  1
  I  I64  1  0.50252411  0.00006702  0.50467562  1
  I  I65  1  0.50297133  0.00297834  0.83592192  1
  I  I66  1  0.49746946  0.33066781  0.16352490  1
  I  I67  1  0.49662643  0.33342730  0.49448165  1
  I  I68  1  0.49891447  0.33259667  0.84082599  1
  I  I69  1  0.49596845  0.66870951  0.16558192  1
  I  I70  1  0.50322115  0.66662657  0.49931001  1
  I  I71  1  0.49860278  0.66443261  0.83556755  1
  I  I72  1  0.83650040  0.00016857  0.16710505  1
  I  I73  1  0.83473859  0.00281648  0.50375101  1
  I  I74  1  0.82769668  0.00491095  0.82794053  1
  I  I75  1  0.83836127  0.33625450  0.16708808  1
  I  I76  1  0.83526148  0.33337985  0.49961434  1
  I  I77  1  0.83460794  0.33070624  0.83308503  1
  I  I78  1  0.83818301  0.66211420  0.17201988  1
  I  I79  1  0.83532455  0.66380288  0.49502167  1
  I  I80  1  0.83042945  0.66657932  0.83261165  1
  I  I81  1  0.16477739  0.16241669  0.00306167  1
  I  I82  1  0.17082932  0.16754928  0.32825563  1
  I  I83  1  0.16783978  0.16540963  0.66656191  1
  I  I84  1  0.16385531  0.50458928  0.00086091  1
  I  I85  1  0.16408001  0.50129577  0.33022043  1
  I  I86  1  0.16822588  0.50478801  0.66979292  1
  I  I87  1  0.17013998  0.83240030  0.00114267  1
  I  I88  1  0.16920787  0.83363845  0.33155684  1
  I  I89  1  0.16391803  0.82795521  0.66752716  1
  I  I90  1  0.50247611  0.16674689  0.00012053  1
  I  I91  1  0.49681932  0.16244144  0.32982076  1
  I  I92  1  0.50159158  0.17112455  0.66993626  1
  I  I93  1  0.50107993  0.49855396  -0.00256834  1
  I  I94  1  0.49835123  0.50014539  0.33331499  1
  I  I95  1  0.49311181  0.49288341  0.67196800  1
  I  I96  1  0.49289962  0.83442263  0.00317468  1
  I  I97  1  0.49499663  0.83888035  0.32858568  1
  I  I98  1  0.49882777  0.83311402  0.66694948  1
  I  I99  1  0.83264179  0.16869347  -0.00201235  1
  I  I100  1  0.83497763  0.16903118  0.33513571  1
  I  I101  1  0.83034915  0.17350114  0.66706194  1
  I  I102  1  0.83568856  0.49863836  0.00207552  1
  I  I103  1  0.83967517  0.49409969  0.33270969  1
  I  I104  1  0.83436244  0.49633030  0.66462826  1
  I  I105  1  0.83638906  0.83292682  0.00008709  1
  I  I106  1  0.83611100  0.83825034  0.33306044  1
  I  I107  1  0.83519030  0.82820329  0.66690139  1
  I  I108  1  0.00253793  0.16355172  0.16607401  1
  I  I109  1  -0.00330335  0.17073241  0.50599535  1
  I  I110  1  -0.00183300  0.16689784  0.83149695  1
  I  I111  1  0.00181240  0.49979199  0.16418251  1
  I  I112  1  -0.00278306  0.49652757  0.50024600  1
  I  I113  1  0.00279948  0.50292702  0.83515902  1
  I  I114  1  0.00370419  0.83687794  0.16684954  1
  I  I115  1  0.00349070  0.83363831  0.49585949  1
  I  I116  1  0.00468854  0.82691842  0.83713921  1
  I  I117  1  0.33318225  0.16640611  0.15997759  1
  I  I118  1  0.33309989  0.16494783  0.50257994  1
  I  I119  1  0.33588661  0.16714834  0.83742720  1
  I  I120  1  0.33021860  0.50115884  0.16360919  1
  I  I121  1  0.33329824  0.50165116  0.49727700  1
  I  I122  1  0.33223506  0.49869605  0.84106293  1
  I  I123  1  0.33142657  0.83238924  0.16638814  1
  I  I124  1  0.32906457  0.83303904  0.50247317  1
  I  I125  1  0.32945435  0.83388496  0.83307101  1
  I  I126  1  0.66385334  0.16342580  0.16523626  1
  I  I127  1  0.67043638  0.17082777  0.49836154  1
  I  I128  1  0.66569019  0.17382835  0.83665659  1
  I  I129  1  0.66883995  0.49873274  0.16857632  1
  I  I130  1  0.67111049  0.49529153  0.49174042  1
  I  I131  1  0.66457028  0.49649517  0.83510992  1
  I  I132  1  0.66356090  0.83865495  0.16596451  1
  I  I133  1  0.66666290  0.83306675  0.49876653  1
  I  I134  1  0.66633323  0.82968348  0.83479983  1
