# generated using pymatgen
data_Cs27Sn14Pb13I81
_symmetry_space_group_name_H-M   'P 1'
_cell_length_a   18.98245627
_cell_length_b   18.98064690
_cell_length_c   18.96774006
_cell_angle_alpha   90.00016277
_cell_angle_beta   89.99999993
_cell_angle_gamma   90.00000001
_symmetry_Int_Tables_number   1
_chemical_formula_structural   Cs27Sn14Pb13I81
_chemical_formula_sum   'Cs27 Sn14 Pb13 I81'
_cell_volume   6834.06346192
_cell_formula_units_Z   1
loop_
 _symmetry_equiv_pos_site_id
 _symmetry_equiv_pos_as_xyz
  1  'x, y, z'
loop_
 _atom_site_type_symbol
 _atom_site_label
 _atom_site_symmetry_multiplicity
 _atom_site_fract_x
 _atom_site_fract_y
 _atom_site_fract_z
 _atom_site_occupancy
  Cs  Cs0  1  -0.00000008  -0.00063793  0.00002608  1
  Cs  Cs1  1  -0.00000002  -0.00468767  0.33231870  1
  Cs  Cs2  1  -0.00000001  0.00905903  0.66250267  1
  Cs  Cs3  1  0.00000004  0.33196523  0.00028918  1
  Cs  Cs4  1  -0.00000011  0.33583372  0.33254039  1
  Cs  Cs5  1  0.00000004  0.32475056  0.66194516  1
  Cs  Cs6  1  0.00000000  0.66739156  0.00067321  1
  Cs  Cs7  1  0.00000001  0.66756646  0.33498663  1
  Cs  Cs8  1  0.00000005  0.66660087  0.66296150  1
  Cs  Cs9  1  0.33396049  -0.00340068  0.00090014  1
  Cs  Cs10  1  0.34223250  0.00174480  0.33882810  1
  Cs  Cs11  1  0.33398619  0.00107385  0.65840130  1
  Cs  Cs12  1  0.33302697  0.33528302  -0.00031221  1
  Cs  Cs13  1  0.33495911  0.33289151  0.33397393  1
  Cs  Cs14  1  0.33171643  0.33280089  0.66838182  1
  Cs  Cs15  1  0.33170501  0.66619127  -0.00117386  1
  Cs  Cs16  1  0.33010054  0.66622472  0.33395334  1
  Cs  Cs17  1  0.33281863  0.66753672  0.66900894  1
  Cs  Cs18  1  0.66603952  -0.00340064  0.00090016  1
  Cs  Cs19  1  0.65776755  0.00174480  0.33882820  1
  Cs  Cs20  1  0.66601369  0.00107400  0.65840127  1
  Cs  Cs21  1  0.66697295  0.33528302  -0.00031228  1
  Cs  Cs22  1  0.66504106  0.33289150  0.33397391  1
  Cs  Cs23  1  0.66828351  0.33280090  0.66838188  1
  Cs  Cs24  1  0.66829495  0.66619121  -0.00117388  1
  Cs  Cs25  1  0.66989950  0.66622472  0.33395344  1
  Cs  Cs26  1  0.66718130  0.66753666  0.66900882  1
  Sn  Sn27  1  0.16624288  0.16635075  0.16613832  1
  Sn  Sn28  1  0.50000002  0.50030208  0.16653961  1
  Sn  Sn29  1  0.83472067  0.83290142  0.83383238  1
  Sn  Sn30  1  0.16569635  0.50041315  0.83399523  1
  Sn  Sn31  1  0.50000002  0.50036656  0.50050679  1
  Sn  Sn32  1  0.83359186  0.50002266  0.16561363  1
  Sn  Sn33  1  0.83385990  0.83351384  0.16581573  1
  Sn  Sn34  1  0.16614008  0.83351389  0.16581573  1
  Sn  Sn35  1  0.16640813  0.50002264  0.16561365  1
  Sn  Sn36  1  0.16527932  0.83290143  0.83383238  1
  Sn  Sn37  1  0.49999999  0.16683847  0.83424263  1
  Sn  Sn38  1  0.83430368  0.50041316  0.83399521  1
  Sn  Sn39  1  0.83375711  0.16635074  0.16613830  1
  Sn  Sn40  1  0.49999999  0.49910073  0.83342061  1
  Pb  Pb41  1  0.83339922  0.16688421  0.49597551  1
  Pb  Pb42  1  0.50000003  0.16894521  0.16476879  1
  Pb  Pb43  1  0.50000003  0.83315330  0.83329676  1
  Pb  Pb44  1  0.83158024  0.16613665  0.83536243  1
  Pb  Pb45  1  0.50000001  0.83004528  0.50011159  1
  Pb  Pb46  1  0.16660079  0.16688421  0.49597553  1
  Pb  Pb47  1  0.16841976  0.16613661  0.83536244  1
  Pb  Pb48  1  0.83360851  0.83308193  0.50028998  1
  Pb  Pb49  1  0.50000004  0.83047535  0.16663847  1
  Pb  Pb50  1  0.16851023  0.49997465  0.50045600  1
  Pb  Pb51  1  0.50000001  0.16977201  0.50323367  1
  Pb  Pb52  1  0.16639148  0.83308191  0.50028995  1
  Pb  Pb53  1  0.83148975  0.49997465  0.50045604  1
  I  I54  1  0.15830571  -0.00089364  0.16160033  1
  I  I55  1  0.16839173  -0.00003751  0.50197490  1
  I  I56  1  0.16399502  -0.00318170  0.83895543  1
  I  I57  1  0.16464598  0.33483569  0.16320410  1
  I  I58  1  0.16741304  0.33360286  0.50068076  1
  I  I59  1  0.16622793  0.33657371  0.83783691  1
  I  I60  1  0.16562763  0.66589696  0.16358295  1
  I  I61  1  0.16892360  0.66645077  0.49483821  1
  I  I62  1  0.16964290  0.66536627  0.84102140  1
  I  I63  1  0.49999991  0.00007900  0.16534886  1
  I  I64  1  0.50000000  0.00040730  0.50092303  1
  I  I65  1  0.49999990  0.00235933  0.83562827  1
  I  I66  1  0.49999998  0.33758489  0.16772850  1
  I  I67  1  0.49999995  0.33726828  0.49581625  1
  I  I68  1  0.50000014  0.33641013  0.83380022  1
  I  I69  1  0.50000003  0.66179727  0.16259083  1
  I  I70  1  0.50000007  0.66212338  0.50258015  1
  I  I71  1  0.49999995  0.66282275  0.83385726  1
  I  I72  1  0.84169438  -0.00089362  0.16160040  1
  I  I73  1  0.83160820  -0.00003749  0.50197496  1
  I  I74  1  0.83600516  -0.00318171  0.83895529  1
  I  I75  1  0.83535403  0.33483568  0.16320416  1
  I  I76  1  0.83258699  0.33360286  0.50068060  1
  I  I77  1  0.83377193  0.33657369  0.83783698  1
  I  I78  1  0.83437229  0.66589700  0.16358288  1
  I  I79  1  0.83107635  0.66645074  0.49483824  1
  I  I80  1  0.83035719  0.66536628  0.84102150  1
  I  I81  1  0.16329563  0.16863294  0.00356513  1
  I  I82  1  0.16365670  0.16858032  0.32743496  1
  I  I83  1  0.16920625  0.16690181  0.66699253  1
  I  I84  1  0.17111799  0.50058168  0.00080469  1
  I  I85  1  0.16670346  0.50041035  0.32931112  1
  I  I86  1  0.16800408  0.50554040  0.67070361  1
  I  I87  1  0.16310638  0.83101326  0.00076915  1
  I  I88  1  0.16177445  0.83113541  0.32914579  1
  I  I89  1  0.16436424  0.82609469  0.67073443  1
  I  I90  1  0.49999995  0.17512879  -0.00257887  1
  I  I91  1  0.49999994  0.16781102  0.33320300  1
  I  I92  1  0.50000016  0.17214661  0.67094879  1
  I  I93  1  0.50000011  0.49602644  -0.00030046  1
  I  I94  1  0.49999981  0.50121102  0.33184024  1
  I  I95  1  0.50000013  0.49645962  0.66838750  1
  I  I96  1  0.49999979  0.83220468  -0.00002612  1
  I  I97  1  0.49999984  0.83249893  0.33294596  1
  I  I98  1  0.50000023  0.83172578  0.66717571  1
  I  I99  1  0.83670442  0.16863284  0.00356513  1
  I  I100  1  0.83634325  0.16858037  0.32743498  1
  I  I101  1  0.83079370  0.16690193  0.66699254  1
  I  I102  1  0.82888195  0.50058171  0.00080470  1
  I  I103  1  0.83329671  0.50041037  0.32931114  1
  I  I104  1  0.83199585  0.50554034  0.67070362  1
  I  I105  1  0.83689380  0.83101340  0.00076916  1
  I  I106  1  0.83822563  0.83113538  0.32914579  1
  I  I107  1  0.83563560  0.82609455  0.67073445  1
  I  I108  1  0.00000002  0.17220709  0.16509340  1
  I  I109  1  0.00000000  0.16795022  0.50615888  1
  I  I110  1  -0.00000000  0.16996174  0.83189457  1
  I  I111  1  -0.00000001  0.49922344  0.16102084  1
  I  I112  1  -0.00000000  0.50060300  0.49883739  1
  I  I113  1  -0.00000000  0.50517253  0.84213697  1
  I  I114  1  0.00000001  0.82933856  0.16343520  1
  I  I115  1  0.00000002  0.83111849  0.49854865  1
  I  I116  1  -0.00000000  0.82378565  0.83925074  1
  I  I117  1  0.33064033  0.16739076  0.16454175  1
  I  I118  1  0.33362520  0.16668072  0.49753192  1
  I  I119  1  0.33599271  0.17337259  0.83672580  1
  I  I120  1  0.33272541  0.49959325  0.16425293  1
  I  I121  1  0.33660318  0.49952058  0.49904896  1
  I  I122  1  0.33310329  0.50015444  0.83627436  1
  I  I123  1  0.32978284  0.83278014  0.16178085  1
  I  I124  1  0.33315255  0.83346413  0.49956777  1
  I  I125  1  0.33011184  0.82878045  0.83905451  1
  I  I126  1  0.66935965  0.16739062  0.16454172  1
  I  I127  1  0.66637477  0.16668076  0.49753175  1
  I  I128  1  0.66400730  0.17337229  0.83672596  1
  I  I129  1  0.66727461  0.49959320  0.16425313  1
  I  I130  1  0.66339686  0.49952051  0.49904871  1
  I  I131  1  0.66689672  0.50015456  0.83627434  1
  I  I132  1  0.67021723  0.83278029  0.16178076  1
  I  I133  1  0.66684743  0.83346418  0.49956733  1
  I  I134  1  0.66988813  0.82878047  0.83905487  1
