# generated using pymatgen
data_Cs27Sn14Pb13I81
_symmetry_space_group_name_H-M   'P 1'
_cell_length_a   18.98284063
_cell_length_b   18.97726363
_cell_length_c   18.96639023
_cell_angle_alpha   89.99879405
_cell_angle_beta   90.00041660
_cell_angle_gamma   89.99787468
_symmetry_Int_Tables_number   1
_chemical_formula_structural   Cs27Sn14Pb13I81
_chemical_formula_sum   'Cs27 Sn14 Pb13 I81'
_cell_volume   6832.49738257
_cell_formula_units_Z   1
loop_
 _symmetry_equiv_pos_site_id
 _symmetry_equiv_pos_as_xyz
  1  'x, y, z'
loop_
 _atom_site_type_symbol
 _atom_site_label
 _atom_site_symmetry_multiplicity
 _atom_site_fract_x
 _atom_site_fract_y
 _atom_site_fract_z
 _atom_site_occupancy
  Cs  Cs0  1  -0.00087592  -0.00028960  0.00097751  1
  Cs  Cs1  1  0.00080396  0.00065317  0.33608281  1
  Cs  Cs2  1  0.00138100  -0.00026706  0.65753300  1
  Cs  Cs3  1  -0.00058783  0.33354693  -0.00120669  1
  Cs  Cs4  1  0.00034236  0.33361543  0.33334563  1
  Cs  Cs5  1  -0.00009113  0.33345983  0.66669345  1
  Cs  Cs6  1  0.00176434  0.66690602  -0.00164604  1
  Cs  Cs7  1  -0.00249705  0.66455440  0.33208396  1
  Cs  Cs8  1  0.00089091  0.66663708  0.66977982  1
  Cs  Cs9  1  0.33307277  -0.00140193  -0.00047876  1
  Cs  Cs10  1  0.32835463  0.00334690  0.33355107  1
  Cs  Cs11  1  0.33129941  -0.00654372  0.66664718  1
  Cs  Cs12  1  0.33191438  0.33212384  0.00111580  1
  Cs  Cs13  1  0.33275795  0.33262307  0.33324356  1
  Cs  Cs14  1  0.33460604  0.33550476  0.66634170  1
  Cs  Cs15  1  0.32802204  0.67022093  -0.00440744  1
  Cs  Cs16  1  0.33539456  0.66427218  0.33292523  1
  Cs  Cs17  1  0.34388018  0.67118864  0.67647190  1
  Cs  Cs18  1  0.66757333  0.00154276  0.00004870  1
  Cs  Cs19  1  0.66838123  0.00149396  0.33118287  1
  Cs  Cs20  1  0.66528884  -0.00187631  0.66953210  1
  Cs  Cs21  1  0.66848879  0.33077175  -0.00152732  1
  Cs  Cs22  1  0.66689754  0.33362739  0.33180085  1
  Cs  Cs23  1  0.66577697  0.33336406  0.67335579  1
  Cs  Cs24  1  0.66996741  0.66794508  0.00280405  1
  Cs  Cs25  1  0.66755799  0.66567872  0.33427312  1
  Cs  Cs26  1  0.65673344  0.66839643  0.66327686  1
  Sn  Sn27  1  0.83343665  0.49978513  0.16698259  1
  Sn  Sn28  1  0.16631730  0.16751867  0.16564341  1
  Sn  Sn29  1  0.83358770  0.83338276  0.83371560  1
  Sn  Sn30  1  0.83356987  0.16671671  0.16715561  1
  Sn  Sn31  1  0.49999622  0.49997408  0.16670695  1
  Sn  Sn32  1  0.50061885  0.83359791  0.16714640  1
  Sn  Sn33  1  0.83392114  0.49898756  0.49942705  1
  Sn  Sn34  1  0.83191751  0.16801628  0.49917230  1
  Sn  Sn35  1  0.16640009  0.50032256  0.49944866  1
  Sn  Sn36  1  0.16633613  0.16673532  0.83390798  1
  Sn  Sn37  1  0.83278696  0.83346633  0.16598752  1
  Sn  Sn38  1  0.50114430  0.16675025  0.49918548  1
  Sn  Sn39  1  0.16644982  0.49911127  0.16751506  1
  Sn  Sn40  1  0.50007689  0.16668432  0.16724141  1
  Pb  Pb41  1  0.16686398  0.82860057  0.49969581  1
  Pb  Pb42  1  0.16651104  0.49810955  0.83326375  1
  Pb  Pb43  1  0.50018093  0.49967713  0.83705357  1
  Pb  Pb44  1  0.49764956  0.16659260  0.83348883  1
  Pb  Pb45  1  0.83323130  0.50216718  0.83277078  1
  Pb  Pb46  1  0.83514925  0.16497601  0.83276697  1
  Pb  Pb47  1  0.16667152  0.16823246  0.49958221  1
  Pb  Pb48  1  0.50038654  0.49789525  0.49805340  1
  Pb  Pb49  1  0.16393737  0.83617857  0.83347850  1
  Pb  Pb50  1  0.50266664  0.83375599  0.83656378  1
  Pb  Pb51  1  0.50011119  0.83654530  0.49664888  1
  Pb  Pb52  1  0.16630468  0.83306606  0.16719800  1
  Pb  Pb53  1  0.83338216  0.83289489  0.49935225  1
  I  I54  1  0.16696930  0.00335004  0.16281393  1
  I  I55  1  0.16604377  0.00040560  0.50031552  1
  I  I56  1  0.16730315  0.00398521  0.84136330  1
  I  I57  1  0.16670841  0.33298349  0.16642180  1
  I  I58  1  0.16480538  0.33601613  0.49682499  1
  I  I59  1  0.16469472  0.33035652  0.83745141  1
  I  I60  1  0.16660254  0.66310502  0.17108056  1
  I  I61  1  0.15775403  0.66078641  0.49042241  1
  I  I62  1  0.16616691  0.66674507  0.83366416  1
  I  I63  1  0.50332855  0.00101708  0.16957740  1
  I  I64  1  0.50613274  0.00470802  0.49425703  1
  I  I65  1  0.49939917  0.00019333  0.83536904  1
  I  I66  1  0.50136237  0.33275071  0.17042506  1
  I  I67  1  0.50044134  0.33006513  0.49210048  1
  I  I68  1  0.50104865  0.33287472  0.83572111  1
  I  I69  1  0.50369808  0.66612232  0.16588491  1
  I  I70  1  0.50002944  0.66642374  0.49907714  1
  I  I71  1  0.49909628  0.66689505  0.83262080  1
  I  I72  1  0.83077631  0.00097872  0.16625071  1
  I  I73  1  0.83040759  0.00315910  0.49650411  1
  I  I74  1  0.83401098  -0.00260913  0.84038939  1
  I  I75  1  0.83188131  0.33310524  0.17070513  1
  I  I76  1  0.83409492  0.33294643  0.49115174  1
  I  I77  1  0.83451192  0.33316612  0.83601768  1
  I  I78  1  0.83076488  0.66588963  0.16668467  1
  I  I79  1  0.83884834  0.66325584  0.49530067  1
  I  I80  1  0.83462422  0.66982090  0.84068003  1
  I  I81  1  0.16641272  0.17208343  0.00318307  1
  I  I82  1  0.16717227  0.16822665  0.32998388  1
  I  I83  1  0.16512398  0.16809347  0.66823392  1
  I  I84  1  0.16620596  0.49828623  0.00380044  1
  I  I85  1  0.16535987  0.49330784  0.33129740  1
  I  I86  1  0.15888283  0.49648570  0.66338854  1
  I  I87  1  0.16860192  0.82921488  0.00054725  1
  I  I88  1  0.16400664  0.84080457  0.33289231  1
  I  I89  1  0.16289806  0.83665649  0.66675454  1
  I  I90  1  0.50297516  0.16693901  0.00425752  1
  I  I91  1  0.49891205  0.16650991  0.33092440  1
  I  I92  1  0.50413800  0.16846920  0.66349160  1
  I  I93  1  0.50057929  0.49604660  0.00613840  1
  I  I94  1  0.50014532  0.50174551  0.32921925  1
  I  I95  1  0.49966975  0.49828834  0.66624189  1
  I  I96  1  0.50136506  0.83625834  0.00479961  1
  I  I97  1  0.50855198  0.83029061  0.32860128  1
  I  I98  1  0.50081166  0.83409107  0.66666771  1
  I  I99  1  0.83088075  0.16911098  0.00357553  1
  I  I100  1  0.83491008  0.16487697  0.33150013  1
  I  I101  1  0.83118698  0.16949198  0.66320076  1
  I  I102  1  0.83354792  0.49710747  0.00395827  1
  I  I103  1  0.83421948  0.50122977  0.33140947  1
  I  I104  1  0.83981534  0.49561389  0.66289285  1
  I  I105  1  0.82946414  0.83391545  0.00298801  1
  I  I106  1  0.82921293  0.83332036  0.32957392  1
  I  I107  1  0.83653518  0.83508701  0.66883764  1
  I  I108  1  -0.00065102  0.16832258  0.16643235  1
  I  I109  1  -0.00275322  0.16732679  0.49696704  1
  I  I110  1  0.00270898  0.16625049  0.83964080  1
  I  I111  1  -0.00053857  0.49762228  0.17005050  1
  I  I112  1  -0.00107974  0.49337175  0.49053810  1
  I  I113  1  -0.00014149  0.50068032  0.83825754  1
  I  I114  1  -0.00351832  0.83360446  0.16324929  1
  I  I115  1  -0.00032533  0.84033065  0.49759182  1
  I  I116  1  -0.00353066  0.83252267  0.84285580  1
  I  I117  1  0.33354487  0.16893694  0.16697252  1
  I  I118  1  0.33538480  0.16809731  0.49516871  1
  I  I119  1  0.32990605  0.16796715  0.83909895  1
  I  I120  1  0.33296620  0.49628885  0.17077752  1
  I  I121  1  0.33102245  0.49645300  0.49351126  1
  I  I122  1  0.33319043  0.49994663  0.83217676  1
  I  I123  1  0.33626102  0.83387813  0.16817999  1
  I  I124  1  0.33358031  0.83580660  0.49801200  1
  I  I125  1  0.33342384  0.83315937  0.83369216  1
  I  I126  1  0.66711150  0.16809103  0.17076025  1
  I  I127  1  0.66792267  0.17138144  0.49067547  1
  I  I128  1  0.66685003  0.16521423  0.83552271  1
  I  I129  1  0.66744314  0.49869706  0.16988665  1
  I  I130  1  0.66975079  0.49913582  0.49484020  1
  I  I131  1  0.66693334  0.49889259  0.83303731  1
  I  I132  1  0.66767013  0.83358090  0.16284017  1
  I  I133  1  0.66685425  0.82822282  0.50281442  1
  I  I134  1  0.67021920  0.83533456  0.83606147  1
