# generated using pymatgen
data_Cs27Sn14Pb13I81
_symmetry_space_group_name_H-M   'P 1'
_cell_length_a   18.97928855
_cell_length_b   18.97057939
_cell_length_c   18.97583662
_cell_angle_alpha   89.99951580
_cell_angle_beta   90.00106485
_cell_angle_gamma   90.00016886
_symmetry_Int_Tables_number   1
_chemical_formula_structural   Cs27Sn14Pb13I81
_chemical_formula_sum   'Cs27 Sn14 Pb13 I81'
_cell_volume   6832.21392513
_cell_formula_units_Z   1
loop_
 _symmetry_equiv_pos_site_id
 _symmetry_equiv_pos_as_xyz
  1  'x, y, z'
loop_
 _atom_site_type_symbol
 _atom_site_label
 _atom_site_symmetry_multiplicity
 _atom_site_fract_x
 _atom_site_fract_y
 _atom_site_fract_z
 _atom_site_occupancy
  Cs  Cs0  1  -0.00120184  -0.00158421  -0.00410528  1
  Cs  Cs1  1  -0.00082408  -0.00034517  0.33369095  1
  Cs  Cs2  1  -0.00024539  0.00782021  0.66967478  1
  Cs  Cs3  1  0.00809573  0.33312162  0.00160174  1
  Cs  Cs4  1  0.00359292  0.33339047  0.33430207  1
  Cs  Cs5  1  -0.00178059  0.32276714  0.66505398  1
  Cs  Cs6  1  -0.00030270  0.66764334  0.00037984  1
  Cs  Cs7  1  -0.00140315  0.66652741  0.33374896  1
  Cs  Cs8  1  -0.00094118  0.66754018  0.66521938  1
  Cs  Cs9  1  0.33295170  0.00064200  0.00105837  1
  Cs  Cs10  1  0.33438349  0.00018824  0.33187594  1
  Cs  Cs11  1  0.33596219  -0.00032195  0.66793965  1
  Cs  Cs12  1  0.33034177  0.34104660  0.00789540  1
  Cs  Cs13  1  0.33277161  0.32870488  0.32753984  1
  Cs  Cs14  1  0.33482216  0.33633390  0.66720383  1
  Cs  Cs15  1  0.33138095  0.66145569  -0.00563751  1
  Cs  Cs16  1  0.33074465  0.67059346  0.33896491  1
  Cs  Cs17  1  0.33272616  0.66528537  0.66598511  1
  Cs  Cs18  1  0.66709880  -0.00056701  -0.00014064  1
  Cs  Cs19  1  0.66592976  -0.00271887  0.33154444  1
  Cs  Cs20  1  0.66565435  0.00142662  0.66769084  1
  Cs  Cs21  1  0.66293878  0.33633402  0.00267203  1
  Cs  Cs22  1  0.66565646  0.33416375  0.33085975  1
  Cs  Cs23  1  0.66705503  0.33200532  0.66704735  1
  Cs  Cs24  1  0.66813310  0.66642921  -0.00105718  1
  Cs  Cs25  1  0.66933059  0.66847848  0.33514722  1
  Cs  Cs26  1  0.66647939  0.66692698  0.66542431  1
  Sn  Sn27  1  0.83332768  0.16623292  0.16663356  1
  Sn  Sn28  1  0.83346278  0.50035809  0.83240880  1
  Sn  Sn29  1  0.16517124  0.83316004  0.49976742  1
  Sn  Sn30  1  0.50031985  0.16762851  0.50044373  1
  Sn  Sn31  1  0.83354365  0.50043746  0.50111875  1
  Sn  Sn32  1  0.50024760  0.49865538  0.49982563  1
  Sn  Sn33  1  0.83243648  0.83268849  0.83279836  1
  Sn  Sn34  1  0.83331131  0.83420328  0.16660330  1
  Sn  Sn35  1  0.50074029  0.83389638  0.83425629  1
  Sn  Sn36  1  0.83439000  0.83323820  0.50061452  1
  Sn  Sn37  1  0.16659133  0.83326408  0.16720151  1
  Sn  Sn38  1  0.49976756  0.83294559  0.16527607  1
  Sn  Sn39  1  0.49989981  0.16656188  0.83334688  1
  Sn  Sn40  1  0.16611691  0.50048659  0.50038408  1
  Pb  Pb41  1  0.50153414  0.16468400  0.16621824  1
  Pb  Pb42  1  0.17061021  0.16686180  0.83354051  1
  Pb  Pb43  1  0.16650546  0.83343460  0.83275345  1
  Pb  Pb44  1  0.83142311  0.16715780  0.83578499  1
  Pb  Pb45  1  0.83343744  0.50030923  0.16677606  1
  Pb  Pb46  1  0.16960758  0.16614648  0.50013282  1
  Pb  Pb47  1  0.50186567  0.50029321  0.83148792  1
  Pb  Pb48  1  0.49998262  0.50356748  0.16963449  1
  Pb  Pb49  1  0.16385331  0.16362983  0.16675964  1
  Pb  Pb50  1  0.16310731  0.50013212  0.83019442  1
  Pb  Pb51  1  0.83120137  0.16665559  0.49817732  1
  Pb  Pb52  1  0.16657045  0.50305238  0.16935824  1
  Pb  Pb53  1  0.50016483  0.83323925  0.50044239  1
  I  I54  1  0.16951835  -0.00468233  0.17489044  1
  I  I55  1  0.16320174  -0.00361762  0.49563409  1
  I  I56  1  0.16156246  -0.00040083  0.83029296  1
  I  I57  1  0.16543196  0.33338136  0.16755139  1
  I  I58  1  0.16278931  0.33644150  0.50203740  1
  I  I59  1  0.16481033  0.33364890  0.83090015  1
  I  I60  1  0.16253916  0.67123649  0.16877610  1
  I  I61  1  0.16824735  0.66745131  0.49564454  1
  I  I62  1  0.17260656  0.66694226  0.83560977  1
  I  I63  1  0.49936277  -0.00379839  0.16939902  1
  I  I64  1  0.50064313  0.00149013  0.50051854  1
  I  I65  1  0.50614312  -0.00147449  0.82997104  1
  I  I66  1  0.50275156  0.33339182  0.16502853  1
  I  I67  1  0.50133611  0.33384041  0.50633692  1
  I  I68  1  0.50317296  0.33113747  0.82855459  1
  I  I69  1  0.50500867  0.67179488  0.16213155  1
  I  I70  1  0.50047530  0.66469929  0.49920249  1
  I  I71  1  0.50245226  0.66976732  0.83606961  1
  I  I72  1  0.83271719  -0.00307993  0.16759763  1
  I  I73  1  0.83574856  -0.00346829  0.50162935  1
  I  I74  1  0.83147303  -0.00330436  0.83119977  1
  I  I75  1  0.83030012  0.33098497  0.16764212  1
  I  I76  1  0.83530402  0.33640946  0.50317681  1
  I  I77  1  0.83166794  0.33602039  0.82789707  1
  I  I78  1  0.83317825  0.67055311  0.16751675  1
  I  I79  1  0.83110778  0.66762122  0.49822025  1
  I  I80  1  0.82710741  0.66869125  0.83404561  1
  I  I81  1  0.16732128  0.16456700  0.00034085  1
  I  I82  1  0.16965141  0.16848257  0.33352610  1
  I  I83  1  0.16250598  0.16322811  0.66638027  1
  I  I84  1  0.16628488  0.50000772  -0.00010441  1
  I  I85  1  0.16281656  0.50247267  0.33767079  1
  I  I86  1  0.17068736  0.50956095  0.66206819  1
  I  I87  1  0.16395134  0.83572925  0.00276316  1
  I  I88  1  0.16441156  0.82907382  0.33393246  1
  I  I89  1  0.16499569  0.82840898  0.66315199  1
  I  I90  1  0.50353772  0.16170252  -0.00263224  1
  I  I91  1  0.50129366  0.16916310  0.33563410  1
  I  I92  1  0.50192605  0.16269776  0.66652380  1
  I  I93  1  0.50228205  0.49731378  -0.00009905  1
  I  I94  1  0.50399199  0.49548899  0.33811781  1
  I  I95  1  0.49871663  0.50234191  0.66309629  1
  I  I96  1  0.50404391  0.83974814  -0.00047619  1
  I  I97  1  0.50283530  0.83292639  0.33159663  1
  I  I98  1  0.50350258  0.83412513  0.66892851  1
  I  I99  1  0.83029873  0.16000824  0.00310000  1
  I  I100  1  0.82978761  0.16037159  0.33071697  1
  I  I101  1  0.83347999  0.16416887  0.66674732  1
  I  I102  1  0.83044405  0.50440680  -0.00277562  1
  I  I103  1  0.83309482  0.50410046  0.33694923  1
  I  I104  1  0.83228864  0.50924838  0.66526899  1
  I  I105  1  0.83239415  0.83339376  0.00001250  1
  I  I106  1  0.83259235  0.83296405  0.33358022  1
  I  I107  1  0.83181577  0.82790371  0.66634178  1
  I  I108  1  -0.00404567  0.16132285  0.16779582  1
  I  I109  1  -0.00021175  0.16865609  0.49807416  1
  I  I110  1  -0.00047048  0.16597996  0.83421644  1
  I  I111  1  -0.00023484  0.50093002  0.16794514  1
  I  I112  1  -0.00094853  0.50710008  0.50259552  1
  I  I113  1  -0.00495586  0.50874611  0.83013254  1
  I  I114  1  -0.00107622  0.83667545  0.16820655  1
  I  I115  1  -0.00116578  0.82536713  0.49578819  1
  I  I116  1  -0.00356127  0.82867296  0.83605459  1
  I  I117  1  0.33345326  0.16464607  0.16732852  1
  I  I118  1  0.33759105  0.16870953  0.50300582  1
  I  I119  1  0.33875485  0.15764244  0.82797478  1
  I  I120  1  0.33336751  0.50044876  0.16741079  1
  I  I121  1  0.33329081  0.50269423  0.49894432  1
  I  I122  1  0.33343642  0.50044460  0.83134148  1
  I  I123  1  0.33356290  0.83266381  0.16944490  1
  I  I124  1  0.33144339  0.83042169  0.49628962  1
  I  I125  1  0.33649590  0.83821198  0.83561975  1
  I  I126  1  0.66922207  0.15876272  0.16779738  1
  I  I127  1  0.66348986  0.16895913  0.50292452  1
  I  I128  1  0.66379812  0.16343751  0.82881516  1
  I  I129  1  0.66683321  0.50227290  0.17038309  1
  I  I130  1  0.66761794  0.50190986  0.50336989  1
  I  I131  1  0.66976584  0.50281454  0.82671293  1
  I  I132  1  0.66763566  0.83715075  0.16760412  1
  I  I133  1  0.66933855  0.83050065  0.49741343  1
  I  I134  1  0.66742297  0.83336790  0.83545617  1
