# generated using pymatgen
data_Cs27Sn14Pb13I81
_symmetry_space_group_name_H-M   'P 1'
_cell_length_a   18.98298605
_cell_length_b   18.96987466
_cell_length_c   18.97827426
_cell_angle_alpha   89.99995616
_cell_angle_beta   89.99964059
_cell_angle_gamma   90.00038354
_symmetry_Int_Tables_number   1
_chemical_formula_structural   Cs27Sn14Pb13I81
_chemical_formula_sum   'Cs27 Sn14 Pb13 I81'
_cell_volume   6834.16890880
_cell_formula_units_Z   1
loop_
 _symmetry_equiv_pos_site_id
 _symmetry_equiv_pos_as_xyz
  1  'x, y, z'
loop_
 _atom_site_type_symbol
 _atom_site_label
 _atom_site_symmetry_multiplicity
 _atom_site_fract_x
 _atom_site_fract_y
 _atom_site_fract_z
 _atom_site_occupancy
  Cs  Cs0  1  0.00093359  0.00032578  -0.00242932  1
  Cs  Cs1  1  0.00184444  0.00149122  0.33496802  1
  Cs  Cs2  1  0.00087855  -0.00002501  0.66810535  1
  Cs  Cs3  1  -0.00108196  0.33104725  0.00106039  1
  Cs  Cs4  1  -0.00671579  0.32977537  0.33390877  1
  Cs  Cs5  1  0.00147518  0.32830281  0.66619490  1
  Cs  Cs6  1  0.00070816  0.66659351  0.00140846  1
  Cs  Cs7  1  0.00305362  0.66649898  0.33237508  1
  Cs  Cs8  1  0.00162305  0.66828287  0.66600310  1
  Cs  Cs9  1  0.33433373  0.00087786  0.00034174  1
  Cs  Cs10  1  0.33405505  0.00256636  0.33253627  1
  Cs  Cs11  1  0.33126256  0.00008401  0.66687665  1
  Cs  Cs12  1  0.33069859  0.33609948  -0.00016456  1
  Cs  Cs13  1  0.33416441  0.32640068  0.33391652  1
  Cs  Cs14  1  0.33420802  0.33760944  0.66534276  1
  Cs  Cs15  1  0.33297483  0.66539924  0.00255016  1
  Cs  Cs16  1  0.33052169  0.66791603  0.33113447  1
  Cs  Cs17  1  0.33245964  0.66372004  0.66677549  1
  Cs  Cs18  1  0.66633045  -0.00112402  -0.00289776  1
  Cs  Cs19  1  0.66370125  0.00043624  0.33309509  1
  Cs  Cs20  1  0.66803760  -0.00221867  0.67141004  1
  Cs  Cs21  1  0.66964091  0.33078174  -0.00009368  1
  Cs  Cs22  1  0.67282604  0.32760362  0.34018910  1
  Cs  Cs23  1  0.66443012  0.33598733  0.66289871  1
  Cs  Cs24  1  0.66618097  0.66763253  0.00041070  1
  Cs  Cs25  1  0.66718321  0.66704966  0.33276953  1
  Cs  Cs26  1  0.66587138  0.66631771  0.66671821  1
  Sn  Sn27  1  0.16737221  0.50070724  0.16812535  1
  Sn  Sn28  1  0.83268846  0.83295670  0.83342358  1
  Sn  Sn29  1  0.83345937  0.50041644  0.83321174  1
  Sn  Sn30  1  0.83212045  0.16648544  0.83327807  1
  Sn  Sn31  1  0.49971881  0.83289361  0.50005508  1
  Sn  Sn32  1  0.83332133  0.83293663  0.49986809  1
  Sn  Sn33  1  0.50041438  0.83358339  0.83335369  1
  Sn  Sn34  1  0.16653729  0.50086638  0.49871030  1
  Sn  Sn35  1  0.49991633  0.83257955  0.16663990  1
  Sn  Sn36  1  0.16689975  0.83265558  0.49901047  1
  Sn  Sn37  1  0.50009146  0.50024704  0.16718964  1
  Sn  Sn38  1  0.50041327  0.16624865  0.83349980  1
  Sn  Sn39  1  0.16680058  0.83306115  0.16745014  1
  Sn  Sn40  1  0.83334355  0.83309321  0.16672257  1
  Pb  Pb41  1  0.83326283  0.50178639  0.16539910  1
  Pb  Pb42  1  0.16671015  0.16692659  0.16670970  1
  Pb  Pb43  1  0.16674652  0.16660849  0.49987711  1
  Pb  Pb44  1  0.16425542  0.50016769  0.83368130  1
  Pb  Pb45  1  0.50002530  0.16403185  0.50295712  1
  Pb  Pb46  1  0.49810160  0.50230683  0.49689772  1
  Pb  Pb47  1  0.16722447  0.83324178  0.83355621  1
  Pb  Pb48  1  0.83311817  0.16342614  0.16456719  1
  Pb  Pb49  1  0.50009838  0.16688227  0.16453491  1
  Pb  Pb50  1  0.83561824  0.50238391  0.50210529  1
  Pb  Pb51  1  0.50187541  0.50037514  0.83541311  1
  Pb  Pb52  1  0.83313869  0.16366353  0.50266232  1
  Pb  Pb53  1  0.16732944  0.16671882  0.83338974  1
  I  I54  1  0.16714303  -0.00411900  0.17008652  1
  I  I55  1  0.16614019  -0.00421196  0.49656447  1
  I  I56  1  0.16198214  -0.00047629  0.83320968  1
  I  I57  1  0.17240898  0.33724462  0.16923483  1
  I  I58  1  0.16641731  0.33676920  0.49658333  1
  I  I59  1  0.16603440  0.33357481  0.83337163  1
  I  I60  1  0.16726057  0.66829137  0.17002305  1
  I  I61  1  0.16606321  0.66868953  0.49624063  1
  I  I62  1  0.16546876  0.66691495  0.83282125  1
  I  I63  1  0.49972193  -0.00409651  0.16829970  1
  I  I64  1  0.49764908  -0.00527944  0.49407919  1
  I  I65  1  0.50806078  -0.00238022  0.83498754  1
  I  I66  1  0.49246902  0.33654980  0.16236408  1
  I  I67  1  0.49707393  0.33363814  0.50075741  1
  I  I68  1  0.50488735  0.33102250  0.83632337  1
  I  I69  1  0.49886857  0.66926877  0.16333196  1
  I  I70  1  0.50299956  0.67120758  0.50676819  1
  I  I71  1  0.50478269  0.67022251  0.83199459  1
  I  I72  1  0.83300309  -0.00563406  0.16495343  1
  I  I73  1  0.83629183  -0.00529246  0.50150511  1
  I  I74  1  0.82925306  -0.00176328  0.83343934  1
  I  I75  1  0.83470666  0.33340236  0.16278997  1
  I  I76  1  0.83620357  0.33344018  0.50191359  1
  I  I77  1  0.83033034  0.33299794  0.83512691  1
  I  I78  1  0.83322610  0.67078992  0.16292266  1
  I  I79  1  0.83105648  0.67116736  0.50342784  1
  I  I80  1  0.83003784  0.66883069  0.83360612  1
  I  I81  1  0.16557266  0.16578098  0.00002278  1
  I  I82  1  0.16712712  0.16437916  0.33330779  1
  I  I83  1  0.16556385  0.16551964  0.66662836  1
  I  I84  1  0.16953650  0.50556045  0.00353692  1
  I  I85  1  0.17015555  0.50815492  0.33251851  1
  I  I86  1  0.16456997  0.50561891  0.66374345  1
  I  I87  1  0.16606737  0.82905932  0.00332254  1
  I  I88  1  0.16578064  0.82973764  0.33302294  1
  I  I89  1  0.16611462  0.82986751  0.66353935  1
  I  I90  1  0.50497162  0.15867025  -0.00341680  1
  I  I91  1  0.49812978  0.16532283  0.33338964  1
  I  I92  1  0.50499461  0.16101201  0.67103375  1
  I  I93  1  0.49312563  0.50764358  0.00304374  1
  I  I94  1  0.49949572  0.50833515  0.32900540  1
  I  I95  1  0.49873763  0.50028805  0.66657408  1
  I  I96  1  0.50287701  0.83381504  0.00012025  1
  I  I97  1  0.50285192  0.82835399  0.33282404  1
  I  I98  1  0.50306642  0.83838945  0.66699072  1
  I  I99  1  0.82959075  0.16390745  -0.00387765  1
  I  I100  1  0.83489340  0.16648604  0.33355117  1
  I  I101  1  0.82989339  0.16376781  0.67090617  1
  I  I102  1  0.83510830  0.50364980  -0.00278333  1
  I  I103  1  0.83176853  0.50188903  0.33340700  1
  I  I104  1  0.83381772  0.50339039  0.67022974  1
  I  I105  1  0.83105482  0.83351579  -0.00063549  1
  I  I106  1  0.83105928  0.83175351  0.33315453  1
  I  I107  1  0.83131249  0.83381705  0.66746402  1
  I  I108  1  -0.00015622  0.16617225  0.16232482  1
  I  I109  1  -0.00015003  0.16337148  0.50398219  1
  I  I110  1  -0.00351594  0.16429525  0.83334507  1
  I  I111  1  0.00288352  0.50580202  0.16778003  1
  I  I112  1  0.00348928  0.50779202  0.49400848  1
  I  I113  1  -0.00378119  0.50233114  0.83536514  1
  I  I114  1  0.00017624  0.82972960  0.16763400  1
  I  I115  1  0.00009124  0.82992933  0.49882557  1
  I  I116  1  -0.00325194  0.83459550  0.83348219  1
  I  I117  1  0.33347809  0.16129544  0.16251499  1
  I  I118  1  0.33344513  0.16323692  0.50393032  1
  I  I119  1  0.33702316  0.15883668  0.83399593  1
  I  I120  1  0.33290526  0.50975093  0.16742686  1
  I  I121  1  0.33006175  0.50731081  0.50165929  1
  I  I122  1  0.33339460  0.49961096  0.83194707  1
  I  I123  1  0.33356122  0.83007531  0.16804322  1
  I  I124  1  0.33322599  0.83023141  0.49848236  1
  I  I125  1  0.33684767  0.83849832  0.83340411  1
  I  I126  1  0.66663747  0.16747338  0.16756459  1
  I  I127  1  0.66662134  0.16667918  0.49731690  1
  I  I128  1  0.66724444  0.16250535  0.83455599  1
  I  I129  1  0.66415679  0.50686186  0.16161348  1
  I  I130  1  0.66669547  0.50112755  0.50023625  1
  I  I131  1  0.66979419  0.50236056  0.83570805  1
  I  I132  1  0.66622152  0.82985778  0.16729681  1
  I  I133  1  0.66663304  0.83493762  0.49887914  1
  I  I134  1  0.66728898  0.83419411  0.83363370  1
