# generated using pymatgen
data_Cs27Sn13Pb14I81
_symmetry_space_group_name_H-M   'P 1'
_cell_length_a   18.96952849
_cell_length_b   18.97996531
_cell_length_c   18.98059476
_cell_angle_alpha   89.99884500
_cell_angle_beta   89.99933106
_cell_angle_gamma   90.00140775
_symmetry_Int_Tables_number   1
_chemical_formula_structural   Cs27Sn13Pb14I81
_chemical_formula_sum   'Cs27 Sn13 Pb14 I81'
_cell_volume   6833.79217734
_cell_formula_units_Z   1
loop_
 _symmetry_equiv_pos_site_id
 _symmetry_equiv_pos_as_xyz
  1  'x, y, z'
loop_
 _atom_site_type_symbol
 _atom_site_label
 _atom_site_symmetry_multiplicity
 _atom_site_fract_x
 _atom_site_fract_y
 _atom_site_fract_z
 _atom_site_occupancy
  Cs  Cs0  1  0.00051240  0.00038317  0.00198847  1
  Cs  Cs1  1  0.00008782  -0.00134109  0.33410854  1
  Cs  Cs2  1  -0.00077565  -0.00097949  0.66375935  1
  Cs  Cs3  1  0.00512177  0.33203407  0.00291262  1
  Cs  Cs4  1  0.00250740  0.33471542  0.33046300  1
  Cs  Cs5  1  -0.00056677  0.33515823  0.66654012  1
  Cs  Cs6  1  -0.00170603  0.66650663  0.00075530  1
  Cs  Cs7  1  -0.00153658  0.67006677  0.33454971  1
  Cs  Cs8  1  -0.00025669  0.66727601  0.66584853  1
  Cs  Cs9  1  0.33271010  0.00089637  -0.00169906  1
  Cs  Cs10  1  0.33180461  -0.00054161  0.33378365  1
  Cs  Cs11  1  0.33284154  -0.00396502  0.66686066  1
  Cs  Cs12  1  0.32619331  0.32973091  0.00094353  1
  Cs  Cs13  1  0.33134587  0.34194196  0.33448427  1
  Cs  Cs14  1  0.33240818  0.33851954  0.66526435  1
  Cs  Cs15  1  0.33723821  0.66919881  -0.00301308  1
  Cs  Cs16  1  0.34149001  0.66092628  0.33446644  1
  Cs  Cs17  1  0.33261341  0.66603277  0.66739584  1
  Cs  Cs18  1  0.66721715  0.00157301  -0.00012878  1
  Cs  Cs19  1  0.66607917  0.00218584  0.33457200  1
  Cs  Cs20  1  0.66681250  0.00316126  0.66544099  1
  Cs  Cs21  1  0.66760048  0.33211523  -0.00243431  1
  Cs  Cs22  1  0.66428622  0.33161637  0.33373579  1
  Cs  Cs23  1  0.66752315  0.33078008  0.66884678  1
  Cs  Cs24  1  0.66678397  0.66512281  0.00129355  1
  Cs  Cs25  1  0.66202892  0.66530200  0.32957195  1
  Cs  Cs26  1  0.66900030  0.66639966  0.66873314  1
  Sn  Sn27  1  0.16626783  0.83316580  0.16754961  1
  Sn  Sn28  1  0.50056967  0.16762882  0.83408912  1
  Sn  Sn29  1  0.16601798  0.83408839  0.49871581  1
  Sn  Sn30  1  0.16657971  0.16616725  0.50015099  1
  Sn  Sn31  1  0.83320391  0.83249976  0.49966369  1
  Sn  Sn32  1  0.50097447  0.49887062  0.83360840  1
  Sn  Sn33  1  0.83269724  0.16595295  0.16606361  1
  Sn  Sn34  1  0.83326081  0.50066693  0.50020289  1
  Sn  Sn35  1  0.83309479  0.49965156  0.83272544  1
  Sn  Sn36  1  0.83336529  0.83364832  0.83342635  1
  Sn  Sn37  1  0.50047053  0.16647357  0.16616177  1
  Sn  Sn38  1  0.83323069  0.16671428  0.83414559  1
  Sn  Sn39  1  0.83378408  0.83428709  0.16689357  1
  Pb  Pb40  1  0.16659499  0.16655436  0.83090844  1
  Pb  Pb41  1  0.16629342  0.50005878  0.83353435  1
  Pb  Pb42  1  0.16662748  0.16489843  0.16877489  1
  Pb  Pb43  1  0.16411069  0.83338920  0.83328082  1
  Pb  Pb44  1  0.50024508  0.83335710  0.49995402  1
  Pb  Pb45  1  0.50022987  0.49667962  0.16347083  1
  Pb  Pb46  1  0.16418254  0.50122237  0.49999485  1
  Pb  Pb47  1  0.83337893  0.49974028  0.16637494  1
  Pb  Pb48  1  0.83461940  0.16679736  0.49969144  1
  Pb  Pb49  1  0.16666452  0.50419354  0.16665336  1
  Pb  Pb50  1  0.50274107  0.83387618  0.83330721  1
  Pb  Pb51  1  0.50026299  0.83566649  0.16664032  1
  Pb  Pb52  1  0.50336023  0.49989415  0.50273617  1
  Pb  Pb53  1  0.49697257  0.16667017  0.50037842  1
  I  I54  1  0.16336239  -0.00299016  0.16890080  1
  I  I55  1  0.15989277  -0.00153294  0.49760765  1
  I  I56  1  0.16723751  -0.00003264  0.83368402  1
  I  I57  1  0.16601816  0.33300006  0.16849373  1
  I  I58  1  0.16542836  0.33130260  0.50118123  1
  I  I59  1  0.16153636  0.33309925  0.83087714  1
  I  I60  1  0.15749876  0.67223376  0.17254446  1
  I  I61  1  0.16276838  0.67048950  0.49666660  1
  I  I62  1  0.16731450  0.66686750  0.83187211  1
  I  I63  1  0.50229621  0.00351785  0.15907821  1
  I  I64  1  0.50469516  0.00024116  0.50332083  1
  I  I65  1  0.50393239  0.00359955  0.83686773  1
  I  I66  1  0.50790676  0.32872893  0.16621029  1
  I  I67  1  0.49933044  0.33318120  0.49743368  1
  I  I68  1  0.51034702  0.33246237  0.83624887  1
  I  I69  1  0.49922707  0.66659160  0.16610303  1
  I  I70  1  0.49570203  0.66651897  0.50169927  1
  I  I71  1  0.50409613  0.66394481  0.83148950  1
  I  I72  1  0.83353225  -0.00029384  0.16363368  1
  I  I73  1  0.83594794  -0.00280275  0.50243844  1
  I  I74  1  0.83024063  0.00027713  0.83336518  1
  I  I75  1  0.82927632  0.32990885  0.16423879  1
  I  I76  1  0.83497759  0.33539967  0.50429419  1
  I  I77  1  0.82895915  0.33291476  0.83177880  1
  I  I78  1  0.83842894  0.66995359  0.16453552  1
  I  I79  1  0.83910707  0.66803336  0.50427141  1
  I  I80  1  0.83060879  0.66684174  0.83212378  1
  I  I81  1  0.16649258  0.16537138  0.00018442  1
  I  I82  1  0.16443924  0.16344421  0.33627137  1
  I  I83  1  0.16480411  0.15950476  0.66336283  1
  I  I84  1  0.16336403  0.49962809  -0.00002303  1
  I  I85  1  0.16434917  0.49556795  0.33358788  1
  I  I86  1  0.16819058  0.50172537  0.66661660  1
  I  I87  1  0.16187054  0.83378245  0.00299028  1
  I  I88  1  0.15546849  0.83916938  0.33390177  1
  I  I89  1  0.16213523  0.83668936  0.66334775  1
  I  I90  1  0.50498433  0.16959037  -0.00078935  1
  I  I91  1  0.50564932  0.16351867  0.33041646  1
  I  I92  1  0.50553086  0.16998867  0.67030905  1
  I  I93  1  0.50963257  0.50066743  -0.00430331  1
  I  I94  1  0.49993272  0.49930668  0.33322096  1
  I  I95  1  0.50202476  0.49257781  0.67065686  1
  I  I96  1  0.49856883  0.83086317  -0.00009645  1
  I  I97  1  0.50495812  0.83600544  0.33316088  1
  I  I98  1  0.49953729  0.83611547  0.66687580  1
  I  I99  1  0.83024449  0.16343923  -0.00051511  1
  I  I100  1  0.83066105  0.16337506  0.33057016  1
  I  I101  1  0.83047732  0.16453701  0.66947850  1
  I  I102  1  0.82891862  0.50315726  -0.00346715  1
  I  I103  1  0.83620166  0.50324850  0.33597586  1
  I  I104  1  0.83058933  0.50295972  0.66769375  1
  I  I105  1  0.83680089  0.83392562  0.00013378  1
  I  I106  1  0.83815512  0.83396995  0.33326131  1
  I  I107  1  0.83653560  0.83276232  0.66667101  1
  I  I108  1  -0.00308499  0.16491107  0.16276378  1
  I  I109  1  0.00216104  0.16437968  0.50028028  1
  I  I110  1  -0.00378609  0.16699299  0.83678811  1
  I  I111  1  -0.00048412  0.49371744  0.16370174  1
  I  I112  1  -0.00384746  0.50129334  0.50770002  1
  I  I113  1  -0.00434995  0.49995307  0.82911156  1
  I  I114  1  -0.00210411  0.83933098  0.16701989  1
  I  I115  1  -0.00150956  0.83370335  0.49996691  1
  I  I116  1  -0.00475335  0.83357284  0.83284934  1
  I  I117  1  0.33583464  0.16495842  0.16162458  1
  I  I118  1  0.32931003  0.15873846  0.50026450  1
  I  I119  1  0.33669733  0.17174713  0.83716312  1
  I  I120  1  0.33358145  0.49923923  0.16544436  1
  I  I121  1  0.33339872  0.50018892  0.50144359  1
  I  I122  1  0.33677649  0.49434374  0.83449272  1
  I  I123  1  0.33033924  0.83490376  0.17222011  1
  I  I124  1  0.32966356  0.83858102  0.49559399  1
  I  I125  1  0.33340491  0.83275014  0.83296047  1
  I  I126  1  0.66823824  0.16075205  0.16337818  1
  I  I127  1  0.66682667  0.16635263  0.49987511  1
  I  I128  1  0.66827009  0.16687101  0.83616816  1
  I  I129  1  0.66699725  0.50582700  0.17004826  1
  I  I130  1  0.67138048  0.50561857  0.50163440  1
  I  I131  1  0.66853976  0.49929745  0.82880775  1
  I  I132  1  0.67053735  0.83471976  0.16690031  1
  I  I133  1  0.67109290  0.83004286  0.49997572  1
  I  I134  1  0.67151798  0.83323651  0.83323101  1
