# generated using pymatgen
data_Cs27Sn14Pb13I81
_symmetry_space_group_name_H-M   'P 1'
_cell_length_a   18.96294944
_cell_length_b   18.96182965
_cell_length_c   18.95910297
_cell_angle_alpha   89.99803331
_cell_angle_beta   90.00011870
_cell_angle_gamma   89.99957162
_symmetry_Int_Tables_number   1
_chemical_formula_structural   Cs27Sn14Pb13I81
_chemical_formula_sum   'Cs27 Sn14 Pb13 I81'
_cell_volume   6817.16668423
_cell_formula_units_Z   1
loop_
 _symmetry_equiv_pos_site_id
 _symmetry_equiv_pos_as_xyz
  1  'x, y, z'
loop_
 _atom_site_type_symbol
 _atom_site_label
 _atom_site_symmetry_multiplicity
 _atom_site_fract_x
 _atom_site_fract_y
 _atom_site_fract_z
 _atom_site_occupancy
  Cs  Cs0  1  -0.00058577  0.00214875  0.00195456  1
  Cs  Cs1  1  0.00060576  0.00075752  0.33617998  1
  Cs  Cs2  1  0.00440219  -0.00335576  0.65966954  1
  Cs  Cs3  1  0.00044628  0.33299639  -0.00110278  1
  Cs  Cs4  1  -0.00119564  0.33101625  0.33396669  1
  Cs  Cs5  1  -0.00048468  0.33328204  0.66848379  1
  Cs  Cs6  1  -0.00130948  0.66707725  0.00039084  1
  Cs  Cs7  1  -0.00397030  0.66862794  0.33221718  1
  Cs  Cs8  1  0.00119666  0.66980680  0.66641228  1
  Cs  Cs9  1  0.33423229  0.00140506  -0.00130542  1
  Cs  Cs10  1  0.33302902  -0.00060681  0.33424683  1
  Cs  Cs11  1  0.33280603  -0.00364737  0.66647230  1
  Cs  Cs12  1  0.33214892  0.33307262  0.00229855  1
  Cs  Cs13  1  0.33420382  0.33502313  0.33086507  1
  Cs  Cs14  1  0.33248140  0.33453777  0.66699803  1
  Cs  Cs15  1  0.33107373  0.66494273  0.00197088  1
  Cs  Cs16  1  0.33488783  0.66526362  0.33169941  1
  Cs  Cs17  1  0.33386779  0.66609714  0.66703331  1
  Cs  Cs18  1  0.66703035  0.00121382  -0.00188621  1
  Cs  Cs19  1  0.66654354  -0.00251170  0.33272976  1
  Cs  Cs20  1  0.66289921  -0.00196951  0.66942254  1
  Cs  Cs21  1  0.66797029  0.33135041  -0.00038504  1
  Cs  Cs22  1  0.66664241  0.33296851  0.33359397  1
  Cs  Cs23  1  0.66807703  0.33549896  0.66676613  1
  Cs  Cs24  1  0.67098450  0.66781755  -0.00119640  1
  Cs  Cs25  1  0.66662307  0.66877150  0.33459297  1
  Cs  Cs26  1  0.66601782  0.66394750  0.66626680  1
  Sn  Sn27  1  0.16587778  0.16720281  0.83380484  1
  Sn  Sn28  1  0.16710614  0.49970818  0.50049465  1
  Sn  Sn29  1  0.49993654  0.16704881  0.50007925  1
  Sn  Sn30  1  0.16621485  0.16596173  0.16613270  1
  Sn  Sn31  1  0.83326377  0.49897098  0.16609162  1
  Sn  Sn32  1  0.83406462  0.16767563  0.16607477  1
  Sn  Sn33  1  0.49915240  0.83331528  0.16669517  1
  Sn  Sn34  1  0.83370437  0.49926857  0.83425894  1
  Sn  Sn35  1  0.16747236  0.83435091  0.16638952  1
  Sn  Sn36  1  0.49972277  0.49971097  0.83323982  1
  Sn  Sn37  1  0.16660271  0.49929430  0.83259378  1
  Sn  Sn38  1  0.49902700  0.49963722  0.50053152  1
  Sn  Sn39  1  0.49965201  0.83310296  0.49923033  1
  Sn  Sn40  1  0.83446369  0.16720457  0.83368583  1
  Pb  Pb41  1  0.83352310  0.49995086  0.50048012  1
  Pb  Pb42  1  0.50010269  0.16476269  0.16833540  1
  Pb  Pb43  1  0.83108708  0.16658797  0.50062744  1
  Pb  Pb44  1  0.16459644  0.49963308  0.16666488  1
  Pb  Pb45  1  0.50260721  0.50186885  0.16666151  1
  Pb  Pb46  1  0.83341997  0.83419785  0.16653197  1
  Pb  Pb47  1  0.16864087  0.16861221  0.50013767  1
  Pb  Pb48  1  0.83371363  0.83409755  0.83315152  1
  Pb  Pb49  1  0.49966403  0.16881590  0.83140600  1
  Pb  Pb50  1  0.16876386  0.83037901  0.49742329  1
  Pb  Pb51  1  0.49981582  0.83052187  0.83362103  1
  Pb  Pb52  1  0.83065248  0.83350934  0.50027070  1
  Pb  Pb53  1  0.16658283  0.83360186  0.83558899  1
  I  I54  1  0.16517596  0.00133741  0.16188116  1
  I  I55  1  0.16874770  -0.00004085  0.50224578  1
  I  I56  1  0.16214862  0.00363887  0.83563209  1
  I  I57  1  0.16459580  0.33065527  0.16572134  1
  I  I58  1  0.17350012  0.33661340  0.49922200  1
  I  I59  1  0.16636686  0.33394220  0.83542653  1
  I  I60  1  0.16946428  0.66832851  0.16755314  1
  I  I61  1  0.17167677  0.66247296  0.50495079  1
  I  I62  1  0.16684355  0.66307437  0.83077978  1
  I  I63  1  0.50065652  -0.00320921  0.17255766  1
  I  I64  1  0.50177894  -0.00047206  0.49476041  1
  I  I65  1  0.50096831  0.00023393  0.83126952  1
  I  I66  1  0.49807200  0.33342545  0.16881241  1
  I  I67  1  0.49720203  0.33478363  0.50422465  1
  I  I68  1  0.50045558  0.33712950  0.82802125  1
  I  I69  1  0.49522651  0.66966887  0.17178399  1
  I  I70  1  0.49660150  0.66578287  0.49987556  1
  I  I71  1  0.50027122  0.66203152  0.82824427  1
  I  I72  1  0.83342198  0.00352103  0.16203098  1
  I  I73  1  0.83188443  0.00035351  0.49923648  1
  I  I74  1  0.83611930  0.00426615  0.83901533  1
  I  I75  1  0.83785604  0.33270368  0.16311996  1
  I  I76  1  0.82879087  0.33344572  0.49768984  1
  I  I77  1  0.83346923  0.33422269  0.83792006  1
  I  I78  1  0.83323263  0.66416039  0.16306849  1
  I  I79  1  0.83159148  0.66618453  0.49863022  1
  I  I80  1  0.83295054  0.66279494  0.83727878  1
  I  I81  1  0.16413669  0.16886489  -0.00005645  1
  I  I82  1  0.16359145  0.16452899  0.33049311  1
  I  I83  1  0.16316948  0.17031785  0.66968087  1
  I  I84  1  0.16937198  0.49954807  -0.00289091  1
  I  I85  1  0.17155134  0.50037995  0.33538872  1
  I  I86  1  0.16636415  0.49484856  0.66802813  1
  I  I87  1  0.17314966  0.83179638  0.00371717  1
  I  I88  1  0.16820889  0.83780089  0.32953272  1
  I  I89  1  0.16808689  0.83541197  0.66640822  1
  I  I90  1  0.50013769  0.16630699  -0.00010690  1
  I  I91  1  0.49977872  0.17172867  0.33639593  1
  I  I92  1  0.50031791  0.16279199  0.66337310  1
  I  I93  1  0.49748892  0.50137287  -0.00274022  1
  I  I94  1  0.49652600  0.49941425  0.33624585  1
  I  I95  1  0.50157916  0.50182640  0.66624612  1
  I  I96  1  0.49736263  0.83205901  0.00292855  1
  I  I97  1  0.49651771  0.83080359  0.33383214  1
  I  I98  1  0.50116220  0.83457460  0.66363990  1
  I  I99  1  0.83600874  0.17128593  0.00017860  1
  I  I100  1  0.83634374  0.17041748  0.33006588  1
  I  I101  1  0.83617251  0.17319593  0.67044560  1
  I  I102  1  0.83292198  0.49716924  -0.00101869  1
  I  I103  1  0.83332288  0.49689408  0.33067838  1
  I  I104  1  0.83217310  0.49520254  0.67021539  1
  I  I105  1  0.82918746  0.83086161  0.00019411  1
  I  I106  1  0.83443818  0.83165086  0.33291000  1
  I  I107  1  0.83114279  0.83248701  0.66680580  1
  I  I108  1  0.00030995  0.16512945  0.16343836  1
  I  I109  1  0.00031879  0.16915706  0.49920774  1
  I  I110  1  0.00028332  0.17606394  0.83847244  1
  I  I111  1  -0.00313239  0.50133983  0.16368448  1
  I  I112  1  0.00282149  0.49887390  0.50236947  1
  I  I113  1  0.00025233  0.49601315  0.83335968  1
  I  I114  1  0.00265974  0.83337740  0.16514948  1
  I  I115  1  0.00068951  0.83139619  0.49859233  1
  I  I116  1  0.00027549  0.82707653  0.83581083  1
  I  I117  1  0.33052920  0.16474163  0.16353335  1
  I  I118  1  0.33663132  0.16574627  0.49964696  1
  I  I119  1  0.33031783  0.17119999  0.83705018  1
  I  I120  1  0.33328472  0.49875741  0.16471674  1
  I  I121  1  0.33446774  0.50025238  0.50718606  1
  I  I122  1  0.33276337  0.49716058  0.82823662  1
  I  I123  1  0.33318535  0.83728305  0.17034243  1
  I  I124  1  0.33698290  0.83462265  0.49799640  1
  I  I125  1  0.33331879  0.83373470  0.83285220  1
  I  I126  1  0.66948609  0.16929478  0.16356887  1
  I  I127  1  0.66286207  0.16939877  0.49935835  1
  I  I128  1  0.66934853  0.17088126  0.83679166  1
  I  I129  1  0.67034564  0.49582933  0.16316690  1
  I  I130  1  0.66336078  0.50114218  0.50276243  1
  I  I131  1  0.66702745  0.49730044  0.83266949  1
  I  I132  1  0.66406693  0.83181449  0.17220734  1
  I  I133  1  0.66174106  0.82999570  0.49290848  1
  I  I134  1  0.66646527  0.83330294  0.83481839  1
