# generated using pymatgen
data_Cs27Sn14Pb13I81
_symmetry_space_group_name_H-M   'P 1'
_cell_length_a   18.97857969
_cell_length_b   18.97860884
_cell_length_c   18.96937925
_cell_angle_alpha   90.00173343
_cell_angle_beta   89.99769775
_cell_angle_gamma   90.00181218
_symmetry_Int_Tables_number   1
_chemical_formula_structural   Cs27Sn14Pb13I81
_chemical_formula_sum   'Cs27 Sn14 Pb13 I81'
_cell_volume   6832.52455300
_cell_formula_units_Z   1
loop_
 _symmetry_equiv_pos_site_id
 _symmetry_equiv_pos_as_xyz
  1  'x, y, z'
loop_
 _atom_site_type_symbol
 _atom_site_label
 _atom_site_symmetry_multiplicity
 _atom_site_fract_x
 _atom_site_fract_y
 _atom_site_fract_z
 _atom_site_occupancy
  Cs  Cs0  1  0.00519837  0.00280410  -0.00251955  1
  Cs  Cs1  1  0.00109869  0.00069615  0.33301993  1
  Cs  Cs2  1  -0.00056949  -0.00068616  0.66876563  1
  Cs  Cs3  1  -0.00183628  0.33175029  -0.00067920  1
  Cs  Cs4  1  -0.00281400  0.33296754  0.33453648  1
  Cs  Cs5  1  -0.00123133  0.33414143  0.66596720  1
  Cs  Cs6  1  0.00016931  0.66581009  -0.00040433  1
  Cs  Cs7  1  0.00267206  0.66633402  0.33374886  1
  Cs  Cs8  1  -0.00181216  0.66611480  0.66604757  1
  Cs  Cs9  1  0.32928716  0.00120402  -0.00033930  1
  Cs  Cs10  1  0.33383527  -0.00003590  0.33224175  1
  Cs  Cs11  1  0.33243797  -0.00046138  0.66831417  1
  Cs  Cs12  1  0.33305291  0.33218148  -0.00055654  1
  Cs  Cs13  1  0.33287087  0.33530380  0.33741750  1
  Cs  Cs14  1  0.33627351  0.33723739  0.66176417  1
  Cs  Cs15  1  0.33470510  0.66663103  0.00121480  1
  Cs  Cs16  1  0.32914186  0.66509991  0.33180602  1
  Cs  Cs17  1  0.34087291  0.66117401  0.66856610  1
  Cs  Cs18  1  0.66612439  0.00177056  0.00072695  1
  Cs  Cs19  1  0.66462378  -0.00136392  0.33557196  1
  Cs  Cs20  1  0.66822917  -0.00293077  0.66283663  1
  Cs  Cs21  1  0.66867682  0.33342260  -0.00100792  1
  Cs  Cs22  1  0.67030153  0.33088849  0.33302262  1
  Cs  Cs23  1  0.66779535  0.33174245  0.66939054  1
  Cs  Cs24  1  0.66406880  0.66568449  0.00088467  1
  Cs  Cs25  1  0.66837885  0.67232275  0.32945826  1
  Cs  Cs26  1  0.66314619  0.67401600  0.66891590  1
  Sn  Sn27  1  0.16593634  0.16576539  0.49997205  1
  Sn  Sn28  1  0.83289647  0.49999861  0.50092711  1
  Sn  Sn29  1  0.49929309  0.49947225  0.16687878  1
  Sn  Sn30  1  0.49955691  0.83355980  0.16656710  1
  Sn  Sn31  1  0.49992329  0.16701256  0.16598393  1
  Sn  Sn32  1  0.83415278  0.83374602  0.16611755  1
  Sn  Sn33  1  0.83428121  0.16727039  0.50087129  1
  Sn  Sn34  1  0.16631896  0.83284039  0.16714577  1
  Sn  Sn35  1  0.16681104  0.83395838  0.49987879  1
  Sn  Sn36  1  0.83388029  0.49971190  0.83232088  1
  Sn  Sn37  1  0.16701126  0.50013323  0.16571666  1
  Sn  Sn38  1  0.83265626  0.16717102  0.83261657  1
  Sn  Sn39  1  0.50069222  0.16671230  0.83386892  1
  Sn  Sn40  1  0.16603760  0.49990096  0.83405326  1
  Pb  Pb41  1  0.50043287  0.16671654  0.50033181  1
  Pb  Pb42  1  0.50058736  0.49802628  0.83532681  1
  Pb  Pb43  1  0.16674930  0.16921178  0.83068080  1
  Pb  Pb44  1  0.49989884  0.83643953  0.83580063  1
  Pb  Pb45  1  0.16507677  0.50025464  0.49993923  1
  Pb  Pb46  1  0.83370895  0.50147576  0.16636600  1
  Pb  Pb47  1  0.83529240  0.83354902  0.49815056  1
  Pb  Pb48  1  0.16673688  0.83041445  0.83312155  1
  Pb  Pb49  1  0.16884883  0.16717728  0.16862732  1
  Pb  Pb50  1  0.83347562  0.83349316  0.83576195  1
  Pb  Pb51  1  0.83148362  0.16432145  0.16662105  1
  Pb  Pb52  1  0.49664988  0.83313064  0.49778774  1
  Pb  Pb53  1  0.50395311  0.50007173  0.49708723  1
  I  I54  1  0.16749177  -0.00257654  0.16949976  1
  I  I55  1  0.16130942  0.00008200  0.49335936  1
  I  I56  1  0.16631416  0.00033116  0.83580069  1
  I  I57  1  0.17113321  0.33628350  0.16470408  1
  I  I58  1  0.16473506  0.33132136  0.49954617  1
  I  I59  1  0.16489718  0.33677643  0.83957518  1
  I  I60  1  0.17084940  0.66695976  0.16899260  1
  I  I61  1  0.16445010  0.66877725  0.49605860  1
  I  I62  1  0.16015952  0.66246680  0.83377048  1
  I  I63  1  0.50059299  -0.00019182  0.16303995  1
  I  I64  1  0.50424094  0.00010218  0.49707903  1
  I  I65  1  0.50577952  0.00450627  0.83855007  1
  I  I66  1  0.49576227  0.33335747  0.16282268  1
  I  I67  1  0.49352399  0.33326586  0.49520914  1
  I  I68  1  0.50153773  0.33031107  0.84072462  1
  I  I69  1  0.49950027  0.66682033  0.16818967  1
  I  I70  1  0.50012866  0.66651802  0.49942857  1
  I  I71  1  0.50020245  0.66638502  0.83425440  1
  I  I72  1  0.83392420  -0.00345095  0.16741245  1
  I  I73  1  0.83483768  0.00298187  0.50302987  1
  I  I74  1  0.82862166  0.00345654  0.82987376  1
  I  I75  1  0.83257034  0.33313562  0.16756691  1
  I  I76  1  0.83968546  0.33246387  0.50152785  1
  I  I77  1  0.83320768  0.33324527  0.83055669  1
  I  I78  1  0.82921511  0.66937022  0.16752235  1
  I  I79  1  0.83543864  0.66423006  0.50212639  1
  I  I80  1  0.83822701  0.66336820  0.83032135  1
  I  I81  1  0.16461134  0.16441088  -0.00009766  1
  I  I82  1  0.16182053  0.16761072  0.33641959  1
  I  I83  1  0.16707812  0.16176131  0.66295500  1
  I  I84  1  0.16463307  0.50519332  0.00117089  1
  I  I85  1  0.16943478  0.50177028  0.33062746  1
  I  I86  1  0.16348973  0.49877689  0.66889250  1
  I  I87  1  0.16773666  0.83132741  0.00361462  1
  I  I88  1  0.16702826  0.83095852  0.33158447  1
  I  I89  1  0.16361262  0.83757911  0.66368103  1
  I  I90  1  0.50577056  0.16639260  0.00071754  1
  I  I91  1  0.49986524  0.16538252  0.33031507  1
  I  I92  1  0.50089203  0.16884282  0.66948419  1
  I  I93  1  0.50089488  0.50282490  0.00368286  1
  I  I94  1  0.49335676  0.49774383  0.32860825  1
  I  I95  1  0.49549516  0.49700589  0.66689503  1
  I  I96  1  0.49722042  0.83012996  0.00459935  1
  I  I97  1  0.50335543  0.83684268  0.32884215  1
  I  I98  1  0.49933652  0.83452864  0.66672171  1
  I  I99  1  0.83053393  0.17065978  -0.00264610  1
  I  I100  1  0.83572748  0.17046614  0.33597465  1
  I  I101  1  0.83130494  0.17085028  0.66679104  1
  I  I102  1  0.83431085  0.49623035  -0.00251601  1
  I  I103  1  0.83350072  0.49611831  0.33530886  1
  I  I104  1  0.84113429  0.49526897  0.66740731  1
  I  I105  1  0.83502597  0.83239682  0.00409792  1
  I  I106  1  0.83058171  0.83251740  0.32997944  1
  I  I107  1  0.83552968  0.83288966  0.66661108  1
  I  I108  1  0.00003654  0.16599284  0.16489610  1
  I  I109  1  -0.00093594  0.16682432  0.50404132  1
  I  I110  1  -0.00279493  0.16881321  0.83141125  1
  I  I111  1  0.00257477  0.50589248  0.16641831  1
  I  I112  1  -0.00272372  0.49828261  0.49806086  1
  I  I113  1  -0.00071366  0.49450189  0.83666201  1
  I  I114  1  0.00145782  0.82737516  0.17085020  1
  I  I115  1  0.00293775  0.83422345  0.49130032  1
  I  I116  1  0.00010778  0.83784533  0.83847745  1
  I  I117  1  0.33687786  0.16236398  0.16199709  1
  I  I118  1  0.33081121  0.16250094  0.49847032  1
  I  I119  1  0.33558430  0.16693427  0.83773430  1
  I  I120  1  0.33257828  0.50477986  0.16168658  1
  I  I121  1  0.33323916  0.49951336  0.50225074  1
  I  I122  1  0.33111951  0.49950679  0.83589372  1
  I  I123  1  0.33295656  0.83223966  0.17101376  1
  I  I124  1  0.32864247  0.83951091  0.49388192  1
  I  I125  1  0.33320520  0.83393357  0.83456866  1
  I  I126  1  0.66337123  0.16746262  0.16742042  1
  I  I127  1  0.66986593  0.17148695  0.49993880  1
  I  I128  1  0.66782372  0.17305430  0.83323073  1
  I  I129  1  0.66437735  0.50153511  0.16720759  1
  I  I130  1  0.67172141  0.49189878  0.50441829  1
  I  I131  1  0.66971730  0.49700168  0.83173580  1
  I  I132  1  0.66594351  0.83229025  0.16574716  1
  I  I133  1  0.66679475  0.83390143  0.49697736  1
  I  I134  1  0.66676595  0.82820267  0.83621183  1
