# generated using pymatgen
data_Cs27Sn13Pb14I81
_symmetry_space_group_name_H-M   'P 1'
_cell_length_a   18.97919331
_cell_length_b   18.97056905
_cell_length_c   18.98017660
_cell_angle_alpha   89.99806094
_cell_angle_beta   89.99966851
_cell_angle_gamma   90.00075511
_symmetry_Int_Tables_number   1
_chemical_formula_structural   Cs27Sn13Pb14I81
_chemical_formula_sum   'Cs27 Sn13 Pb14 I81'
_cell_volume   6833.73850566
_cell_formula_units_Z   1
loop_
 _symmetry_equiv_pos_site_id
 _symmetry_equiv_pos_as_xyz
  1  'x, y, z'
loop_
 _atom_site_type_symbol
 _atom_site_label
 _atom_site_symmetry_multiplicity
 _atom_site_fract_x
 _atom_site_fract_y
 _atom_site_fract_z
 _atom_site_occupancy
  Cs  Cs0  1  -0.00113034  0.00293339  0.00499916  1
  Cs  Cs1  1  0.00288185  -0.00000909  0.33423251  1
  Cs  Cs2  1  -0.00427280  0.00145380  0.66290336  1
  Cs  Cs3  1  -0.00230517  0.33023179  0.00610109  1
  Cs  Cs4  1  0.00609970  0.33843829  0.32729905  1
  Cs  Cs5  1  0.00445884  0.33437686  0.66599517  1
  Cs  Cs6  1  0.00905933  0.66707803  -0.00140878  1
  Cs  Cs7  1  -0.00254651  0.66480907  0.33184324  1
  Cs  Cs8  1  -0.00078933  0.66461203  0.66746380  1
  Cs  Cs9  1  0.33438419  -0.00234353  -0.00004206  1
  Cs  Cs10  1  0.33381762  0.00119882  0.33460882  1
  Cs  Cs11  1  0.33523614  0.00053766  0.66629757  1
  Cs  Cs12  1  0.33434074  0.33568859  -0.00193658  1
  Cs  Cs13  1  0.32982461  0.33777810  0.33384977  1
  Cs  Cs14  1  0.33094310  0.33245332  0.66665303  1
  Cs  Cs15  1  0.32392341  0.66699853  -0.00311655  1
  Cs  Cs16  1  0.33544347  0.66151706  0.33042871  1
  Cs  Cs17  1  0.33051243  0.66579090  0.67126362  1
  Cs  Cs18  1  0.66644396  0.00095675  -0.00017054  1
  Cs  Cs19  1  0.66473358  -0.00236394  0.33572388  1
  Cs  Cs20  1  0.66619372  -0.00058873  0.66600729  1
  Cs  Cs21  1  0.66821468  0.33195478  -0.00020289  1
  Cs  Cs22  1  0.66562539  0.34219453  0.33146569  1
  Cs  Cs23  1  0.66608070  0.33243962  0.66867862  1
  Cs  Cs24  1  0.66573201  0.66730840  -0.00084299  1
  Cs  Cs25  1  0.66671944  0.66436988  0.33396818  1
  Cs  Cs26  1  0.66733428  0.66798421  0.66665393  1
  Sn  Sn27  1  0.16719126  0.16589345  0.83345046  1
  Sn  Sn28  1  0.83313080  0.83273068  0.83361148  1
  Sn  Sn29  1  0.16700105  0.83326870  0.50013624  1
  Sn  Sn30  1  0.83257716  0.16678199  0.49948952  1
  Sn  Sn31  1  0.49975491  0.83377943  0.49934853  1
  Sn  Sn32  1  0.50113521  0.16641814  0.49933666  1
  Sn  Sn33  1  0.83324753  0.83406716  0.49973542  1
  Sn  Sn34  1  0.83240906  0.83355055  0.16680648  1
  Sn  Sn35  1  0.49928600  0.16733925  0.83326945  1
  Sn  Sn36  1  0.83252143  0.50062484  0.83312908  1
  Sn  Sn37  1  0.50081174  0.83404478  0.16725205  1
  Sn  Sn38  1  0.50041189  0.16615601  0.16726276  1
  Sn  Sn39  1  0.50097599  0.49942370  0.83311369  1
  Pb  Pb40  1  0.16330466  0.83609728  0.83117717  1
  Pb  Pb41  1  0.50007962  0.50069822  0.16370053  1
  Pb  Pb42  1  0.16981218  0.16625638  0.16436972  1
  Pb  Pb43  1  0.83309255  0.50312788  0.16361170  1
  Pb  Pb44  1  0.50003057  0.50007010  0.50249465  1
  Pb  Pb45  1  0.83297021  0.16659379  0.83180862  1
  Pb  Pb46  1  0.16604749  0.49729941  0.83325751  1
  Pb  Pb47  1  0.16669242  0.50320653  0.50023368  1
  Pb  Pb48  1  0.83087937  0.16472190  0.17030151  1
  Pb  Pb49  1  0.16676112  0.50000408  0.16653539  1
  Pb  Pb50  1  0.83318840  0.49970915  0.50192524  1
  Pb  Pb51  1  0.16719909  0.83357273  0.16931088  1
  Pb  Pb52  1  0.50131472  0.83362190  0.83341415  1
  Pb  Pb53  1  0.16693966  0.16520489  0.50124628  1
  I  I54  1  0.16449133  -0.00016173  0.16478011  1
  I  I55  1  0.16582224  -0.00292801  0.50173210  1
  I  I56  1  0.17446986  0.00327582  0.83243686  1
  I  I57  1  0.16723639  0.33276727  0.16681596  1
  I  I58  1  0.16632764  0.33298357  0.50209237  1
  I  I59  1  0.16765032  0.32965680  0.83059298  1
  I  I60  1  0.16922803  0.66739129  0.16555804  1
  I  I61  1  0.16596556  0.67173603  0.50176638  1
  I  I62  1  0.16921846  0.66693641  0.83240933  1
  I  I63  1  0.50360509  -0.00037751  0.16479199  1
  I  I64  1  0.50110353  -0.00029263  0.50243133  1
  I  I65  1  0.49835339  0.00283577  0.83274025  1
  I  I66  1  0.49932751  0.33020399  0.16876086  1
  I  I67  1  0.50517937  0.32961313  0.49846356  1
  I  I68  1  0.50216470  0.33192288  0.83297929  1
  I  I69  1  0.50447218  0.67045900  0.17185289  1
  I  I70  1  0.50183280  0.67051114  0.49659037  1
  I  I71  1  0.50366249  0.66490087  0.83241926  1
  I  I72  1  0.83140164  -0.00374502  0.16038450  1
  I  I73  1  0.83203443  -0.00170136  0.50397354  1
  I  I74  1  0.83267034  -0.00279352  0.83314072  1
  I  I75  1  0.83248734  0.33321000  0.16591709  1
  I  I76  1  0.82675879  0.32996681  0.50447283  1
  I  I77  1  0.83164707  0.33525361  0.82991117  1
  I  I78  1  0.82612959  0.67165225  0.17348433  1
  I  I79  1  0.83232189  0.67060743  0.49888203  1
  I  I80  1  0.82680513  0.66771700  0.83059788  1
  I  I81  1  0.16989670  0.16633450  -0.00383762  1
  I  I82  1  0.16648684  0.16531073  0.33343083  1
  I  I83  1  0.17245721  0.16547012  0.66915729  1
  I  I84  1  0.16781604  0.50222437  -0.00076309  1
  I  I85  1  0.16696274  0.49864290  0.33356017  1
  I  I86  1  0.16690779  0.50028289  0.66710080  1
  I  I87  1  0.16684833  0.83285123  -0.00015163  1
  I  I88  1  0.16218039  0.83613541  0.33718192  1
  I  I89  1  0.16872841  0.83480231  0.66345931  1
  I  I90  1  0.49560584  0.16579073  -0.00045022  1
  I  I91  1  0.50507744  0.15928998  0.33427537  1
  I  I92  1  0.50011992  0.16561530  0.66638682  1
  I  I93  1  0.50467683  0.49556896  -0.00416927  1
  I  I94  1  0.49902253  0.49808900  0.33326193  1
  I  I95  1  0.50396101  0.49677020  0.67039610  1
  I  I96  1  0.50594943  0.83676873  0.00232826  1
  I  I97  1  0.50451495  0.84143815  0.33418267  1
  I  I98  1  0.50173350  0.83632676  0.66386101  1
  I  I99  1  0.83326838  0.16543715  0.00017189  1
  I  I100  1  0.82925065  0.15927649  0.33823166  1
  I  I101  1  0.82772404  0.15963729  0.66404377  1
  I  I102  1  0.82811532  0.50283442  -0.00449664  1
  I  I103  1  0.83387811  0.50064705  0.33317788  1
  I  I104  1  0.82908309  0.50635677  0.66994034  1
  I  I105  1  0.82708478  0.82954037  -0.00001922  1
  I  I106  1  0.83276423  0.83879850  0.33434096  1
  I  I107  1  0.83251943  0.83334771  0.66581898  1
  I  I108  1  -0.00030634  0.16569315  0.16507167  1
  I  I109  1  -0.00272791  0.16006116  0.50564752  1
  I  I110  1  0.00144933  0.16527040  0.82921028  1
  I  I111  1  -0.00048171  0.50122027  0.16425410  1
  I  I112  1  -0.00025899  0.49916137  0.50422962  1
  I  I113  1  -0.00312801  0.50481307  0.83199328  1
  I  I114  1  -0.00317057  0.83224563  0.16667177  1
  I  I115  1  -0.00171258  0.83766430  0.50149784  1
  I  I116  1  -0.00478534  0.82857222  0.83311044  1
  I  I117  1  0.33842594  0.15940354  0.17127197  1
  I  I118  1  0.33699185  0.16158015  0.49994283  1
  I  I119  1  0.33592323  0.17157926  0.83079784  1
  I  I120  1  0.33405414  0.50286745  0.16382245  1
  I  I121  1  0.33364995  0.49984637  0.50321393  1
  I  I122  1  0.33615160  0.49793936  0.83327389  1
  I  I123  1  0.33714421  0.83729575  0.17047511  1
  I  I124  1  0.33503872  0.83841338  0.49640787  1
  I  I125  1  0.33334750  0.83057190  0.83299588  1
  I  I126  1  0.66274657  0.16405515  0.15965663  1
  I  I127  1  0.66542752  0.15727264  0.50435292  1
  I  I128  1  0.66365305  0.16743991  0.83402527  1
  I  I129  1  0.66653898  0.49875145  0.16715477  1
  I  I130  1  0.66654670  0.50403172  0.50040794  1
  I  I131  1  0.66636654  0.49793815  0.83237067  1
  I  I132  1  0.66626558  0.83708027  0.17063241  1
  I  I133  1  0.66670111  0.83749782  0.50023193  1
  I  I134  1  0.66942277  0.83448281  0.82883593  1
