# generated using pymatgen
data_Cs27Sn14Pb13I81
_symmetry_space_group_name_H-M   'P 1'
_cell_length_a   18.96950520
_cell_length_b   18.98801338
_cell_length_c   18.97008806
_cell_angle_alpha   90.00016623
_cell_angle_beta   89.99816387
_cell_angle_gamma   89.99916275
_symmetry_Int_Tables_number   1
_chemical_formula_structural   Cs27Sn14Pb13I81
_chemical_formula_sum   'Cs27 Sn14 Pb13 I81'
_cell_volume   6832.89706882
_cell_formula_units_Z   1
loop_
 _symmetry_equiv_pos_site_id
 _symmetry_equiv_pos_as_xyz
  1  'x, y, z'
loop_
 _atom_site_type_symbol
 _atom_site_label
 _atom_site_symmetry_multiplicity
 _atom_site_fract_x
 _atom_site_fract_y
 _atom_site_fract_z
 _atom_site_occupancy
  Cs  Cs0  1  0.00056128  -0.00357464  -0.00048650  1
  Cs  Cs1  1  -0.00008861  0.00126303  0.33337801  1
  Cs  Cs2  1  0.00046251  0.00014215  0.66674703  1
  Cs  Cs3  1  -0.00107940  0.33425864  0.00055200  1
  Cs  Cs4  1  0.00173158  0.32969047  0.33643802  1
  Cs  Cs5  1  -0.00180037  0.33309028  0.66377374  1
  Cs  Cs6  1  -0.00531493  0.66787789  -0.00454369  1
  Cs  Cs7  1  0.00390106  0.66972803  0.33698028  1
  Cs  Cs8  1  -0.00153017  0.66664212  0.66705774  1
  Cs  Cs9  1  0.33224471  -0.00001573  -0.00099907  1
  Cs  Cs10  1  0.33176945  -0.00154201  0.33045621  1
  Cs  Cs11  1  0.33692583  0.00264712  0.67116385  1
  Cs  Cs12  1  0.33333019  0.33273774  -0.00078513  1
  Cs  Cs13  1  0.33123216  0.33746113  0.33221516  1
  Cs  Cs14  1  0.33631488  0.33309990  0.66900596  1
  Cs  Cs15  1  0.33384144  0.66724626  0.00033771  1
  Cs  Cs16  1  0.33310697  0.66571791  0.33295156  1
  Cs  Cs17  1  0.33421304  0.66512550  0.66624325  1
  Cs  Cs18  1  0.66671966  -0.00193525  0.00378425  1
  Cs  Cs19  1  0.66746769  -0.00064193  0.33440133  1
  Cs  Cs20  1  0.66343871  0.00478019  0.66284602  1
  Cs  Cs21  1  0.66949487  0.33839104  0.00287663  1
  Cs  Cs22  1  0.66542596  0.33592462  0.32960950  1
  Cs  Cs23  1  0.66864868  0.32807520  0.66679185  1
  Cs  Cs24  1  0.67021828  0.66367452  -0.00135724  1
  Cs  Cs25  1  0.66204083  0.66531032  0.33167079  1
  Cs  Cs26  1  0.66726335  0.66798373  0.66874920  1
  Sn  Sn27  1  0.16705149  0.50002342  0.83386781  1
  Sn  Sn28  1  0.16636620  0.83462994  0.49981102  1
  Sn  Sn29  1  0.49940003  0.50064032  0.83331721  1
  Sn  Sn30  1  0.83416574  0.16655408  0.50055900  1
  Sn  Sn31  1  0.16637904  0.50038357  0.16552452  1
  Sn  Sn32  1  0.49915138  0.83404398  0.16563909  1
  Sn  Sn33  1  0.16668436  0.16556091  0.49972016  1
  Sn  Sn34  1  0.83393075  0.83345117  0.49979593  1
  Sn  Sn35  1  0.49909690  0.16600574  0.16681997  1
  Sn  Sn36  1  0.16714211  0.83328111  0.16694630  1
  Sn  Sn37  1  0.83374923  0.16622855  0.83330776  1
  Sn  Sn38  1  0.16735747  0.16645145  0.16715862  1
  Sn  Sn39  1  0.83299204  0.50001512  0.49954689  1
  Sn  Sn40  1  0.49980876  0.83279075  0.83420223  1
  Pb  Pb41  1  0.16502250  0.16864666  0.83339677  1
  Pb  Pb42  1  0.83378965  0.16655458  0.16724749  1
  Pb  Pb43  1  0.16557043  0.49994723  0.50018356  1
  Pb  Pb44  1  0.83673818  0.50031594  0.16943306  1
  Pb  Pb45  1  0.83344028  0.83312560  0.16897206  1
  Pb  Pb46  1  0.49911036  0.83345870  0.49958054  1
  Pb  Pb47  1  0.50279061  0.49985919  0.50293313  1
  Pb  Pb48  1  0.49924656  0.16672915  0.49702018  1
  Pb  Pb49  1  0.49792401  0.50043605  0.16477052  1
  Pb  Pb50  1  0.83049926  0.83578462  0.83064283  1
  Pb  Pb51  1  0.83340561  0.49831030  0.83144395  1
  Pb  Pb52  1  0.50218211  0.16676673  0.83621831  1
  Pb  Pb53  1  0.16830904  0.83141355  0.83299883  1
  I  I54  1  0.17089194  -0.00009166  0.17251607  1
  I  I55  1  0.15776925  0.00009668  0.49151445  1
  I  I56  1  0.16707158  -0.00000535  0.83488731  1
  I  I57  1  0.17019465  0.33247405  0.16788049  1
  I  I58  1  0.16140438  0.33070590  0.49620563  1
  I  I59  1  0.17219275  0.33650730  0.83660553  1
  I  I60  1  0.17100726  0.66770970  0.16906961  1
  I  I61  1  0.16217650  0.66922882  0.49648821  1
  I  I62  1  0.16749636  0.66348350  0.83645052  1
  I  I63  1  0.49255419  -0.00083235  0.16131174  1
  I  I64  1  0.50565264  -0.00000247  0.50561678  1
  I  I65  1  0.50163889  -0.00234466  0.83488183  1
  I  I66  1  0.49669059  0.33110539  0.16654735  1
  I  I67  1  0.49977087  0.33318545  0.49980573  1
  I  I68  1  0.49736755  0.33563905  0.83378611  1
  I  I69  1  0.49590374  0.66962367  0.16609632  1
  I  I70  1  0.50015965  0.66680713  0.49553079  1
  I  I71  1  0.49667148  0.66689972  0.83854088  1
  I  I72  1  0.83584152  -0.00000792  0.16761791  1
  I  I73  1  0.83759014  0.00052004  0.50369614  1
  I  I74  1  0.83337475  0.00324735  0.82776179  1
  I  I75  1  0.83164094  0.33326804  0.16863393  1
  I  I76  1  0.83813969  0.33199480  0.50438581  1
  I  I77  1  0.83177807  0.33068588  0.82664003  1
  I  I78  1  0.83222458  0.66672213  0.16829068  1
  I  I79  1  0.83863146  0.66743210  0.49901095  1
  I  I80  1  0.83412253  0.66681969  0.83101571  1
  I  I81  1  0.16885087  0.16442189  0.00317552  1
  I  I82  1  0.16406484  0.16823144  0.33311317  1
  I  I83  1  0.16295757  0.16377988  0.66368869  1
  I  I84  1  0.17076525  0.49884105  0.00068661  1
  I  I85  1  0.16453375  0.49960992  0.33076646  1
  I  I86  1  0.16877533  0.50005345  0.66896053  1
  I  I87  1  0.16982181  0.83657982  0.00304368  1
  I  I88  1  0.16814221  0.83146909  0.33275986  1
  I  I89  1  0.16350550  0.83599124  0.66358460  1
  I  I90  1  0.49419235  0.16495539  0.00375587  1
  I  I91  1  0.50111683  0.15977108  0.32917789  1
  I  I92  1  0.49863253  0.16652093  0.66686620  1
  I  I93  1  0.49939456  0.50059770  -0.00303665  1
  I  I94  1  0.50030916  0.50045582  0.33297001  1
  I  I95  1  0.49202451  0.50606743  0.67090806  1
  I  I96  1  0.49353962  0.83424042  0.00113836  1
  I  I97  1  0.49947826  0.83783732  0.33019099  1
  I  I98  1  0.50089206  0.82832601  0.66910297  1
  I  I99  1  0.83261119  0.16883685  -0.00199724  1
  I  I100  1  0.83507376  0.16628567  0.33675593  1
  I  I101  1  0.83786093  0.16740424  0.66462968  1
  I  I102  1  0.83200184  0.49706806  -0.00017533  1
  I  I103  1  0.83450298  0.49587085  0.33749659  1
  I  I104  1  0.83635511  0.50137670  0.66350988  1
  I  I105  1  0.83583167  0.83524878  -0.00021007  1
  I  I106  1  0.83316261  0.83743406  0.33728594  1
  I  I107  1  0.83928377  0.83086094  0.66264574  1
  I  I108  1  0.00357763  0.16624332  0.16844591  1
  I  I109  1  0.00020228  0.16659751  0.49753708  1
  I  I110  1  -0.00274065  0.16934605  0.83244216  1
  I  I111  1  0.00505885  0.49895620  0.15935400  1
  I  I112  1  -0.00241752  0.49938182  0.50171875  1
  I  I113  1  0.00254959  0.49820339  0.83661051  1
  I  I114  1  0.00373510  0.83509604  0.16938899  1
  I  I115  1  0.00087669  0.83392043  0.49425764  1
  I  I116  1  -0.00001876  0.83190971  0.83595175  1
  I  I117  1  0.33173781  0.16595716  0.17148141  1
  I  I118  1  0.32956772  0.16125720  0.49808958  1
  I  I119  1  0.33337995  0.16642684  0.83014872  1
  I  I120  1  0.32968923  0.49939664  0.16715631  1
  I  I121  1  0.33307289  0.50012150  0.49892294  1
  I  I122  1  0.33306643  0.50241318  0.83643154  1
  I  I123  1  0.33227052  0.83415103  0.16938356  1
  I  I124  1  0.32975624  0.83796403  0.49828664  1
  I  I125  1  0.33629594  0.83291982  0.83234679  1
  I  I126  1  0.66409099  0.16185279  0.16608909  1
  I  I127  1  0.66971928  0.16603738  0.50335084  1
  I  I128  1  0.66977518  0.16798927  0.82623181  1
  I  I129  1  0.66650809  0.49891373  0.16627750  1
  I  I130  1  0.67108783  0.49971310  0.50125978  1
  I  I131  1  0.66420190  0.50288110  0.83141491  1
  I  I132  1  0.66339174  0.83841321  0.16491178  1
  I  I133  1  0.66930392  0.83415016  0.50080448  1
  I  I134  1  0.66277861  0.82621279  0.83920706  1
