# generated using pymatgen
data_Cs27Sn14Pb13I81
_symmetry_space_group_name_H-M   'P 1'
_cell_length_a   18.98336211
_cell_length_b   18.96653006
_cell_length_c   18.97756989
_cell_angle_alpha   90.00130002
_cell_angle_beta   89.99940657
_cell_angle_gamma   89.99977753
_symmetry_Int_Tables_number   1
_chemical_formula_structural   Cs27Sn14Pb13I81
_chemical_formula_sum   'Cs27 Sn14 Pb13 I81'
_cell_volume   6832.84572300
_cell_formula_units_Z   1
loop_
 _symmetry_equiv_pos_site_id
 _symmetry_equiv_pos_as_xyz
  1  'x, y, z'
loop_
 _atom_site_type_symbol
 _atom_site_label
 _atom_site_symmetry_multiplicity
 _atom_site_fract_x
 _atom_site_fract_y
 _atom_site_fract_z
 _atom_site_occupancy
  Cs  Cs0  1  -0.00260751  -0.00115443  -0.00010132  1
  Cs  Cs1  1  0.00215794  0.00054689  0.33374597  1
  Cs  Cs2  1  0.00015267  -0.00152354  0.66794508  1
  Cs  Cs3  1  0.00269656  0.33499638  -0.00147104  1
  Cs  Cs4  1  0.00004166  0.33300325  0.33612943  1
  Cs  Cs5  1  -0.00322238  0.33252178  0.66403042  1
  Cs  Cs6  1  -0.00057734  0.66524247  0.00016800  1
  Cs  Cs7  1  -0.00379281  0.66542570  0.33252531  1
  Cs  Cs8  1  0.00309323  0.66541643  0.66600991  1
  Cs  Cs9  1  0.33411078  0.00304540  0.00539841  1
  Cs  Cs10  1  0.33246078  0.00120006  0.33153700  1
  Cs  Cs11  1  0.33235537  -0.00444107  0.66645659  1
  Cs  Cs12  1  0.33189098  0.33570587  -0.00059125  1
  Cs  Cs13  1  0.33285086  0.33125465  0.33247461  1
  Cs  Cs14  1  0.33280796  0.33283363  0.66759340  1
  Cs  Cs15  1  0.33183494  0.65788847  -0.00813430  1
  Cs  Cs16  1  0.33755111  0.66961552  0.33512234  1
  Cs  Cs17  1  0.33985891  0.67462121  0.67376273  1
  Cs  Cs18  1  0.66817545  -0.00119059  -0.00020437  1
  Cs  Cs19  1  0.66578120  0.00158700  0.33203685  1
  Cs  Cs20  1  0.66799563  0.00003892  0.67055955  1
  Cs  Cs21  1  0.66591680  0.33262653  -0.00021657  1
  Cs  Cs22  1  0.66659923  0.33296033  0.33482220  1
  Cs  Cs23  1  0.67058468  0.33287452  0.66466635  1
  Cs  Cs24  1  0.66863197  0.66860013  0.00156539  1
  Cs  Cs25  1  0.66808875  0.66320221  0.33216730  1
  Cs  Cs26  1  0.65862981  0.66515169  0.66654475  1
  Sn  Sn27  1  0.16636846  0.16619208  0.16651894  1
  Sn  Sn28  1  0.83330271  0.50002045  0.83251468  1
  Sn  Sn29  1  0.49898932  0.16666487  0.83331711  1
  Sn  Sn30  1  0.16685150  0.49990732  0.49992267  1
  Sn  Sn31  1  0.83341989  0.16620324  0.49923975  1
  Sn  Sn32  1  0.49974575  0.16659528  0.50036999  1
  Sn  Sn33  1  0.49872528  0.83394896  0.16661772  1
  Sn  Sn34  1  0.16737639  0.16647792  0.83308970  1
  Sn  Sn35  1  0.16676749  0.16719574  0.50039619  1
  Sn  Sn36  1  0.83326557  0.83346809  0.50019690  1
  Sn  Sn37  1  0.16763219  0.83360070  0.16672932  1
  Sn  Sn38  1  0.83425851  0.50015434  0.50121184  1
  Sn  Sn39  1  0.50002461  0.16651186  0.16656429  1
  Sn  Sn40  1  0.83361784  0.16686140  0.16733255  1
  Pb  Pb41  1  0.49942934  0.49802887  0.49997848  1
  Pb  Pb42  1  0.16496253  0.49765945  0.83017349  1
  Pb  Pb43  1  0.49973409  0.50000302  0.16668757  1
  Pb  Pb44  1  0.83344731  0.49723622  0.16718639  1
  Pb  Pb45  1  0.49994627  0.83615058  0.83657532  1
  Pb  Pb46  1  0.83340430  0.83002650  0.83033002  1
  Pb  Pb47  1  0.50248017  0.49726877  0.83323322  1
  Pb  Pb48  1  0.83357715  0.16775272  0.83329413  1
  Pb  Pb49  1  0.16523346  0.83324253  0.49815074  1
  Pb  Pb50  1  0.16656140  0.83590417  0.83648116  1
  Pb  Pb51  1  0.83345622  0.83565958  0.16846341  1
  Pb  Pb52  1  0.50234755  0.83617641  0.49779510  1
  Pb  Pb53  1  0.16678907  0.50006791  0.16936568  1
  I  I54  1  0.16739488  0.00281341  0.16938322  1
  I  I55  1  0.16551072  0.00385302  0.50079238  1
  I  I56  1  0.16853291  0.00474783  0.82679228  1
  I  I57  1  0.16717238  0.32931166  0.16522148  1
  I  I58  1  0.16156480  0.33068759  0.49808947  1
  I  I59  1  0.17030940  0.32916349  0.83927205  1
  I  I60  1  0.17078179  0.66971623  0.16998854  1
  I  I61  1  0.15844241  0.66409198  0.49596863  1
  I  I62  1  0.16471453  0.66637742  0.83403268  1
  I  I63  1  0.49936188  0.00273644  0.16734513  1
  I  I64  1  0.49913942  0.00494633  0.50104054  1
  I  I65  1  0.49849503  0.00470982  0.83025370  1
  I  I66  1  0.49978082  0.32867511  0.16725408  1
  I  I67  1  0.50479849  0.32870397  0.49656695  1
  I  I68  1  0.49622672  0.32868519  0.83660071  1
  I  I69  1  0.49632679  0.67014694  0.16863255  1
  I  I70  1  0.50106933  0.66703127  0.49714859  1
  I  I71  1  0.50136545  0.66675169  0.83474682  1
  I  I72  1  0.83326839  0.00419553  0.17175641  1
  I  I73  1  0.83350622  0.00204960  0.49422975  1
  I  I74  1  0.83286026  0.00020476  0.83272497  1
  I  I75  1  0.83300842  0.32862971  0.17255595  1
  I  I76  1  0.83368457  0.33197674  0.50008891  1
  I  I77  1  0.83314851  0.33518969  0.82659282  1
  I  I78  1  0.83254902  0.66677031  0.16791848  1
  I  I79  1  0.83969979  0.66575477  0.50343862  1
  I  I80  1  0.83439118  0.66212498  0.82930358  1
  I  I81  1  0.16847970  0.16231681  0.00087517  1
  I  I82  1  0.16764164  0.16686265  0.33351726  1
  I  I83  1  0.16801173  0.17211384  0.66557845  1
  I  I84  1  0.16467221  0.49893329  -0.00019070  1
  I  I85  1  0.15802223  0.49149095  0.33708885  1
  I  I86  1  0.16247736  0.49215363  0.66234202  1
  I  I87  1  0.16867040  0.84039662  0.00471090  1
  I  I88  1  0.16927144  0.84143679  0.33033436  1
  I  I89  1  0.16411766  0.83459969  0.66651959  1
  I  I90  1  0.49865240  0.16347342  0.00093238  1
  I  I91  1  0.49919912  0.16389057  0.33317873  1
  I  I92  1  0.49899659  0.16929752  0.66598189  1
  I  I93  1  0.50249893  0.49649007  -0.00013083  1
  I  I94  1  0.50364302  0.49656976  0.33357927  1
  I  I95  1  0.49927382  0.49750786  0.66645960  1
  I  I96  1  0.49866170  0.84147761  0.00449070  1
  I  I97  1  0.49646089  0.84118148  0.33008342  1
  I  I98  1  0.50189272  0.83448027  0.66659081  1
  I  I99  1  0.83294059  0.16846974  0.00261659  1
  I  I100  1  0.83298656  0.16856455  0.33457863  1
  I  I101  1  0.83299334  0.16625068  0.66335528  1
  I  I102  1  0.83213070  0.49581527  -0.00227302  1
  I  I103  1  0.83676231  0.50055970  0.33706467  1
  I  I104  1  0.83708468  0.49507273  0.66432721  1
  I  I105  1  0.83286789  0.83355798  0.00029000  1
  I  I106  1  0.83362515  0.82978606  0.33636183  1
  I  I107  1  0.83449123  0.84234259  0.66223243  1
  I  I108  1  0.00062333  0.16333326  0.16958201  1
  I  I109  1  -0.00030635  0.16780797  0.49707180  1
  I  I110  1  0.00258848  0.16873140  0.83388251  1
  I  I111  1  -0.00000437  0.49984014  0.16481766  1
  I  I112  1  -0.00102355  0.49320390  0.50260598  1
  I  I113  1  -0.00281166  0.49536756  0.83092177  1
  I  I114  1  0.00247569  0.83941462  0.16863843  1
  I  I115  1  -0.00274602  0.83875872  0.49640755  1
  I  I116  1  -0.00007338  0.83786137  0.83675039  1
  I  I117  1  0.33315725  0.16315281  0.16945043  1
  I  I118  1  0.33267195  0.17183552  0.49716075  1
  I  I119  1  0.33315423  0.16718680  0.83349162  1
  I  I120  1  0.33308678  0.49429523  0.16875802  1
  I  I121  1  0.33013668  0.49205662  0.49654538  1
  I  I122  1  0.33319984  0.50037617  0.83304736  1
  I  I123  1  0.33322467  0.84520381  0.16945241  1
  I  I124  1  0.33352985  0.83273885  0.50019160  1
  I  I125  1  0.33329898  0.83017089  0.82806061  1
  I  I126  1  0.66630513  0.16395347  0.16932051  1
  I  I127  1  0.66739605  0.16708279  0.49682370  1
  I  I128  1  0.66436310  0.16866235  0.83381524  1
  I  I129  1  0.66688537  0.49879002  0.16911569  1
  I  I130  1  0.66997330  0.49804476  0.50291808  1
  I  I131  1  0.67017857  0.49642820  0.82534033  1
  I  I132  1  0.66434076  0.83947129  0.16812033  1
  I  I133  1  0.67026473  0.83311722  0.49712893  1
  I  I134  1  0.66669892  0.83694829  0.83606704  1
