# generated using pymatgen
data_Cs27Sn13Pb14I81
_symmetry_space_group_name_H-M   'P 1'
_cell_length_a   18.98418875
_cell_length_b   18.98418877
_cell_length_c   18.96670583
_cell_angle_alpha   89.99890395
_cell_angle_beta   89.99890400
_cell_angle_gamma   89.99964446
_symmetry_Int_Tables_number   1
_chemical_formula_structural   Cs27Sn13Pb14I81
_chemical_formula_sum   'Cs27 Sn13 Pb14 I81'
_cell_volume   6835.58983578
_cell_formula_units_Z   1
loop_
 _symmetry_equiv_pos_site_id
 _symmetry_equiv_pos_as_xyz
  1  'x, y, z'
loop_
 _atom_site_type_symbol
 _atom_site_label
 _atom_site_symmetry_multiplicity
 _atom_site_fract_x
 _atom_site_fract_y
 _atom_site_fract_z
 _atom_site_occupancy
  Cs  Cs0  1  0.00209828  0.00159315  -0.00101293  1
  Cs  Cs1  1  -0.00032748  -0.00250087  0.33317983  1
  Cs  Cs2  1  -0.00178229  0.00153609  0.66639024  1
  Cs  Cs3  1  -0.00052266  0.33281056  0.00098674  1
  Cs  Cs4  1  0.00066996  0.33400329  0.33400148  1
  Cs  Cs5  1  -0.00135813  0.33197512  0.66623354  1
  Cs  Cs6  1  0.00678113  0.66626588  0.00719706  1
  Cs  Cs7  1  -0.00329657  0.66841445  0.33108481  1
  Cs  Cs8  1  0.00121539  0.66621213  0.66534025  1
  Cs  Cs9  1  0.33295170  -0.00700383  0.00712871  1
  Cs  Cs10  1  0.33534934  0.00275022  0.32920526  1
  Cs  Cs11  1  0.33319060  -0.00075415  0.66601434  1
  Cs  Cs12  1  0.33293242  0.34011456  0.00719699  1
  Cs  Cs13  1  0.33508088  0.33003679  0.33108472  1
  Cs  Cs14  1  0.33287870  0.33454880  0.66534026  1
  Cs  Cs15  1  0.33525338  0.66858679  0.00014744  1
  Cs  Cs16  1  0.33386813  0.66720165  0.33442504  1
  Cs  Cs17  1  0.33349837  0.66683165  0.66949585  1
  Cs  Cs18  1  0.66552746  -0.00113911  -0.00289393  1
  Cs  Cs19  1  0.66475364  -0.00191302  0.33200869  1
  Cs  Cs20  1  0.66887393  0.00220720  0.66683725  1
  Cs  Cs21  1  0.66825980  0.33543163  -0.00101292  1
  Cs  Cs22  1  0.66416569  0.33300599  0.33317986  1
  Cs  Cs23  1  0.66820289  0.33155105  0.66639023  1
  Cs  Cs24  1  0.65966279  0.66628484  0.00712863  1
  Cs  Cs25  1  0.66941680  0.66868264  0.32920530  1
  Cs  Cs26  1  0.66591268  0.66652381  0.66601438  1
  Sn  Sn27  1  0.16653150  0.49986486  0.50056816  1
  Sn  Sn28  1  0.49886244  0.16685867  0.83330014  1
  Sn  Sn29  1  0.83395928  0.16729263  0.49959503  1
  Sn  Sn30  1  0.50035701  0.50092186  0.50066000  1
  Sn  Sn31  1  0.83325492  0.16658824  0.16687906  1
  Sn  Sn32  1  0.16594567  0.16651561  0.50098048  1
  Sn  Sn33  1  0.83351954  0.16685287  0.83337804  1
  Sn  Sn34  1  0.49937501  0.83270834  0.50084483  1
  Sn  Sn35  1  0.16755335  0.16686333  0.83272979  1
  Sn  Sn36  1  0.83318228  0.49927895  0.50098044  1
  Sn  Sn37  1  0.83352530  0.83219584  0.83330012  1
  Sn  Sn38  1  0.83353005  0.50088666  0.83272980  1
  Sn  Sn39  1  0.16758852  0.83369039  0.50065999  1
  Pb  Pb40  1  0.83336712  0.83321593  0.50132471  1
  Pb  Pb41  1  0.50010648  0.49986474  0.16946836  1
  Pb  Pb42  1  0.49988256  0.16670040  0.50132474  1
  Pb  Pb43  1  0.16475719  0.83529156  0.83129673  1
  Pb  Pb44  1  0.16653139  0.83343985  0.16946835  1
  Pb  Pb45  1  0.16653801  0.49987135  0.16942226  1
  Pb  Pb46  1  0.16461159  0.49794495  0.83155614  1
  Pb  Pb47  1  0.83340907  0.49795098  0.16676406  1
  Pb  Pb48  1  0.50258246  0.16679621  0.16295392  1
  Pb  Pb49  1  0.50007079  0.83340412  0.16949539  1
  Pb  Pb50  1  0.50181262  0.83514594  0.83116518  1
  Pb  Pb51  1  0.83346288  0.83591574  0.16295394  1
  Pb  Pb52  1  0.50195819  0.49809050  0.83129676  1
  Pb  Pb53  1  0.16461765  0.16674239  0.16676406  1
  I  I54  1  0.16515167  0.00034193  0.16949395  1
  I  I55  1  0.16546331  0.00110260  0.50424091  1
  I  I56  1  0.16208002  0.00401232  0.82600317  1
  I  I57  1  0.16574482  0.33300471  0.16926409  1
  I  I58  1  0.16486527  0.33272877  0.50386498  1
  I  I59  1  0.16301036  0.32925313  0.82622630  1
  I  I60  1  0.16435473  0.66669513  0.16799567  1
  I  I61  1  0.16615618  0.66626084  0.49899687  1
  I  I62  1  0.16316642  0.66657966  0.83031559  1
  I  I63  1  0.50127116  0.00031738  0.17037396  1
  I  I64  1  0.49801175  -0.00188792  0.50233178  1
  I  I65  1  0.50502697  0.00337520  0.82859264  1
  I  I66  1  0.50050770  0.33304791  0.17038049  1
  I  I67  1  0.49935356  0.33566257  0.50198682  1
  I  I68  1  0.50435950  0.32987618  0.82860800  1
  I  I69  1  0.50204207  0.66666589  0.16453809  1
  I  I70  1  0.49770866  0.66610263  0.50091706  1
  I  I71  1  0.50333905  0.66654852  0.83267200  1
  I  I72  1  0.83381435  0.00417876  0.16944091  1
  I  I73  1  0.83560263  0.00312231  0.50203121  1
  I  I74  1  0.83308819  0.00227674  0.83192638  1
  I  I75  1  0.83386426  0.32989469  0.16310198  1
  I  I76  1  0.83533796  0.33251033  0.50409197  1
  I  I77  1  0.83300773  0.33173192  0.83157947  1
  I  I78  1  0.83314293  0.66665364  0.16812558  1
  I  I79  1  0.83550615  0.66381978  0.50519806  1
  I  I80  1  0.83306672  0.66575268  0.82305011  1
  I  I81  1  0.16309439  0.16626590  -0.00335045  1
  I  I82  1  0.16239896  0.16708972  0.33739219  1
  I  I83  1  0.16038953  0.16666552  0.66535354  1
  I  I84  1  0.16366342  0.49699710  -0.00046697  1
  I  I85  1  0.16301337  0.49634621  0.33922706  1
  I  I86  1  0.16762884  0.50096201  0.66239612  1
  I  I87  1  0.16428680  0.83635297  -0.00046601  1
  I  I88  1  0.16825523  0.83662680  0.33883924  1
  I  I89  1  0.16925467  0.83213800  0.66257596  1
  I  I90  1  0.50180510  0.16620716  -0.00516955  1
  I  I91  1  0.50073444  0.16651698  0.33342885  1
  I  I92  1  0.50674553  0.16653504  0.66893656  1
  I  I93  1  0.50301997  0.49761995  -0.00046601  1
  I  I94  1  0.50329330  0.50158850  0.33883924  1
  I  I95  1  0.49880478  0.50258814  0.66257600  1
  I  I96  1  0.50237170  0.83570523  -0.00039323  1
  I  I97  1  0.49816083  0.83149380  0.33830778  1
  I  I98  1  0.49672512  0.83005879  0.66291415  1
  I  I99  1  0.83321183  0.16654513  -0.00202663  1
  I  I100  1  0.83806878  0.17140216  0.33525175  1
  I  I101  1  0.83397083  0.16730409  0.66685520  1
  I  I102  1  0.83293278  0.49642781  -0.00335044  1
  I  I103  1  0.83375632  0.49573185  0.33739219  1
  I  I104  1  0.83333193  0.49372317  0.66535354  1
  I  I105  1  0.83287381  0.83513833  -0.00516954  1
  I  I106  1  0.83318335  0.83406808  0.33342888  1
  I  I107  1  0.83320207  0.84007872  0.66893656  1
  I  I108  1  -0.00343864  0.16719779  0.16310219  1
  I  I109  1  -0.00082297  0.16867122  0.50409169  1
  I  I110  1  -0.00160146  0.16634124  0.83157957  1
  I  I111  1  -0.00032859  0.49907841  0.16926444  1
  I  I112  1  -0.00060454  0.49819860  0.50386497  1
  I  I113  1  -0.00408016  0.49634360  0.82622599  1
  I  I114  1  -0.00028545  0.83384061  0.17038056  1
  I  I115  1  0.00232921  0.83268700  0.50198656  1
  I  I116  1  -0.00345716  0.83769284  0.82860827  1
  I  I117  1  0.33332034  0.16647649  0.16812528  1
  I  I118  1  0.33048648  0.16883942  0.50519842  1
  I  I119  1  0.33241936  0.16639979  0.82305012  1
  I  I120  1  0.33336176  0.49768771  0.16799512  1
  I  I121  1  0.33292753  0.49948975  0.49899704  1
  I  I122  1  0.33324631  0.49649959  0.83031583  1
  I  I123  1  0.33333256  0.83537541  0.16453837  1
  I  I124  1  0.33276928  0.83104191  0.50091696  1
  I  I125  1  0.33321528  0.83667286  0.83267193  1
  I  I126  1  0.67084541  0.16714713  0.16944100  1
  I  I127  1  0.66978896  0.16893605  0.50203115  1
  I  I128  1  0.66894343  0.16642165  0.83192646  1
  I  I129  1  0.66700861  0.49848513  0.16949404  1
  I  I130  1  0.66776930  0.49879659  0.50424073  1
  I  I131  1  0.67067898  0.49541371  0.82600336  1
  I  I132  1  0.66698400  0.83460488  0.17037373  1
  I  I133  1  0.66477874  0.83134508  0.50233221  1
  I  I134  1  0.67004189  0.83835988  0.82859239  1
