# generated using pymatgen
data_Cs27Sn14Pb13I81
_symmetry_space_group_name_H-M   'P 1'
_cell_length_a   18.95871843
_cell_length_b   18.96382431
_cell_length_c   18.96005482
_cell_angle_alpha   89.99779438
_cell_angle_beta   90.00137684
_cell_angle_gamma   90.00020604
_symmetry_Int_Tables_number   1
_chemical_formula_structural   Cs27Sn14Pb13I81
_chemical_formula_sum   'Cs27 Sn14 Pb13 I81'
_cell_volume   6816.70481274
_cell_formula_units_Z   1
loop_
 _symmetry_equiv_pos_site_id
 _symmetry_equiv_pos_as_xyz
  1  'x, y, z'
loop_
 _atom_site_type_symbol
 _atom_site_label
 _atom_site_symmetry_multiplicity
 _atom_site_fract_x
 _atom_site_fract_y
 _atom_site_fract_z
 _atom_site_occupancy
  Cs  Cs0  1  -0.00103608  -0.00052883  0.00107236  1
  Cs  Cs1  1  0.00135789  -0.00048396  0.33092607  1
  Cs  Cs2  1  -0.00091727  -0.00115056  0.66663434  1
  Cs  Cs3  1  0.00097263  0.33134577  0.00030030  1
  Cs  Cs4  1  -0.00148875  0.33271548  0.33489521  1
  Cs  Cs5  1  -0.00131883  0.33198143  0.66484281  1
  Cs  Cs6  1  0.00177054  0.66994740  -0.00206983  1
  Cs  Cs7  1  -0.00010989  0.66718128  0.33318163  1
  Cs  Cs8  1  0.00128161  0.66892617  0.66927232  1
  Cs  Cs9  1  0.33401187  0.00438673  0.00163771  1
  Cs  Cs10  1  0.33638300  -0.00275504  0.33559426  1
  Cs  Cs11  1  0.33829162  0.00318246  0.66257879  1
  Cs  Cs12  1  0.33352631  0.33157445  -0.00047083  1
  Cs  Cs13  1  0.33122752  0.33333473  0.33275007  1
  Cs  Cs14  1  0.33346714  0.33512195  0.66751271  1
  Cs  Cs15  1  0.33148839  0.66528903  -0.00136506  1
  Cs  Cs16  1  0.33337078  0.66811832  0.33456159  1
  Cs  Cs17  1  0.33297283  0.66466979  0.66725102  1
  Cs  Cs18  1  0.66871508  0.00237919  -0.00109786  1
  Cs  Cs19  1  0.66036453  -0.00292741  0.33534688  1
  Cs  Cs20  1  0.66336267  0.00052052  0.66631894  1
  Cs  Cs21  1  0.66556826  0.33335465  0.00018121  1
  Cs  Cs22  1  0.67170632  0.33842153  0.33199658  1
  Cs  Cs23  1  0.66838570  0.33358290  0.66706502  1
  Cs  Cs24  1  0.66575322  0.66502017  -0.00031461  1
  Cs  Cs25  1  0.66571408  0.66513360  0.33172891  1
  Cs  Cs26  1  0.66543613  0.66659727  0.66804832  1
  Sn  Sn27  1  0.49975880  0.83278162  0.83389396  1
  Sn  Sn28  1  0.16576225  0.83255226  0.49943594  1
  Sn  Sn29  1  0.83301663  0.49943126  0.83348171  1
  Sn  Sn30  1  0.16576173  0.16645106  0.83353273  1
  Sn  Sn31  1  0.16647765  0.50015491  0.16736260  1
  Sn  Sn32  1  0.16715096  0.50078828  0.49927467  1
  Sn  Sn33  1  0.83381718  0.83406009  0.16757720  1
  Sn  Sn34  1  0.16605908  0.83336275  0.16731184  1
  Sn  Sn35  1  0.16582797  0.16641409  0.16599226  1
  Sn  Sn36  1  0.49950959  0.50001703  0.50047638  1
  Sn  Sn37  1  0.83403929  0.16581296  0.16616132  1
  Sn  Sn38  1  0.83397249  0.83330830  0.49914553  1
  Sn  Sn39  1  0.50081078  0.50087787  0.83268586  1
  Sn  Sn40  1  0.83445448  0.16758858  0.83391235  1
  Pb  Pb41  1  0.50030589  0.17065057  0.49966071  1
  Pb  Pb42  1  0.49970581  0.83128453  0.50182238  1
  Pb  Pb43  1  0.16664082  0.49816059  0.83301162  1
  Pb  Pb44  1  0.49733813  0.50004182  0.16650869  1
  Pb  Pb45  1  0.83579059  0.50032361  0.16441149  1
  Pb  Pb46  1  0.50042653  0.16743982  0.83339336  1
  Pb  Pb47  1  0.83399072  0.50234442  0.50215386  1
  Pb  Pb48  1  0.16661775  0.16643327  0.49938647  1
  Pb  Pb49  1  0.83336055  0.16383629  0.49942164  1
  Pb  Pb50  1  0.49997932  0.83329389  0.16427136  1
  Pb  Pb51  1  0.16895666  0.83618766  0.83310365  1
  Pb  Pb52  1  0.83180609  0.83382178  0.83369436  1
  Pb  Pb53  1  0.50056703  0.16674790  0.16700869  1
  I  I54  1  0.16255386  -0.00025073  0.16579905  1
  I  I55  1  0.16257804  -0.00324399  0.49804455  1
  I  I56  1  0.16167958  0.00378328  0.83743777  1
  I  I57  1  0.16425061  0.33293459  0.16612039  1
  I  I58  1  0.17158359  0.33631150  0.49789617  1
  I  I59  1  0.16727150  0.33037213  0.83749878  1
  I  I60  1  0.16358545  0.66733467  0.17061723  1
  I  I61  1  0.16706317  0.66673458  0.49319144  1
  I  I62  1  0.16516499  0.66671378  0.83589678  1
  I  I63  1  0.49576064  -0.00018747  0.16392362  1
  I  I64  1  0.49931665  -0.00046667  0.50257863  1
  I  I65  1  0.49980164  -0.00193348  0.83360985  1
  I  I66  1  0.49929018  0.33359717  0.16496222  1
  I  I67  1  0.49327191  0.33867668  0.50752527  1
  I  I68  1  0.50075039  0.33653396  0.82906638  1
  I  I69  1  0.50080165  0.66663465  0.16611676  1
  I  I70  1  0.49765049  0.66350249  0.50354866  1
  I  I71  1  0.50503723  0.66515661  0.83031261  1
  I  I72  1  0.84166196  -0.00001389  0.16336121  1
  I  I73  1  0.84015930  -0.00420798  0.50172226  1
  I  I74  1  0.83556791  0.00265882  0.83465601  1
  I  I75  1  0.83724384  0.33078019  0.16352019  1
  I  I76  1  0.83236140  0.33365117  0.49889640  1
  I  I77  1  0.83138382  0.33274784  0.83771690  1
  I  I78  1  0.83732404  0.66953471  0.16848774  1
  I  I79  1  0.83478907  0.67021622  0.49567316  1
  I  I80  1  0.83037783  0.66475196  0.83294906  1
  I  I81  1  0.16361940  0.16721157  0.00102700  1
  I  I82  1  0.16177066  0.16773291  0.32972847  1
  I  I83  1  0.16351486  0.16739889  0.66923564  1
  I  I84  1  0.16608660  0.50214005  0.00239270  1
  I  I85  1  0.17177965  0.49886516  0.33353769  1
  I  I86  1  0.16792164  0.50345172  0.66413316  1
  I  I87  1  0.16319000  0.83070598  0.00305836  1
  I  I88  1  0.16358249  0.83413025  0.33277818  1
  I  I89  1  0.16362802  0.82902609  0.66385908  1
  I  I90  1  0.49830292  0.16875724  -0.00012926  1
  I  I91  1  0.49872899  0.16593781  0.33326297  1
  I  I92  1  0.49899796  0.16325149  0.66702673  1
  I  I93  1  0.50251532  0.50272022  -0.00325625  1
  I  I94  1  0.49755295  0.50029827  0.33622589  1
  I  I95  1  0.49713230  0.50409245  0.66739957  1
  I  I96  1  0.50020622  0.82679446  -0.00356783  1
  I  I97  1  0.50039250  0.83210477  0.33347907  1
  I  I98  1  0.50064605  0.83156227  0.66959466  1
  I  I99  1  0.83759058  0.16435642  0.00000317  1
  I  I100  1  0.83944197  0.16587319  0.32964171  1
  I  I101  1  0.83680579  0.16931556  0.66982938  1
  I  I102  1  0.82898478  0.50058255  -0.00357678  1
  I  I103  1  0.83027485  0.49734921  0.33325116  1
  I  I104  1  0.83375184  0.49617025  0.67019837  1
  I  I105  1  0.83728872  0.83420638  0.00278694  1
  I  I106  1  0.83735320  0.83781837  0.33238147  1
  I  I107  1  0.83653365  0.83204461  0.66461499  1
  I  I108  1  0.00074967  0.16559244  0.16124454  1
  I  I109  1  0.00010398  0.17221453  0.50270572  1
  I  I110  1  -0.00067961  0.17180763  0.83734447  1
  I  I111  1  0.00402212  0.49966613  0.17097732  1
  I  I112  1  0.00312108  0.50167529  0.49751916  1
  I  I113  1  -0.00211576  0.49766373  0.83355799  1
  I  I114  1  0.00072751  0.83415952  0.16950205  1
  I  I115  1  0.00106280  0.82768576  0.49752435  1
  I  I116  1  0.00014226  0.83063490  0.83244897  1
  I  I117  1  0.32936760  0.16661735  0.16187155  1
  I  I118  1  0.33297128  0.16174238  0.50110037  1
  I  I119  1  0.33067487  0.16645182  0.83794244  1
  I  I120  1  0.32875408  0.50021064  0.16528831  1
  I  I121  1  0.33218009  0.50531959  0.50235436  1
  I  I122  1  0.33545976  0.50211076  0.83225461  1
  I  I123  1  0.32958909  0.83410153  0.17000936  1
  I  I124  1  0.33024912  0.83195399  0.49650480  1
  I  I125  1  0.33625953  0.82736122  0.83304130  1
  I  I126  1  0.67087188  0.16195986  0.16112916  1
  I  I127  1  0.66707637  0.16470603  0.50128443  1
  I  I128  1  0.66995486  0.16736743  0.83794240  1
  I  I129  1  0.66707331  0.49934449  0.16836224  1
  I  I130  1  0.66460049  0.50127452  0.50384010  1
  I  I131  1  0.66632636  0.49854262  0.82844296  1
  I  I132  1  0.67017359  0.83838615  0.16955773  1
  I  I133  1  0.66910402  0.83318427  0.49719538  1
  I  I134  1  0.66414294  0.83293825  0.83253715  1
