# generated using pymatgen
data_Cs27Sn14Pb13I81
_symmetry_space_group_name_H-M   'P 1'
_cell_length_a   18.97676364
_cell_length_b   18.96929283
_cell_length_c   18.98083063
_cell_angle_alpha   90.00087115
_cell_angle_beta   90.00115780
_cell_angle_gamma   89.99896910
_symmetry_Int_Tables_number   1
_chemical_formula_structural   Cs27Sn14Pb13I81
_chemical_formula_sum   'Cs27 Sn14 Pb13 I81'
_cell_volume   6832.63942779
_cell_formula_units_Z   1
loop_
 _symmetry_equiv_pos_site_id
 _symmetry_equiv_pos_as_xyz
  1  'x, y, z'
loop_
 _atom_site_type_symbol
 _atom_site_label
 _atom_site_symmetry_multiplicity
 _atom_site_fract_x
 _atom_site_fract_y
 _atom_site_fract_z
 _atom_site_occupancy
  Cs  Cs0  1  -0.00000255  0.00347889  0.00022264  1
  Cs  Cs1  1  -0.00649140  0.00590098  0.33320246  1
  Cs  Cs2  1  -0.00485886  0.00040164  0.66523482  1
  Cs  Cs3  1  0.00158450  0.32699913  0.00233968  1
  Cs  Cs4  1  0.00563089  0.33054741  0.33357478  1
  Cs  Cs5  1  0.00562198  0.33201781  0.66574770  1
  Cs  Cs6  1  -0.00036507  0.66707961  -0.00192893  1
  Cs  Cs7  1  0.00106042  0.66441633  0.33415413  1
  Cs  Cs8  1  -0.00221734  0.66764562  0.66849477  1
  Cs  Cs9  1  0.33283880  -0.00349406  -0.00158933  1
  Cs  Cs10  1  0.33763874  -0.00556144  0.33396923  1
  Cs  Cs11  1  0.33387122  0.00314645  0.66811484  1
  Cs  Cs12  1  0.33155250  0.32965691  -0.00342815  1
  Cs  Cs13  1  0.32664763  0.33640523  0.33624298  1
  Cs  Cs14  1  0.33303171  0.32260897  0.66835651  1
  Cs  Cs15  1  0.33347355  0.66854481  0.00061559  1
  Cs  Cs16  1  0.33395062  0.66685185  0.33320128  1
  Cs  Cs17  1  0.33247798  0.66735495  0.66579863  1
  Cs  Cs18  1  0.66742657  -0.00116723  0.00329586  1
  Cs  Cs19  1  0.66779751  0.00231972  0.33351989  1
  Cs  Cs20  1  0.67080585  0.00150157  0.66187809  1
  Cs  Cs21  1  0.66672577  0.33645893  -0.00203801  1
  Cs  Cs22  1  0.66761112  0.33518811  0.33267770  1
  Cs  Cs23  1  0.66258111  0.33526459  0.67043076  1
  Cs  Cs24  1  0.66698546  0.66469937  0.00020879  1
  Cs  Cs25  1  0.66492554  0.66604840  0.33258973  1
  Cs  Cs26  1  0.67064248  0.66435458  0.66705003  1
  Sn  Sn27  1  0.16710392  0.50076894  0.83345139  1
  Sn  Sn28  1  0.83286824  0.50020971  0.49918947  1
  Sn  Sn29  1  0.16615435  0.83300510  0.16705290  1
  Sn  Sn30  1  0.50004553  0.83290049  0.83286815  1
  Sn  Sn31  1  0.83326945  0.83233400  0.16675233  1
  Sn  Sn32  1  0.50024537  0.49991628  0.16726164  1
  Sn  Sn33  1  0.83318472  0.50077145  0.16756472  1
  Sn  Sn34  1  0.50022594  0.83289374  0.16662515  1
  Sn  Sn35  1  0.16703076  0.83300315  0.50003974  1
  Sn  Sn36  1  0.50045439  0.50086526  0.49953151  1
  Sn  Sn37  1  0.16731894  0.83228492  0.83304227  1
  Sn  Sn38  1  0.83267552  0.16678040  0.83344208  1
  Sn  Sn39  1  0.49959750  0.83228777  0.50028491  1
  Sn  Sn40  1  0.49967151  0.16734050  0.16691275  1
  Pb  Pb41  1  0.83559138  0.49820648  0.83380525  1
  Pb  Pb42  1  0.50202842  0.16342844  0.83557068  1
  Pb  Pb43  1  0.49794921  0.50193633  0.83312611  1
  Pb  Pb44  1  0.83284326  0.17071426  0.50211753  1
  Pb  Pb45  1  0.16744254  0.50200562  0.50217024  1
  Pb  Pb46  1  0.83336316  0.83455528  0.83563650  1
  Pb  Pb47  1  0.16985192  0.16336484  0.16689697  1
  Pb  Pb48  1  0.83124722  0.16759396  0.16566270  1
  Pb  Pb49  1  0.83295584  0.83151871  0.49732890  1
  Pb  Pb50  1  0.16690331  0.50188012  0.16487775  1
  Pb  Pb51  1  0.16490463  0.16538482  0.83337387  1
  Pb  Pb52  1  0.50007915  0.16699862  0.49743562  1
  Pb  Pb53  1  0.16688666  0.16269847  0.49969353  1
  I  I54  1  0.16574183  -0.00544935  0.16286161  1
  I  I55  1  0.17361143  -0.00588266  0.50277263  1
  I  I56  1  0.17052327  -0.00420495  0.83438863  1
  I  I57  1  0.16612029  0.33346959  0.16306466  1
  I  I58  1  0.16673577  0.33374787  0.50326664  1
  I  I59  1  0.16484167  0.33555104  0.83354687  1
  I  I60  1  0.17146187  0.67050713  0.16788304  1
  I  I61  1  0.16895488  0.67032815  0.49742799  1
  I  I62  1  0.16879950  0.66906125  0.83425490  1
  I  I63  1  0.49947563  -0.00254857  0.16579750  1
  I  I64  1  0.49506871  -0.00369886  0.49937454  1
  I  I65  1  0.49297988  -0.00485934  0.83412875  1
  I  I66  1  0.50702691  0.33495938  0.17029404  1
  I  I67  1  0.50496786  0.33708366  0.49589926  1
  I  I68  1  0.49828346  0.33337460  0.83372941  1
  I  I69  1  0.50056759  0.66782118  0.16727107  1
  I  I70  1  0.49963897  0.66766493  0.49443379  1
  I  I71  1  0.49911824  0.67030070  0.83883531  1
  I  I72  1  0.83286241  -0.00276108  0.16420574  1
  I  I73  1  0.83438078  -0.00016198  0.49956103  1
  I  I74  1  0.83442395  0.00203382  0.83664711  1
  I  I75  1  0.82794049  0.33687959  0.16779582  1
  I  I76  1  0.82712163  0.33855915  0.49285976  1
  I  I77  1  0.83465994  0.33091841  0.83587533  1
  I  I78  1  0.82816488  0.66683479  0.16826602  1
  I  I79  1  0.83176219  0.66370694  0.49975340  1
  I  I80  1  0.83284522  0.66661164  0.83270417  1
  I  I81  1  0.16612932  0.16512098  0.00010761  1
  I  I82  1  0.16420875  0.16852866  0.33304965  1
  I  I83  1  0.16645928  0.16623526  0.66684816  1
  I  I84  1  0.16654550  0.50748323  -0.00270456  1
  I  I85  1  0.16595157  0.50104532  0.33338972  1
  I  I86  1  0.16494353  0.50757803  0.66962459  1
  I  I87  1  0.17036677  0.82984594  0.00015651  1
  I  I88  1  0.17167715  0.83336312  0.33287885  1
  I  I89  1  0.17421760  0.82906339  0.66698174  1
  I  I90  1  0.50097240  0.16654233  0.00344053  1
  I  I91  1  0.50240110  0.15921413  0.32963148  1
  I  I92  1  0.50056383  0.16667097  0.66675259  1
  I  I93  1  0.50387067  0.50200961  0.00319166  1
  I  I94  1  0.50391027  0.50553481  0.33243571  1
  I  I95  1  0.50425850  0.50613294  0.66377124  1
  I  I96  1  0.49729577  0.83360269  0.00142695  1
  I  I97  1  0.49692704  0.83300594  0.33243791  1
  I  I98  1  0.49247238  0.82863895  0.66602179  1
  I  I99  1  0.83310547  0.16716954  -0.00193051  1
  I  I100  1  0.83237594  0.16364673  0.33323620  1
  I  I101  1  0.83387532  0.16415883  0.66968762  1
  I  I102  1  0.82884184  0.50323719  0.00324119  1
  I  I103  1  0.82893800  0.50508492  0.33219183  1
  I  I104  1  0.82929376  0.49884757  0.66420818  1
  I  I105  1  0.83165208  0.82803068  0.00381801  1
  I  I106  1  0.83299854  0.83314556  0.32918192  1
  I  I107  1  0.83334348  0.83359691  0.66646592  1
  I  I108  1  -0.00008324  0.16555782  0.16460404  1
  I  I109  1  -0.00025427  0.16629785  0.50002458  1
  I  I110  1  -0.00259970  0.16507641  0.83608403  1
  I  I111  1  -0.00272611  0.50556401  0.16881794  1
  I  I112  1  -0.00216801  0.50157616  0.49710710  1
  I  I113  1  0.00311133  0.50772213  0.83299218  1
  I  I114  1  -0.00001418  0.82791053  0.16523837  1
  I  I115  1  0.00244601  0.83139994  0.50126091  1
  I  I116  1  0.00298718  0.83129958  0.83359944  1
  I  I117  1  0.33780429  0.16742511  0.16532463  1
  I  I118  1  0.33363445  0.17208053  0.50101575  1
  I  I119  1  0.33351977  0.16820864  0.83419171  1
  I  I120  1  0.33679170  0.50173366  0.17031419  1
  I  I121  1  0.33663231  0.50349914  0.49433211  1
  I  I122  1  0.33032444  0.50350509  0.83464300  1
  I  I123  1  0.33441228  0.83383687  0.16619474  1
  I  I124  1  0.33460958  0.82794092  0.49527703  1
  I  I125  1  0.33330859  0.83013676  0.83843653  1
  I  I126  1  0.66363793  0.15976871  0.16528830  1
  I  I127  1  0.66650466  0.15943401  0.50083904  1
  I  I128  1  0.66918519  0.16677917  0.83466997  1
  I  I129  1  0.66585865  0.50525622  0.16889191  1
  I  I130  1  0.66552959  0.50640725  0.49675434  1
  I  I131  1  0.66650727  0.50018277  0.83328242  1
  I  I132  1  0.66527768  0.83340925  0.16572924  1
  I  I133  1  0.66337963  0.83208159  0.50032025  1
  I  I134  1  0.66386835  0.83521186  0.83467359  1
