# generated using pymatgen
data_Cs27Sn13Pb14I81
_symmetry_space_group_name_H-M   'P 1'
_cell_length_a   18.97613782
_cell_length_b   18.97517227
_cell_length_c   18.98054209
_cell_angle_alpha   89.99637438
_cell_angle_beta   89.99945815
_cell_angle_gamma   90.00083340
_symmetry_Int_Tables_number   1
_chemical_formula_structural   Cs27Sn13Pb14I81
_chemical_formula_sum   'Cs27 Sn13 Pb14 I81'
_cell_volume   6834.42786971
_cell_formula_units_Z   1
loop_
 _symmetry_equiv_pos_site_id
 _symmetry_equiv_pos_as_xyz
  1  'x, y, z'
loop_
 _atom_site_type_symbol
 _atom_site_label
 _atom_site_symmetry_multiplicity
 _atom_site_fract_x
 _atom_site_fract_y
 _atom_site_fract_z
 _atom_site_occupancy
  Cs  Cs0  1  -0.00080057  0.00012578  0.00028082  1
  Cs  Cs1  1  0.00171236  0.00060252  0.33167042  1
  Cs  Cs2  1  -0.00001210  -0.00030574  0.66741714  1
  Cs  Cs3  1  -0.00301136  0.33212349  0.00153606  1
  Cs  Cs4  1  -0.00241554  0.33906768  0.33232529  1
  Cs  Cs5  1  0.00076793  0.33266292  0.66688418  1
  Cs  Cs6  1  0.00095561  0.66874778  -0.00069181  1
  Cs  Cs7  1  -0.00100780  0.65962408  0.33424311  1
  Cs  Cs8  1  -0.00243015  0.66762862  0.66551887  1
  Cs  Cs9  1  0.33141231  -0.00033436  0.00067761  1
  Cs  Cs10  1  0.33420306  0.00057472  0.33189450  1
  Cs  Cs11  1  0.33090518  0.00191696  0.66721149  1
  Cs  Cs12  1  0.33301543  0.33229150  -0.00244231  1
  Cs  Cs13  1  0.33229689  0.33485337  0.33645244  1
  Cs  Cs14  1  0.33559859  0.33230111  0.66772196  1
  Cs  Cs15  1  0.33611315  0.66707392  -0.00038317  1
  Cs  Cs16  1  0.33805077  0.66211282  0.32985633  1
  Cs  Cs17  1  0.33259045  0.66318247  0.67080915  1
  Cs  Cs18  1  0.66993691  0.00122489  0.00011469  1
  Cs  Cs19  1  0.66116785  -0.00266717  0.33570861  1
  Cs  Cs20  1  0.66968394  -0.00225747  0.66369683  1
  Cs  Cs21  1  0.66979921  0.33383779  0.00161922  1
  Cs  Cs22  1  0.67158995  0.33825355  0.33533021  1
  Cs  Cs23  1  0.66021390  0.33423723  0.66591726  1
  Cs  Cs24  1  0.65927456  0.66546044  0.00110946  1
  Cs  Cs25  1  0.66231449  0.66470879  0.33835715  1
  Cs  Cs26  1  0.67034540  0.66607875  0.66035831  1
  Sn  Sn27  1  0.16564862  0.83381590  0.16710770  1
  Sn  Sn28  1  0.83437522  0.16619494  0.50002235  1
  Sn  Sn29  1  0.16680174  0.83376302  0.49959503  1
  Sn  Sn30  1  0.49930869  0.16667631  0.16583185  1
  Sn  Sn31  1  0.16720166  0.16616145  0.16666162  1
  Sn  Sn32  1  0.49950048  0.83481562  0.83302733  1
  Sn  Sn33  1  0.83389682  0.83328169  0.16670641  1
  Sn  Sn34  1  0.49940085  0.16505192  0.83451920  1
  Sn  Sn35  1  0.83401119  0.50002933  0.83367322  1
  Sn  Sn36  1  0.16529762  0.49986166  0.83369361  1
  Sn  Sn37  1  0.16533588  0.16579031  0.49981584  1
  Sn  Sn38  1  0.16707308  0.83341086  0.83327119  1
  Sn  Sn39  1  0.16680911  0.16665454  0.83353148  1
  Pb  Pb40  1  0.49925418  0.16660333  0.50000607  1
  Pb  Pb41  1  0.83336591  0.16507228  0.16887289  1
  Pb  Pb42  1  0.49962876  0.50017154  0.50005707  1
  Pb  Pb43  1  0.83323949  0.83158373  0.83478598  1
  Pb  Pb44  1  0.83350258  0.50339676  0.16434571  1
  Pb  Pb45  1  0.49989338  0.49980365  0.83338590  1
  Pb  Pb46  1  0.49932775  0.83523306  0.16476078  1
  Pb  Pb47  1  0.83377245  0.49747238  0.50251113  1
  Pb  Pb48  1  0.83597126  0.83514983  0.49724679  1
  Pb  Pb49  1  0.83304808  0.16802640  0.83173496  1
  Pb  Pb50  1  0.16678782  0.49989814  0.16405007  1
  Pb  Pb51  1  0.49662008  0.83353833  0.50299946  1
  Pb  Pb52  1  0.16682706  0.49996648  0.50254038  1
  Pb  Pb53  1  0.49975364  0.49623413  0.16640170  1
  I  I54  1  0.16650413  0.00035306  0.16240485  1
  I  I55  1  0.16325075  0.00096184  0.50492552  1
  I  I56  1  0.17106055  0.00019969  0.83310372  1
  I  I57  1  0.17075460  0.32955497  0.16672427  1
  I  I58  1  0.16416691  0.32957608  0.49998292  1
  I  I59  1  0.16731888  0.33180647  0.83285994  1
  I  I60  1  0.16233432  0.67026114  0.16630440  1
  I  I61  1  0.16711506  0.67005787  0.50090090  1
  I  I62  1  0.16727650  0.66799387  0.83313896  1
  I  I63  1  0.49746124  0.00327175  0.16429961  1
  I  I64  1  0.50310851  0.00020515  0.49922708  1
  I  I65  1  0.49124437  0.00088774  0.83650470  1
  I  I66  1  0.49360781  0.32783617  0.15891464  1
  I  I67  1  0.49782996  0.33253474  0.50327068  1
  I  I68  1  0.49617256  0.32986949  0.83568964  1
  I  I69  1  0.49964911  0.66706946  0.16435090  1
  I  I70  1  0.49929877  0.66730215  0.50230218  1
  I  I71  1  0.49511026  0.66954348  0.83384129  1
  I  I72  1  0.83702678  -0.00255355  0.16388903  1
  I  I73  1  0.83589992  0.00301695  0.50292832  1
  I  I74  1  0.83499181  -0.00003832  0.83310412  1
  I  I75  1  0.83280845  0.33320843  0.16743603  1
  I  I76  1  0.84043995  0.32948491  0.49848734  1
  I  I77  1  0.83858293  0.33577954  0.83254804  1
  I  I78  1  0.84206984  0.67117007  0.16565281  1
  I  I79  1  0.83409286  0.66679695  0.50026610  1
  I  I80  1  0.83896330  0.66391720  0.83445791  1
  I  I81  1  0.17106521  0.16450767  -0.00059191  1
  I  I82  1  0.16765688  0.15901481  0.33295285  1
  I  I83  1  0.16665910  0.16461381  0.66765912  1
  I  I84  1  0.16394426  0.49958991  -0.00429921  1
  I  I85  1  0.16677800  0.49967131  0.33326689  1
  I  I86  1  0.16413058  0.49981229  0.67098427  1
  I  I87  1  0.16632164  0.83580724  -0.00058841  1
  I  I88  1  0.16123493  0.84305184  0.33278470  1
  I  I89  1  0.17094953  0.83640967  0.66775300  1
  I  I90  1  0.49179419  0.16343530  -0.00117776  1
  I  I91  1  0.49576863  0.16605834  0.33046809  1
  I  I92  1  0.49625887  0.16500462  0.67001489  1
  I  I93  1  0.49984040  0.50215274  -0.00055776  1
  I  I94  1  0.50033933  0.49928841  0.33302686  1
  I  I95  1  0.49930396  0.49667435  0.66758931  1
  I  I96  1  0.49390880  0.83451346  -0.00329821  1
  I  I97  1  0.49998370  0.83488374  0.33315628  1
  I  I98  1  0.49558525  0.83995712  0.67136937  1
  I  I99  1  0.83506815  0.16757519  0.00008445  1
  I  I100  1  0.83827236  0.16547058  0.33640197  1
  I  I101  1  0.83877833  0.16668267  0.66406436  1
  I  I102  1  0.83841134  0.49679492  -0.00348489  1
  I  I103  1  0.83261902  0.49916145  0.33342449  1
  I  I104  1  0.83829769  0.50178315  0.67029552  1
  I  I105  1  0.84054660  0.83491067  0.00240094  1
  I  I106  1  0.83883552  0.83590313  0.32957840  1
  I  I107  1  0.83320355  0.83252575  0.66653702  1
  I  I108  1  0.00350737  0.16408395  0.16300726  1
  I  I109  1  0.00260472  0.16301333  0.50165932  1
  I  I110  1  0.00353309  0.16407265  0.83536969  1
  I  I111  1  0.00021145  0.49521139  0.16633776  1
  I  I112  1  0.00034606  0.50069979  0.50027137  1
  I  I113  1  0.00196857  0.49967732  0.83320839  1
  I  I114  1  0.00276187  0.83984656  0.16295587  1
  I  I115  1  0.00420472  0.83635857  0.50686580  1
  I  I116  1  0.00374769  0.83609043  0.83223643  1
  I  I117  1  0.33133623  0.16076000  0.16670223  1
  I  I118  1  0.32945362  0.16298051  0.50087706  1
  I  I119  1  0.33146382  0.16826880  0.83179290  1
  I  I120  1  0.33302656  0.50534248  0.16391707  1
  I  I121  1  0.33261626  0.49685648  0.50328860  1
  I  I122  1  0.33016392  0.50004897  0.83280982  1
  I  I123  1  0.32961639  0.83587297  0.16746951  1
  I  I124  1  0.32832084  0.84184503  0.49592865  1
  I  I125  1  0.33103697  0.83211829  0.83504945  1
  I  I126  1  0.66409485  0.16462690  0.16182194  1
  I  I127  1  0.66887898  0.16820496  0.50111470  1
  I  I128  1  0.66350813  0.16453644  0.83615501  1
  I  I129  1  0.66675704  0.49970770  0.16229721  1
  I  I130  1  0.66709831  0.49709054  0.50401839  1
  I  I131  1  0.66905349  0.49909145  0.83343202  1
  I  I132  1  0.66838228  0.83588708  0.16249948  1
  I  I133  1  0.66674736  0.83474577  0.50020813  1
  I  I134  1  0.66393967  0.83685620  0.83702592  1
