# generated using pymatgen
data_Cs27Sn14Pb13I81
_symmetry_space_group_name_H-M   'P 1'
_cell_length_a   19.03772423
_cell_length_b   19.03095075
_cell_length_c   19.03145633
_cell_angle_alpha   89.99829271
_cell_angle_beta   90.00101901
_cell_angle_gamma   90.00130372
_symmetry_Int_Tables_number   1
_chemical_formula_structural   Cs27Sn14Pb13I81
_chemical_formula_sum   'Cs27 Sn14 Pb13 I81'
_cell_volume   6895.21066342
_cell_formula_units_Z   1
loop_
 _symmetry_equiv_pos_site_id
 _symmetry_equiv_pos_as_xyz
  1  'x, y, z'
loop_
 _atom_site_type_symbol
 _atom_site_label
 _atom_site_symmetry_multiplicity
 _atom_site_fract_x
 _atom_site_fract_y
 _atom_site_fract_z
 _atom_site_occupancy
  Cs  Cs0  1  0.01272177  -0.00088184  -0.00120742  1
  Cs  Cs1  1  -0.00237147  -0.00137696  0.33661975  1
  Cs  Cs2  1  0.00477701  0.00234045  0.66363326  1
  Cs  Cs3  1  0.00062124  0.33240642  -0.00282840  1
  Cs  Cs4  1  0.00173492  0.33771112  0.33447167  1
  Cs  Cs5  1  -0.01853316  0.33467909  0.66775643  1
  Cs  Cs6  1  0.00295570  0.66717919  0.00144029  1
  Cs  Cs7  1  0.00392209  0.66589937  0.32954528  1
  Cs  Cs8  1  -0.00069384  0.66527878  0.67031964  1
  Cs  Cs9  1  0.32466084  0.01294539  -0.00195427  1
  Cs  Cs10  1  0.33376926  0.00231255  0.33853682  1
  Cs  Cs11  1  0.33146492  0.00046964  0.66343728  1
  Cs  Cs12  1  0.33350880  0.32323382  -0.00078996  1
  Cs  Cs13  1  0.32732570  0.33500309  0.33538846  1
  Cs  Cs14  1  0.33460939  0.33715424  0.66484316  1
  Cs  Cs15  1  0.33350009  0.66612886  -0.00441767  1
  Cs  Cs16  1  0.33378773  0.66227372  0.33329532  1
  Cs  Cs17  1  0.33631088  0.66416109  0.66895575  1
  Cs  Cs18  1  0.66412503  -0.00167946  0.00422012  1
  Cs  Cs19  1  0.66721878  -0.00231760  0.33231924  1
  Cs  Cs20  1  0.66540338  -0.00218190  0.66515543  1
  Cs  Cs21  1  0.66551499  0.33222786  -0.00046888  1
  Cs  Cs22  1  0.66902772  0.33466014  0.33175921  1
  Cs  Cs23  1  0.68164542  0.33423504  0.66778515  1
  Cs  Cs24  1  0.66588263  0.66703681  0.00139178  1
  Cs  Cs25  1  0.66479965  0.67110252  0.32836200  1
  Cs  Cs26  1  0.66292908  0.66729756  0.66994941  1
  Sn  Sn27  1  0.83237071  0.83380803  0.83394675  1
  Sn  Sn28  1  0.49986463  0.83374773  0.49976775  1
  Sn  Sn29  1  0.50030455  0.83360423  0.83433541  1
  Sn  Sn30  1  0.83330081  0.16597779  0.16650153  1
  Sn  Sn31  1  0.49944089  0.50024529  0.83464135  1
  Sn  Sn32  1  0.16729576  0.16651735  0.50036272  1
  Sn  Sn33  1  0.50009599  0.16660027  0.50020425  1
  Sn  Sn34  1  0.83217829  0.50064344  0.16632808  1
  Sn  Sn35  1  0.83306189  0.83292237  0.50014818  1
  Sn  Sn36  1  0.83292169  0.83354387  0.16594974  1
  Sn  Sn37  1  0.16714822  0.83295657  0.49984183  1
  Sn  Sn38  1  0.49962735  0.83326714  0.16593817  1
  Sn  Sn39  1  0.50042200  0.50066977  0.16542039  1
  Sn  Sn40  1  0.16809387  0.49995999  0.83302054  1
  Pb  Pb41  1  0.16787593  0.50018107  0.16418016  1
  Pb  Pb42  1  0.50049239  0.16651115  0.83049524  1
  Pb  Pb43  1  0.83275292  0.50376249  0.49681635  1
  Pb  Pb44  1  0.83288523  0.16411675  0.49798488  1
  Pb  Pb45  1  0.16652012  0.17006886  0.82958214  1
  Pb  Pb46  1  0.16654110  0.49987880  0.50277809  1
  Pb  Pb47  1  0.16806514  0.83327761  0.16901836  1
  Pb  Pb48  1  0.16387489  0.16669206  0.16975610  1
  Pb  Pb49  1  0.50144810  0.16664826  0.16911326  1
  Pb  Pb50  1  0.83207578  0.50274507  0.83617189  1
  Pb  Pb51  1  0.16750140  0.83211509  0.83081140  1
  Pb  Pb52  1  0.50040947  0.49995959  0.49984917  1
  Pb  Pb53  1  0.83282624  0.16240766  0.83654267  1
  I  I54  1  0.16634347  -0.00016663  0.16052128  1
  I  I55  1  0.16700144  -0.00136897  0.50055599  1
  I  I56  1  0.16540472  0.00028274  0.83626140  1
  I  I57  1  0.16579168  0.33356596  0.17086553  1
  I  I58  1  0.17558773  0.33034231  0.49866692  1
  I  I59  1  0.17630545  0.33743182  0.83442357  1
  I  I60  1  0.15868691  0.66677346  0.17211016  1
  I  I61  1  0.16680748  0.66970042  0.49994224  1
  I  I62  1  0.16781063  0.66467731  0.83001781  1
  I  I63  1  0.50643670  -0.00352255  0.16501862  1
  I  I64  1  0.49984724  -0.00270983  0.49938897  1
  I  I65  1  0.50676569  -0.00355961  0.83657323  1
  I  I66  1  0.50593402  0.33626484  0.16251749  1
  I  I67  1  0.49030027  0.33068253  0.49791236  1
  I  I68  1  0.49302279  0.33644975  0.83914977  1
  I  I69  1  0.50992863  0.66793059  0.17011484  1
  I  I70  1  0.50023387  0.67027753  0.49982015  1
  I  I71  1  0.50022506  0.66798376  0.83026485  1
  I  I72  1  0.82733629  -0.00229410  0.16920913  1
  I  I73  1  0.83289302  -0.00392174  0.49645349  1
  I  I74  1  0.82492145  -0.00529685  0.83353736  1
  I  I75  1  0.82797405  0.33398272  0.16807692  1
  I  I76  1  0.83531542  0.33338852  0.49926057  1
  I  I77  1  0.83468676  0.33330385  0.83292367  1
  I  I78  1  0.82858320  0.66798112  0.16798646  1
  I  I79  1  0.83232581  0.67196236  0.49850645  1
  I  I80  1  0.83281661  0.67026992  0.83317971  1
  I  I81  1  0.16517713  0.16737760  -0.00038236  1
  I  I82  1  0.17258302  0.16178082  0.33720149  1
  I  I83  1  0.17093840  0.15768438  0.66247464  1
  I  I84  1  0.16658652  0.50375596  -0.00321653  1
  I  I85  1  0.16546733  0.49881683  0.33350015  1
  I  I86  1  0.17727041  0.50243351  0.66995743  1
  I  I87  1  0.16380532  0.83114645  -0.00015053  1
  I  I88  1  0.16519302  0.83723565  0.33699106  1
  I  I89  1  0.16533747  0.83756400  0.66317076  1
  I  I90  1  0.50141605  0.16389133  -0.00005165  1
  I  I91  1  0.49663676  0.15997207  0.33650381  1
  I  I92  1  0.49510013  0.15959764  0.66287504  1
  I  I93  1  0.50060422  0.51133784  0.00022491  1
  I  I94  1  0.50652693  0.50443811  0.33048436  1
  I  I95  1  0.49282699  0.50529897  0.66930431  1
  I  I96  1  0.51217820  0.82522315  0.00023716  1
  I  I97  1  0.50392784  0.83327398  0.33320458  1
  I  I98  1  0.50381478  0.83268264  0.66656522  1
  I  I99  1  0.83072630  0.16646906  0.00415920  1
  I  I100  1  0.83297956  0.16391749  0.33060539  1
  I  I101  1  0.83483013  0.16816828  0.66661632  1
  I  I102  1  0.83309199  0.50325803  0.00354294  1
  I  I103  1  0.82580124  0.50151310  0.32899537  1
  I  I104  1  0.83443740  0.49894692  0.66694164  1
  I  I105  1  0.82371992  0.83225382  0.00097641  1
  I  I106  1  0.83024569  0.83375501  0.33277990  1
  I  I107  1  0.82961620  0.83316996  0.66644230  1
  I  I108  1  -0.00413339  0.16533372  0.16887170  1
  I  I109  1  0.00201483  0.16054014  0.49807527  1
  I  I110  1  -0.00023875  0.16849826  0.83084947  1
  I  I111  1  -0.00285018  0.50166118  0.16731426  1
  I  I112  1  -0.00019966  0.49905422  0.50109838  1
  I  I113  1  0.00118109  0.50135990  0.83224290  1
  I  I114  1  -0.00326850  0.83219053  0.16683828  1
  I  I115  1  -0.00043214  0.83819101  0.49936863  1
  I  I116  1  -0.00251708  0.83113043  0.83420528  1
  I  I117  1  0.33332890  0.16707739  0.16473010  1
  I  I118  1  0.33374641  0.15455933  0.49923071  1
  I  I119  1  0.33344714  0.16046592  0.83850687  1
  I  I120  1  0.33719441  0.50827470  0.16723474  1
  I  I121  1  0.33357582  0.50524496  0.49352449  1
  I  I122  1  0.33537536  0.50940445  0.83843005  1
  I  I123  1  0.33727494  0.82495990  0.16721272  1
  I  I124  1  0.33445209  0.83857707  0.50026580  1
  I  I125  1  0.33685965  0.82959004  0.83268227  1
  I  I126  1  0.66912223  0.16527127  0.17162648  1
  I  I127  1  0.66418830  0.16151804  0.49877146  1
  I  I128  1  0.66670467  0.17543419  0.82693642  1
  I  I129  1  0.66619128  0.50190355  0.16024741  1
  I  I130  1  0.66656886  0.49457338  0.50838028  1
  I  I131  1  0.66344261  0.50270995  0.83427605  1
  I  I132  1  0.66694183  0.83279910  0.17217310  1
  I  I133  1  0.66608799  0.83799252  0.49915229  1
  I  I134  1  0.66580207  0.82618370  0.82751704  1
