# generated using pymatgen
data_Cs27Sn13Pb14I81
_symmetry_space_group_name_H-M   'P 1'
_cell_length_a   18.97624287
_cell_length_b   18.97671961
_cell_length_c   18.97686852
_cell_angle_alpha   90.00077028
_cell_angle_beta   90.00066183
_cell_angle_gamma   89.99911109
_symmetry_Int_Tables_number   1
_chemical_formula_structural   Cs27Sn13Pb14I81
_chemical_formula_sum   'Cs27 Sn13 Pb14 I81'
_cell_volume   6833.70015867
_cell_formula_units_Z   1
loop_
 _symmetry_equiv_pos_site_id
 _symmetry_equiv_pos_as_xyz
  1  'x, y, z'
loop_
 _atom_site_type_symbol
 _atom_site_label
 _atom_site_symmetry_multiplicity
 _atom_site_fract_x
 _atom_site_fract_y
 _atom_site_fract_z
 _atom_site_occupancy
  Cs  Cs0  1  -0.00121357  -0.00223647  0.00127554  1
  Cs  Cs1  1  -0.00511259  0.00031783  0.33039857  1
  Cs  Cs2  1  -0.00032097  -0.00021237  0.66742358  1
  Cs  Cs3  1  0.00080337  0.33577159  0.00028170  1
  Cs  Cs4  1  -0.00006304  0.33285808  0.33512172  1
  Cs  Cs5  1  0.00270955  0.33207239  0.66443768  1
  Cs  Cs6  1  0.00056466  0.66713684  -0.00184148  1
  Cs  Cs7  1  0.00123823  0.66644024  0.33376854  1
  Cs  Cs8  1  -0.00067700  0.66637501  0.66744881  1
  Cs  Cs9  1  0.33342319  0.00288360  -0.00263370  1
  Cs  Cs10  1  0.33666783  -0.00243443  0.33072495  1
  Cs  Cs11  1  0.33493935  0.00017503  0.67079471  1
  Cs  Cs12  1  0.33462750  0.33075903  0.00104915  1
  Cs  Cs13  1  0.33332769  0.33410315  0.33342674  1
  Cs  Cs14  1  0.32912109  0.32794122  0.66508684  1
  Cs  Cs15  1  0.33597949  0.66640175  0.00401824  1
  Cs  Cs16  1  0.33548476  0.66734507  0.33218657  1
  Cs  Cs17  1  0.33063871  0.67111930  0.66366027  1
  Cs  Cs18  1  0.67011753  -0.00084507  -0.00044014  1
  Cs  Cs19  1  0.66955064  0.00242782  0.33248518  1
  Cs  Cs20  1  0.66590792  -0.00246963  0.66654991  1
  Cs  Cs21  1  0.66451575  0.33878733  -0.00269491  1
  Cs  Cs22  1  0.66635430  0.33138810  0.33347631  1
  Cs  Cs23  1  0.66756180  0.33533719  0.66798283  1
  Cs  Cs24  1  0.65900656  0.66071931  0.00004289  1
  Cs  Cs25  1  0.66379378  0.66639079  0.33482691  1
  Cs  Cs26  1  0.66839133  0.66710325  0.66687910  1
  Sn  Sn27  1  0.83280236  0.50052416  0.49913211  1
  Sn  Sn28  1  0.49949134  0.16682448  0.16734520  1
  Sn  Sn29  1  0.50053746  0.49903369  0.50035073  1
  Sn  Sn30  1  0.16686900  0.16725521  0.16694780  1
  Sn  Sn31  1  0.83360662  0.16617602  0.83314338  1
  Sn  Sn32  1  0.83403170  0.83379898  0.83270105  1
  Sn  Sn33  1  0.83445676  0.83252925  0.50045444  1
  Sn  Sn34  1  0.16583133  0.83228106  0.83267970  1
  Sn  Sn35  1  0.16563696  0.83365628  0.50035719  1
  Sn  Sn36  1  0.83403477  0.50020730  0.16755949  1
  Sn  Sn37  1  0.16586641  0.49927613  0.16596185  1
  Sn  Sn38  1  0.16676608  0.50061716  0.83395838  1
  Sn  Sn39  1  0.50008057  0.16745349  0.49952066  1
  Pb  Pb40  1  0.83318215  0.83017304  0.16633500  1
  Pb  Pb41  1  0.16475059  0.16627769  0.83538980  1
  Pb  Pb42  1  0.83495059  0.50072817  0.83288232  1
  Pb  Pb43  1  0.49605653  0.49993727  0.82993098  1
  Pb  Pb44  1  0.83317745  0.16926538  0.16453516  1
  Pb  Pb45  1  0.49956993  0.49814772  0.16869360  1
  Pb  Pb46  1  0.50259561  0.16676021  0.83341931  1
  Pb  Pb47  1  0.16657829  0.83310843  0.16628959  1
  Pb  Pb48  1  0.83160738  0.16667248  0.50175663  1
  Pb  Pb49  1  0.50055410  0.83354665  0.50002247  1
  Pb  Pb50  1  0.16650033  0.50143579  0.49965380  1
  Pb  Pb51  1  0.16869730  0.16335130  0.49748991  1
  Pb  Pb52  1  0.50005891  0.83304897  0.83341667  1
  Pb  Pb53  1  0.50027300  0.83661914  0.16657708  1
  I  I54  1  0.17192467  0.00263589  0.16701011  1
  I  I55  1  0.16195107  -0.00432051  0.50552826  1
  I  I56  1  0.16467565  -0.00297470  0.83052378  1
  I  I57  1  0.16675531  0.33442029  0.16131867  1
  I  I58  1  0.16506510  0.33326632  0.50260991  1
  I  I59  1  0.16442080  0.33565668  0.83551715  1
  I  I60  1  0.16198841  0.66354549  0.16577241  1
  I  I61  1  0.16731928  0.66932021  0.49986298  1
  I  I62  1  0.16017093  0.66720003  0.83449048  1
  I  I63  1  0.49365739  0.00494350  0.17375323  1
  I  I64  1  0.49952920  0.00275166  0.49541259  1
  I  I65  1  0.49587103  0.00011108  0.83159049  1
  I  I66  1  0.49853203  0.33042619  0.16933728  1
  I  I67  1  0.50532416  0.33373762  0.49603802  1
  I  I68  1  0.50223198  0.33342380  0.83433039  1
  I  I69  1  0.49947557  0.66604605  0.16787551  1
  I  I70  1  0.50112272  0.66407943  0.50009384  1
  I  I71  1  0.50515861  0.66630450  0.83229276  1
  I  I72  1  0.83315352  0.00015373  0.16847056  1
  I  I73  1  0.83552238  -0.00283945  0.50257265  1
  I  I74  1  0.83814145  -0.00151924  0.82876416  1
  I  I75  1  0.83526579  0.33698640  0.17094542  1
  I  I76  1  0.83104052  0.33618052  0.49822320  1
  I  I77  1  0.83403152  0.33205290  0.83408787  1
  I  I78  1  0.84061940  0.66228014  0.16666580  1
  I  I79  1  0.83138463  0.66650347  0.50209934  1
  I  I80  1  0.83712208  0.66944386  0.83119356  1
  I  I81  1  0.17269863  0.16690379  0.00328433  1
  I  I82  1  0.16680636  0.17276572  0.32973501  1
  I  I83  1  0.16775197  0.16947402  0.66663921  1
  I  I84  1  0.16003468  0.50177444  0.00071351  1
  I  I85  1  0.16574049  0.49778650  0.33078079  1
  I  I86  1  0.16626855  0.50289283  0.66871831  1
  I  I87  1  0.16138352  0.83243999  -0.00319661  1
  I  I88  1  0.16302147  0.83293043  0.33603293  1
  I  I89  1  0.16310509  0.82698694  0.66720618  1
  I  I90  1  0.49595160  0.16634559  0.00297182  1
  I  I91  1  0.49682756  0.17066962  0.33348429  1
  I  I92  1  0.50168106  0.16982323  0.66371031  1
  I  I93  1  0.50344569  0.49872128  0.00014580  1
  I  I94  1  0.49954162  0.49871534  0.33654201  1
  I  I95  1  0.50693385  0.49448321  0.66210556  1
  I  I96  1  0.49997960  0.83422563  -0.00009746  1
  I  I97  1  0.49825623  0.83104598  0.33376743  1
  I  I98  1  0.49869944  0.83605999  0.66642051  1
  I  I99  1  0.83267718  0.16117259  -0.00306816  1
  I  I100  1  0.83417811  0.16440811  0.33326397  1
  I  I101  1  0.83239493  0.16726694  0.66947044  1
  I  I102  1  0.83624562  0.49862060  0.00198022  1
  I  I103  1  0.83561181  0.50409591  0.33420767  1
  I  I104  1  0.83067027  0.50120285  0.66382507  1
  I  I105  1  0.83895322  0.83752749  -0.00340960  1
  I  I106  1  0.83755074  0.83149082  0.33663461  1
  I  I107  1  0.83728070  0.83139814  0.66612776  1
  I  I108  1  0.00237091  0.16892558  0.16420359  1
  I  I109  1  -0.00002407  0.16910709  0.49950514  1
  I  I110  1  -0.00286827  0.16541917  0.83430273  1
  I  I111  1  0.00073636  0.49423771  0.16887622  1
  I  I112  1  -0.00259825  0.50298139  0.49910925  1
  I  I113  1  0.00280045  0.50119124  0.83324726  1
  I  I114  1  -0.00003696  0.83854512  0.16795837  1
  I  I115  1  -0.00092437  0.82721091  0.50414565  1
  I  I116  1  0.00009243  0.83342430  0.82850833  1
  I  I117  1  0.33283980  0.17251259  0.16962634  1
  I  I118  1  0.33657732  0.17263672  0.49937233  1
  I  I119  1  0.33310788  0.16634633  0.83235242  1
  I  I120  1  0.33035041  0.49851098  0.16408604  1
  I  I121  1  0.33535561  0.49801860  0.50016542  1
  I  I122  1  0.32821686  0.50536743  0.83953128  1
  I  I123  1  0.33296263  0.82835936  0.16824032  1
  I  I124  1  0.33063033  0.83288122  0.50389787  1
  I  I125  1  0.32943950  0.82996745  0.82852388  1
  I  I126  1  0.66423149  0.16726798  0.17017664  1
  I  I127  1  0.66369213  0.16617430  0.49346448  1
  I  I128  1  0.67041134  0.16069985  0.83489692  1
  I  I129  1  0.66903229  0.49938612  0.16821528  1
  I  I130  1  0.66806007  0.50220479  0.49448945  1
  I  I131  1  0.66677708  0.50027937  0.83650071  1
  I  I132  1  0.66708828  0.83326432  0.16713377  1
  I  I133  1  0.67010572  0.83171291  0.50467245  1
  I  I134  1  0.67052644  0.83796190  0.82818066  1
