# generated using pymatgen
data_Cs27Sn13Pb14I81
_symmetry_space_group_name_H-M   'P 1'
_cell_length_a   18.97907038
_cell_length_b   18.96941715
_cell_length_c   18.98083387
_cell_angle_alpha   90.00191548
_cell_angle_beta   90.00029042
_cell_angle_gamma   89.99676300
_symmetry_Int_Tables_number   1
_chemical_formula_structural   Cs27Sn13Pb14I81
_chemical_formula_sum   'Cs27 Sn13 Pb14 I81'
_cell_volume   6833.51592078
_cell_formula_units_Z   1
loop_
 _symmetry_equiv_pos_site_id
 _symmetry_equiv_pos_as_xyz
  1  'x, y, z'
loop_
 _atom_site_type_symbol
 _atom_site_label
 _atom_site_symmetry_multiplicity
 _atom_site_fract_x
 _atom_site_fract_y
 _atom_site_fract_z
 _atom_site_occupancy
  Cs  Cs0  1  0.00189844  -0.00108827  0.00039275  1
  Cs  Cs1  1  -0.00124320  0.00029129  0.33748505  1
  Cs  Cs2  1  0.00047515  -0.00209411  0.66224362  1
  Cs  Cs3  1  -0.00042193  0.33457874  -0.00219501  1
  Cs  Cs4  1  0.00239333  0.33316537  0.33105639  1
  Cs  Cs5  1  0.00095644  0.33241945  0.67259746  1
  Cs  Cs6  1  0.00045229  0.66546050  -0.00016490  1
  Cs  Cs7  1  -0.00116757  0.66750094  0.33234099  1
  Cs  Cs8  1  -0.00035316  0.66745699  0.66832174  1
  Cs  Cs9  1  0.33784386  -0.00343799  0.00039055  1
  Cs  Cs10  1  0.33270319  -0.00014542  0.32997407  1
  Cs  Cs11  1  0.33258031  0.00057911  0.66869267  1
  Cs  Cs12  1  0.33014460  0.33568734  -0.00000270  1
  Cs  Cs13  1  0.33309702  0.33456963  0.33755470  1
  Cs  Cs14  1  0.33339861  0.33321500  0.66089923  1
  Cs  Cs15  1  0.33411796  0.66863263  0.00075143  1
  Cs  Cs16  1  0.33308640  0.66621305  0.33285219  1
  Cs  Cs17  1  0.33400802  0.66645149  0.66613895  1
  Cs  Cs18  1  0.65869347  0.00663742  -0.00083117  1
  Cs  Cs19  1  0.67210423  0.00851697  0.33229238  1
  Cs  Cs20  1  0.66881685  0.00357070  0.66886715  1
  Cs  Cs21  1  0.66917284  0.32755519  -0.00068787  1
  Cs  Cs22  1  0.66238972  0.33263575  0.33222601  1
  Cs  Cs23  1  0.66257516  0.32706072  0.66981325  1
  Cs  Cs24  1  0.66615012  0.66677401  -0.00017489  1
  Cs  Cs25  1  0.67012834  0.66441604  0.33608166  1
  Cs  Cs26  1  0.66585787  0.66805113  0.66372343  1
  Sn  Sn27  1  0.16523848  0.50117328  0.49931303  1
  Sn  Sn28  1  0.16667081  0.16549472  0.83433277  1
  Sn  Sn29  1  0.16789662  0.83221971  0.50058552  1
  Sn  Sn30  1  0.16656568  0.49950942  0.16732543  1
  Sn  Sn31  1  0.83312134  0.83294102  0.16540986  1
  Sn  Sn32  1  0.50002714  0.50031337  0.83405881  1
  Sn  Sn33  1  0.83360784  0.83300168  0.83473134  1
  Sn  Sn34  1  0.83329352  0.50069977  0.16726074  1
  Sn  Sn35  1  0.16645457  0.16730326  0.16575161  1
  Sn  Sn36  1  0.16606724  0.83395104  0.83286163  1
  Sn  Sn37  1  0.49949545  0.83350949  0.49949740  1
  Sn  Sn38  1  0.50015588  0.50055132  0.16548209  1
  Sn  Sn39  1  0.83433586  0.49988685  0.49980182  1
  Pb  Pb40  1  0.49976951  0.16278636  0.49990677  1
  Pb  Pb41  1  0.83359576  0.83204208  0.49990918  1
  Pb  Pb42  1  0.83106398  0.50167357  0.83340197  1
  Pb  Pb43  1  0.49997481  0.83186599  0.83184422  1
  Pb  Pb44  1  0.16525833  0.83301156  0.16682605  1
  Pb  Pb45  1  0.83584083  0.16717759  0.16658934  1
  Pb  Pb46  1  0.16805065  0.50060620  0.83317340  1
  Pb  Pb47  1  0.83366705  0.17101757  0.49996356  1
  Pb  Pb48  1  0.50002310  0.50100927  0.49968197  1
  Pb  Pb49  1  0.49688475  0.16958763  0.16673723  1
  Pb  Pb50  1  0.16657894  0.16663502  0.49994702  1
  Pb  Pb51  1  0.49673284  0.16946181  0.83343043  1
  Pb  Pb52  1  0.50329434  0.83132331  0.16924959  1
  Pb  Pb53  1  0.83597895  0.16326281  0.83352587  1
  I  I54  1  0.16376653  0.00183157  0.16631951  1
  I  I55  1  0.17033290  -0.00327793  0.50084416  1
  I  I56  1  0.16272648  -0.00126213  0.83291100  1
  I  I57  1  0.16514820  0.33529684  0.16644376  1
  I  I58  1  0.16337060  0.33673767  0.49908321  1
  I  I59  1  0.16953962  0.33176948  0.83420735  1
  I  I60  1  0.16756962  0.66353108  0.16764015  1
  I  I61  1  0.16671559  0.66628052  0.50000339  1
  I  I62  1  0.16434953  0.66944682  0.83194689  1
  I  I63  1  0.49990352  -0.00016064  0.16829094  1
  I  I64  1  0.49261281  -0.00523333  0.50161872  1
  I  I65  1  0.50182424  -0.00005793  0.83096135  1
  I  I66  1  0.50561480  0.33826873  0.16448259  1
  I  I67  1  0.49974150  0.33364723  0.50044978  1
  I  I68  1  0.49988477  0.33747721  0.83598805  1
  I  I69  1  0.49353229  0.66291641  0.16371952  1
  I  I70  1  0.49749166  0.66864765  0.50058839  1
  I  I71  1  0.49660093  0.66402064  0.83665512  1
  I  I72  1  0.83613796  -0.00294745  0.16398964  1
  I  I73  1  0.83329619  -0.00027179  0.49922299  1
  I  I74  1  0.83368452  -0.00505559  0.83777800  1
  I  I75  1  0.83172332  0.33726643  0.17149268  1
  I  I76  1  0.83943903  0.33926254  0.49317727  1
  I  I77  1  0.83357183  0.33339357  0.83261804  1
  I  I78  1  0.83671827  0.66525191  0.16703427  1
  I  I79  1  0.83519592  0.66394077  0.49765293  1
  I  I80  1  0.84109467  0.66955026  0.83442501  1
  I  I81  1  0.16572950  0.16822095  0.00026450  1
  I  I82  1  0.16638630  0.16887855  0.33059903  1
  I  I83  1  0.16671443  0.16601589  0.66934251  1
  I  I84  1  0.16465986  0.49923644  0.00277210  1
  I  I85  1  0.16816617  0.49991997  0.33275518  1
  I  I86  1  0.16455543  0.50102628  0.66396316  1
  I  I87  1  0.16372458  0.83332528  -0.00233671  1
  I  I88  1  0.16841826  0.83171253  0.33584032  1
  I  I89  1  0.16434145  0.83278175  0.66671929  1
  I  I90  1  0.50052501  0.16398813  0.00011102  1
  I  I91  1  0.49749414  0.16958443  0.33312052  1
  I  I92  1  0.49729641  0.17189431  0.66685892  1
  I  I93  1  0.49820021  0.50197295  0.00124586  1
  I  I94  1  0.49957976  0.50181613  0.33057577  1
  I  I95  1  0.49864397  0.50255690  0.66825292  1
  I  I96  1  0.49770028  0.83244325  0.00028773  1
  I  I97  1  0.49239810  0.82893535  0.33669673  1
  I  I98  1  0.49963332  0.82744572  0.66408696  1
  I  I99  1  0.83408536  0.17167267  0.00004180  1
  I  I100  1  0.83681649  0.15979961  0.33307876  1
  I  I101  1  0.83588737  0.16635332  0.66685904  1
  I  I102  1  0.83672347  0.50263266  0.00322606  1
  I  I103  1  0.83321256  0.50689404  0.33205908  1
  I  I104  1  0.83756323  0.50336688  0.66411446  1
  I  I105  1  0.84068181  0.82570059  0.00011500  1
  I  I106  1  0.83413355  0.82942453  0.33099552  1
  I  I107  1  0.83526899  0.83091568  0.66867306  1
  I  I108  1  0.00376884  0.17323579  0.16324269  1
  I  I109  1  0.00050155  0.16093064  0.49956332  1
  I  I110  1  0.00405711  0.16873895  0.83696841  1
  I  I111  1  0.00038653  0.50008407  0.17170952  1
  I  I112  1  0.00126896  0.50643407  0.49231437  1
  I  I113  1  0.00010605  0.49864603  0.83466030  1
  I  I114  1  -0.00253052  0.82713534  0.16717536  1
  I  I115  1  0.00284828  0.83106370  0.50147912  1
  I  I116  1  0.00111881  0.83509832  0.83074213  1
  I  I117  1  0.32877391  0.17046825  0.16342341  1
  I  I118  1  0.33278213  0.17315269  0.50008104  1
  I  I119  1  0.32891863  0.15933834  0.83755340  1
  I  I120  1  0.33231543  0.49543838  0.16722284  1
  I  I121  1  0.33042885  0.50185109  0.49723957  1
  I  I122  1  0.33561093  0.50194257  0.83702965  1
  I  I123  1  0.33331801  0.83242655  0.16502147  1
  I  I124  1  0.33112495  0.82618497  0.50549506  1
  I  I125  1  0.33017964  0.83542562  0.83064560  1
  I  I126  1  0.66670691  0.16664407  0.16731119  1
  I  I127  1  0.66671060  0.16622987  0.50009351  1
  I  I128  1  0.66649717  0.16630786  0.83241296  1
  I  I129  1  0.66747874  0.50677747  0.16802611  1
  I  I130  1  0.66896940  0.50411957  0.49631776  1
  I  I131  1  0.66353339  0.50397076  0.83589882  1
  I  I132  1  0.67113956  0.82618616  0.16265224  1
  I  I133  1  0.66513705  0.82845681  0.50009593  1
  I  I134  1  0.66921915  0.82823741  0.83452314  1
