# generated using pymatgen
data_Cs27Sn13Pb14I81
_symmetry_space_group_name_H-M   'P 1'
_cell_length_a   18.97643331
_cell_length_b   18.97619110
_cell_length_c   18.97706739
_cell_angle_alpha   89.99859828
_cell_angle_beta   89.99871145
_cell_angle_gamma   90.00034445
_symmetry_Int_Tables_number   1
_chemical_formula_structural   Cs27Sn13Pb14I81
_chemical_formula_sum   'Cs27 Sn13 Pb14 I81'
_cell_volume   6833.65002832
_cell_formula_units_Z   1
loop_
 _symmetry_equiv_pos_site_id
 _symmetry_equiv_pos_as_xyz
  1  'x, y, z'
loop_
 _atom_site_type_symbol
 _atom_site_label
 _atom_site_symmetry_multiplicity
 _atom_site_fract_x
 _atom_site_fract_y
 _atom_site_fract_z
 _atom_site_occupancy
  Cs  Cs0  1  0.00170606  -0.00024344  0.00435688  1
  Cs  Cs1  1  0.00936828  0.00225227  0.33465991  1
  Cs  Cs2  1  0.00445205  -0.00253157  0.66147187  1
  Cs  Cs3  1  -0.00991954  0.33447969  -0.00114160  1
  Cs  Cs4  1  -0.00042127  0.33196781  0.33270320  1
  Cs  Cs5  1  0.00005700  0.33539728  0.66749137  1
  Cs  Cs6  1  0.00073074  0.66529575  -0.00446281  1
  Cs  Cs7  1  -0.00156614  0.66626421  0.33413011  1
  Cs  Cs8  1  0.00175113  0.66670967  0.67027781  1
  Cs  Cs9  1  0.33462853  -0.00147485  0.00079880  1
  Cs  Cs10  1  0.32577490  0.00192740  0.33300530  1
  Cs  Cs11  1  0.32869831  0.00276659  0.66645567  1
  Cs  Cs12  1  0.33550061  0.33447218  -0.00146193  1
  Cs  Cs13  1  0.33310723  0.33482881  0.33439092  1
  Cs  Cs14  1  0.33340285  0.33257857  0.66715119  1
  Cs  Cs15  1  0.33268246  0.66662615  -0.00008793  1
  Cs  Cs16  1  0.33697199  0.66307951  0.33241022  1
  Cs  Cs17  1  0.33415476  0.66618741  0.66772322  1
  Cs  Cs18  1  0.66532684  -0.00077917  -0.00164400  1
  Cs  Cs19  1  0.66674935  -0.00256837  0.33365598  1
  Cs  Cs20  1  0.66769001  0.00001209  0.66859160  1
  Cs  Cs21  1  0.67138999  0.33101821  -0.00117779  1
  Cs  Cs22  1  0.66734386  0.33414595  0.33381078  1
  Cs  Cs23  1  0.66660913  0.33002198  0.66623573  1
  Cs  Cs24  1  0.66682053  0.66848541  0.00129698  1
  Cs  Cs25  1  0.66535331  0.66778747  0.33419341  1
  Cs  Cs26  1  0.66456825  0.67015256  0.66251227  1
  Sn  Sn27  1  0.16581452  0.49993240  0.49937721  1
  Sn  Sn28  1  0.16631152  0.16705563  0.83417394  1
  Sn  Sn29  1  0.50058154  0.83345996  0.16611381  1
  Sn  Sn30  1  0.83259864  0.16710724  0.49969071  1
  Sn  Sn31  1  0.50042441  0.50056646  0.83416665  1
  Sn  Sn32  1  0.50067433  0.16646676  0.49906091  1
  Sn  Sn33  1  0.49974183  0.49968711  0.16561847  1
  Sn  Sn34  1  0.83268302  0.83344953  0.83413527  1
  Sn  Sn35  1  0.50070130  0.83243805  0.83396580  1
  Sn  Sn36  1  0.83293529  0.83339836  0.16610760  1
  Sn  Sn37  1  0.50025237  0.16674574  0.16761961  1
  Sn  Sn38  1  0.16678825  0.49974413  0.16692959  1
  Sn  Sn39  1  0.83398316  0.49943319  0.49991900  1
  Pb  Pb40  1  0.16700562  0.82968245  0.49984638  1
  Pb  Pb41  1  0.16886272  0.16975979  0.16428543  1
  Pb  Pb42  1  0.16718656  0.83532393  0.83365678  1
  Pb  Pb43  1  0.83332828  0.83361132  0.49969652  1
  Pb  Pb44  1  0.50018961  0.49824827  0.49991143  1
  Pb  Pb45  1  0.49925853  0.16621293  0.83364392  1
  Pb  Pb46  1  0.83117658  0.16397081  0.16885875  1
  Pb  Pb47  1  0.16711869  0.83062508  0.16663183  1
  Pb  Pb48  1  0.16662312  0.16902760  0.50121219  1
  Pb  Pb49  1  0.49966054  0.83644083  0.49979542  1
  Pb  Pb50  1  0.83584151  0.16385616  0.83106009  1
  Pb  Pb51  1  0.16857874  0.49838597  0.83380738  1
  Pb  Pb52  1  0.83275061  0.50187976  0.16832550  1
  Pb  Pb53  1  0.83030041  0.50215796  0.83078616  1
  I  I54  1  0.16737961  0.00024748  0.16604828  1
  I  I55  1  0.16597390  0.00053138  0.50177275  1
  I  I56  1  0.16990392  0.00287053  0.83092612  1
  I  I57  1  0.17296276  0.33742378  0.17102153  1
  I  I58  1  0.16644354  0.33660706  0.49685703  1
  I  I59  1  0.17134843  0.33104958  0.83174804  1
  I  I60  1  0.17334520  0.66284029  0.17019596  1
  I  I61  1  0.16128103  0.66153587  0.49771790  1
  I  I62  1  0.16585710  0.66649005  0.83217800  1
  I  I63  1  0.50534189  -0.00058483  0.16579088  1
  I  I64  1  0.50656206  0.00442531  0.49783856  1
  I  I65  1  0.50229328  -0.00285927  0.83610577  1
  I  I66  1  0.49432688  0.33400584  0.16714293  1
  I  I67  1  0.50076870  0.33047359  0.49712465  1
  I  I68  1  0.49634491  0.33543335  0.83543249  1
  I  I69  1  0.49940274  0.66646505  0.16234154  1
  I  I70  1  0.50007365  0.66651612  0.49865195  1
  I  I71  1  0.50185577  0.66695883  0.83984098  1
  I  I72  1  0.82703718  -0.00386964  0.16420800  1
  I  I73  1  0.82745531  0.00266958  0.50114457  1
  I  I74  1  0.82513506  -0.00376794  0.83501501  1
  I  I75  1  0.83270269  0.33331469  0.16689697  1
  I  I76  1  0.83258097  0.33347870  0.49947899  1
  I  I77  1  0.83275741  0.33335623  0.83333351  1
  I  I78  1  0.82737437  0.66968809  0.16612066  1
  I  I79  1  0.83754664  0.66408900  0.49986873  1
  I  I80  1  0.83275356  0.67001160  0.83509460  1
  I  I81  1  0.17039705  0.16722925  -0.00282734  1
  I  I82  1  0.16588343  0.16562330  0.33310140  1
  I  I83  1  0.17048595  0.16821836  0.66864905  1
  I  I84  1  0.17151107  0.49965023  0.00271796  1
  I  I85  1  0.17029839  0.49946006  0.33315310  1
  I  I86  1  0.16462161  0.49788587  0.66435428  1
  I  I87  1  0.16615925  0.83161251  0.00012842  1
  I  I88  1  0.16582225  0.83747216  0.33301063  1
  I  I89  1  0.16634490  0.83251133  0.66696127  1
  I  I90  1  0.49666527  0.16673416  0.00281876  1
  I  I91  1  0.50316734  0.16773503  0.33269833  1
  I  I92  1  0.50152718  0.16809999  0.66455733  1
  I  I93  1  0.49358322  0.49929985  0.00131809  1
  I  I94  1  0.49892950  0.50242382  0.33049784  1
  I  I95  1  0.49978681  0.50310206  0.66888521  1
  I  I96  1  0.50391644  0.83444143  0.00062266  1
  I  I97  1  0.50505011  0.82925234  0.32967483  1
  I  I98  1  0.50433925  0.82903556  0.66990505  1
  I  I99  1  0.83311791  0.16795278  0.00009081  1
  I  I100  1  0.83198396  0.16888292  0.33681567  1
  I  I101  1  0.82609982  0.16893150  0.66318603  1
  I  I102  1  0.83624561  0.49936586  -0.00006010  1
  I  I103  1  0.83220228  0.49916148  0.33630202  1
  I  I104  1  0.83806349  0.49819598  0.66297915  1
  I  I105  1  0.82790835  0.83279242  0.00016934  1
  I  I106  1  0.82678117  0.83165587  0.33047936  1
  I  I107  1  0.82815444  0.83317106  0.66927866  1
  I  I108  1  -0.00003879  0.16569930  0.16729837  1
  I  I109  1  -0.00243622  0.16791008  0.50310542  1
  I  I110  1  0.00306128  0.16726220  0.83112384  1
  I  I111  1  0.00212289  0.50216479  0.17008307  1
  I  I112  1  -0.00002489  0.49439288  0.49452208  1
  I  I113  1  -0.00027078  0.50064072  0.83459899  1
  I  I114  1  -0.00284987  0.83130084  0.16298666  1
  I  I115  1  -0.00023313  0.83845043  0.50004426  1
  I  I116  1  -0.00287639  0.83494429  0.83642111  1
  I  I117  1  0.33746620  0.16173635  0.17268949  1
  I  I118  1  0.33581799  0.16753944  0.49793277  1
  I  I119  1  0.33182265  0.16580510  0.83026600  1
  I  I120  1  0.33501321  0.50199335  0.16971530  1
  I  I121  1  0.33160841  0.49818544  0.49884986  1
  I  I122  1  0.33672972  0.50524905  0.83224254  1
  I  I123  1  0.33714925  0.83489656  0.16213649  1
  I  I124  1  0.33370936  0.83440385  0.50102894  1
  I  I125  1  0.33698230  0.83063767  0.83786105  1
  I  I126  1  0.66261196  0.17218699  0.16694085  1
  I  I127  1  0.66638349  0.17336046  0.49750341  1
  I  I128  1  0.66674938  0.16807165  0.83332348  1
  I  I129  1  0.66320034  0.49897112  0.16504102  1
  I  I130  1  0.66876320  0.49783473  0.50025443  1
  I  I131  1  0.66240356  0.49952675  0.83867832  1
  I  I132  1  0.66503948  0.83113795  0.16299126  1
  I  I133  1  0.66651006  0.82855210  0.50002859  1
  I  I134  1  0.66542781  0.83032148  0.83722465  1
