# generated using pymatgen
data_Cs27Sn13Pb14I81
_symmetry_space_group_name_H-M   'P 1'
_cell_length_a   18.97879219
_cell_length_b   18.97725075
_cell_length_c   18.97681788
_cell_angle_alpha   90.00000162
_cell_angle_beta   89.99957873
_cell_angle_gamma   89.99921198
_symmetry_Int_Tables_number   1
_chemical_formula_structural   Cs27Sn13Pb14I81
_chemical_formula_sum   'Cs27 Sn13 Pb14 I81'
_cell_volume   6834.79127235
_cell_formula_units_Z   1
loop_
 _symmetry_equiv_pos_site_id
 _symmetry_equiv_pos_as_xyz
  1  'x, y, z'
loop_
 _atom_site_type_symbol
 _atom_site_label
 _atom_site_symmetry_multiplicity
 _atom_site_fract_x
 _atom_site_fract_y
 _atom_site_fract_z
 _atom_site_occupancy
  Cs  Cs0  1  -0.00068835  0.00029564  -0.00042156  1
  Cs  Cs1  1  0.00004272  0.00045658  0.33344438  1
  Cs  Cs2  1  0.00155269  0.00048775  0.66712695  1
  Cs  Cs3  1  -0.00210615  0.33463763  0.00082627  1
  Cs  Cs4  1  -0.00150220  0.33744394  0.33154927  1
  Cs  Cs5  1  0.00102430  0.33701627  0.66631878  1
  Cs  Cs6  1  -0.00158520  0.66180255  0.00336869  1
  Cs  Cs7  1  0.00008073  0.65895901  0.32891266  1
  Cs  Cs8  1  -0.00007625  0.66293645  0.66626249  1
  Cs  Cs9  1  0.33326100  -0.00004697  0.00024806  1
  Cs  Cs10  1  0.33632501  -0.00143117  0.32977294  1
  Cs  Cs11  1  0.32847557  0.00031021  0.66985486  1
  Cs  Cs12  1  0.33571936  0.33218943  -0.00123818  1
  Cs  Cs13  1  0.33655720  0.33316513  0.33773595  1
  Cs  Cs14  1  0.33197470  0.33504126  0.66657941  1
  Cs  Cs15  1  0.33341729  0.66748539  0.00220245  1
  Cs  Cs16  1  0.33337162  0.66743198  0.33135914  1
  Cs  Cs17  1  0.33282639  0.66488323  0.66636500  1
  Cs  Cs18  1  0.66816380  0.00039237  -0.00054907  1
  Cs  Cs19  1  0.66307288  -0.00077618  0.33907081  1
  Cs  Cs20  1  0.66937712  -0.00119046  0.66554579  1
  Cs  Cs21  1  0.66653433  0.33402552  0.00008677  1
  Cs  Cs22  1  0.66475286  0.33238536  0.34121818  1
  Cs  Cs23  1  0.66713258  0.33347410  0.66150960  1
  Cs  Cs24  1  0.66784446  0.66496982  -0.00093789  1
  Cs  Cs25  1  0.66675598  0.66764447  0.34361093  1
  Cs  Cs26  1  0.66720539  0.66829823  0.66171506  1
  Sn  Sn27  1  0.83359015  0.16551294  0.16607775  1
  Sn  Sn28  1  0.16619210  0.16613794  0.83366657  1
  Sn  Sn29  1  0.16621107  0.16646158  0.16643067  1
  Sn  Sn30  1  0.50002631  0.83327305  0.83374832  1
  Sn  Sn31  1  0.50007098  0.50011691  0.83417608  1
  Sn  Sn32  1  0.50036582  0.16662373  0.83361684  1
  Sn  Sn33  1  0.83356156  0.16600822  0.83403202  1
  Sn  Sn34  1  0.16643426  0.16556777  0.49989100  1
  Sn  Sn35  1  0.83376556  0.83401010  0.83429426  1
  Sn  Sn36  1  0.16618928  0.83406041  0.50030244  1
  Sn  Sn37  1  0.83306259  0.83429636  0.16606737  1
  Sn  Sn38  1  0.16618881  0.83376201  0.83302696  1
  Sn  Sn39  1  0.50047553  0.50002678  0.16603774  1
  Pb  Pb40  1  0.83051315  0.49946882  0.16651991  1
  Pb  Pb41  1  0.83592675  0.16648564  0.50013099  1
  Pb  Pb42  1  0.50297209  0.83158832  0.16456519  1
  Pb  Pb43  1  0.83077388  0.49994674  0.83319277  1
  Pb  Pb44  1  0.49689235  0.83372257  0.50286568  1
  Pb  Pb45  1  0.83359452  0.49997113  0.50007465  1
  Pb  Pb46  1  0.49969265  0.50013495  0.50035269  1
  Pb  Pb47  1  0.50073745  0.16787715  0.16493692  1
  Pb  Pb48  1  0.16877642  0.50023747  0.83368427  1
  Pb  Pb49  1  0.83640433  0.83356510  0.50020609  1
  Pb  Pb50  1  0.16922174  0.49665319  0.16634713  1
  Pb  Pb51  1  0.49706925  0.16613698  0.50330031  1
  Pb  Pb52  1  0.16471237  0.83513582  0.16613821  1
  Pb  Pb53  1  0.16672244  0.50027405  0.50000902  1
  I  I54  1  0.16683171  0.00354962  0.16526352  1
  I  I55  1  0.16641049  0.00076997  0.50378146  1
  I  I56  1  0.17072697  0.00082614  0.83265877  1
  I  I57  1  0.15981114  0.32817158  0.16512142  1
  I  I58  1  0.16709089  0.32964881  0.50204362  1
  I  I59  1  0.16676695  0.32948158  0.83222221  1
  I  I60  1  0.16535032  0.66682395  0.16721913  1
  I  I61  1  0.16688532  0.67025817  0.50733877  1
  I  I62  1  0.16661863  0.67039848  0.82788658  1
  I  I63  1  0.49766963  0.00001403  0.16529019  1
  I  I64  1  0.50236855  -0.00001129  0.49886893  1
  I  I65  1  0.49882461  0.00013292  0.83265577  1
  I  I66  1  0.49990788  0.33563423  0.15843607  1
  I  I67  1  0.49764431  0.33307021  0.50251523  1
  I  I68  1  0.49867485  0.33236768  0.83749880  1
  I  I69  1  0.50002623  0.66382680  0.15890054  1
  I  I70  1  0.49778280  0.66691392  0.50220252  1
  I  I71  1  0.49917088  0.66746998  0.83730315  1
  I  I72  1  0.83737296  0.00096134  0.16045610  1
  I  I73  1  0.83109050  0.00002656  0.50003408  1
  I  I74  1  0.82987681  0.00031940  0.83683352  1
  I  I75  1  0.83765383  0.32956368  0.16124331  1
  I  I76  1  0.83550250  0.33268554  0.50044669  1
  I  I77  1  0.83465259  0.32954400  0.83741392  1
  I  I78  1  0.83320515  0.66961694  0.16106578  1
  I  I79  1  0.83540931  0.66730322  0.50038253  1
  I  I80  1  0.83435362  0.67037610  0.83706494  1
  I  I81  1  0.16693882  0.16330958  -0.00142454  1
  I  I82  1  0.16188005  0.16329873  0.33302675  1
  I  I83  1  0.16790714  0.16285151  0.66832976  1
  I  I84  1  0.16636162  0.50049430  -0.00009920  1
  I  I85  1  0.16954359  0.50095914  0.33314790  1
  I  I86  1  0.16946868  0.49568263  0.66701021  1
  I  I87  1  0.16948870  0.83778149  -0.00358696  1
  I  I88  1  0.16512263  0.83828429  0.33550488  1
  I  I89  1  0.16635809  0.84125451  0.66881656  1
  I  I90  1  0.49481872  0.16484153  -0.00389673  1
  I  I91  1  0.49976365  0.17098284  0.33336550  1
  I  I92  1  0.50152627  0.16925058  0.67215686  1
  I  I93  1  0.49959401  0.49914404  -0.00182181  1
  I  I94  1  0.50007635  0.49812679  0.33055879  1
  I  I95  1  0.49933748  0.49967282  0.67043339  1
  I  I96  1  0.49404159  0.83594547  -0.00430178  1
  I  I97  1  0.50005664  0.82995046  0.33321503  1
  I  I98  1  0.50566201  0.83111735  0.67185465  1
  I  I99  1  0.83797040  0.16328718  -0.00124952  1
  I  I100  1  0.83784922  0.16376861  0.32989013  1
  I  I101  1  0.83241681  0.16254197  0.67052251  1
  I  I102  1  0.83436052  0.50012712  -0.00017185  1
  I  I103  1  0.83056457  0.50027632  0.33275279  1
  I  I104  1  0.83082764  0.49965013  0.66726143  1
  I  I105  1  0.83503036  0.83762867  -0.00178502  1
  I  I106  1  0.83452317  0.83725641  0.33028589  1
  I  I107  1  0.83045800  0.83750222  0.67055742  1
  I  I108  1  0.00001271  0.16331603  0.16158019  1
  I  I109  1  0.00395071  0.16210402  0.50540255  1
  I  I110  1  0.00045996  0.15974302  0.83365740  1
  I  I111  1  -0.00030494  0.50141714  0.16821832  1
  I  I112  1  0.00049883  0.49982822  0.50002362  1
  I  I113  1  -0.00011581  0.49970862  0.83227650  1
  I  I114  1  -0.00315792  0.83485477  0.16061262  1
  I  I115  1  0.00398619  0.83920668  0.50749761  1
  I  I116  1  0.00013127  0.84142093  0.83242884  1
  I  I117  1  0.33068707  0.16872472  0.16526797  1
  I  I118  1  0.32886868  0.16359166  0.49909790  1
  I  I119  1  0.33266103  0.16474745  0.83317996  1
  I  I120  1  0.33679387  0.49953608  0.16076699  1
  I  I121  1  0.33329583  0.49885687  0.50075938  1
  I  I122  1  0.33702772  0.49902561  0.83642392  1
  I  I123  1  0.33329975  0.83329277  0.16628809  1
  I  I124  1  0.32901143  0.83782200  0.50516168  1
  I  I125  1  0.33303059  0.83597490  0.82868508  1
  I  I126  1  0.66994846  0.16509522  0.15980342  1
  I  I127  1  0.66670688  0.16910768  0.49978219  1
  I  I128  1  0.66712860  0.16451563  0.83923875  1
  I  I129  1  0.66323712  0.49802190  0.15872024  1
  I  I130  1  0.66623444  0.49973920  0.50029648  1
  I  I131  1  0.66261909  0.49925331  0.83801365  1
  I  I132  1  0.67086988  0.84007494  0.15982775  1
  I  I133  1  0.66686248  0.83101083  0.50059178  1
  I  I134  1  0.66697668  0.83593635  0.83866691  1
