# generated using pymatgen
data_Cs27Sn14Pb13I81
_symmetry_space_group_name_H-M   'P 1'
_cell_length_a   18.97260371
_cell_length_b   18.97230937
_cell_length_c   18.98167015
_cell_angle_alpha   90.00050785
_cell_angle_beta   90.00180616
_cell_angle_gamma   90.00221366
_symmetry_Int_Tables_number   1
_chemical_formula_structural   Cs27Sn14Pb13I81
_chemical_formula_sum   'Cs27 Sn14 Pb13 I81'
_cell_volume   6832.53012375
_cell_formula_units_Z   1
loop_
 _symmetry_equiv_pos_site_id
 _symmetry_equiv_pos_as_xyz
  1  'x, y, z'
loop_
 _atom_site_type_symbol
 _atom_site_label
 _atom_site_symmetry_multiplicity
 _atom_site_fract_x
 _atom_site_fract_y
 _atom_site_fract_z
 _atom_site_occupancy
  Cs  Cs0  1  0.00078979  0.00021149  -0.00050235  1
  Cs  Cs1  1  -0.00049705  -0.00464222  0.33095567  1
  Cs  Cs2  1  -0.00004928  -0.00184874  0.66963566  1
  Cs  Cs3  1  -0.00341121  0.33065309  0.00071487  1
  Cs  Cs4  1  0.00027949  0.33877605  0.33234394  1
  Cs  Cs5  1  0.00227830  0.33307861  0.66785914  1
  Cs  Cs6  1  0.00065854  0.66964832  -0.00270568  1
  Cs  Cs7  1  0.00093072  0.66769617  0.33422206  1
  Cs  Cs8  1  -0.00163698  0.66755985  0.66652811  1
  Cs  Cs9  1  0.33257562  0.00064864  0.00204180  1
  Cs  Cs10  1  0.33724776  0.00151725  0.33185107  1
  Cs  Cs11  1  0.33545641  0.00420364  0.66332955  1
  Cs  Cs12  1  0.33666497  0.33264730  0.00013310  1
  Cs  Cs13  1  0.32778909  0.33255052  0.33592716  1
  Cs  Cs14  1  0.33070069  0.32996100  0.66377585  1
  Cs  Cs15  1  0.33980028  0.66413072  -0.00174941  1
  Cs  Cs16  1  0.33094386  0.66509417  0.32911461  1
  Cs  Cs17  1  0.33446952  0.66662567  0.67112477  1
  Cs  Cs18  1  0.66581913  0.00347527  0.00121936  1
  Cs  Cs19  1  0.66464780  -0.00017603  0.33575246  1
  Cs  Cs20  1  0.66591351  -0.00065347  0.66272900  1
  Cs  Cs21  1  0.66626241  0.33153281  0.00328395  1
  Cs  Cs22  1  0.67049486  0.33370585  0.33397440  1
  Cs  Cs23  1  0.66696276  0.33670084  0.66579847  1
  Cs  Cs24  1  0.65829331  0.66369509  -0.00222617  1
  Cs  Cs25  1  0.66626489  0.66642045  0.33364247  1
  Cs  Cs26  1  0.66817328  0.66431422  0.66728286  1
  Sn  Sn27  1  0.16611281  0.83387926  0.16635682  1
  Sn  Sn28  1  0.83281524  0.50014170  0.50078440  1
  Sn  Sn29  1  0.50010269  0.50039994  0.49988809  1
  Sn  Sn30  1  0.83402793  0.83323206  0.50009203  1
  Sn  Sn31  1  0.83345308  0.83292972  0.16618436  1
  Sn  Sn32  1  0.83417119  0.16662070  0.50016357  1
  Sn  Sn33  1  0.49933389  0.16658249  0.16630896  1
  Sn  Sn34  1  0.16688624  0.16622291  0.16662132  1
  Sn  Sn35  1  0.16628688  0.83276415  0.83332270  1
  Sn  Sn36  1  0.16643502  0.83344482  0.50024068  1
  Sn  Sn37  1  0.50019087  0.16645868  0.83341632  1
  Sn  Sn38  1  0.16570030  0.50046298  0.83362947  1
  Sn  Sn39  1  0.83349390  0.83266507  0.83369300  1
  Sn  Sn40  1  0.83427217  0.50063512  0.83296347  1
  Pb  Pb41  1  0.49993016  0.83090952  0.50004265  1
  Pb  Pb42  1  0.50011332  0.83556112  0.83317379  1
  Pb  Pb43  1  0.49979017  0.83502140  0.16667332  1
  Pb  Pb44  1  0.83165925  0.16652830  0.83147520  1
  Pb  Pb45  1  0.50184997  0.16875796  0.49950269  1
  Pb  Pb46  1  0.83347567  0.50325251  0.16608000  1
  Pb  Pb47  1  0.49999205  0.49696093  0.16966333  1
  Pb  Pb48  1  0.16820193  0.16623210  0.83513090  1
  Pb  Pb49  1  0.83372646  0.16439605  0.16888743  1
  Pb  Pb50  1  0.16393921  0.16399482  0.49746106  1
  Pb  Pb51  1  0.16593365  0.50247980  0.50217712  1
  Pb  Pb52  1  0.16635438  0.50071011  0.16348902  1
  Pb  Pb53  1  0.50025293  0.49773046  0.83168470  1
  I  I54  1  0.16657736  -0.00154829  0.16463721  1
  I  I55  1  0.16140811  -0.00416015  0.50584396  1
  I  I56  1  0.16234836  -0.00354679  0.83221354  1
  I  I57  1  0.17197637  0.33072952  0.16570494  1
  I  I58  1  0.16609404  0.33340915  0.49993247  1
  I  I59  1  0.16337542  0.33580063  0.83388743  1
  I  I60  1  0.16107862  0.67055175  0.17004687  1
  I  I61  1  0.16128907  0.67057235  0.49450001  1
  I  I62  1  0.16299768  0.66809279  0.83443520  1
  I  I63  1  0.49887977  0.00300675  0.16431221  1
  I  I64  1  0.50152532  0.00019530  0.49994581  1
  I  I65  1  0.50022006  0.00323648  0.83629813  1
  I  I66  1  0.49479564  0.32904640  0.16179945  1
  I  I67  1  0.50673801  0.33641833  0.50060166  1
  I  I68  1  0.50019319  0.33028869  0.83708116  1
  I  I69  1  0.49948959  0.66651841  0.16739018  1
  I  I70  1  0.50704326  0.66338383  0.50234401  1
  I  I71  1  0.49961308  0.66645603  0.83208291  1
  I  I72  1  0.83485789  -0.00381355  0.16621750  1
  I  I73  1  0.83673666  -0.00171956  0.50010618  1
  I  I74  1  0.83712591  -0.00342869  0.83215472  1
  I  I75  1  0.83291098  0.33324408  0.16757362  1
  I  I76  1  0.82736457  0.33448789  0.50397576  1
  I  I77  1  0.83632560  0.33624453  0.82748712  1
  I  I78  1  0.84104904  0.67135741  0.17197386  1
  I  I79  1  0.83305000  0.66733802  0.50072746  1
  I  I80  1  0.83698903  0.66741121  0.82827004  1
  I  I81  1  0.16725444  0.16061820  0.00296589  1
  I  I82  1  0.17365574  0.16162182  0.32970707  1
  I  I83  1  0.16922363  0.16579675  0.66656224  1
  I  I84  1  0.16100140  0.50533108  -0.00437038  1
  I  I85  1  0.16752837  0.50035753  0.33345044  1
  I  I86  1  0.16567252  0.50485211  0.66996101  1
  I  I87  1  0.15967968  0.83459726  -0.00018371  1
  I  I88  1  0.15986615  0.83803087  0.33313190  1
  I  I89  1  0.16011471  0.82852747  0.66716795  1
  I  I90  1  0.49743841  0.16628859  0.00059485  1
  I  I91  1  0.49695550  0.16684934  0.33075756  1
  I  I92  1  0.50148635  0.16746803  0.66835685  1
  I  I93  1  0.50040435  0.50039449  -0.00016716  1
  I  I94  1  0.50763409  0.49973266  0.33738844  1
  I  I95  1  0.50303940  0.49727066  0.66414004  1
  I  I96  1  0.50132391  0.83148180  -0.00011899  1
  I  I97  1  0.50086647  0.83587290  0.33342483  1
  I  I98  1  0.49888195  0.83795195  0.66664319  1
  I  I99  1  0.83336439  0.16674971  0.00014905  1
  I  I100  1  0.83086360  0.16691237  0.33676918  1
  I  I101  1  0.83026658  0.16198378  0.66362641  1
  I  I102  1  0.83769475  0.50353476  -0.00365610  1
  I  I103  1  0.82871807  0.50006601  0.33649111  1
  I  I104  1  0.83251221  0.50480729  0.66628526  1
  I  I105  1  0.84018746  0.83047372  -0.00080597  1
  I  I106  1  0.83881838  0.83401457  0.33416300  1
  I  I107  1  0.83881499  0.83295003  0.66642946  1
  I  I108  1  0.00256124  0.16320944  0.16769227  1
  I  I109  1  -0.00392989  0.17178626  0.50028048  1
  I  I110  1  -0.00006408  0.16726477  0.83406881  1
  I  I111  1  -0.00006965  0.49294248  0.17209419  1
  I  I112  1  -0.00342974  0.49888958  0.50171615  1
  I  I113  1  -0.00102946  0.50365226  0.82709218  1
  I  I114  1  0.00047149  0.83946977  0.16701566  1
  I  I115  1  -0.00131200  0.83162280  0.49939781  1
  I  I116  1  -0.00030639  0.83042687  0.83285855  1
  I  I117  1  0.33288656  0.15997268  0.16343009  1
  I  I118  1  0.33304853  0.16728924  0.50137160  1
  I  I119  1  0.33606245  0.16699252  0.83406116  1
  I  I120  1  0.33314921  0.50497923  0.16690872  1
  I  I121  1  0.33495796  0.50018700  0.50168135  1
  I  I122  1  0.33082467  0.50460694  0.83247492  1
  I  I123  1  0.32972038  0.83547370  0.16717546  1
  I  I124  1  0.33003075  0.83206103  0.49978060  1
  I  I125  1  0.32973103  0.82927540  0.83413435  1
  I  I126  1  0.66459729  0.16538930  0.16417835  1
  I  I127  1  0.66982242  0.16107917  0.49831072  1
  I  I128  1  0.66396137  0.16675618  0.83975610  1
  I  I129  1  0.66684141  0.50022325  0.16245281  1
  I  I130  1  0.66921114  0.50156978  0.50583388  1
  I  I131  1  0.66986873  0.50446255  0.83026578  1
  I  I132  1  0.66987918  0.83452507  0.16808955  1
  I  I133  1  0.67048462  0.83555367  0.50011796  1
  I  I134  1  0.67038684  0.82972956  0.83219059  1
