# generated using pymatgen
data_Cs27Sn13Pb14I81
_symmetry_space_group_name_H-M   'P 1'
_cell_length_a   18.96871211
_cell_length_b   19.00928188
_cell_length_c   19.00000895
_cell_angle_alpha   89.99993557
_cell_angle_beta   89.99998363
_cell_angle_gamma   89.99991694
_symmetry_Int_Tables_number   1
_chemical_formula_structural   Cs27Sn13Pb14I81
_chemical_formula_sum   'Cs27 Sn13 Pb14 I81'
_cell_volume   6851.05353799
_cell_formula_units_Z   1
loop_
 _symmetry_equiv_pos_site_id
 _symmetry_equiv_pos_as_xyz
  1  'x, y, z'
loop_
 _atom_site_type_symbol
 _atom_site_label
 _atom_site_symmetry_multiplicity
 _atom_site_fract_x
 _atom_site_fract_y
 _atom_site_fract_z
 _atom_site_occupancy
  Cs  Cs0  1  -0.00447323  -0.00347258  0.00237247  1
  Cs  Cs1  1  -0.00245212  -0.00156376  0.32933381  1
  Cs  Cs2  1  0.00056875  -0.00209856  0.66780754  1
  Cs  Cs3  1  -0.00238438  0.33459278  0.00067593  1
  Cs  Cs4  1  -0.00050782  0.33260140  0.33154089  1
  Cs  Cs5  1  0.00309897  0.33513627  0.66776401  1
  Cs  Cs6  1  -0.00530550  0.66869175  0.00048174  1
  Cs  Cs7  1  -0.00274950  0.66926629  0.32911330  1
  Cs  Cs8  1  -0.00052407  0.66698219  0.66983808  1
  Cs  Cs9  1  0.33433603  -0.00154968  0.00034689  1
  Cs  Cs10  1  0.33288938  -0.00101979  0.33048313  1
  Cs  Cs11  1  0.33344278  0.00028491  0.66807686  1
  Cs  Cs12  1  0.33384734  0.33463812  0.00061830  1
  Cs  Cs13  1  0.33282682  0.33459042  0.33068494  1
  Cs  Cs14  1  0.33218783  0.33287757  0.66793150  1
  Cs  Cs15  1  0.33464047  0.66631527  -0.00063879  1
  Cs  Cs16  1  0.33406387  0.66629856  0.33095414  1
  Cs  Cs17  1  0.33273767  0.66647563  0.66887529  1
  Cs  Cs18  1  0.66841293  0.00261663  -0.00282983  1
  Cs  Cs19  1  0.67305077  -0.00005672  0.34200577  1
  Cs  Cs20  1  0.67343163  0.00698629  0.66005299  1
  Cs  Cs21  1  0.67020137  0.33176995  -0.00034510  1
  Cs  Cs22  1  0.67508804  0.33416164  0.33831793  1
  Cs  Cs23  1  0.67323369  0.32477998  0.65937937  1
  Cs  Cs24  1  0.66415668  0.66538882  -0.00079874  1
  Cs  Cs25  1  0.66951326  0.66582261  0.34382232  1
  Cs  Cs26  1  0.67321234  0.66777044  0.65949798  1
  Sn  Sn27  1  0.16764993  0.16649522  0.49962695  1
  Sn  Sn28  1  0.49966524  0.50037509  0.83330047  1
  Sn  Sn29  1  0.16738773  0.16654383  0.83415221  1
  Sn  Sn30  1  0.49956712  0.83270622  0.83352595  1
  Sn  Sn31  1  0.16738916  0.50027571  0.83399598  1
  Sn  Sn32  1  0.49943688  0.49985440  0.16615338  1
  Sn  Sn33  1  0.16758915  0.16733212  0.16622958  1
  Sn  Sn34  1  0.16771786  0.83312658  0.50066684  1
  Sn  Sn35  1  0.16729905  0.49954053  0.16621527  1
  Sn  Sn36  1  0.16753322  0.50040356  0.49967535  1
  Sn  Sn37  1  0.49960232  0.83319109  0.16627872  1
  Sn  Sn38  1  0.49932374  0.16696462  0.16694038  1
  Sn  Sn39  1  0.16763733  0.83309722  0.83298291  1
  Pb  Pb40  1  0.83657029  0.16677727  0.83360856  1
  Pb  Pb41  1  0.49827096  0.16700607  0.83489094  1
  Pb  Pb42  1  0.83743648  0.16676158  0.49987233  1
  Pb  Pb43  1  0.83190739  0.50003127  0.83340856  1
  Pb  Pb44  1  0.83194624  0.83315295  0.83351487  1
  Pb  Pb45  1  0.49727807  0.16680410  0.49698914  1
  Pb  Pb46  1  0.83718872  0.83325639  0.50016885  1
  Pb  Pb47  1  0.49775998  0.83334780  0.50098146  1
  Pb  Pb48  1  0.83312575  0.16669575  0.16648396  1
  Pb  Pb49  1  0.82816502  0.83310319  0.16629356  1
  Pb  Pb50  1  0.49795093  0.49989620  0.50067699  1
  Pb  Pb51  1  0.83715834  0.49997978  0.50016502  1
  Pb  Pb52  1  0.16780581  0.83302950  0.16605197  1
  Pb  Pb53  1  0.83234092  0.50018786  0.16637355  1
  I  I54  1  0.17055765  0.00247576  0.16754614  1
  I  I55  1  0.16757418  0.00009083  0.50297837  1
  I  I56  1  0.17021435  -0.00038786  0.82967062  1
  I  I57  1  0.17281432  0.33361520  0.16733055  1
  I  I58  1  0.16693443  0.33348402  0.50241375  1
  I  I59  1  0.16956157  0.33396569  0.83040072  1
  I  I60  1  0.17041514  0.66376957  0.16818271  1
  I  I61  1  0.16761842  0.66638378  0.50280427  1
  I  I62  1  0.16975081  0.66636092  0.82965391  1
  I  I63  1  0.49255155  0.00014061  0.16236243  1
  I  I64  1  0.49564516  -0.00001798  0.49928895  1
  I  I65  1  0.49297988  -0.00269845  0.83932315  1
  I  I66  1  0.49280767  0.33405327  0.16202513  1
  I  I67  1  0.49633256  0.33339525  0.50141570  1
  I  I68  1  0.49296098  0.33650092  0.83862571  1
  I  I69  1  0.49326137  0.66593764  0.16182453  1
  I  I70  1  0.49624253  0.66663404  0.49365026  1
  I  I71  1  0.48911633  0.66643707  0.84338346  1
  I  I72  1  0.83758316  -0.00000733  0.16691243  1
  I  I73  1  0.83420140  0.00004749  0.49977128  1
  I  I74  1  0.83403441  -0.00011021  0.83361473  1
  I  I75  1  0.83146170  0.33340174  0.16719874  1
  I  I76  1  0.83374374  0.33325269  0.49971693  1
  I  I77  1  0.83403292  0.33343817  0.83347831  1
  I  I78  1  0.83903287  0.66661229  0.16692896  1
  I  I79  1  0.83429573  0.66669586  0.49936847  1
  I  I80  1  0.84050208  0.66663792  0.83333157  1
  I  I81  1  0.17079476  0.16968413  0.00039315  1
  I  I82  1  0.17056370  0.16961140  0.33270090  1
  I  I83  1  0.16522206  0.16932706  0.66699558  1
  I  I84  1  0.17024225  0.49660429  -0.00006755  1
  I  I85  1  0.17038451  0.49694801  0.33257657  1
  I  I86  1  0.16945201  0.49723233  0.66748039  1
  I  I87  1  0.16866070  0.83404849  -0.00306348  1
  I  I88  1  0.16827650  0.83351629  0.33520206  1
  I  I89  1  0.17133437  0.83375380  0.66782971  1
  I  I90  1  0.49201851  0.16629224  0.00314101  1
  I  I91  1  0.49219677  0.16676309  0.32843398  1
  I  I92  1  0.49868506  0.16614804  0.66678659  1
  I  I93  1  0.49056445  0.50165312  0.00039857  1
  I  I94  1  0.49426149  0.50082175  0.32996618  1
  I  I95  1  0.49286834  0.50700802  0.67050708  1
  I  I96  1  0.49184330  0.83230230  -0.00026959  1
  I  I97  1  0.49690403  0.83262283  0.33045930  1
  I  I98  1  0.49542797  0.82680238  0.67060242  1
  I  I99  1  0.83695618  0.16645250  0.00022731  1
  I  I100  1  0.83484984  0.16641494  0.33323035  1
  I  I101  1  0.83245049  0.16654264  0.66652988  1
  I  I102  1  0.84066690  0.49960784  -0.00007111  1
  I  I103  1  0.83317435  0.50000913  0.33328183  1
  I  I104  1  0.83379516  0.50030505  0.66673223  1
  I  I105  1  0.84216119  0.83404832  -0.00016016  1
  I  I106  1  0.83499249  0.83367102  0.33334871  1
  I  I107  1  0.82995849  0.83335802  0.66673793  1
  I  I108  1  0.00430136  0.17164294  0.16779169  1
  I  I109  1  0.00603101  0.16726696  0.49726003  1
  I  I110  1  0.00627789  0.16723295  0.83504927  1
  I  I111  1  0.00406350  0.49455841  0.16706338  1
  I  I112  1  0.00624722  0.49889458  0.50051138  1
  I  I113  1  0.00441841  0.49985630  0.83278836  1
  I  I114  1  0.00013494  0.83388513  0.16767258  1
  I  I115  1  0.00588118  0.83358723  0.50592511  1
  I  I116  1  0.00381755  0.83316733  0.82833514  1
  I  I117  1  0.33181465  0.16798093  0.16720428  1
  I  I118  1  0.32850431  0.16706772  0.50260521  1
  I  I119  1  0.32914065  0.16656609  0.83072132  1
  I  I120  1  0.33219093  0.49866165  0.16629419  1
  I  I121  1  0.32891543  0.49949042  0.49953694  1
  I  I122  1  0.33144288  0.50106407  0.83453502  1
  I  I123  1  0.33580340  0.83357899  0.16595395  1
  I  I124  1  0.32921477  0.83351211  0.50153272  1
  I  I125  1  0.33192277  0.83228988  0.83331770  1
  I  I126  1  0.66293943  0.16749237  0.16417636  1
  I  I127  1  0.66681827  0.16614985  0.49904256  1
  I  I128  1  0.66620789  0.16656043  0.83588471  1
  I  I129  1  0.66216797  0.49907079  0.15978642  1
  I  I130  1  0.66657053  0.50059426  0.49913673  1
  I  I131  1  0.66208488  0.50635834  0.84192803  1
  I  I132  1  0.66014313  0.83324253  0.15831004  1
  I  I133  1  0.66659635  0.83326174  0.49903133  1
  I  I134  1  0.66216829  0.82708576  0.84088739  1
