# generated using pymatgen
data_Cs27Sn14Pb13I81
_symmetry_space_group_name_H-M   'P 1'
_cell_length_a   18.98247501
_cell_length_b   18.96594106
_cell_length_c   18.97874240
_cell_angle_alpha   89.99851309
_cell_angle_beta   90.00038411
_cell_angle_gamma   89.99959078
_symmetry_Int_Tables_number   1
_chemical_formula_structural   Cs27Sn14Pb13I81
_chemical_formula_sum   'Cs27 Sn14 Pb13 I81'
_cell_volume   6832.73636820
_cell_formula_units_Z   1
loop_
 _symmetry_equiv_pos_site_id
 _symmetry_equiv_pos_as_xyz
  1  'x, y, z'
loop_
 _atom_site_type_symbol
 _atom_site_label
 _atom_site_symmetry_multiplicity
 _atom_site_fract_x
 _atom_site_fract_y
 _atom_site_fract_z
 _atom_site_occupancy
  Cs  Cs0  1  -0.00233615  -0.00052530  -0.00238474  1
  Cs  Cs1  1  -0.00175943  0.00104596  0.33579061  1
  Cs  Cs2  1  -0.00122234  -0.00366881  0.66538180  1
  Cs  Cs3  1  0.00189268  0.33455783  -0.00110540  1
  Cs  Cs4  1  -0.00049596  0.33296491  0.33413934  1
  Cs  Cs5  1  0.00126808  0.33472877  0.66738417  1
  Cs  Cs6  1  0.00397031  0.66462056  0.00259919  1
  Cs  Cs7  1  -0.00206372  0.66605836  0.32997159  1
  Cs  Cs8  1  -0.00069607  0.66200331  0.66815382  1
  Cs  Cs9  1  0.33452302  -0.00110906  0.00049717  1
  Cs  Cs10  1  0.32987696  -0.00184817  0.33557324  1
  Cs  Cs11  1  0.32998121  -0.00536355  0.66360819  1
  Cs  Cs12  1  0.33213096  0.33210997  -0.00383846  1
  Cs  Cs13  1  0.33566060  0.33166389  0.33340266  1
  Cs  Cs14  1  0.33162535  0.33397222  0.66937551  1
  Cs  Cs15  1  0.33136712  0.67608506  0.00674636  1
  Cs  Cs16  1  0.34180582  0.67426498  0.32606137  1
  Cs  Cs17  1  0.33564043  0.66988273  0.66554147  1
  Cs  Cs18  1  0.66802047  0.00133626  -0.00202584  1
  Cs  Cs19  1  0.66975236  0.00283813  0.33304258  1
  Cs  Cs20  1  0.66965566  -0.00038230  0.66930167  1
  Cs  Cs21  1  0.66578374  0.33157952  -0.00088017  1
  Cs  Cs22  1  0.66653180  0.33287402  0.33344234  1
  Cs  Cs23  1  0.66640340  0.33322840  0.66714183  1
  Cs  Cs24  1  0.66447196  0.66825310  0.00211731  1
  Cs  Cs25  1  0.66344443  0.66561973  0.33391583  1
  Cs  Cs26  1  0.66514665  0.66658312  0.66487594  1
  Sn  Sn27  1  0.83279085  0.16690559  0.49969263  1
  Sn  Sn28  1  0.16743787  0.49947461  0.83252993  1
  Sn  Sn29  1  0.50053425  0.16699435  0.50068777  1
  Sn  Sn30  1  0.83346467  0.83307599  0.49936942  1
  Sn  Sn31  1  0.49990504  0.16704100  0.16660009  1
  Sn  Sn32  1  0.16632628  0.16719140  0.16590029  1
  Sn  Sn33  1  0.16734611  0.16683161  0.83371991  1
  Sn  Sn34  1  0.49889507  0.16708290  0.83274480  1
  Sn  Sn35  1  0.49942314  0.49957781  0.83358660  1
  Sn  Sn36  1  0.83311591  0.49965679  0.83291299  1
  Sn  Sn37  1  0.83399784  0.49995773  0.50074660  1
  Sn  Sn38  1  0.16687590  0.50009565  0.49977579  1
  Sn  Sn39  1  0.83366845  0.16627167  0.16721794  1
  Sn  Sn40  1  0.83343068  0.83423618  0.16722346  1
  Pb  Pb41  1  0.16643095  0.16816827  0.50047700  1
  Pb  Pb42  1  0.49972709  0.49813260  0.50162545  1
  Pb  Pb43  1  0.16653201  0.83314505  0.83318129  1
  Pb  Pb44  1  0.50003884  0.83376699  0.83326414  1
  Pb  Pb45  1  0.50295445  0.83671974  0.16672257  1
  Pb  Pb46  1  0.50274391  0.83655649  0.50008036  1
  Pb  Pb47  1  0.16691733  0.49805097  0.16702138  1
  Pb  Pb48  1  0.49977308  0.49764405  0.16367388  1
  Pb  Pb49  1  0.83321594  0.49956327  0.16708171  1
  Pb  Pb50  1  0.16382306  0.83673795  0.16684260  1
  Pb  Pb51  1  0.83340636  0.82977562  0.83356714  1
  Pb  Pb52  1  0.83369327  0.16834879  0.83318168  1
  Pb  Pb53  1  0.16411488  0.82915941  0.49988900  1
  I  I54  1  0.16984984  0.00525216  0.16104084  1
  I  I55  1  0.16645334  0.00011073  0.50025406  1
  I  I56  1  0.17149975  0.00377659  0.83784156  1
  I  I57  1  0.16247153  0.32932377  0.16468037  1
  I  I58  1  0.15930715  0.33585366  0.50207086  1
  I  I59  1  0.16701023  0.33326441  0.83385243  1
  I  I60  1  0.16409230  0.66685916  0.16514080  1
  I  I61  1  0.16056134  0.66118838  0.50916465  1
  I  I62  1  0.16549159  0.66259214  0.82842059  1
  I  I63  1  0.49779400  0.00520971  0.16331271  1
  I  I64  1  0.50400112  0.00528486  0.50222138  1
  I  I65  1  0.49645761  0.00451369  0.83447909  1
  I  I66  1  0.50501836  0.32876336  0.16915526  1
  I  I67  1  0.50705339  0.32966747  0.49758783  1
  I  I68  1  0.49989142  0.33220626  0.83372500  1
  I  I69  1  0.50135814  0.66700283  0.16474160  1
  I  I70  1  0.50076695  0.66654528  0.50296213  1
  I  I71  1  0.50094665  0.66316878  0.83123332  1
  I  I72  1  0.83338316  0.00201235  0.17439107  1
  I  I73  1  0.82845477  0.00116945  0.49503780  1
  I  I74  1  0.83307345  0.00014132  0.83097027  1
  I  I75  1  0.83267608  0.32967865  0.16985099  1
  I  I76  1  0.83309039  0.33295808  0.49957958  1
  I  I77  1  0.83351859  0.33634829  0.82959981  1
  I  I78  1  0.83393523  0.66907634  0.16902519  1
  I  I79  1  0.83922664  0.66575019  0.50061315  1
  I  I80  1  0.83378302  0.66153033  0.82933082  1
  I  I81  1  0.16828471  0.17241797  -0.00054942  1
  I  I82  1  0.16812085  0.16837431  0.33116657  1
  I  I83  1  0.16961078  0.17004358  0.66945823  1
  I  I84  1  0.16423289  0.49675227  -0.00348156  1
  I  I85  1  0.15724641  0.49667512  0.33645547  1
  I  I86  1  0.16368344  0.49253947  0.66782814  1
  I  I87  1  0.16307913  0.82864768  0.00015832  1
  I  I88  1  0.16770627  0.83397450  0.33337700  1
  I  I89  1  0.16346276  0.84010020  0.66642212  1
  I  I90  1  0.50067287  0.17077204  -0.00025752  1
  I  I91  1  0.50170622  0.16630697  0.33329814  1
  I  I92  1  0.50155251  0.17146335  0.66720131  1
  I  I93  1  0.50190884  0.49307968  -0.00487619  1
  I  I94  1  0.50123105  0.49795187  0.33346428  1
  I  I95  1  0.50127615  0.49212177  0.66988584  1
  I  I96  1  0.50363276  0.83422370  0.00012483  1
  I  I97  1  0.49813381  0.83244782  0.33335562  1
  I  I98  1  0.50360143  0.83682099  0.66656696  1
  I  I99  1  0.83114456  0.16371948  0.00248703  1
  I  I100  1  0.83073788  0.16806415  0.33376041  1
  I  I101  1  0.83017232  0.16485379  0.66378960  1
  I  I102  1  0.83434645  0.49860492  -0.00288245  1
  I  I103  1  0.83860562  0.49904923  0.33679507  1
  I  I104  1  0.83429952  0.49880432  0.66589341  1
  I  I105  1  0.83266255  0.83952561  0.00294002  1
  I  I106  1  0.83406313  0.83371534  0.33397022  1
  I  I107  1  0.83301250  0.83756931  0.66347317  1
  I  I108  1  -0.00075857  0.16350062  0.16690015  1
  I  I109  1  -0.00313974  0.16549539  0.49657711  1
  I  I110  1  0.00241619  0.17145034  0.83680064  1
  I  I111  1  -0.00017279  0.49694637  0.16164815  1
  I  I112  1  -0.00162814  0.49709542  0.50841612  1
  I  I113  1  0.00031144  0.49569184  0.82899485  1
  I  I114  1  -0.00403793  0.83886104  0.17069251  1
  I  I115  1  -0.00434240  0.84098005  0.49680105  1
  I  I116  1  -0.00032765  0.83568372  0.83355455  1
  I  I117  1  0.33357706  0.17057684  0.16574357  1
  I  I118  1  0.33567339  0.17038025  0.49749455  1
  I  I119  1  0.33360834  0.17532140  0.83720962  1
  I  I120  1  0.33332380  0.49744559  0.16903864  1
  I  I121  1  0.33075168  0.49424035  0.50554307  1
  I  I122  1  0.33274814  0.49194770  0.82815866  1
  I  I123  1  0.33341751  0.83276921  0.16549271  1
  I  I124  1  0.33340246  0.83383102  0.50110527  1
  I  I125  1  0.33333577  0.82995859  0.83354843  1
  I  I126  1  0.66709514  0.16306737  0.16683679  1
  I  I127  1  0.66794518  0.16864381  0.49709664  1
  I  I128  1  0.66438644  0.17096989  0.83544198  1
  I  I129  1  0.66678920  0.49751852  0.16556126  1
  I  I130  1  0.66984949  0.50100708  0.50410352  1
  I  I131  1  0.66663242  0.49502580  0.82977314  1
  I  I132  1  0.67074794  0.83840377  0.17047355  1
  I  I133  1  0.67110378  0.82747712  0.49599875  1
  I  I134  1  0.66697583  0.83430712  0.83374112  1
