# generated using pymatgen
data_Cs27Sn14Pb13I81
_symmetry_space_group_name_H-M   'P 1'
_cell_length_a   18.97808827
_cell_length_b   18.97209197
_cell_length_c   18.97700002
_cell_angle_alpha   90.00080871
_cell_angle_beta   90.00076220
_cell_angle_gamma   89.99952347
_symmetry_Int_Tables_number   1
_chemical_formula_structural   Cs27Sn14Pb13I81
_chemical_formula_sum   'Cs27 Sn14 Pb13 I81'
_cell_volume   6832.74544859
_cell_formula_units_Z   1
loop_
 _symmetry_equiv_pos_site_id
 _symmetry_equiv_pos_as_xyz
  1  'x, y, z'
loop_
 _atom_site_type_symbol
 _atom_site_label
 _atom_site_symmetry_multiplicity
 _atom_site_fract_x
 _atom_site_fract_y
 _atom_site_fract_z
 _atom_site_occupancy
  Cs  Cs0  1  -0.00038737  -0.00232666  -0.00023636  1
  Cs  Cs1  1  0.00312175  0.00098741  0.33290666  1
  Cs  Cs2  1  0.00205423  0.00071932  0.66703842  1
  Cs  Cs3  1  0.00352113  0.33620525  0.00054385  1
  Cs  Cs4  1  0.00280850  0.33085755  0.33441311  1
  Cs  Cs5  1  -0.01078996  0.33560709  0.66456763  1
  Cs  Cs6  1  0.00130580  0.67056395  0.00032719  1
  Cs  Cs7  1  -0.00360930  0.66802799  0.33284640  1
  Cs  Cs8  1  0.00000329  0.66560773  0.66650456  1
  Cs  Cs9  1  0.33271727  0.00080487  -0.00362174  1
  Cs  Cs10  1  0.33257029  0.00016822  0.33777976  1
  Cs  Cs11  1  0.33341768  -0.00107213  0.66792158  1
  Cs  Cs12  1  0.33112776  0.33907136  0.00128295  1
  Cs  Cs13  1  0.33020515  0.33291537  0.33326886  1
  Cs  Cs14  1  0.33609020  0.33506214  0.66656489  1
  Cs  Cs15  1  0.33327174  0.65938843  0.00090892  1
  Cs  Cs16  1  0.33779733  0.66631892  0.33685252  1
  Cs  Cs17  1  0.33212887  0.66557827  0.66472282  1
  Cs  Cs18  1  0.66715332  0.00051369  0.00027106  1
  Cs  Cs19  1  0.66470545  -0.00187205  0.32973930  1
  Cs  Cs20  1  0.66491797  0.00180619  0.66980305  1
  Cs  Cs21  1  0.66598428  0.33140074  -0.00191474  1
  Cs  Cs22  1  0.66757331  0.33259215  0.33560277  1
  Cs  Cs23  1  0.67118348  0.33450102  0.66547266  1
  Cs  Cs24  1  0.66445169  0.66673336  0.00304064  1
  Cs  Cs25  1  0.66665783  0.66850908  0.33151918  1
  Cs  Cs26  1  0.66817533  0.66446390  0.66615379  1
  Sn  Sn27  1  0.16707789  0.83388454  0.83425952  1
  Sn  Sn28  1  0.16689241  0.83341345  0.16636464  1
  Sn  Sn29  1  0.49971293  0.83345887  0.83364539  1
  Sn  Sn30  1  0.83323880  0.83417267  0.50000889  1
  Sn  Sn31  1  0.83335929  0.49973704  0.16632906  1
  Sn  Sn32  1  0.49947428  0.49923420  0.49990030  1
  Sn  Sn33  1  0.49901407  0.16618570  0.83354835  1
  Sn  Sn34  1  0.50003642  0.16722497  0.50011858  1
  Sn  Sn35  1  0.83305580  0.16675068  0.16641652  1
  Sn  Sn36  1  0.83320781  0.83357022  0.83314089  1
  Sn  Sn37  1  0.16713545  0.16656167  0.83306625  1
  Sn  Sn38  1  0.16677715  0.49988487  0.50008568  1
  Sn  Sn39  1  0.83395946  0.83366638  0.16669090  1
  Sn  Sn40  1  0.50002952  0.16644009  0.16643289  1
  Pb  Pb41  1  0.83105643  0.16407146  0.49752793  1
  Pb  Pb42  1  0.16867946  0.16868007  0.50308182  1
  Pb  Pb43  1  0.16478224  0.83195340  0.50026590  1
  Pb  Pb44  1  0.83342247  0.16493827  0.83546469  1
  Pb  Pb45  1  0.16470619  0.50289081  0.16893569  1
  Pb  Pb46  1  0.50200381  0.83364629  0.50242896  1
  Pb  Pb47  1  0.83297493  0.50179526  0.49793266  1
  Pb  Pb48  1  0.50013780  0.49938655  0.83134616  1
  Pb  Pb49  1  0.83332495  0.50289941  0.83628795  1
  Pb  Pb50  1  0.16655418  0.49994170  0.83127369  1
  Pb  Pb51  1  0.49945354  0.83515104  0.16438366  1
  Pb  Pb52  1  0.16698817  0.16467833  0.16468667  1
  Pb  Pb53  1  0.50196979  0.49709613  0.16903771  1
  I  I54  1  0.15962689  -0.00330174  0.16578318  1
  I  I55  1  0.16689554  0.00003028  0.49838090  1
  I  I56  1  0.16744620  -0.00141866  0.83620957  1
  I  I57  1  0.16477459  0.33327154  0.16542524  1
  I  I58  1  0.16728725  0.33636501  0.49996712  1
  I  I59  1  0.17399468  0.33026707  0.83349526  1
  I  I60  1  0.16025141  0.67088991  0.15941253  1
  I  I61  1  0.17323565  0.66425197  0.50130742  1
  I  I62  1  0.16606881  0.67036482  0.83606856  1
  I  I63  1  0.50669586  0.00320952  0.17144908  1
  I  I64  1  0.50291186  0.00284497  0.49865496  1
  I  I65  1  0.50017298  0.00036616  0.83087992  1
  I  I66  1  0.50520572  0.32889509  0.16084126  1
  I  I67  1  0.49681361  0.33248735  0.50163085  1
  I  I68  1  0.49473782  0.32947900  0.83585873  1
  I  I69  1  0.50138553  0.66677288  0.16691044  1
  I  I70  1  0.49811270  0.66466236  0.50180857  1
  I  I71  1  0.50038454  0.66977735  0.83189489  1
  I  I72  1  0.83223980  -0.00114435  0.16611648  1
  I  I73  1  0.83261587  -0.00389334  0.49856753  1
  I  I74  1  0.83277412  -0.00363462  0.83599201  1
  I  I75  1  0.82712930  0.33250398  0.16786962  1
  I  I76  1  0.83489930  0.33310542  0.49825114  1
  I  I77  1  0.83324463  0.33312208  0.83421529  1
  I  I78  1  0.83819942  0.66847028  0.16695090  1
  I  I79  1  0.83114722  0.66984786  0.49813231  1
  I  I80  1  0.83375646  0.67174359  0.83457083  1
  I  I81  1  0.17178915  0.16426029  -0.00319988  1
  I  I82  1  0.16720212  0.16563894  0.33336864  1
  I  I83  1  0.17202123  0.15806044  0.67085669  1
  I  I84  1  0.16501299  0.49917736  0.00017529  1
  I  I85  1  0.17096181  0.50128114  0.33642766  1
  I  I86  1  0.17069702  0.50326249  0.66361833  1
  I  I87  1  0.16048911  0.83679277  -0.00091139  1
  I  I88  1  0.16007194  0.83181295  0.33090667  1
  I  I89  1  0.16549338  0.83561913  0.66999836  1
  I  I90  1  0.50189005  0.15989934  -0.00053248  1
  I  I91  1  0.50625546  0.17088498  0.33320682  1
  I  I92  1  0.49488665  0.16567946  0.66739874  1
  I  I93  1  0.50159799  0.50005403  0.00025355  1
  I  I94  1  0.49685577  0.49643140  0.33687818  1
  I  I95  1  0.49788744  0.49588059  0.66336839  1
  I  I96  1  0.50479950  0.83931985  -0.00368707  1
  I  I97  1  0.50086505  0.83426451  0.33332111  1
  I  I98  1  0.49971025  0.83860283  0.67046182  1
  I  I99  1  0.82723336  0.16383667  0.00350832  1
  I  I100  1  0.82837391  0.16362855  0.32940828  1
  I  I101  1  0.83285350  0.16498802  0.66677474  1
  I  I102  1  0.83340995  0.50155538  0.00422762  1
  I  I103  1  0.83258255  0.50397539  0.33023111  1
  I  I104  1  0.83344097  0.50224524  0.66640527  1
  I  I105  1  0.83441543  0.83364715  0.00045955  1
  I  I106  1  0.83738130  0.83263910  0.33162534  1
  I  I107  1  0.83290609  0.83270143  0.66767453  1
  I  I108  1  -0.00265456  0.16688354  0.16483875  1
  I  I109  1  -0.00011326  0.16824397  0.50007239  1
  I  I110  1  0.00241999  0.16161461  0.83555197  1
  I  I111  1  -0.00331841  0.49599538  0.16964744  1
  I  I112  1  0.00176857  0.50378075  0.49940580  1
  I  I113  1  -0.00006748  0.49826069  0.82887584  1
  I  I114  1  -0.00175577  0.83484331  0.16222959  1
  I  I115  1  -0.00322590  0.82999954  0.50281585  1
  I  I116  1  0.00007363  0.83679873  0.83484157  1
  I  I117  1  0.33623953  0.16401887  0.16845307  1
  I  I118  1  0.33709088  0.16625483  0.49444739  1
  I  I119  1  0.33458347  0.15697801  0.83439492  1
  I  I120  1  0.33334214  0.50064952  0.16605681  1
  I  I121  1  0.33422213  0.49784618  0.50037997  1
  I  I122  1  0.33340293  0.50525762  0.83506944  1
  I  I123  1  0.33070411  0.83554900  0.16228843  1
  I  I124  1  0.33355682  0.83387318  0.49928853  1
  I  I125  1  0.33301172  0.83855346  0.83682344  1
  I  I126  1  0.66673472  0.16380044  0.16505020  1
  I  I127  1  0.66294420  0.17310707  0.50602134  1
  I  I128  1  0.66367779  0.16231063  0.83224063  1
  I  I129  1  0.66985432  0.50759977  0.16908221  1
  I  I130  1  0.66414694  0.49668531  0.49942735  1
  I  I131  1  0.66673422  0.50053577  0.82988267  1
  I  I132  1  0.66967202  0.83194595  0.16605080  1
  I  I133  1  0.66987236  0.83132493  0.49780236  1
  I  I134  1  0.66680894  0.83736643  0.83315136  1
