# generated using pymatgen
data_Cs27Sn13Pb14I81
_symmetry_space_group_name_H-M   'P 1'
_cell_length_a   18.98966144
_cell_length_b   19.00289047
_cell_length_c   18.98225726
_cell_angle_alpha   89.99899707
_cell_angle_beta   89.99924830
_cell_angle_gamma   89.99974069
_symmetry_Int_Tables_number   1
_chemical_formula_structural   Cs27Sn13Pb14I81
_chemical_formula_sum   'Cs27 Sn13 Pb14 I81'
_cell_volume   6849.90805583
_cell_formula_units_Z   1
loop_
 _symmetry_equiv_pos_site_id
 _symmetry_equiv_pos_as_xyz
  1  'x, y, z'
loop_
 _atom_site_type_symbol
 _atom_site_label
 _atom_site_symmetry_multiplicity
 _atom_site_fract_x
 _atom_site_fract_y
 _atom_site_fract_z
 _atom_site_occupancy
  Cs  Cs0  1  -0.00370904  -0.00256198  -0.00218714  1
  Cs  Cs1  1  0.00195433  0.00087053  0.33397223  1
  Cs  Cs2  1  0.00113102  -0.00145034  0.66906744  1
  Cs  Cs3  1  -0.00418965  0.33415041  -0.00032252  1
  Cs  Cs4  1  0.00293675  0.33633119  0.33343764  1
  Cs  Cs5  1  0.00019538  0.33078204  0.66656068  1
  Cs  Cs6  1  -0.00839112  0.66946150  -0.00067917  1
  Cs  Cs7  1  0.00476710  0.66100445  0.33399682  1
  Cs  Cs8  1  0.00363948  0.67307395  0.66710172  1
  Cs  Cs9  1  0.33243656  0.00105166  0.00003612  1
  Cs  Cs10  1  0.33384906  0.00095898  0.33179833  1
  Cs  Cs11  1  0.33459074  0.00033080  0.66797632  1
  Cs  Cs12  1  0.33398948  0.33477900  -0.00293171  1
  Cs  Cs13  1  0.33088501  0.33299585  0.33098172  1
  Cs  Cs14  1  0.33465775  0.33148806  0.66899144  1
  Cs  Cs15  1  0.33659981  0.66197090  0.00098813  1
  Cs  Cs16  1  0.32909146  0.66403394  0.33103553  1
  Cs  Cs17  1  0.33303680  0.66955874  0.66713976  1
  Cs  Cs18  1  0.67307550  -0.00118226  0.00994499  1
  Cs  Cs19  1  0.66528716  -0.00160106  0.33189247  1
  Cs  Cs20  1  0.66334930  0.00019793  0.66450044  1
  Cs  Cs21  1  0.67511045  0.34112468  0.00495102  1
  Cs  Cs22  1  0.66690841  0.33108175  0.33484047  1
  Cs  Cs23  1  0.66543704  0.33513732  0.66608404  1
  Cs  Cs24  1  0.67273172  0.65982345  0.00641485  1
  Cs  Cs25  1  0.66683776  0.67085371  0.33335558  1
  Cs  Cs26  1  0.66433770  0.66439387  0.66605863  1
  Sn  Sn27  1  0.16701714  0.16641726  0.50029219  1
  Sn  Sn28  1  0.50033142  0.83344544  0.50062727  1
  Sn  Sn29  1  0.49986364  0.16666492  0.50058543  1
  Sn  Sn30  1  0.50037592  0.83438336  0.83355501  1
  Sn  Sn31  1  0.16654184  0.49946100  0.83291903  1
  Sn  Sn32  1  0.16730684  0.16732416  0.83353640  1
  Sn  Sn33  1  0.16694969  0.16576548  0.16600964  1
  Sn  Sn34  1  0.50030757  0.16577081  0.83335956  1
  Sn  Sn35  1  0.83292644  0.83348763  0.50035768  1
  Sn  Sn36  1  0.50015591  0.49989385  0.50011702  1
  Sn  Sn37  1  0.83276150  0.50014934  0.50071864  1
  Sn  Sn38  1  0.16707789  0.83397261  0.16634428  1
  Sn  Sn39  1  0.83307520  0.16641037  0.50046611  1
  Pb  Pb40  1  0.16873301  0.83388689  0.83561523  1
  Pb  Pb41  1  0.83593405  0.50006323  0.83013180  1
  Pb  Pb42  1  0.16662388  0.49953481  0.16338447  1
  Pb  Pb43  1  0.16698556  0.49758807  0.50204553  1
  Pb  Pb44  1  0.49821386  0.83346204  0.16644601  1
  Pb  Pb45  1  0.83608423  0.83342069  0.16993445  1
  Pb  Pb46  1  0.49829186  0.16684819  0.16577706  1
  Pb  Pb47  1  0.49890399  0.49963088  0.83151232  1
  Pb  Pb48  1  0.83223535  0.16642545  0.83132076  1
  Pb  Pb49  1  0.83627944  0.16667239  0.16959925  1
  Pb  Pb50  1  0.49989653  0.49978941  0.16978878  1
  Pb  Pb51  1  0.82941018  0.83359820  0.83089680  1
  Pb  Pb52  1  0.83348723  0.49994303  0.17008276  1
  Pb  Pb53  1  0.16734159  0.83571135  0.49872024  1
  I  I54  1  0.16791829  0.00159485  0.16728169  1
  I  I55  1  0.16628710  0.00402245  0.50426309  1
  I  I56  1  0.16872050  0.00347643  0.83045220  1
  I  I57  1  0.16712507  0.32989225  0.17109634  1
  I  I58  1  0.16650781  0.32927516  0.49534441  1
  I  I59  1  0.17299442  0.33089118  0.83337265  1
  I  I60  1  0.16769446  0.66902988  0.16844139  1
  I  I61  1  0.16610383  0.66667643  0.49904022  1
  I  I62  1  0.16861743  0.66491483  0.83301826  1
  I  I63  1  0.49985667  0.00016989  0.17263072  1
  I  I64  1  0.50181304  0.00057148  0.50326157  1
  I  I65  1  0.49146038  0.00112291  0.82152474  1
  I  I66  1  0.49580557  0.33316167  0.16776623  1
  I  I67  1  0.50228895  0.33211080  0.50340189  1
  I  I68  1  0.49464463  0.32999358  0.82630355  1
  I  I69  1  0.49466780  0.66679290  0.16661569  1
  I  I70  1  0.50716224  0.66728913  0.50381888  1
  I  I71  1  0.49596385  0.66900674  0.82651958  1
  I  I72  1  0.83217843  0.00006601  0.16990529  1
  I  I73  1  0.83113379  0.00042580  0.49976217  1
  I  I74  1  0.84035883  0.00003911  0.82969092  1
  I  I75  1  0.83559811  0.33315728  0.16887162  1
  I  I76  1  0.83094641  0.33270579  0.50004008  1
  I  I77  1  0.83017780  0.33319409  0.82995953  1
  I  I78  1  0.83706596  0.66683403  0.16863220  1
  I  I79  1  0.82534026  0.66684412  0.49990428  1
  I  I80  1  0.83613960  0.66684044  0.82987004  1
  I  I81  1  0.17385900  0.16701212  -0.00104495  1
  I  I82  1  0.16619357  0.16207649  0.33445007  1
  I  I83  1  0.16717687  0.17152564  0.66633235  1
  I  I84  1  0.16986461  0.49343096  -0.00401238  1
  I  I85  1  0.16616576  0.49917702  0.33353753  1
  I  I86  1  0.16679225  0.49393173  0.66936656  1
  I  I87  1  0.16956861  0.83994180  0.00298213  1
  I  I88  1  0.16784961  0.83945916  0.33112243  1
  I  I89  1  0.16413535  0.83336562  0.66667965  1
  I  I90  1  0.49173715  0.16039681  -0.00393904  1
  I  I91  1  0.49963026  0.16610192  0.33715252  1
  I  I92  1  0.49454604  0.16590998  0.66487637  1
  I  I93  1  0.49700238  0.50047005  -0.00055528  1
  I  I94  1  0.50216890  0.49963387  0.33898642  1
  I  I95  1  0.50335240  0.49921654  0.66293550  1
  I  I96  1  0.49428012  0.84005296  -0.00333779  1
  I  I97  1  0.50362958  0.83451110  0.33712207  1
  I  I98  1  0.50183418  0.83467393  0.66486355  1
  I  I99  1  0.83318973  0.16669281  0.00006739  1
  I  I100  1  0.83163623  0.16682905  0.33863231  1
  I  I101  1  0.83893939  0.16684561  0.66222838  1
  I  I102  1  0.83427793  0.50010141  -0.00022883  1
  I  I103  1  0.83159558  0.49912728  0.33863608  1
  I  I104  1  0.82849423  0.49826342  0.66203254  1
  I  I105  1  0.83309111  0.83320398  0.00018649  1
  I  I106  1  0.82528184  0.83455572  0.33821905  1
  I  I107  1  0.83537146  0.83401403  0.66222778  1
  I  I108  1  0.00467831  0.16282552  0.16656487  1
  I  I109  1  0.00042471  0.16710616  0.49906575  1
  I  I110  1  0.00314923  0.17096602  0.83180851  1
  I  I111  1  0.00039803  0.49978488  0.17065686  1
  I  I112  1  -0.00242930  0.49977815  0.50081015  1
  I  I113  1  0.00387728  0.49211094  0.83167743  1
  I  I114  1  0.00373655  0.83911168  0.16710229  1
  I  I115  1  -0.00227930  0.83305209  0.49681830  1
  I  I116  1  -0.00003050  0.83275339  0.83291485  1
  I  I117  1  0.32981860  0.16308775  0.17350815  1
  I  I118  1  0.33365240  0.16654940  0.50004762  1
  I  I119  1  0.33278714  0.16665333  0.82722817  1
  I  I120  1  0.33279026  0.50087001  0.17115895  1
  I  I121  1  0.33611878  0.50061928  0.50149744  1
  I  I122  1  0.33092817  0.49740343  0.83000057  1
  I  I123  1  0.33052180  0.83856405  0.17090752  1
  I  I124  1  0.33666474  0.83319203  0.50224307  1
  I  I125  1  0.33628942  0.83483234  0.82423642  1
  I  I126  1  0.66688451  0.16673535  0.16720173  1
  I  I127  1  0.66576159  0.16732122  0.50499296  1
  I  I128  1  0.66270701  0.16225201  0.82478988  1
  I  I129  1  0.66679442  0.50045762  0.16193997  1
  I  I130  1  0.66621222  0.49496420  0.50086428  1
  I  I131  1  0.66661440  0.49952398  0.83402723  1
  I  I132  1  0.66681228  0.83264506  0.16544875  1
  I  I133  1  0.66576158  0.83736139  0.50324443  1
  I  I134  1  0.66146264  0.84047854  0.82978624  1
