# generated using pymatgen
data_Cs27Sn13Pb14I81
_symmetry_space_group_name_H-M   'P 1'
_cell_length_a   18.97204011
_cell_length_b   18.97864729
_cell_length_c   18.97943979
_cell_angle_alpha   90.00107701
_cell_angle_beta   90.00008315
_cell_angle_gamma   89.99847700
_symmetry_Int_Tables_number   1
_chemical_formula_structural   Cs27Sn13Pb14I81
_chemical_formula_sum   'Cs27 Sn13 Pb14 I81'
_cell_volume   6833.80650937
_cell_formula_units_Z   1
loop_
 _symmetry_equiv_pos_site_id
 _symmetry_equiv_pos_as_xyz
  1  'x, y, z'
loop_
 _atom_site_type_symbol
 _atom_site_label
 _atom_site_symmetry_multiplicity
 _atom_site_fract_x
 _atom_site_fract_y
 _atom_site_fract_z
 _atom_site_occupancy
  Cs  Cs0  1  -0.00000138  0.00013221  -0.00099294  1
  Cs  Cs1  1  -0.00102968  -0.00197054  0.33435897  1
  Cs  Cs2  1  -0.00029345  -0.00185262  0.66621025  1
  Cs  Cs3  1  0.00033182  0.33389134  0.00023444  1
  Cs  Cs4  1  -0.00118738  0.33334606  0.33436802  1
  Cs  Cs5  1  0.00037808  0.33538262  0.66557865  1
  Cs  Cs6  1  -0.00096601  0.66597852  -0.00341443  1
  Cs  Cs7  1  0.00132888  0.66834835  0.33458647  1
  Cs  Cs8  1  0.00062190  0.66566955  0.66846532  1
  Cs  Cs9  1  0.33301284  0.00110516  -0.00308570  1
  Cs  Cs10  1  0.33136331  -0.00531191  0.33160300  1
  Cs  Cs11  1  0.33474251  0.00024601  0.67116643  1
  Cs  Cs12  1  0.32978799  0.33106582  0.00116255  1
  Cs  Cs13  1  0.33344021  0.33561328  0.33376529  1
  Cs  Cs14  1  0.33211745  0.33167250  0.66645704  1
  Cs  Cs15  1  0.33877546  0.66800664  0.00932760  1
  Cs  Cs16  1  0.34046829  0.67177921  0.32523812  1
  Cs  Cs17  1  0.33665629  0.66766780  0.66473811  1
  Cs  Cs18  1  0.66810851  0.00009857  0.00102382  1
  Cs  Cs19  1  0.66990198  0.00415602  0.33376463  1
  Cs  Cs20  1  0.66644142  -0.00083657  0.66638400  1
  Cs  Cs21  1  0.66869909  0.33473488  -0.00185973  1
  Cs  Cs22  1  0.66820838  0.33007209  0.33426644  1
  Cs  Cs23  1  0.66667348  0.33476992  0.66695060  1
  Cs  Cs24  1  0.66402501  0.66499354  -0.00214378  1
  Cs  Cs25  1  0.66157527  0.66763835  0.33507004  1
  Cs  Cs26  1  0.65841420  0.66474027  0.66646181  1
  Sn  Sn27  1  0.83372223  0.16604376  0.83310755  1
  Sn  Sn28  1  0.83367437  0.83299225  0.16603079  1
  Sn  Sn29  1  0.83300645  0.16678524  0.16651678  1
  Sn  Sn30  1  0.83411771  0.49955574  0.49932465  1
  Sn  Sn31  1  0.83370585  0.50029159  0.16774512  1
  Sn  Sn32  1  0.49981946  0.16677602  0.49909923  1
  Sn  Sn33  1  0.50058849  0.16686949  0.16733509  1
  Sn  Sn34  1  0.16616580  0.49987813  0.50036094  1
  Sn  Sn35  1  0.16657583  0.50116713  0.83288324  1
  Sn  Sn36  1  0.83380596  0.83377072  0.83376324  1
  Sn  Sn37  1  0.16596778  0.83182393  0.83322887  1
  Sn  Sn38  1  0.16650741  0.16706318  0.49987823  1
  Sn  Sn39  1  0.83369724  0.16740881  0.50035128  1
  Pb  Pb40  1  0.83325582  0.83255173  0.50047084  1
  Pb  Pb41  1  0.50317538  0.49693008  0.16677814  1
  Pb  Pb42  1  0.16465997  0.50003381  0.16743308  1
  Pb  Pb43  1  0.50277826  0.16688115  0.83350812  1
  Pb  Pb44  1  0.49956640  0.49779549  0.49992781  1
  Pb  Pb45  1  0.16415284  0.83342739  0.16387304  1
  Pb  Pb46  1  0.16659473  0.83253560  0.50199054  1
  Pb  Pb47  1  0.16429687  0.16681740  0.83115782  1
  Pb  Pb48  1  0.49564992  0.49972043  0.83340708  1
  Pb  Pb49  1  0.50327621  0.83652236  0.16652364  1
  Pb  Pb50  1  0.16625388  0.16666516  0.16943833  1
  Pb  Pb51  1  0.49992734  0.83663176  0.49990587  1
  Pb  Pb52  1  0.50032416  0.83335255  0.83355974  1
  Pb  Pb53  1  0.83426592  0.50032468  0.83283010  1
  I  I54  1  0.16415922  0.00022234  0.16717216  1
  I  I55  1  0.16490404  0.00314219  0.50045905  1
  I  I56  1  0.16356645  -0.00208034  0.83220967  1
  I  I57  1  0.16412165  0.33325776  0.16055792  1
  I  I58  1  0.16472575  0.33312264  0.50602773  1
  I  I59  1  0.16427421  0.33568044  0.83077371  1
  I  I60  1  0.16417392  0.66666109  0.17104310  1
  I  I61  1  0.15784382  0.66294685  0.50342990  1
  I  I62  1  0.15716622  0.66656722  0.82677646  1
  I  I63  1  0.50666294  0.00424479  0.17152108  1
  I  I64  1  0.50243788  0.00535551  0.49674665  1
  I  I65  1  0.49530834  0.00033563  0.83204470  1
  I  I66  1  0.50634651  0.32906438  0.17113537  1
  I  I67  1  0.50169397  0.32942611  0.49608125  1
  I  I68  1  0.50190965  0.33289787  0.83349143  1
  I  I69  1  0.50041408  0.66676795  0.16605332  1
  I  I70  1  0.50114017  0.66638007  0.50147354  1
  I  I71  1  0.50687596  0.66667197  0.83229344  1
  I  I72  1  0.82963724  0.00116801  0.16613275  1
  I  I73  1  0.83360237  0.00341252  0.49786606  1
  I  I74  1  0.83838062  0.00049050  0.83595836  1
  I  I75  1  0.82994522  0.33231845  0.16720000  1
  I  I76  1  0.83393282  0.33191390  0.49756845  1
  I  I77  1  0.83439544  0.33079058  0.83536830  1
  I  I78  1  0.83707983  0.66651214  0.16586164  1
  I  I79  1  0.83972353  0.66310085  0.49705859  1
  I  I80  1  0.83665186  0.66917858  0.83726583  1
  I  I81  1  0.16666938  0.16700982  -0.00022904  1
  I  I82  1  0.16164609  0.17294498  0.33769054  1
  I  I83  1  0.16613357  0.16769145  0.66305155  1
  I  I84  1  0.16370322  0.50335222  -0.00269765  1
  I  I85  1  0.16287637  0.49286575  0.33702127  1
  I  I86  1  0.15897576  0.49884054  0.66570084  1
  I  I87  1  0.16346284  0.82869207  -0.00431976  1
  I  I88  1  0.16558925  0.83400632  0.33327914  1
  I  I89  1  0.15760986  0.83356354  0.66997666  1
  I  I90  1  0.50608373  0.16611376  0.00311386  1
  I  I91  1  0.50723178  0.16721253  0.33394164  1
  I  I92  1  0.50111055  0.16706296  0.66339463  1
  I  I93  1  0.50160914  0.49721956  0.00023835  1
  I  I94  1  0.49556268  0.50171030  0.33337133  1
  I  I95  1  0.50682547  0.49719276  0.66640201  1
  I  I96  1  0.49781451  0.83671685  0.00014538  1
  I  I97  1  0.50075451  0.83128972  0.33301074  1
  I  I98  1  0.50342167  0.83585214  0.66684761  1
  I  I99  1  0.82894802  0.16653080  0.00074526  1
  I  I100  1  0.83247664  0.16686811  0.33360993  1
  I  I101  1  0.83367221  0.16656492  0.66564716  1
  I  I102  1  0.83481349  0.49639214  0.00214113  1
  I  I103  1  0.83878109  0.49549409  0.33398531  1
  I  I104  1  0.83599288  0.49515127  0.66382335  1
  I  I105  1  0.83753333  0.83792245  -0.00004046  1
  I  I106  1  0.83227635  0.83700417  0.33060322  1
  I  I107  1  0.83790289  0.83848652  0.66983836  1
  I  I108  1  -0.00411217  0.16667361  0.16692533  1
  I  I109  1  -0.00137867  0.17048431  0.50027173  1
  I  I110  1  -0.00409679  0.16528431  0.83465903  1
  I  I111  1  -0.00414241  0.49536366  0.16766335  1
  I  I112  1  -0.00077660  0.49100457  0.50014704  1
  I  I113  1  0.00209498  0.50049955  0.83136048  1
  I  I114  1  -0.00441701  0.83799903  0.16593757  1
  I  I115  1  -0.00030623  0.83940955  0.49769492  1
  I  I116  1  -0.00122383  0.83432712  0.83701115  1
  I  I117  1  0.33614864  0.16702249  0.17080747  1
  I  I118  1  0.33298261  0.17098969  0.49634836  1
  I  I119  1  0.33302783  0.16620096  0.83333403  1
  I  I120  1  0.33347602  0.49847195  0.16567128  1
  I  I121  1  0.32981809  0.49421711  0.50680737  1
  I  I122  1  0.32748752  0.50413537  0.82535148  1
  I  I123  1  0.33361400  0.83450094  0.16585778  1
  I  I124  1  0.33309237  0.83409579  0.50294120  1
  I  I125  1  0.32997709  0.83014528  0.83001454  1
  I  I126  1  0.66908185  0.16615916  0.17169693  1
  I  I127  1  0.66840156  0.16953132  0.49893337  1
  I  I128  1  0.67146991  0.16133453  0.82961949  1
  I  I129  1  0.67183389  0.50188043  0.17195096  1
  I  I130  1  0.67002448  0.49614122  0.49639626  1
  I  I131  1  0.66696742  0.50010708  0.83286322  1
  I  I132  1  0.67156684  0.83148374  0.15987533  1
  I  I133  1  0.66713698  0.83260546  0.50281996  1
  I  I134  1  0.67057392  0.83887746  0.83706333  1
