# generated using pymatgen
data_Cs27Sn14Pb13I81
_symmetry_space_group_name_H-M   'P 1'
_cell_length_a   18.97421923
_cell_length_b   18.97886166
_cell_length_c   18.97424140
_cell_angle_alpha   90.00081019
_cell_angle_beta   89.99949279
_cell_angle_gamma   90.00026909
_symmetry_Int_Tables_number   1
_chemical_formula_structural   Cs27Sn14Pb13I81
_chemical_formula_sum   'Cs27 Sn14 Pb13 I81'
_cell_volume   6832.79664963
_cell_formula_units_Z   1
loop_
 _symmetry_equiv_pos_site_id
 _symmetry_equiv_pos_as_xyz
  1  'x, y, z'
loop_
 _atom_site_type_symbol
 _atom_site_label
 _atom_site_symmetry_multiplicity
 _atom_site_fract_x
 _atom_site_fract_y
 _atom_site_fract_z
 _atom_site_occupancy
  Cs  Cs0  1  -0.00146265  0.00008832  -0.00143233  1
  Cs  Cs1  1  -0.00049625  0.00155732  0.33322533  1
  Cs  Cs2  1  -0.00010088  -0.00198333  0.66883875  1
  Cs  Cs3  1  0.00278848  0.33507369  0.00046769  1
  Cs  Cs4  1  0.00215200  0.33424528  0.33668136  1
  Cs  Cs5  1  -0.00082607  0.33450965  0.66277111  1
  Cs  Cs6  1  -0.00374306  0.66267303  0.00615125  1
  Cs  Cs7  1  -0.00098470  0.66506750  0.32814477  1
  Cs  Cs8  1  0.00126521  0.66747385  0.66658886  1
  Cs  Cs9  1  0.33192963  0.00214436  -0.00303794  1
  Cs  Cs10  1  0.33408076  0.00003472  0.33328090  1
  Cs  Cs11  1  0.33093991  -0.00815341  0.67273108  1
  Cs  Cs12  1  0.33344482  0.33155049  -0.00041838  1
  Cs  Cs13  1  0.33321677  0.33387000  0.33256664  1
  Cs  Cs14  1  0.33182473  0.33317715  0.66646771  1
  Cs  Cs15  1  0.33419429  0.66518864  0.00036050  1
  Cs  Cs16  1  0.33353399  0.66529785  0.33518227  1
  Cs  Cs17  1  0.33257450  0.67342500  0.66536258  1
  Cs  Cs18  1  0.66905480  0.00066737  0.00212897  1
  Cs  Cs19  1  0.66619552  0.00168001  0.33163938  1
  Cs  Cs20  1  0.66910190  -0.00299062  0.66739328  1
  Cs  Cs21  1  0.66404912  0.33243040  -0.00461969  1
  Cs  Cs22  1  0.66245202  0.32910128  0.33782111  1
  Cs  Cs23  1  0.66840748  0.33723674  0.66528583  1
  Cs  Cs24  1  0.67045556  0.66433849  -0.00204903  1
  Cs  Cs25  1  0.66626696  0.66841990  0.33153459  1
  Cs  Cs26  1  0.66630366  0.66582743  0.67138378  1
  Sn  Sn27  1  0.83352127  0.16697727  0.16597070  1
  Sn  Sn28  1  0.16671201  0.16583722  0.16737663  1
  Sn  Sn29  1  0.49967511  0.16661318  0.16713417  1
  Sn  Sn30  1  0.16770389  0.49944017  0.50089514  1
  Sn  Sn31  1  0.83335720  0.83329890  0.50041724  1
  Sn  Sn32  1  0.83356867  0.83392587  0.83246418  1
  Sn  Sn33  1  0.49896892  0.49940492  0.49928284  1
  Sn  Sn34  1  0.16760486  0.83441910  0.16695348  1
  Sn  Sn35  1  0.49853677  0.16664916  0.49998757  1
  Sn  Sn36  1  0.16699980  0.49984572  0.83215120  1
  Sn  Sn37  1  0.50003411  0.49958268  0.16739940  1
  Sn  Sn38  1  0.49901425  0.83366344  0.16664469  1
  Sn  Sn39  1  0.83342977  0.16654917  0.83379772  1
  Sn  Sn40  1  0.16802700  0.16660983  0.49966215  1
  Pb  Pb41  1  0.50172975  0.83360720  0.49822730  1
  Pb  Pb42  1  0.50205892  0.16660926  0.83237250  1
  Pb  Pb43  1  0.82975906  0.49602046  0.16712649  1
  Pb  Pb44  1  0.49750764  0.49984664  0.83242859  1
  Pb  Pb45  1  0.16436424  0.83090259  0.83656820  1
  Pb  Pb46  1  0.83329808  0.83507794  0.16647346  1
  Pb  Pb47  1  0.83573012  0.49958898  0.83329598  1
  Pb  Pb48  1  0.16492519  0.83350562  0.49784752  1
  Pb  Pb49  1  0.16470401  0.16795710  0.83293222  1
  Pb  Pb50  1  0.83294149  0.50267025  0.49974219  1
  Pb  Pb51  1  0.16857841  0.49945331  0.16753672  1
  Pb  Pb52  1  0.50231857  0.83345621  0.83662252  1
  Pb  Pb53  1  0.83332344  0.16530658  0.50001794  1
  I  I54  1  0.17040841  0.00168677  0.17176671  1
  I  I55  1  0.16933684  0.00312729  0.49611476  1
  I  I56  1  0.16657341  -0.00011529  0.83160945  1
  I  I57  1  0.16633161  0.33019881  0.16686233  1
  I  I58  1  0.16846807  0.33270008  0.49739145  1
  I  I59  1  0.16397532  0.33578775  0.83477102  1
  I  I60  1  0.16979180  0.66852474  0.16611972  1
  I  I61  1  0.16978629  0.66391890  0.50226438  1
  I  I62  1  0.16553253  0.66334339  0.82789945  1
  I  I63  1  0.50086246  0.00134268  0.17084709  1
  I  I64  1  0.49826194  0.00318664  0.49421424  1
  I  I65  1  0.49761499  0.00005502  0.83255160  1
  I  I66  1  0.50043990  0.33229383  0.17050630  1
  I  I67  1  0.49742338  0.33286936  0.49119511  1
  I  I68  1  0.50378205  0.33324682  0.83958951  1
  I  I69  1  0.49472602  0.66661165  0.17075419  1
  I  I70  1  0.49703078  0.66386123  0.49487329  1
  I  I71  1  0.50308031  0.66661325  0.83450826  1
  I  I72  1  0.82909608  0.00309820  0.16615569  1
  I  I73  1  0.83306446  -0.00227887  0.50025584  1
  I  I74  1  0.83403091  0.00034170  0.83409038  1
  I  I75  1  0.83667737  0.32801316  0.16100015  1
  I  I76  1  0.83341611  0.33318676  0.50016234  1
  I  I77  1  0.83350370  0.33037013  0.83887514  1
  I  I78  1  0.83412949  0.66664177  0.16552187  1
  I  I79  1  0.83328507  0.67043257  0.50557295  1
  I  I80  1  0.83376697  0.66936838  0.82973559  1
  I  I81  1  0.16881002  0.16502447  0.00318492  1
  I  I82  1  0.16441840  0.16908258  0.33265509  1
  I  I83  1  0.16902000  0.16995730  0.66339430  1
  I  I84  1  0.16633480  0.50058918  -0.00109929  1
  I  I85  1  0.16853555  0.49877901  0.33610791  1
  I  I86  1  0.17067267  0.49394631  0.66469859  1
  I  I87  1  0.16871923  0.83857485  0.00437734  1
  I  I88  1  0.16703126  0.83292051  0.32992247  1
  I  I89  1  0.16596501  0.83517525  0.66665844  1
  I  I90  1  0.49811991  0.16720556  0.00358341  1
  I  I91  1  0.50237801  0.16760639  0.33208912  1
  I  I92  1  0.49772739  0.17328522  0.66275509  1
  I  I93  1  0.49904381  0.49936333  0.00302708  1
  I  I94  1  0.49397640  0.49867597  0.33344177  1
  I  I95  1  0.49973316  0.49383778  0.66284073  1
  I  I96  1  0.49823808  0.83410337  0.00514321  1
  I  I97  1  0.50011518  0.83398191  0.32992710  1
  I  I98  1  0.50071016  0.83288928  0.66655948  1
  I  I99  1  0.83289642  0.15990634  0.00110341  1
  I  I100  1  0.83261459  0.16393074  0.33070354  1
  I  I101  1  0.83370617  0.16362723  0.66879793  1
  I  I102  1  0.83485898  0.50547900  0.00030387  1
  I  I103  1  0.83996899  0.50290959  0.33327855  1
  I  I104  1  0.82903004  0.49568582  0.66651261  1
  I  I105  1  0.83314886  0.83615669  -0.00191247  1
  I  I106  1  0.83304448  0.83462263  0.33470456  1
  I  I107  1  0.83366781  0.84040409  0.66717286  1
  I  I108  1  0.00098671  0.16044220  0.16709607  1
  I  I109  1  0.00273977  0.17002124  0.49608142  1
  I  I110  1  -0.00319017  0.16325218  0.83811065  1
  I  I111  1  0.00017406  0.50172008  0.16638971  1
  I  I112  1  0.00319051  0.49558713  0.50373326  1
  I  I113  1  0.00346498  0.49955299  0.82796635  1
  I  I114  1  0.00217974  0.83749830  0.16695256  1
  I  I115  1  -0.00276088  0.83480164  0.50057017  1
  I  I116  1  -0.00333786  0.83810924  0.83165071  1
  I  I117  1  0.33355542  0.16620526  0.17143107  1
  I  I118  1  0.33320893  0.17144576  0.49010046  1
  I  I119  1  0.33305660  0.16888421  0.83682763  1
  I  I120  1  0.33652758  0.49638182  0.16735424  1
  I  I121  1  0.33334142  0.49595513  0.49895679  1
  I  I122  1  0.32988156  0.49842448  0.83347403  1
  I  I123  1  0.33367320  0.83796709  0.16820288  1
  I  I124  1  0.33330708  0.83297070  0.50004168  1
  I  I125  1  0.33295796  0.83219337  0.83242979  1
  I  I126  1  0.66559652  0.16583155  0.16727307  1
  I  I127  1  0.66388968  0.17011244  0.49554833  1
  I  I128  1  0.67017380  0.16305703  0.83857604  1
  I  I129  1  0.66164753  0.50332651  0.17224932  1
  I  I130  1  0.66309513  0.49512380  0.49485680  1
  I  I131  1  0.66666530  0.50082755  0.83401911  1
  I  I132  1  0.66415468  0.83421067  0.16725869  1
  I  I133  1  0.66949701  0.83463918  0.50075252  1
  I  I134  1  0.67043103  0.83654148  0.83117710  1
