# generated using pymatgen
data_Cs27Sn13Pb14I81
_symmetry_space_group_name_H-M   'P 1'
_cell_length_a   18.98060659
_cell_length_b   18.97598127
_cell_length_c   18.97635349
_cell_angle_alpha   90.00004970
_cell_angle_beta   90.00110890
_cell_angle_gamma   89.99905016
_symmetry_Int_Tables_number   1
_chemical_formula_structural   Cs27Sn13Pb14I81
_chemical_formula_sum   'Cs27 Sn13 Pb14 I81'
_cell_volume   6834.82016953
_cell_formula_units_Z   1
loop_
 _symmetry_equiv_pos_site_id
 _symmetry_equiv_pos_as_xyz
  1  'x, y, z'
loop_
 _atom_site_type_symbol
 _atom_site_label
 _atom_site_symmetry_multiplicity
 _atom_site_fract_x
 _atom_site_fract_y
 _atom_site_fract_z
 _atom_site_occupancy
  Cs  Cs0  1  -0.00744394  -0.00183654  0.00116585  1
  Cs  Cs1  1  -0.00747270  0.00576337  0.33381322  1
  Cs  Cs2  1  -0.00659702  0.00037964  0.66549575  1
  Cs  Cs3  1  0.00146696  0.33347817  -0.00045708  1
  Cs  Cs4  1  0.00222902  0.33241918  0.33405849  1
  Cs  Cs5  1  0.00107989  0.33196458  0.66618145  1
  Cs  Cs6  1  0.00189107  0.66764777  0.00083609  1
  Cs  Cs7  1  0.00033334  0.66516796  0.33229020  1
  Cs  Cs8  1  0.00196239  0.66765495  0.66778988  1
  Cs  Cs9  1  0.33528602  -0.00018600  -0.00151484  1
  Cs  Cs10  1  0.33391870  -0.00081035  0.33355264  1
  Cs  Cs11  1  0.33307193  -0.00470164  0.66650543  1
  Cs  Cs12  1  0.33344057  0.33090655  0.00072534  1
  Cs  Cs13  1  0.33304424  0.33331009  0.33365491  1
  Cs  Cs14  1  0.33218239  0.33388850  0.66487496  1
  Cs  Cs15  1  0.33164744  0.66837957  0.00221650  1
  Cs  Cs16  1  0.33402157  0.66593735  0.33359218  1
  Cs  Cs17  1  0.33288668  0.66837482  0.66518395  1
  Cs  Cs18  1  0.67309316  0.01007190  -0.00502459  1
  Cs  Cs19  1  0.67197779  -0.00167876  0.33235292  1
  Cs  Cs20  1  0.67373400  0.00131844  0.67029572  1
  Cs  Cs21  1  0.66564471  0.32765148  -0.00889261  1
  Cs  Cs22  1  0.66327351  0.33617108  0.33278038  1
  Cs  Cs23  1  0.66679605  0.33416520  0.67364666  1
  Cs  Cs24  1  0.66793014  0.66619328  -0.00374245  1
  Cs  Cs25  1  0.66457276  0.66659216  0.33349706  1
  Cs  Cs26  1  0.66683524  0.66597985  0.67067524  1
  Sn  Sn27  1  0.49951603  0.83334978  0.49918147  1
  Sn  Sn28  1  0.50028702  0.50067551  0.16702826  1
  Sn  Sn29  1  0.16733774  0.49920280  0.83338501  1
  Sn  Sn30  1  0.83284205  0.50008035  0.16732015  1
  Sn  Sn31  1  0.16732488  0.83290845  0.16826895  1
  Sn  Sn32  1  0.16716030  0.16673754  0.83317296  1
  Sn  Sn33  1  0.16693677  0.83282586  0.49842059  1
  Sn  Sn34  1  0.83326241  0.50025025  0.49921139  1
  Sn  Sn35  1  0.16657922  0.50057975  0.49991202  1
  Sn  Sn36  1  0.49985831  0.16624169  0.49974231  1
  Sn  Sn37  1  0.16692939  0.50038775  0.16676658  1
  Sn  Sn38  1  0.50021219  0.50025118  0.49945596  1
  Sn  Sn39  1  0.49962026  0.83274128  0.16713732  1
  Pb  Pb40  1  0.83005379  0.17010679  0.49976557  1
  Pb  Pb41  1  0.16818093  0.16593960  0.50132264  1
  Pb  Pb42  1  0.49998869  0.83325584  0.83394248  1
  Pb  Pb43  1  0.83668795  0.16718966  0.83305061  1
  Pb  Pb44  1  0.16682748  0.16577317  0.16495922  1
  Pb  Pb45  1  0.16668415  0.83340135  0.83350124  1
  Pb  Pb46  1  0.83332370  0.83276404  0.83347133  1
  Pb  Pb47  1  0.49979091  0.16624536  0.16869063  1
  Pb  Pb48  1  0.83313422  0.83064531  0.49987511  1
  Pb  Pb49  1  0.83319223  0.17042002  0.16707004  1
  Pb  Pb50  1  0.83275940  0.83096713  0.16681837  1
  Pb  Pb51  1  0.49741801  0.16660971  0.83031046  1
  Pb  Pb52  1  0.49726442  0.50030610  0.83376636  1
  Pb  Pb53  1  0.83632307  0.50027497  0.83346937  1
  I  I54  1  0.17305358  -0.00403742  0.16952713  1
  I  I55  1  0.17269944  -0.00355389  0.49810737  1
  I  I56  1  0.16820769  0.00237599  0.83218091  1
  I  I57  1  0.16702179  0.33717998  0.16927875  1
  I  I58  1  0.16755959  0.33688646  0.49801562  1
  I  I59  1  0.16699008  0.33549926  0.83263652  1
  I  I60  1  0.16713667  0.66491936  0.16511631  1
  I  I61  1  0.17053621  0.66503543  0.50178647  1
  I  I62  1  0.16611225  0.66360792  0.83292273  1
  I  I63  1  0.49207018  -0.00385951  0.17146903  1
  I  I64  1  0.49196946  -0.00150846  0.49670893  1
  I  I65  1  0.49584953  0.00001126  0.83349560  1
  I  I66  1  0.49856271  0.33705814  0.17154396  1
  I  I67  1  0.49909961  0.33556439  0.49637441  1
  I  I68  1  0.50017410  0.33363993  0.83309210  1
  I  I69  1  0.49784891  0.66538058  0.17469469  1
  I  I70  1  0.49834161  0.66574875  0.49613001  1
  I  I71  1  0.49793091  0.66650286  0.82825517  1
  I  I72  1  0.83431478  -0.00020452  0.16462246  1
  I  I73  1  0.83442159  -0.00000291  0.50214828  1
  I  I74  1  0.83575837  0.00036723  0.83316704  1
  I  I75  1  0.83493776  0.33898151  0.17152597  1
  I  I76  1  0.83636206  0.33839793  0.49573913  1
  I  I77  1  0.83193518  0.33389946  0.83359664  1
  I  I78  1  0.83484009  0.66260218  0.17149023  1
  I  I79  1  0.83069191  0.66242524  0.49581727  1
  I  I80  1  0.83543573  0.66573718  0.83256294  1
  I  I81  1  0.16745401  0.17334294  -0.00293366  1
  I  I82  1  0.16760484  0.17018098  0.33352086  1
  I  I83  1  0.16909656  0.17319441  0.66909720  1
  I  I84  1  0.16617605  0.50022124  0.00143336  1
  I  I85  1  0.16667436  0.50374878  0.33357157  1
  I  I86  1  0.16680036  0.50005936  0.66500809  1
  I  I87  1  0.17117783  0.82852835  0.00351089  1
  I  I88  1  0.17176605  0.82374133  0.33365077  1
  I  I89  1  0.17166069  0.82874542  0.66328564  1
  I  I90  1  0.50012669  0.16738895  -0.00010078  1
  I  I91  1  0.49685670  0.16957961  0.33673733  1
  I  I92  1  0.49857523  0.16913252  0.66223806  1
  I  I93  1  0.49998185  0.50494965  0.00386439  1
  I  I94  1  0.49641296  0.49986835  0.33416424  1
  I  I95  1  0.50029774  0.50051300  0.66293147  1
  I  I96  1  0.49313948  0.82565350  0.00429148  1
  I  I97  1  0.49477782  0.83104100  0.33415130  1
  I  I98  1  0.49430074  0.83119353  0.66260445  1
  I  I99  1  0.83230692  0.16803487  -0.00012260  1
  I  I100  1  0.83605070  0.16444853  0.33372801  1
  I  I101  1  0.83263859  0.16890788  0.66633468  1
  I  I102  1  0.83357496  0.50124218  0.00340976  1
  I  I103  1  0.83747093  0.50034129  0.33357663  1
  I  I104  1  0.83226807  0.50003283  0.66334864  1
  I  I105  1  0.83543919  0.82966817  0.00063141  1
  I  I106  1  0.83460159  0.83535782  0.33340407  1
  I  I107  1  0.83448637  0.83055117  0.66605909  1
  I  I108  1  0.00016239  0.16647158  0.16623272  1
  I  I109  1  -0.00009021  0.16672039  0.50240116  1
  I  I110  1  0.00430695  0.17275547  0.83142551  1
  I  I111  1  0.00142587  0.50308185  0.16875501  1
  I  I112  1  0.00155642  0.50402308  0.49810372  1
  I  I113  1  0.00451285  0.49689740  0.83283527  1
  I  I114  1  0.00332873  0.82851150  0.16894275  1
  I  I115  1  0.00351970  0.82828585  0.49770564  1
  I  I116  1  0.00082600  0.83293964  0.83297978  1
  I  I117  1  0.33329377  0.17272708  0.16577265  1
  I  I118  1  0.33601183  0.17258445  0.50072137  1
  I  I119  1  0.32998241  0.17239333  0.83405189  1
  I  I120  1  0.33293950  0.50295936  0.16906180  1
  I  I121  1  0.33322052  0.49984096  0.49866293  1
  I  I122  1  0.32917166  0.49709419  0.83224402  1
  I  I123  1  0.33289222  0.82444302  0.17056947  1
  I  I124  1  0.33322759  0.82834507  0.49760043  1
  I  I125  1  0.33304085  0.83305998  0.83243874  1
  I  I126  1  0.66644209  0.16590591  0.16681242  1
  I  I127  1  0.66204536  0.16511833  0.49899925  1
  I  I128  1  0.66670920  0.16630274  0.83314534  1
  I  I129  1  0.66550305  0.50425197  0.17613846  1
  I  I130  1  0.66539593  0.49984639  0.49272225  1
  I  I131  1  0.66659310  0.49955573  0.83284696  1
  I  I132  1  0.66284918  0.82776369  0.17318347  1
  I  I133  1  0.66285535  0.83244451  0.49546484  1
  I  I134  1  0.66639718  0.83302064  0.83221048  1
