# generated using pymatgen
data_Cs27Sn14Pb13I81
_symmetry_space_group_name_H-M   'P 1'
_cell_length_a   18.97471354
_cell_length_b   18.97573653
_cell_length_c   18.97632326
_cell_angle_alpha   90.00027088
_cell_angle_beta   90.00060511
_cell_angle_gamma   90.00059508
_symmetry_Int_Tables_number   1
_chemical_formula_structural   Cs27Sn14Pb13I81
_chemical_formula_sum   'Cs27 Sn14 Pb13 I81'
_cell_volume   6832.59910057
_cell_formula_units_Z   1
loop_
 _symmetry_equiv_pos_site_id
 _symmetry_equiv_pos_as_xyz
  1  'x, y, z'
loop_
 _atom_site_type_symbol
 _atom_site_label
 _atom_site_symmetry_multiplicity
 _atom_site_fract_x
 _atom_site_fract_y
 _atom_site_fract_z
 _atom_site_occupancy
  Cs  Cs0  1  0.00211553  0.00100126  -0.00143143  1
  Cs  Cs1  1  -0.00076367  -0.00222422  0.33207122  1
  Cs  Cs2  1  -0.00203283  -0.00054941  0.66785289  1
  Cs  Cs3  1  0.00178570  0.33105173  0.00222231  1
  Cs  Cs4  1  -0.00058810  0.33702230  0.33392653  1
  Cs  Cs5  1  0.00367700  0.33086657  0.66186728  1
  Cs  Cs6  1  0.00076551  0.66756197  0.00056532  1
  Cs  Cs7  1  -0.00346237  0.66534253  0.33687505  1
  Cs  Cs8  1  -0.00704172  0.66913046  0.66214869  1
  Cs  Cs9  1  0.33165402  -0.00250782  -0.00001084  1
  Cs  Cs10  1  0.33809778  -0.00210365  0.33328360  1
  Cs  Cs11  1  0.33353141  0.00046730  0.66668341  1
  Cs  Cs12  1  0.33048549  0.33667259  -0.00281787  1
  Cs  Cs13  1  0.33386828  0.33394259  0.33845124  1
  Cs  Cs14  1  0.33240309  0.33279042  0.66536623  1
  Cs  Cs15  1  0.33272118  0.66658204  0.00158460  1
  Cs  Cs16  1  0.33396692  0.66832623  0.33157465  1
  Cs  Cs17  1  0.33497412  0.66732811  0.66637673  1
  Cs  Cs18  1  0.66661392  0.00154841  0.00291277  1
  Cs  Cs19  1  0.66387471  0.00340251  0.32939828  1
  Cs  Cs20  1  0.66843293  -0.00182913  0.66604059  1
  Cs  Cs21  1  0.67006502  0.33586400  0.00174543  1
  Cs  Cs22  1  0.66697909  0.32985885  0.32697129  1
  Cs  Cs23  1  0.66413306  0.33277203  0.67089107  1
  Cs  Cs24  1  0.66879388  0.66140540  -0.00395106  1
  Cs  Cs25  1  0.66730831  0.66657146  0.33573952  1
  Cs  Cs26  1  0.66991480  0.66724119  0.66706467  1
  Sn  Sn27  1  0.49907494  0.50009827  0.16755004  1
  Sn  Sn28  1  0.49918414  0.83262416  0.50085666  1
  Sn  Sn29  1  0.16724646  0.83294988  0.83217150  1
  Sn  Sn30  1  0.83327625  0.16677371  0.50040605  1
  Sn  Sn31  1  0.49971039  0.16579891  0.83356038  1
  Sn  Sn32  1  0.16727428  0.16730070  0.16664827  1
  Sn  Sn33  1  0.16759649  0.49908654  0.16628093  1
  Sn  Sn34  1  0.16653038  0.50033911  0.83338251  1
  Sn  Sn35  1  0.83346897  0.16658704  0.83258704  1
  Sn  Sn36  1  0.16697723  0.16668613  0.83382354  1
  Sn  Sn37  1  0.83315525  0.83317034  0.16625332  1
  Sn  Sn38  1  0.49931874  0.83404741  0.83273997  1
  Sn  Sn39  1  0.49986137  0.50048803  0.49925947  1
  Sn  Sn40  1  0.16734336  0.83348908  0.50088271  1
  Pb  Pb41  1  0.83716258  0.49687866  0.83314498  1
  Pb  Pb42  1  0.82987345  0.49700929  0.50016156  1
  Pb  Pb43  1  0.83400254  0.50216284  0.16659375  1
  Pb  Pb44  1  0.83577438  0.16527695  0.16628459  1
  Pb  Pb45  1  0.50205407  0.83118756  0.16601683  1
  Pb  Pb46  1  0.50183016  0.16632362  0.50206626  1
  Pb  Pb47  1  0.49826644  0.50041543  0.83321468  1
  Pb  Pb48  1  0.16558498  0.83287820  0.16653023  1
  Pb  Pb49  1  0.16541443  0.16428733  0.49996038  1
  Pb  Pb50  1  0.16832492  0.50247894  0.49999359  1
  Pb  Pb51  1  0.83246495  0.83523052  0.49829220  1
  Pb  Pb52  1  0.83319658  0.83522866  0.83505125  1
  Pb  Pb53  1  0.49709932  0.16914859  0.16369828  1
  I  I54  1  0.16281078  0.00194463  0.16242512  1
  I  I55  1  0.17212343  -0.00361760  0.50328003  1
  I  I56  1  0.16678005  0.00034510  0.83412766  1
  I  I57  1  0.16867063  0.33360729  0.15759572  1
  I  I58  1  0.16683299  0.33336357  0.50217205  1
  I  I59  1  0.16653060  0.33254277  0.83881691  1
  I  I60  1  0.16919378  0.66395461  0.16271921  1
  I  I61  1  0.16736614  0.67041036  0.50331241  1
  I  I62  1  0.17355950  0.66747221  0.83528011  1
  I  I63  1  0.50000499  0.00006366  0.16936635  1
  I  I64  1  0.49742048  -0.00300243  0.50252934  1
  I  I65  1  0.49533182  -0.00052927  0.82789897  1
  I  I66  1  0.49986477  0.33696964  0.17195430  1
  I  I67  1  0.50157664  0.33560343  0.49771909  1
  I  I68  1  0.49930386  0.33096052  0.83319190  1
  I  I69  1  0.49275978  0.66355750  0.16548826  1
  I  I70  1  0.49574265  0.66779244  0.50200240  1
  I  I71  1  0.49470869  0.66945831  0.83314144  1
  I  I72  1  0.83530678  -0.00218542  0.16678420  1
  I  I73  1  0.83271346  0.00266541  0.50437660  1
  I  I74  1  0.83834696  0.00321114  0.83079677  1
  I  I75  1  0.83181673  0.33325853  0.16653385  1
  I  I76  1  0.83501512  0.32930362  0.50405590  1
  I  I77  1  0.83011992  0.32859704  0.83140472  1
  I  I78  1  0.83612295  0.66965753  0.16717525  1
  I  I79  1  0.83556335  0.66687199  0.49759497  1
  I  I80  1  0.83272120  0.66677221  0.83537178  1
  I  I81  1  0.16428861  0.16524729  -0.00191643  1
  I  I82  1  0.16291477  0.17014447  0.33088804  1
  I  I83  1  0.16793220  0.16931763  0.67015567  1
  I  I84  1  0.17283030  0.50083938  -0.00016658  1
  I  I85  1  0.16858211  0.49624916  0.33059989  1
  I  I86  1  0.16902108  0.49565865  0.66951214  1
  I  I87  1  0.16945962  0.83427993  -0.00318581  1
  I  I88  1  0.16898697  0.83408060  0.33561191  1
  I  I89  1  0.16988131  0.83430914  0.66815514  1
  I  I90  1  0.50468221  0.16114371  -0.00438085  1
  I  I91  1  0.50138014  0.16443154  0.33313460  1
  I  I92  1  0.49430677  0.16824392  0.67027328  1
  I  I93  1  0.49745033  0.49989609  0.00191537  1
  I  I94  1  0.49387298  0.50568207  0.33333365  1
  I  I95  1  0.49845606  0.50072710  0.66467417  1
  I  I96  1  0.49567551  0.83645913  -0.00328321  1
  I  I97  1  0.49660970  0.83110589  0.33599045  1
  I  I98  1  0.49621039  0.83145158  0.66701357  1
  I  I99  1  0.83267914  0.16465618  -0.00299529  1
  I  I100  1  0.83436216  0.16400704  0.33525971  1
  I  I101  1  0.83617926  0.16480462  0.66826657  1
  I  I102  1  0.82683082  0.49904853  -0.00013146  1
  I  I103  1  0.83844382  0.49789209  0.33337679  1
  I  I104  1  0.83285070  0.50382549  0.66673554  1
  I  I105  1  0.83468909  0.83581287  0.00233811  1
  I  I106  1  0.83566618  0.83641197  0.33096581  1
  I  I107  1  0.83403813  0.83345113  0.66682930  1
  I  I108  1  0.00353201  0.17160771  0.16030819  1
  I  I109  1  -0.00229409  0.16356814  0.50605300  1
  I  I110  1  0.00134201  0.16640113  0.83389610  1
  I  I111  1  0.00364514  0.49684821  0.16136522  1
  I  I112  1  0.00016051  0.50151171  0.49940964  1
  I  I113  1  0.00541966  0.50210910  0.84072818  1
  I  I114  1  -0.00181947  0.83328026  0.16653248  1
  I  I115  1  0.00232054  0.83517945  0.50329066  1
  I  I116  1  0.00331076  0.83424477  0.83112257  1
  I  I117  1  0.32922702  0.16560418  0.16137345  1
  I  I118  1  0.33353600  0.16786262  0.50035286  1
  I  I119  1  0.33234633  0.16573333  0.83783145  1
  I  I120  1  0.33234884  0.49758266  0.16557034  1
  I  I121  1  0.33624511  0.50043014  0.49909133  1
  I  I122  1  0.33017244  0.49551041  0.83479035  1
  I  I123  1  0.33339751  0.83484237  0.16712853  1
  I  I124  1  0.33385007  0.83114201  0.50337318  1
  I  I125  1  0.33264081  0.83854955  0.83030067  1
  I  I126  1  0.66646325  0.16713703  0.16570511  1
  I  I127  1  0.66952563  0.16467076  0.50575739  1
  I  I128  1  0.66625233  0.16138808  0.82746962  1
  I  I129  1  0.66388744  0.50215005  0.17058827  1
  I  I130  1  0.66195430  0.50795121  0.49509845  1
  I  I131  1  0.66651840  0.49971899  0.83434078  1
  I  I132  1  0.66929489  0.83387152  0.16719094  1
  I  I133  1  0.66326649  0.83004389  0.50398556  1
  I  I134  1  0.66352753  0.83735307  0.83044721  1
