# generated using pymatgen
data_Cs27Sn13Pb14I81
_symmetry_space_group_name_H-M   'P 1'
_cell_length_a   18.97415147
_cell_length_b   18.98137748
_cell_length_c   18.97657528
_cell_angle_alpha   90.00135463
_cell_angle_beta   89.99888442
_cell_angle_gamma   89.99889144
_symmetry_Int_Tables_number   1
_chemical_formula_structural   Cs27Sn13Pb14I81
_chemical_formula_sum   'Cs27 Sn13 Pb14 I81'
_cell_volume   6834.51854875
_cell_formula_units_Z   1
loop_
 _symmetry_equiv_pos_site_id
 _symmetry_equiv_pos_as_xyz
  1  'x, y, z'
loop_
 _atom_site_type_symbol
 _atom_site_label
 _atom_site_symmetry_multiplicity
 _atom_site_fract_x
 _atom_site_fract_y
 _atom_site_fract_z
 _atom_site_occupancy
  Cs  Cs0  1  -0.00060042  0.00959489  -0.00189413  1
  Cs  Cs1  1  0.00070063  -0.00107723  0.33374798  1
  Cs  Cs2  1  0.00030141  0.00029517  0.66560845  1
  Cs  Cs3  1  -0.00723520  0.32610784  -0.00698040  1
  Cs  Cs4  1  0.00031647  0.33240209  0.33051489  1
  Cs  Cs5  1  0.00035330  0.34032940  0.67488965  1
  Cs  Cs6  1  -0.00184253  0.66359276  -0.00112793  1
  Cs  Cs7  1  -0.00566668  0.66864664  0.33406981  1
  Cs  Cs8  1  -0.00059987  0.65838968  0.66888416  1
  Cs  Cs9  1  0.33277950  -0.00245229  -0.00047110  1
  Cs  Cs10  1  0.33302591  0.00001945  0.33365134  1
  Cs  Cs11  1  0.33397199  -0.00199400  0.66594822  1
  Cs  Cs12  1  0.33443147  0.33323349  0.00315349  1
  Cs  Cs13  1  0.33428821  0.33397854  0.33335194  1
  Cs  Cs14  1  0.33380623  0.33621525  0.66418301  1
  Cs  Cs15  1  0.33445868  0.66894261  0.00157910  1
  Cs  Cs16  1  0.33302724  0.66696104  0.33079419  1
  Cs  Cs17  1  0.33026103  0.66636507  0.66806174  1
  Cs  Cs18  1  0.66600014  -0.00107539  -0.00123195  1
  Cs  Cs19  1  0.66688055  -0.00127127  0.33535879  1
  Cs  Cs20  1  0.66581726  -0.00050519  0.66548449  1
  Cs  Cs21  1  0.66829851  0.33400095  -0.00097054  1
  Cs  Cs22  1  0.66398736  0.33493446  0.33394266  1
  Cs  Cs23  1  0.66553277  0.33317983  0.66693008  1
  Cs  Cs24  1  0.66631633  0.66676983  0.00128777  1
  Cs  Cs25  1  0.67279978  0.66765906  0.33436748  1
  Cs  Cs26  1  0.66920995  0.66739934  0.66452497  1
  Sn  Sn27  1  0.16711058  0.50048696  0.16658666  1
  Sn  Sn28  1  0.49945953  0.50034894  0.16596368  1
  Sn  Sn29  1  0.49967764  0.16578000  0.50001689  1
  Sn  Sn30  1  0.49910265  0.83372863  0.49918712  1
  Sn  Sn31  1  0.49958102  0.49962264  0.83394741  1
  Sn  Sn32  1  0.83364610  0.16694193  0.49991956  1
  Sn  Sn33  1  0.49984876  0.16631873  0.16664299  1
  Sn  Sn34  1  0.16670656  0.16636081  0.50007616  1
  Sn  Sn35  1  0.16717024  0.83265403  0.16725913  1
  Sn  Sn36  1  0.49958242  0.16732179  0.83318646  1
  Sn  Sn37  1  0.49951485  0.83328189  0.16777165  1
  Sn  Sn38  1  0.16752748  0.83368237  0.49930745  1
  Sn  Sn39  1  0.83355619  0.83359434  0.83337175  1
  Pb  Pb40  1  0.83069136  0.16496025  0.83083637  1
  Pb  Pb41  1  0.83393269  0.83476003  0.50159747  1
  Pb  Pb42  1  0.16954313  0.16658272  0.83032272  1
  Pb  Pb43  1  0.50085712  0.83310443  0.83314085  1
  Pb  Pb44  1  0.16852122  0.16642955  0.16834946  1
  Pb  Pb45  1  0.16682885  0.50045706  0.49745546  1
  Pb  Pb46  1  0.16406955  0.83334661  0.83360643  1
  Pb  Pb47  1  0.83353497  0.49986837  0.16663986  1
  Pb  Pb48  1  0.49997845  0.50074331  0.49951481  1
  Pb  Pb49  1  0.83354279  0.49658848  0.49990532  1
  Pb  Pb50  1  0.83025880  0.50218248  0.83355205  1
  Pb  Pb51  1  0.83401668  0.83361067  0.16465871  1
  Pb  Pb52  1  0.16943490  0.49995072  0.83688245  1
  Pb  Pb53  1  0.83039333  0.16644488  0.16905087  1
  I  I54  1  0.17140908  -0.00303986  0.16913329  1
  I  I55  1  0.16840183  -0.00041402  0.49427825  1
  I  I56  1  0.16890868  -0.00003782  0.83813726  1
  I  I57  1  0.17332144  0.33548519  0.16954363  1
  I  I58  1  0.16920679  0.33021215  0.49852503  1
  I  I59  1  0.16442599  0.33325181  0.83251399  1
  I  I60  1  0.17685503  0.66779309  0.17209596  1
  I  I61  1  0.17327498  0.67036376  0.49874155  1
  I  I62  1  0.16845346  0.66670562  0.82773055  1
  I  I63  1  0.49700088  -0.00035100  0.16728480  1
  I  I64  1  0.50004349  0.00079045  0.49785116  1
  I  I65  1  0.50234965  0.00250072  0.83447314  1
  I  I66  1  0.49668092  0.33317354  0.16685396  1
  I  I67  1  0.49999429  0.33003120  0.49807850  1
  I  I68  1  0.50038817  0.33250808  0.83567385  1
  I  I69  1  0.49601986  0.66715938  0.16528543  1
  I  I70  1  0.49548436  0.67036764  0.49828856  1
  I  I71  1  0.50222013  0.66443275  0.83716972  1
  I  I72  1  0.83252386  -0.00002050  0.16518985  1
  I  I73  1  0.83046437  0.00266787  0.50120893  1
  I  I74  1  0.82970855  -0.00235817  0.83356204  1
  I  I75  1  0.83350729  0.33311370  0.16765422  1
  I  I76  1  0.82956981  0.32826163  0.49976781  1
  I  I77  1  0.83397285  0.33317858  0.83193098  1
  I  I78  1  0.82772997  0.66688005  0.16690127  1
  I  I79  1  0.83201684  0.66698799  0.50166301  1
  I  I80  1  0.83075580  0.66964307  0.83152137  1
  I  I81  1  0.16805027  0.16564469  0.00020695  1
  I  I82  1  0.16990631  0.16548233  0.33669540  1
  I  I83  1  0.16949404  0.15929023  0.66184931  1
  I  I84  1  0.17067572  0.50794273  0.00480470  1
  I  I85  1  0.17651075  0.50023335  0.32975542  1
  I  I86  1  0.16689156  0.50028481  0.66675749  1
  I  I87  1  0.17255995  0.82875617  0.00368477  1
  I  I88  1  0.17140708  0.83405647  0.33345027  1
  I  I89  1  0.17178388  0.83907575  0.66313316  1
  I  I90  1  0.49998517  0.16662650  0.00066122  1
  I  I91  1  0.50015271  0.16652897  0.33390073  1
  I  I92  1  0.50063035  0.16618859  0.66539534  1
  I  I93  1  0.49674626  0.49709513  0.00121923  1
  I  I94  1  0.49597766  0.49664322  0.32989637  1
  I  I95  1  0.50210424  0.49617944  0.66900897  1
  I  I96  1  0.49760918  0.83577455  0.00300355  1
  I  I97  1  0.49747573  0.83683984  0.33317386  1
  I  I98  1  0.49809015  0.83726068  0.66373807  1
  I  I99  1  0.83251945  0.16616295  -0.00033199  1
  I  I100  1  0.83050993  0.16412339  0.33715644  1
  I  I101  1  0.82975617  0.16403429  0.66309011  1
  I  I102  1  0.83427439  0.50004110  -0.00001746  1
  I  I103  1  0.82921960  0.50151844  0.33319639  1
  I  I104  1  0.83154102  0.50126251  0.66691076  1
  I  I105  1  0.82951721  0.83308997  -0.00275847  1
  I  I106  1  0.83206485  0.83424424  0.33348454  1
  I  I107  1  0.82942913  0.83565482  0.66885707  1
  I  I108  1  0.00027380  0.16672586  0.16861477  1
  I  I109  1  0.00087444  0.16041050  0.49801468  1
  I  I110  1  -0.00014986  0.16554736  0.83273315  1
  I  I111  1  0.00361307  0.50707263  0.17072899  1
  I  I112  1  0.00032872  0.50122718  0.49774768  1
  I  I113  1  -0.00004282  0.50104649  0.83369639  1
  I  I114  1  0.00384045  0.82765317  0.17148603  1
  I  I115  1  0.00333606  0.83848052  0.49584788  1
  I  I116  1  -0.00332314  0.83414101  0.83222467  1
  I  I117  1  0.33739894  0.16704795  0.16896926  1
  I  I118  1  0.33480194  0.16243499  0.49986250  1
  I  I119  1  0.33810915  0.16804432  0.83203745  1
  I  I120  1  0.33517923  0.50089436  0.16327746  1
  I  I121  1  0.33364002  0.49486956  0.50298812  1
  I  I122  1  0.33753986  0.49749852  0.83380520  1
  I  I123  1  0.33486078  0.83280692  0.16994652  1
  I  I124  1  0.33422188  0.84196484  0.49689831  1
  I  I125  1  0.33342744  0.83340118  0.83274911  1
  I  I126  1  0.66130265  0.16658862  0.16853698  1
  I  I127  1  0.66443191  0.16254666  0.50009531  1
  I  I128  1  0.66232733  0.16945262  0.83156527  1
  I  I129  1  0.66250288  0.50002134  0.16325627  1
  I  I130  1  0.66618288  0.50108395  0.49799091  1
  I  I131  1  0.66228865  0.49557802  0.83986745  1
  I  I132  1  0.66299181  0.83295088  0.17000487  1
  I  I133  1  0.66361169  0.83731476  0.49732531  1
  I  I134  1  0.66815124  0.83407910  0.83234120  1
