# generated using pymatgen
data_Cs27Sn13Pb14I81
_symmetry_space_group_name_H-M   'P 1'
_cell_length_a   18.97788141
_cell_length_b   18.97411521
_cell_length_c   18.97782420
_cell_angle_alpha   89.99854680
_cell_angle_beta   90.00149769
_cell_angle_gamma   90.00153273
_symmetry_Int_Tables_number   1
_chemical_formula_structural   Cs27Sn13Pb14I81
_chemical_formula_sum   'Cs27 Sn13 Pb14 I81'
_cell_volume   6833.69640519
_cell_formula_units_Z   1
loop_
 _symmetry_equiv_pos_site_id
 _symmetry_equiv_pos_as_xyz
  1  'x, y, z'
loop_
 _atom_site_type_symbol
 _atom_site_label
 _atom_site_symmetry_multiplicity
 _atom_site_fract_x
 _atom_site_fract_y
 _atom_site_fract_z
 _atom_site_occupancy
  Cs  Cs0  1  0.00045624  0.00143330  0.00046932  1
  Cs  Cs1  1  0.00213213  -0.00031001  0.33080289  1
  Cs  Cs2  1  -0.00112706  -0.00167452  0.66583790  1
  Cs  Cs3  1  0.00068943  0.32982965  0.00387278  1
  Cs  Cs4  1  0.00177756  0.34222009  0.32498014  1
  Cs  Cs5  1  0.00011248  0.33415505  0.66829937  1
  Cs  Cs6  1  0.00179619  0.66931620  -0.00307579  1
  Cs  Cs7  1  0.00026183  0.66000764  0.34320670  1
  Cs  Cs8  1  -0.00263906  0.66702042  0.66198385  1
  Cs  Cs9  1  0.33350416  -0.00263023  -0.00066212  1
  Cs  Cs10  1  0.33672506  -0.00059589  0.33701387  1
  Cs  Cs11  1  0.33380211  0.00299324  0.66501196  1
  Cs  Cs12  1  0.33115524  0.33748105  -0.00060882  1
  Cs  Cs13  1  0.32553644  0.33396233  0.33652077  1
  Cs  Cs14  1  0.33335699  0.32771540  0.66643862  1
  Cs  Cs15  1  0.33498484  0.66696798  -0.00067985  1
  Cs  Cs16  1  0.33173768  0.66697471  0.33282694  1
  Cs  Cs17  1  0.33418369  0.66608643  0.66831600  1
  Cs  Cs18  1  0.66726145  -0.00146767  0.00009431  1
  Cs  Cs19  1  0.66297476  0.00157827  0.33081680  1
  Cs  Cs20  1  0.66751502  0.00172131  0.66710708  1
  Cs  Cs21  1  0.66697697  0.33568020  -0.00027672  1
  Cs  Cs22  1  0.67051874  0.33276732  0.33286813  1
  Cs  Cs23  1  0.66583472  0.33096792  0.66769354  1
  Cs  Cs24  1  0.66351383  0.66739581  -0.00111592  1
  Cs  Cs25  1  0.66754094  0.66434043  0.33399610  1
  Cs  Cs26  1  0.66854049  0.66611519  0.66726349  1
  Sn  Sn27  1  0.49976070  0.16655532  0.16552388  1
  Sn  Sn28  1  0.83378809  0.16662015  0.49997449  1
  Sn  Sn29  1  0.49935401  0.83417114  0.83296414  1
  Sn  Sn30  1  0.50001530  0.50029651  0.50014330  1
  Sn  Sn31  1  0.16557924  0.50085447  0.83320227  1
  Sn  Sn32  1  0.83421809  0.49928955  0.83359134  1
  Sn  Sn33  1  0.16662290  0.83319741  0.16619795  1
  Sn  Sn34  1  0.83260516  0.16734408  0.83260962  1
  Sn  Sn35  1  0.50038486  0.83223297  0.50028938  1
  Sn  Sn36  1  0.16741733  0.83268472  0.83371662  1
  Sn  Sn37  1  0.50000830  0.83383983  0.16665625  1
  Sn  Sn38  1  0.83352411  0.83284054  0.16696782  1
  Sn  Sn39  1  0.50083240  0.16580725  0.83473540  1
  Pb  Pb40  1  0.16900915  0.50004982  0.50310298  1
  Pb  Pb41  1  0.16677995  0.50303131  0.16405681  1
  Pb  Pb42  1  0.83317217  0.50298570  0.16382651  1
  Pb  Pb43  1  0.49990999  0.49974339  0.83193786  1
  Pb  Pb44  1  0.83339205  0.83374445  0.83450637  1
  Pb  Pb45  1  0.16886572  0.83354663  0.50038491  1
  Pb  Pb46  1  0.83082099  0.83536621  0.49723472  1
  Pb  Pb47  1  0.16989119  0.16411077  0.16652582  1
  Pb  Pb48  1  0.16259033  0.16675017  0.49977637  1
  Pb  Pb49  1  0.83134712  0.49764260  0.50233929  1
  Pb  Pb50  1  0.16659876  0.16606144  0.83326602  1
  Pb  Pb51  1  0.50105699  0.16668240  0.49984785  1
  Pb  Pb52  1  0.83162561  0.16504326  0.16616242  1
  Pb  Pb53  1  0.49991674  0.49981086  0.16918183  1
  I  I54  1  0.16472718  -0.00436515  0.15836858  1
  I  I55  1  0.17035167  -0.00025960  0.50294649  1
  I  I56  1  0.16836186  -0.00341944  0.83768568  1
  I  I57  1  0.16800844  0.33346610  0.16625186  1
  I  I58  1  0.17313089  0.33356587  0.50312110  1
  I  I59  1  0.16700814  0.33577148  0.83114779  1
  I  I60  1  0.17185817  0.67132468  0.16377618  1
  I  I61  1  0.16478871  0.66692258  0.49833640  1
  I  I62  1  0.16803337  0.66801708  0.83792801  1
  I  I63  1  0.50033736  -0.00184470  0.16762857  1
  I  I64  1  0.50109374  -0.00270889  0.49949928  1
  I  I65  1  0.50031665  -0.00097581  0.83219800  1
  I  I66  1  0.50278191  0.33010686  0.16205189  1
  I  I67  1  0.50215378  0.33516606  0.50236939  1
  I  I68  1  0.50104233  0.33045156  0.83509931  1
  I  I69  1  0.49965482  0.67065935  0.16314593  1
  I  I70  1  0.50039273  0.66843822  0.50080489  1
  I  I71  1  0.49965669  0.66968696  0.83587089  1
  I  I72  1  0.83331856  -0.00314216  0.16346983  1
  I  I73  1  0.82963989  0.00286124  0.50883059  1
  I  I74  1  0.83108985  0.00257264  0.83136126  1
  I  I75  1  0.83050294  0.33323605  0.16849922  1
  I  I76  1  0.82747454  0.32997461  0.50228060  1
  I  I77  1  0.83157259  0.33244550  0.82939472  1
  I  I78  1  0.82828214  0.67118673  0.16448955  1
  I  I79  1  0.83327431  0.66667980  0.50026267  1
  I  I80  1  0.83313439  0.66489280  0.83616196  1
  I  I81  1  0.16230042  0.16855435  -0.00027951  1
  I  I82  1  0.16880550  0.16368923  0.33304574  1
  I  I83  1  0.17321344  0.16419509  0.66710423  1
  I  I84  1  0.16562450  0.50168604  -0.00404101  1
  I  I85  1  0.16745538  0.50050758  0.33344587  1
  I  I86  1  0.16281535  0.50798989  0.67102333  1
  I  I87  1  0.17231302  0.82959041  -0.00070195  1
  I  I88  1  0.16854998  0.83603359  0.33022239  1
  I  I89  1  0.17120361  0.83015555  0.67030750  1
  I  I90  1  0.50582000  0.15792915  -0.00123469  1
  I  I91  1  0.50248943  0.16115765  0.33102595  1
  I  I92  1  0.50195253  0.16347335  0.66953036  1
  I  I93  1  0.50013203  0.50214073  -0.00031818  1
  I  I94  1  0.50142484  0.50460645  0.33691509  1
  I  I95  1  0.50030805  0.50483426  0.66439743  1
  I  I96  1  0.49949411  0.83780403  -0.00021067  1
  I  I97  1  0.50021026  0.83469921  0.33223069  1
  I  I98  1  0.49563609  0.83390607  0.66796231  1
  I  I99  1  0.83068280  0.16901035  -0.00319462  1
  I  I100  1  0.82870707  0.16241373  0.33515593  1
  I  I101  1  0.82574472  0.16892807  0.66862886  1
  I  I102  1  0.83452165  0.49295969  -0.00430621  1
  I  I103  1  0.83198652  0.49880225  0.33348793  1
  I  I104  1  0.83596346  0.50053406  0.67042294  1
  I  I105  1  0.82818263  0.83486950  0.00236092  1
  I  I106  1  0.83258298  0.83655458  0.32929712  1
  I  I107  1  0.83273150  0.83208953  0.66670268  1
  I  I108  1  -0.00004827  0.16350199  0.16654884  1
  I  I109  1  -0.00514147  0.16459442  0.50941562  1
  I  I110  1  -0.00305954  0.16696526  0.82871442  1
  I  I111  1  -0.00005347  0.50058127  0.16892480  1
  I  I112  1  -0.00017861  0.49883986  0.49949448  1
  I  I113  1  -0.00010179  0.50105642  0.83338160  1
  I  I114  1  0.00053272  0.83419323  0.15850900  1
  I  I115  1  -0.00025063  0.83509131  0.49990055  1
  I  I116  1  0.00240438  0.83290722  0.83908413  1
  I  I117  1  0.33825056  0.16096713  0.16091615  1
  I  I118  1  0.33376036  0.16664347  0.50046548  1
  I  I119  1  0.33664967  0.16560177  0.83655233  1
  I  I120  1  0.33348099  0.50130732  0.16397453  1
  I  I121  1  0.33698092  0.50379349  0.50154850  1
  I  I122  1  0.33130526  0.50222558  0.83201969  1
  I  I123  1  0.33454027  0.83689804  0.16514135  1
  I  I124  1  0.33755849  0.83161600  0.49643565  1
  I  I125  1  0.33459910  0.83238410  0.83768565  1
  I  I126  1  0.66348727  0.15865855  0.16533404  1
  I  I127  1  0.66856502  0.16574442  0.50292145  1
  I  I128  1  0.66586966  0.16612686  0.83289989  1
  I  I129  1  0.66648336  0.50371124  0.16387851  1
  I  I130  1  0.66366898  0.50507314  0.50292616  1
  I  I131  1  0.66864433  0.49919412  0.83141136  1
  I  I132  1  0.66493127  0.83755180  0.16571703  1
  I  I133  1  0.66245002  0.83073612  0.50180532  1
  I  I134  1  0.66362156  0.83385644  0.83470886  1
