# generated using pymatgen
data_Cs27Sn13Pb14I81
_symmetry_space_group_name_H-M   'P 1'
_cell_length_a   19.00106701
_cell_length_b   18.99425647
_cell_length_c   18.97931940
_cell_angle_alpha   89.99987086
_cell_angle_beta   90.00014077
_cell_angle_gamma   90.00033979
_symmetry_Int_Tables_number   1
_chemical_formula_structural   Cs27Sn13Pb14I81
_chemical_formula_sum   'Cs27 Sn13 Pb14 I81'
_cell_volume   6849.84779901
_cell_formula_units_Z   1
loop_
 _symmetry_equiv_pos_site_id
 _symmetry_equiv_pos_as_xyz
  1  'x, y, z'
loop_
 _atom_site_type_symbol
 _atom_site_label
 _atom_site_symmetry_multiplicity
 _atom_site_fract_x
 _atom_site_fract_y
 _atom_site_fract_z
 _atom_site_occupancy
  Cs  Cs0  1  -0.00193076  0.00155567  -0.00021412  1
  Cs  Cs1  1  -0.00119059  -0.00302971  0.33327351  1
  Cs  Cs2  1  -0.00190613  0.00254536  0.66713007  1
  Cs  Cs3  1  -0.00369041  0.33267560  -0.00069949  1
  Cs  Cs4  1  0.00026051  0.33659972  0.33650468  1
  Cs  Cs5  1  0.01195151  0.34048257  0.65920335  1
  Cs  Cs6  1  -0.00232068  0.66461210  -0.00014243  1
  Cs  Cs7  1  -0.00139938  0.66972292  0.33319832  1
  Cs  Cs8  1  -0.00050743  0.65838364  0.66564905  1
  Cs  Cs9  1  0.33415142  -0.00039335  -0.00009854  1
  Cs  Cs10  1  0.33433642  -0.00209421  0.33083324  1
  Cs  Cs11  1  0.32990260  0.00028243  0.67065457  1
  Cs  Cs12  1  0.33353147  0.33035380  0.00202830  1
  Cs  Cs13  1  0.33452962  0.33403805  0.33532604  1
  Cs  Cs14  1  0.32592605  0.33981248  0.65631072  1
  Cs  Cs15  1  0.33476141  0.66873134  -0.00244831  1
  Cs  Cs16  1  0.33277415  0.66994183  0.33064527  1
  Cs  Cs17  1  0.33496881  0.66256596  0.67574602  1
  Cs  Cs18  1  0.66742693  0.00207592  -0.00010254  1
  Cs  Cs19  1  0.66623171  -0.00138495  0.33411778  1
  Cs  Cs20  1  0.67054675  0.00072307  0.66700890  1
  Cs  Cs21  1  0.66956492  0.32915170  0.00043049  1
  Cs  Cs22  1  0.66493791  0.33413465  0.33804212  1
  Cs  Cs23  1  0.66321460  0.33876403  0.65965914  1
  Cs  Cs24  1  0.66693935  0.66472266  -0.00177170  1
  Cs  Cs25  1  0.66911056  0.66959349  0.33344292  1
  Cs  Cs26  1  0.66551220  0.65892581  0.66850638  1
  Sn  Sn27  1  0.83327515  0.83384046  0.83411096  1
  Sn  Sn28  1  0.16760620  0.50024570  0.16635813  1
  Sn  Sn29  1  0.16808140  0.83370455  0.49979898  1
  Sn  Sn30  1  0.50024257  0.16673244  0.16618944  1
  Sn  Sn31  1  0.50048186  0.16686816  0.83339749  1
  Sn  Sn32  1  0.83245550  0.16641398  0.83356125  1
  Sn  Sn33  1  0.16667173  0.83343122  0.16656513  1
  Sn  Sn34  1  0.16646728  0.16663463  0.16659508  1
  Sn  Sn35  1  0.50022736  0.83325717  0.16684138  1
  Sn  Sn36  1  0.83312949  0.83438825  0.16535310  1
  Sn  Sn37  1  0.49943951  0.50005589  0.16628885  1
  Sn  Sn38  1  0.49881192  0.83394440  0.50012556  1
  Sn  Sn39  1  0.83320090  0.16569805  0.16688104  1
  Pb  Pb40  1  0.83323888  0.50002689  0.49970283  1
  Pb  Pb41  1  0.16689577  0.49990901  0.83668866  1
  Pb  Pb42  1  0.83301374  0.49963770  0.16680192  1
  Pb  Pb43  1  0.83333183  0.16661669  0.50045030  1
  Pb  Pb44  1  0.49981109  0.50354542  0.49691266  1
  Pb  Pb45  1  0.16709249  0.50376362  0.49652219  1
  Pb  Pb46  1  0.83325729  0.83335980  0.50045786  1
  Pb  Pb47  1  0.16681090  0.16362033  0.49687047  1
  Pb  Pb48  1  0.16384240  0.83335874  0.83359734  1
  Pb  Pb49  1  0.83321469  0.49841006  0.83367776  1
  Pb  Pb50  1  0.16648656  0.16667606  0.83519932  1
  Pb  Pb51  1  0.49992285  0.16410226  0.50021638  1
  Pb  Pb52  1  0.50214963  0.83522666  0.83340542  1
  Pb  Pb53  1  0.50001540  0.49601647  0.83615850  1
  I  I54  1  0.16856291  -0.00043473  0.17012818  1
  I  I55  1  0.16979386  -0.00398493  0.49225051  1
  I  I56  1  0.16873876  -0.00005546  0.83572806  1
  I  I57  1  0.16936111  0.33271006  0.16350836  1
  I  I58  1  0.16491662  0.33367256  0.50018440  1
  I  I59  1  0.16355396  0.33308965  0.83574511  1
  I  I60  1  0.16876612  0.66781914  0.17078482  1
  I  I61  1  0.16873163  0.67116945  0.49200879  1
  I  I62  1  0.16473185  0.66700275  0.83575084  1
  I  I63  1  0.49800554  -0.00015597  0.16704057  1
  I  I64  1  0.49727433  -0.00355343  0.49056834  1
  I  I65  1  0.50136907  0.00291565  0.84137766  1
  I  I66  1  0.49730830  0.33234041  0.16128314  1
  I  I67  1  0.50173439  0.33347410  0.49952296  1
  I  I68  1  0.50830205  0.32817558  0.84158541  1
  I  I69  1  0.49754012  0.66783088  0.17174461  1
  I  I70  1  0.49736212  0.67139613  0.49363592  1
  I  I71  1  0.50164412  0.66655639  0.83339377  1
  I  I72  1  0.83371319  -0.00057411  0.16363063  1
  I  I73  1  0.83383669  -0.00030904  0.49875679  1
  I  I74  1  0.82998156  0.00030416  0.83924287  1
  I  I75  1  0.83388490  0.32966803  0.16168692  1
  I  I76  1  0.83271223  0.33305011  0.49781644  1
  I  I77  1  0.82842238  0.32887305  0.84339568  1
  I  I78  1  0.83363119  0.67009778  0.16405684  1
  I  I79  1  0.83363541  0.66747650  0.49838837  1
  I  I80  1  0.83424428  0.66950457  0.83869485  1
  I  I81  1  0.16726737  0.16270160  0.00463317  1
  I  I82  1  0.16714103  0.16910040  0.32785853  1
  I  I83  1  0.16602344  0.16506779  0.66648293  1
  I  I84  1  0.16998195  0.50402894  0.00524587  1
  I  I85  1  0.17057200  0.49629718  0.32863459  1
  I  I86  1  0.16497513  0.50060600  0.66605740  1
  I  I87  1  0.17005105  0.83355733  0.00424182  1
  I  I88  1  0.16502047  0.83353071  0.33037005  1
  I  I89  1  0.17103814  0.83434858  0.66379704  1
  I  I90  1  0.50054252  0.16434964  0.00282369  1
  I  I91  1  0.50059528  0.16854298  0.32919972  1
  I  I92  1  0.50792787  0.16210377  0.66984712  1
  I  I93  1  0.49575591  0.50728676  0.00452791  1
  I  I94  1  0.49632577  0.49345196  0.32857243  1
  I  I95  1  0.50159940  0.50062548  0.66662778  1
  I  I96  1  0.49657063  0.83152620  0.00386315  1
  I  I97  1  0.50152581  0.83507553  0.33023265  1
  I  I98  1  0.49626324  0.83685706  0.66419609  1
  I  I99  1  0.83262143  0.16193596  0.00194887  1
  I  I100  1  0.83242591  0.16139436  0.32911455  1
  I  I101  1  0.82627194  0.15853001  0.67067535  1
  I  I102  1  0.83481430  0.50210765  0.00054148  1
  I  I103  1  0.83351500  0.50081761  0.33237865  1
  I  I104  1  0.83292825  0.50265864  0.66705456  1
  I  I105  1  0.83358971  0.83710557  0.00240667  1
  I  I106  1  0.83348687  0.83701420  0.32976586  1
  I  I107  1  0.83334306  0.83952031  0.66991239  1
  I  I108  1  -0.00032012  0.16316502  0.16307194  1
  I  I109  1  0.00014778  0.16378707  0.49938689  1
  I  I110  1  -0.00349387  0.16057673  0.84027803  1
  I  I111  1  0.00290967  0.50081250  0.16725282  1
  I  I112  1  0.00064772  0.50196893  0.49788043  1
  I  I113  1  -0.00010870  0.49964086  0.83536519  1
  I  I114  1  0.00009651  0.83537382  0.16768351  1
  I  I115  1  0.00263147  0.83350495  0.49360697  1
  I  I116  1  -0.00396345  0.84087244  0.83917811  1
  I  I117  1  0.33391587  0.16407386  0.16306533  1
  I  I118  1  0.33337133  0.16739995  0.50064162  1
  I  I119  1  0.33621281  0.16486505  0.84080288  1
  I  I120  1  0.33348919  0.50006862  0.16680333  1
  I  I121  1  0.33339258  0.49684344  0.50110959  1
  I  I122  1  0.33373802  0.50052679  0.83296195  1
  I  I123  1  0.33351788  0.83539444  0.17143711  1
  I  I124  1  0.33348213  0.83470468  0.48758844  1
  I  I125  1  0.33343636  0.83471694  0.83572703  1
  I  I126  1  0.66642596  0.16353659  0.16272560  1
  I  I127  1  0.66649774  0.16341666  0.49382090  1
  I  I128  1  0.66698998  0.16071957  0.84531332  1
  I  I129  1  0.66351426  0.50109362  0.16644959  1
  I  I130  1  0.66606230  0.50250476  0.49730290  1
  I  I131  1  0.66650460  0.50399969  0.83638294  1
  I  I132  1  0.66634817  0.83523918  0.16795228  1
  I  I133  1  0.66393719  0.83408807  0.49341201  1
  I  I134  1  0.66987660  0.83592711  0.83891644  1
