# generated using pymatgen
data_Cs27Sn13Pb14I81
_symmetry_space_group_name_H-M   'P 1'
_cell_length_a   18.97908010
_cell_length_b   18.97789025
_cell_length_c   18.97566357
_cell_angle_alpha   90.00126574
_cell_angle_beta   90.00058558
_cell_angle_gamma   89.99931696
_symmetry_Int_Tables_number   1
_chemical_formula_structural   Cs27Sn13Pb14I81
_chemical_formula_sum   'Cs27 Sn13 Pb14 I81'
_cell_volume   6834.70951886
_cell_formula_units_Z   1
loop_
 _symmetry_equiv_pos_site_id
 _symmetry_equiv_pos_as_xyz
  1  'x, y, z'
loop_
 _atom_site_type_symbol
 _atom_site_label
 _atom_site_symmetry_multiplicity
 _atom_site_fract_x
 _atom_site_fract_y
 _atom_site_fract_z
 _atom_site_occupancy
  Cs  Cs0  1  -0.00106581  -0.00031982  0.00065580  1
  Cs  Cs1  1  -0.00253307  0.00045673  0.33198471  1
  Cs  Cs2  1  0.00120844  0.00106467  0.66660434  1
  Cs  Cs3  1  0.00297757  0.33260185  0.00111438  1
  Cs  Cs4  1  0.00052391  0.33373866  0.33356380  1
  Cs  Cs5  1  -0.00079907  0.33418180  0.66590047  1
  Cs  Cs6  1  0.00097039  0.66725891  -0.00543089  1
  Cs  Cs7  1  -0.00038255  0.66629013  0.33464242  1
  Cs  Cs8  1  0.00687386  0.65927603  0.67130252  1
  Cs  Cs9  1  0.33411333  0.00077232  0.00083908  1
  Cs  Cs10  1  0.33526693  0.00017988  0.33527759  1
  Cs  Cs11  1  0.33254067  -0.00069845  0.66432967  1
  Cs  Cs12  1  0.33287260  0.33516743  0.00533561  1
  Cs  Cs13  1  0.33981645  0.33960153  0.32519984  1
  Cs  Cs14  1  0.33369144  0.33188474  0.66720896  1
  Cs  Cs15  1  0.33401787  0.66530891  -0.00023463  1
  Cs  Cs16  1  0.33197532  0.66273512  0.34054489  1
  Cs  Cs17  1  0.32524003  0.66830823  0.65956493  1
  Cs  Cs18  1  0.66754037  -0.00187805  -0.00038426  1
  Cs  Cs19  1  0.66852368  -0.00041491  0.33420531  1
  Cs  Cs20  1  0.66615984  0.00129411  0.66642197  1
  Cs  Cs21  1  0.66525663  0.33348008  -0.00088290  1
  Cs  Cs22  1  0.66277264  0.33600811  0.33467837  1
  Cs  Cs23  1  0.66695081  0.33380770  0.66626466  1
  Cs  Cs24  1  0.66722834  0.66930363  -0.00073940  1
  Cs  Cs25  1  0.66687657  0.66698915  0.33332981  1
  Cs  Cs26  1  0.66806197  0.66123791  0.66714549  1
  Sn  Sn27  1  0.83345813  0.50020284  0.16631777  1
  Sn  Sn28  1  0.83354897  0.16632798  0.83326861  1
  Sn  Sn29  1  0.16625317  0.16669837  0.49977174  1
  Sn  Sn30  1  0.49965998  0.83352156  0.16639511  1
  Sn  Sn31  1  0.49978036  0.50042012  0.83312152  1
  Sn  Sn32  1  0.16667382  0.16619191  0.83285300  1
  Sn  Sn33  1  0.83303792  0.16709004  0.16685948  1
  Sn  Sn34  1  0.83402803  0.16576066  0.49994303  1
  Sn  Sn35  1  0.83348008  0.83308773  0.16715724  1
  Sn  Sn36  1  0.49980010  0.16650879  0.83364921  1
  Sn  Sn37  1  0.50010880  0.83303045  0.83344905  1
  Sn  Sn38  1  0.83354046  0.83363025  0.50027052  1
  Sn  Sn39  1  0.16671686  0.83341753  0.16675823  1
  Pb  Pb40  1  0.83343370  0.49974426  0.49796985  1
  Pb  Pb41  1  0.50247611  0.83338739  0.50022680  1
  Pb  Pb42  1  0.83186977  0.49721226  0.83557375  1
  Pb  Pb43  1  0.50210939  0.50307156  0.16477501  1
  Pb  Pb44  1  0.16925934  0.83557800  0.83510470  1
  Pb  Pb45  1  0.50007361  0.16672190  0.50196632  1
  Pb  Pb46  1  0.16641174  0.49625752  0.49973385  1
  Pb  Pb47  1  0.16494960  0.16513867  0.16714180  1
  Pb  Pb48  1  0.50011352  0.50013188  0.50279349  1
  Pb  Pb49  1  0.16416548  0.50314417  0.16654932  1
  Pb  Pb50  1  0.83202242  0.83474347  0.83276877  1
  Pb  Pb51  1  0.16946816  0.49706969  0.83352861  1
  Pb  Pb52  1  0.16368610  0.83557959  0.49780942  1
  Pb  Pb53  1  0.50245029  0.16466993  0.16460874  1
  I  I54  1  0.16366228  -0.00278097  0.16525482  1
  I  I55  1  0.16414627  0.00340218  0.50478856  1
  I  I56  1  0.16755424  0.00388733  0.83089733  1
  I  I57  1  0.16472445  0.33314638  0.16629023  1
  I  I58  1  0.15787593  0.32806208  0.50491020  1
  I  I59  1  0.16661637  0.32849722  0.83095433  1
  I  I60  1  0.16471979  0.67127660  0.16552045  1
  I  I61  1  0.16578446  0.66698328  0.49933515  1
  I  I62  1  0.16730741  0.66684356  0.83460166  1
  I  I63  1  0.50302901  -0.00342045  0.16062545  1
  I  I64  1  0.49932860  0.00006488  0.50250434  1
  I  I65  1  0.50120245  0.00051696  0.83770766  1
  I  I66  1  0.50172103  0.33338671  0.16507528  1
  I  I67  1  0.50272096  0.33303859  0.50140400  1
  I  I68  1  0.50157549  0.33204572  0.83170182  1
  I  I69  1  0.50371246  0.67099694  0.15984096  1
  I  I70  1  0.50288890  0.66706009  0.50181280  1
  I  I71  1  0.50310845  0.66757118  0.84013275  1
  I  I72  1  0.83307195  -0.00020227  0.16684545  1
  I  I73  1  0.83539419  0.00121760  0.49479201  1
  I  I74  1  0.83075201  0.00355744  0.83773647  1
  I  I75  1  0.83357954  0.33202977  0.16527377  1
  I  I76  1  0.83669623  0.32941362  0.50022198  1
  I  I77  1  0.83083365  0.32848532  0.83271957  1
  I  I78  1  0.83186852  0.66843450  0.17161372  1
  I  I79  1  0.83038031  0.66972078  0.49349922  1
  I  I80  1  0.83003941  0.66663383  0.83394301  1
  I  I81  1  0.16585449  0.16507120  -0.00265152  1
  I  I82  1  0.15903063  0.16349594  0.33591531  1
  I  I83  1  0.16184299  0.16567983  0.66755257  1
  I  I84  1  0.16588971  0.49672255  0.00001520  1
  I  I85  1  0.16721436  0.49768492  0.33300801  1
  I  I86  1  0.16645889  0.50349253  0.66684671  1
  I  I87  1  0.16024436  0.83654819  0.00307044  1
  I  I88  1  0.17041772  0.83662310  0.32980664  1
  I  I89  1  0.16728010  0.83309294  0.66655809  1
  I  I90  1  0.49992216  0.16788370  -0.00400044  1
  I  I91  1  0.49998062  0.16485128  0.33305763  1
  I  I92  1  0.50503793  0.16396134  0.67095519  1
  I  I93  1  0.50165438  0.49609910  -0.00307647  1
  I  I94  1  0.50081499  0.50031747  0.33283905  1
  I  I95  1  0.50312755  0.50041376  0.67132618  1
  I  I96  1  0.50359306  0.83488902  0.00015156  1
  I  I97  1  0.50031599  0.83437529  0.33011234  1
  I  I98  1  0.50277631  0.83539560  0.67006857  1
  I  I99  1  0.83251340  0.16572324  0.00007361  1
  I  I100  1  0.83877795  0.16466834  0.33316111  1
  I  I101  1  0.83283011  0.16153598  0.66677114  1
  I  I102  1  0.83201299  0.50196372  0.00349322  1
  I  I103  1  0.83217080  0.49659589  0.32974939  1
  I  I104  1  0.83101867  0.50010078  0.66692382  1
  I  I105  1  0.83368294  0.83508824  0.00322006  1
  I  I106  1  0.83127967  0.83864108  0.33147470  1
  I  I107  1  0.82969077  0.84072254  0.66408642  1
  I  I108  1  -0.00383009  0.16345552  0.16171970  1
  I  I109  1  -0.00171475  0.16254708  0.50502586  1
  I  I110  1  -0.00083726  0.16562165  0.83342170  1
  I  I111  1  -0.00413225  0.50001708  0.16613549  1
  I  I112  1  -0.00036053  0.50225748  0.50071626  1
  I  I113  1  0.00008648  0.49917506  0.83394961  1
  I  I114  1  -0.00174226  0.83485739  0.17124584  1
  I  I115  1  -0.00427676  0.83730253  0.49337284  1
  I  I116  1  0.00003846  0.83604372  0.83544470  1
  I  I117  1  0.33347364  0.16422786  0.16612571  1
  I  I118  1  0.33040727  0.16564330  0.50651438  1
  I  I119  1  0.33360866  0.16576980  0.82806748  1
  I  I120  1  0.33361354  0.49987665  0.16548415  1
  I  I121  1  0.33320346  0.49941072  0.49920107  1
  I  I122  1  0.33749000  0.49810965  0.83570356  1
  I  I123  1  0.33399620  0.83567024  0.15934224  1
  I  I124  1  0.33304674  0.83481953  0.49883835  1
  I  I125  1  0.33752320  0.83642752  0.83950312  1
  I  I126  1  0.67112391  0.16399050  0.16691870  1
  I  I127  1  0.67031691  0.16306778  0.50028683  1
  I  I128  1  0.66690012  0.16617329  0.83444573  1
  I  I129  1  0.67001133  0.50030912  0.16567233  1
  I  I130  1  0.66708710  0.49745306  0.50000255  1
  I  I131  1  0.66384443  0.49777195  0.83493580  1
  I  I132  1  0.66783512  0.83415114  0.16567723  1
  I  I133  1  0.67051329  0.84124339  0.49356082  1
  I  I134  1  0.66379102  0.83712562  0.83936899  1
