# generated using pymatgen
data_Cs27Sn14Pb13I81
_symmetry_space_group_name_H-M   'P 1'
_cell_length_a   18.97124251
_cell_length_b   18.97699810
_cell_length_c   18.97732696
_cell_angle_alpha   90.00077305
_cell_angle_beta   89.99834454
_cell_angle_gamma   89.99925870
_symmetry_Int_Tables_number   1
_chemical_formula_structural   Cs27Sn14Pb13I81
_chemical_formula_sum   'Cs27 Sn14 Pb13 I81'
_cell_volume   6832.16474111
_cell_formula_units_Z   1
loop_
 _symmetry_equiv_pos_site_id
 _symmetry_equiv_pos_as_xyz
  1  'x, y, z'
loop_
 _atom_site_type_symbol
 _atom_site_label
 _atom_site_symmetry_multiplicity
 _atom_site_fract_x
 _atom_site_fract_y
 _atom_site_fract_z
 _atom_site_occupancy
  Cs  Cs0  1  0.00130494  -0.00340463  0.00242531  1
  Cs  Cs1  1  -0.00000756  -0.00067752  0.33246061  1
  Cs  Cs2  1  -0.00267609  0.00258675  0.66616299  1
  Cs  Cs3  1  -0.00019297  0.34406996  0.00170259  1
  Cs  Cs4  1  -0.00025818  0.33672296  0.33123548  1
  Cs  Cs5  1  0.00696712  0.33086704  0.66783835  1
  Cs  Cs6  1  -0.00097268  0.66379745  -0.00218889  1
  Cs  Cs7  1  0.00325937  0.66592594  0.33213099  1
  Cs  Cs8  1  -0.00184857  0.66376320  0.67145457  1
  Cs  Cs9  1  0.33270093  0.00062206  0.00051388  1
  Cs  Cs10  1  0.32970941  -0.00419021  0.33248358  1
  Cs  Cs11  1  0.32918381  0.00079668  0.66639977  1
  Cs  Cs12  1  0.33443007  0.33008486  -0.00532393  1
  Cs  Cs13  1  0.33299100  0.33674828  0.33440742  1
  Cs  Cs14  1  0.32752470  0.33031397  0.66991886  1
  Cs  Cs15  1  0.33517312  0.66846033  0.00205213  1
  Cs  Cs16  1  0.33416954  0.66848111  0.33350882  1
  Cs  Cs17  1  0.33610234  0.66815661  0.66383903  1
  Cs  Cs18  1  0.66581246  0.00178645  0.00074230  1
  Cs  Cs19  1  0.66783725  0.00172327  0.33431758  1
  Cs  Cs20  1  0.66943755  0.00131460  0.66466351  1
  Cs  Cs21  1  0.66552756  0.32984209  0.00406553  1
  Cs  Cs22  1  0.66794359  0.33158168  0.33503085  1
  Cs  Cs23  1  0.66606879  0.33209514  0.66296807  1
  Cs  Cs24  1  0.66586105  0.66733621  -0.00282777  1
  Cs  Cs25  1  0.66370495  0.66665718  0.33516235  1
  Cs  Cs26  1  0.66571635  0.66630726  0.66750486  1
  Sn  Sn27  1  0.83285431  0.49991709  0.50016957  1
  Sn  Sn28  1  0.49924889  0.83326498  0.83385547  1
  Sn  Sn29  1  0.83326612  0.16689814  0.83353876  1
  Sn  Sn30  1  0.50037623  0.50028709  0.83313319  1
  Sn  Sn31  1  0.16670315  0.83395637  0.16567056  1
  Sn  Sn32  1  0.16751964  0.83344332  0.83380161  1
  Sn  Sn33  1  0.50019850  0.50042544  0.16657661  1
  Sn  Sn34  1  0.16658062  0.16663884  0.16667361  1
  Sn  Sn35  1  0.83326628  0.83292198  0.49929850  1
  Sn  Sn36  1  0.50037760  0.83291889  0.16600736  1
  Sn  Sn37  1  0.83294700  0.83319196  0.16740285  1
  Sn  Sn38  1  0.50062373  0.49877454  0.50029498  1
  Sn  Sn39  1  0.49990507  0.16714290  0.49988169  1
  Sn  Sn40  1  0.83281850  0.16708874  0.50069062  1
  Pb  Pb41  1  0.83062266  0.50282894  0.16878820  1
  Pb  Pb42  1  0.16381390  0.16440102  0.83597723  1
  Pb  Pb43  1  0.16339426  0.83317083  0.50033974  1
  Pb  Pb44  1  0.83067288  0.49712230  0.83096638  1
  Pb  Pb45  1  0.16962048  0.50296448  0.83337812  1
  Pb  Pb46  1  0.16952919  0.50077883  0.16655053  1
  Pb  Pb47  1  0.83534772  0.16501138  0.16703140  1
  Pb  Pb48  1  0.83286403  0.83449350  0.83351749  1
  Pb  Pb49  1  0.49822704  0.16619312  0.16908466  1
  Pb  Pb50  1  0.50137588  0.16602684  0.83108550  1
  Pb  Pb51  1  0.16700394  0.50011933  0.50019426  1
  Pb  Pb52  1  0.50167025  0.83351897  0.50021152  1
  Pb  Pb53  1  0.16630978  0.16657865  0.49768840  1
  I  I54  1  0.16897719  -0.00233825  0.16421333  1
  I  I55  1  0.16817605  -0.00024403  0.50093133  1
  I  I56  1  0.17409801  -0.00351267  0.83534643  1
  I  I57  1  0.16709220  0.33118022  0.16954970  1
  I  I58  1  0.16342211  0.33321659  0.49709497  1
  I  I59  1  0.16716159  0.33320616  0.83426921  1
  I  I60  1  0.16478955  0.67049864  0.16345686  1
  I  I61  1  0.16750402  0.66693270  0.49680233  1
  I  I62  1  0.16487514  0.67093913  0.84092565  1
  I  I63  1  0.50146238  -0.00343472  0.16349474  1
  I  I64  1  0.50558995  0.00205569  0.49963378  1
  I  I65  1  0.49805663  -0.00316378  0.83765101  1
  I  I66  1  0.49811487  0.33590132  0.16503058  1
  I  I67  1  0.50840615  0.33430231  0.49848787  1
  I  I68  1  0.50339310  0.33588692  0.83593213  1
  I  I69  1  0.49838064  0.66782519  0.16902927  1
  I  I70  1  0.50429691  0.66418265  0.50000118  1
  I  I71  1  0.49712424  0.66729213  0.83185482  1
  I  I72  1  0.82872986  -0.00345926  0.17192531  1
  I  I73  1  0.82902335  0.00033170  0.50000561  1
  I  I74  1  0.83109454  0.00200788  0.82642690  1
  I  I75  1  0.83443440  0.33355768  0.16690302  1
  I  I76  1  0.82720424  0.33309023  0.50433191  1
  I  I77  1  0.83155911  0.32955603  0.82844066  1
  I  I78  1  0.83831756  0.67112585  0.17092635  1
  I  I79  1  0.82859959  0.66664129  0.49487548  1
  I  I80  1  0.83547632  0.66654848  0.83200704  1
  I  I81  1  0.16741623  0.16251582  0.00342048  1
  I  I82  1  0.16575787  0.15786724  0.33017655  1
  I  I83  1  0.16788243  0.16526672  0.66685837  1
  I  I84  1  0.16617042  0.49683660  0.00006240  1
  I  I85  1  0.16933192  0.50229533  0.33314152  1
  I  I86  1  0.16851298  0.50193201  0.66690322  1
  I  I87  1  0.16598276  0.83780585  0.00124887  1
  I  I88  1  0.16951739  0.83644194  0.33001389  1
  I  I89  1  0.17189356  0.83231139  0.66970726  1
  I  I90  1  0.50147369  0.16953359  0.00005225  1
  I  I91  1  0.50715511  0.16998618  0.33684407  1
  I  I92  1  0.50260458  0.16967372  0.66309348  1
  I  I93  1  0.49845469  0.50637673  0.00008480  1
  I  I94  1  0.50329093  0.50087939  0.33370545  1
  I  I95  1  0.50476134  0.50212554  0.66623400  1
  I  I96  1  0.50152980  0.82611224  0.00077553  1
  I  I97  1  0.49770744  0.83065471  0.33066289  1
  I  I98  1  0.49739145  0.83032439  0.66920292  1
  I  I99  1  0.83362604  0.16196540  -0.00191930  1
  I  I100  1  0.83032621  0.16747767  0.33654996  1
  I  I101  1  0.82911191  0.16274787  0.66468473  1
  I  I102  1  0.83251030  0.49939061  -0.00002784  1
  I  I103  1  0.82729642  0.49476027  0.33696716  1
  I  I104  1  0.82647814  0.50696864  0.66274143  1
  I  I105  1  0.83313053  0.83670863  0.00266869  1
  I  I106  1  0.83233926  0.83588753  0.33320160  1
  I  I107  1  0.83233233  0.83261190  0.66407422  1
  I  I108  1  0.00295089  0.15848430  0.16859972  1
  I  I109  1  -0.00363116  0.16612081  0.50310940  1
  I  I110  1  -0.00366123  0.16334033  0.82408578  1
  I  I111  1  -0.00020217  0.50031849  0.16949611  1
  I  I112  1  -0.00356219  0.49955373  0.49907769  1
  I  I113  1  -0.00027253  0.50058170  0.83129181  1
  I  I114  1  0.00017726  0.83950964  0.16775666  1
  I  I115  1  -0.00489636  0.83480282  0.49594610  1
  I  I116  1  0.00189865  0.83695858  0.83620941  1
  I  I117  1  0.33072753  0.15979011  0.16835017  1
  I  I118  1  0.33613827  0.17194595  0.49868219  1
  I  I119  1  0.33330100  0.16844854  0.83185776  1
  I  I120  1  0.33771683  0.50617725  0.17074864  1
  I  I121  1  0.33763722  0.49586528  0.49944404  1
  I  I122  1  0.33804565  0.49956167  0.83060676  1
  I  I123  1  0.33391639  0.83324532  0.16249488  1
  I  I124  1  0.33349670  0.83334110  0.49771186  1
  I  I125  1  0.33444997  0.83024024  0.84111245  1
  I  I126  1  0.66669000  0.16537962  0.16575655  1
  I  I127  1  0.66756609  0.16706676  0.50210456  1
  I  I128  1  0.66916527  0.16314029  0.83154122  1
  I  I129  1  0.66249381  0.50473622  0.16521665  1
  I  I130  1  0.66581483  0.49955114  0.49933950  1
  I  I131  1  0.66268804  0.50888623  0.83482997  1
  I  I132  1  0.66589244  0.82916239  0.16675869  1
  I  I133  1  0.66974702  0.83409161  0.49648126  1
  I  I134  1  0.66375883  0.83026874  0.83625645  1
