# generated using pymatgen
data_Cs27Sn13Pb14I81
_symmetry_space_group_name_H-M   'P 1'
_cell_length_a   18.97869276
_cell_length_b   18.97818837
_cell_length_c   18.97426749
_cell_angle_alpha   89.99942100
_cell_angle_beta   90.00026913
_cell_angle_gamma   90.00093843
_symmetry_Int_Tables_number   1
_chemical_formula_structural   Cs27Sn13Pb14I81
_chemical_formula_sum   'Cs27 Sn13 Pb14 I81'
_cell_volume   6834.17455150
_cell_formula_units_Z   1
loop_
 _symmetry_equiv_pos_site_id
 _symmetry_equiv_pos_as_xyz
  1  'x, y, z'
loop_
 _atom_site_type_symbol
 _atom_site_label
 _atom_site_symmetry_multiplicity
 _atom_site_fract_x
 _atom_site_fract_y
 _atom_site_fract_z
 _atom_site_occupancy
  Cs  Cs0  1  -0.00112935  -0.00589557  -0.00563769  1
  Cs  Cs1  1  -0.00137545  -0.00102317  0.33331385  1
  Cs  Cs2  1  -0.00021508  0.00147569  0.67131463  1
  Cs  Cs3  1  -0.00087985  0.33177424  0.00262561  1
  Cs  Cs4  1  -0.00115929  0.33369940  0.33342435  1
  Cs  Cs5  1  0.00820993  0.33116652  0.66440128  1
  Cs  Cs6  1  0.00190832  0.67360620  -0.00006887  1
  Cs  Cs7  1  -0.00105254  0.66791410  0.33521548  1
  Cs  Cs8  1  0.00436931  0.66626641  0.66234510  1
  Cs  Cs9  1  0.33327273  -0.00360061  0.00307811  1
  Cs  Cs10  1  0.34084993  0.00008663  0.33536009  1
  Cs  Cs11  1  0.33291099  0.00370968  0.66193050  1
  Cs  Cs12  1  0.33454591  0.33522462  0.00135769  1
  Cs  Cs13  1  0.33152526  0.32939003  0.33126363  1
  Cs  Cs14  1  0.32690071  0.33140302  0.66581372  1
  Cs  Cs15  1  0.33113610  0.66577212  -0.00141844  1
  Cs  Cs16  1  0.33449571  0.67030836  0.33237998  1
  Cs  Cs17  1  0.33464718  0.66567757  0.66895454  1
  Cs  Cs18  1  0.66904143  -0.00106561  -0.00093093  1
  Cs  Cs19  1  0.66242990  -0.00061535  0.33381929  1
  Cs  Cs20  1  0.66760257  -0.00024765  0.66703503  1
  Cs  Cs21  1  0.66595103  0.33402310  0.00006635  1
  Cs  Cs22  1  0.66954758  0.33326452  0.33186300  1
  Cs  Cs23  1  0.66707890  0.33612287  0.66976059  1
  Cs  Cs24  1  0.66718972  0.66405504  -0.00109946  1
  Cs  Cs25  1  0.66789666  0.66682292  0.33484802  1
  Cs  Cs26  1  0.66448150  0.66482516  0.66619951  1
  Sn  Sn27  1  0.50020924  0.83341822  0.83348355  1
  Sn  Sn28  1  0.50007278  0.49990511  0.16712024  1
  Sn  Sn29  1  0.16618013  0.49958559  0.16668936  1
  Sn  Sn30  1  0.16559950  0.16677526  0.16652181  1
  Sn  Sn31  1  0.83425100  0.16703824  0.16717559  1
  Sn  Sn32  1  0.83383817  0.83435464  0.49999418  1
  Sn  Sn33  1  0.16615291  0.83360403  0.49977927  1
  Sn  Sn34  1  0.83307637  0.16615511  0.49970698  1
  Sn  Sn35  1  0.83361432  0.49980853  0.83382994  1
  Sn  Sn36  1  0.50053603  0.49964799  0.83309886  1
  Sn  Sn37  1  0.49983252  0.49927252  0.49990241  1
  Sn  Sn38  1  0.83379538  0.49955389  0.16560552  1
  Sn  Sn39  1  0.49996774  0.16695835  0.83346386  1
  Pb  Pb40  1  0.83167592  0.83035137  0.83059853  1
  Pb  Pb41  1  0.50245829  0.16932120  0.50206784  1
  Pb  Pb42  1  0.16946507  0.50143018  0.49707565  1
  Pb  Pb43  1  0.16920190  0.16665292  0.83643317  1
  Pb  Pb44  1  0.83206719  0.16884223  0.83367562  1
  Pb  Pb45  1  0.50028355  0.83052545  0.16410944  1
  Pb  Pb46  1  0.83319433  0.83345538  0.16850567  1
  Pb  Pb47  1  0.16660704  0.83389886  0.16862310  1
  Pb  Pb48  1  0.50037135  0.83162758  0.50188578  1
  Pb  Pb49  1  0.16919980  0.83341702  0.83062355  1
  Pb  Pb50  1  0.16629333  0.49992507  0.83572486  1
  Pb  Pb51  1  0.50060187  0.16844490  0.16490040  1
  Pb  Pb52  1  0.83223645  0.49956489  0.50009939  1
  Pb  Pb53  1  0.16427216  0.16457225  0.49744355  1
  I  I54  1  0.16166663  0.00329903  0.16708863  1
  I  I55  1  0.16729473  -0.00311153  0.49792002  1
  I  I56  1  0.16843920  0.00003188  0.83648454  1
  I  I57  1  0.16688321  0.33437417  0.16718731  1
  I  I58  1  0.16655446  0.33316667  0.50132097  1
  I  I59  1  0.16981158  0.33345325  0.82934114  1
  I  I60  1  0.16751012  0.66354071  0.16738698  1
  I  I61  1  0.15983206  0.66913547  0.49795923  1
  I  I62  1  0.16935900  0.66650180  0.83588887  1
  I  I63  1  0.49891336  0.00023258  0.16481032  1
  I  I64  1  0.49842185  0.00021383  0.50228047  1
  I  I65  1  0.49971705  0.00014078  0.83247050  1
  I  I66  1  0.50038142  0.33709047  0.16393356  1
  I  I67  1  0.50237675  0.33734156  0.50139346  1
  I  I68  1  0.50473832  0.33511810  0.83452223  1
  I  I69  1  0.50019389  0.66165004  0.16526495  1
  I  I70  1  0.50273020  0.66348611  0.50153701  1
  I  I71  1  0.50371109  0.66480401  0.83303622  1
  I  I72  1  0.83807499  0.00347254  0.16850640  1
  I  I73  1  0.83573334  0.00040365  0.49444555  1
  I  I74  1  0.82996011  -0.00002031  0.83546211  1
  I  I75  1  0.83295816  0.33430258  0.16922968  1
  I  I76  1  0.82946457  0.33114634  0.49794384  1
  I  I77  1  0.82497422  0.33681621  0.83344049  1
  I  I78  1  0.83251947  0.66300524  0.16436470  1
  I  I79  1  0.83458795  0.66838754  0.50029702  1
  I  I80  1  0.82579268  0.66247784  0.83894599  1
  I  I81  1  0.16027288  0.17161557  0.00441461  1
  I  I82  1  0.16648100  0.17223722  0.32965160  1
  I  I83  1  0.16647586  0.16560070  0.66640559  1
  I  I84  1  0.17187166  0.49707520  0.00403204  1
  I  I85  1  0.16546668  0.49679949  0.32902571  1
  I  I86  1  0.16713444  0.50170237  0.66638502  1
  I  I87  1  0.16862734  0.83277811  0.00011039  1
  I  I88  1  0.16361344  0.83101882  0.33630366  1
  I  I89  1  0.16202007  0.83206209  0.66290657  1
  I  I90  1  0.50183419  0.16986112  -0.00301603  1
  I  I91  1  0.49826597  0.16847682  0.33320687  1
  I  I92  1  0.50241188  0.16946873  0.66999566  1
  I  I93  1  0.50095860  0.49994747  -0.00024938  1
  I  I94  1  0.50116800  0.50071952  0.33231717  1
  I  I95  1  0.50659131  0.50134114  0.66814564  1
  I  I96  1  0.50024225  0.83138233  -0.00390636  1
  I  I97  1  0.49933018  0.83073584  0.33362605  1
  I  I98  1  0.50063145  0.82863441  0.66969271  1
  I  I99  1  0.83487682  0.17083214  0.00315034  1
  I  I100  1  0.83603013  0.16996049  0.33231091  1
  I  I101  1  0.82941001  0.16416526  0.66433462  1
  I  I102  1  0.82693284  0.49435687  0.00126363  1
  I  I103  1  0.83132939  0.49936572  0.33036615  1
  I  I104  1  0.82488851  0.50114579  0.66890423  1
  I  I105  1  0.83184155  0.83514167  -0.00035415  1
  I  I106  1  0.83541602  0.83085555  0.33656667  1
  I  I107  1  0.83604239  0.83786189  0.66286791  1
  I  I108  1  -0.00102263  0.17696792  0.17126615  1
  I  I109  1  -0.00375638  0.16783457  0.49947372  1
  I  I110  1  -0.00016606  0.16898271  0.83107663  1
  I  I111  1  -0.00103923  0.49552004  0.16285083  1
  I  I112  1  0.00005983  0.49959929  0.50081658  1
  I  I113  1  -0.00320356  0.49956002  0.83709408  1
  I  I114  1  -0.00014185  0.82769136  0.16553496  1
  I  I115  1  -0.00098515  0.83469552  0.49855431  1
  I  I116  1  -0.00021204  0.83146388  0.83437109  1
  I  I117  1  0.33133536  0.17163434  0.16401612  1
  I  I118  1  0.33343619  0.16521587  0.49948606  1
  I  I119  1  0.33750597  0.17092266  0.83364841  1
  I  I120  1  0.33387105  0.49669003  0.16646419  1
  I  I121  1  0.33746348  0.50281685  0.50255115  1
  I  I122  1  0.33695662  0.50097153  0.83419773  1
  I  I123  1  0.33346048  0.83350738  0.16978436  1
  I  I124  1  0.33157041  0.82983149  0.50085929  1
  I  I125  1  0.33738875  0.82816638  0.83210651  1
  I  I126  1  0.66979461  0.17148116  0.16912341  1
  I  I127  1  0.67016740  0.16067561  0.49265426  1
  I  I128  1  0.66383230  0.16698384  0.83526670  1
  I  I129  1  0.66685175  0.49655601  0.16538543  1
  I  I130  1  0.66416581  0.50242746  0.49713907  1
  I  I131  1  0.66513499  0.50005646  0.83783825  1
  I  I132  1  0.66671696  0.83362326  0.17025989  1
  I  I133  1  0.66921395  0.83506610  0.50101425  1
  I  I134  1  0.66360156  0.83320837  0.83089343  1
