# generated using pymatgen
data_Cs27Sn13Pb14I81
_symmetry_space_group_name_H-M   'P 1'
_cell_length_a   18.97291826
_cell_length_b   18.97473252
_cell_length_c   18.98273398
_cell_angle_alpha   90.00123032
_cell_angle_beta   90.00016337
_cell_angle_gamma   90.00074818
_symmetry_Int_Tables_number   1
_chemical_formula_structural   Cs27Sn13Pb14I81
_chemical_formula_sum   'Cs27 Sn13 Pb14 I81'
_cell_volume   6833.89905795
_cell_formula_units_Z   1
loop_
 _symmetry_equiv_pos_site_id
 _symmetry_equiv_pos_as_xyz
  1  'x, y, z'
loop_
 _atom_site_type_symbol
 _atom_site_label
 _atom_site_symmetry_multiplicity
 _atom_site_fract_x
 _atom_site_fract_y
 _atom_site_fract_z
 _atom_site_occupancy
  Cs  Cs0  1  -0.00286316  -0.00063384  -0.00021118  1
  Cs  Cs1  1  -0.00731575  0.00187588  0.33422644  1
  Cs  Cs2  1  0.00101755  -0.00687868  0.66647653  1
  Cs  Cs3  1  0.00172869  0.33429674  -0.00166585  1
  Cs  Cs4  1  -0.00271313  0.33176148  0.33239209  1
  Cs  Cs5  1  0.00271406  0.33351584  0.66976568  1
  Cs  Cs6  1  -0.00176748  0.66630539  -0.00102432  1
  Cs  Cs7  1  -0.00527060  0.66740948  0.33368192  1
  Cs  Cs8  1  0.00203558  0.67424466  0.66733763  1
  Cs  Cs9  1  0.33587138  0.00018128  0.00325501  1
  Cs  Cs10  1  0.33331482  -0.00200532  0.32851664  1
  Cs  Cs11  1  0.33271175  -0.00134645  0.66645593  1
  Cs  Cs12  1  0.33149406  0.33409911  -0.00048877  1
  Cs  Cs13  1  0.33181808  0.33286479  0.33439893  1
  Cs  Cs14  1  0.33232338  0.33407054  0.66700575  1
  Cs  Cs15  1  0.33473342  0.66545340  0.00161932  1
  Cs  Cs16  1  0.33459479  0.66689631  0.33072895  1
  Cs  Cs17  1  0.33297358  0.66693795  0.66585132  1
  Cs  Cs18  1  0.66404382  -0.00060934  0.00094408  1
  Cs  Cs19  1  0.67392487  0.00701726  0.33472336  1
  Cs  Cs20  1  0.66677378  0.00367889  0.66546579  1
  Cs  Cs21  1  0.66739290  0.33300758  -0.00229968  1
  Cs  Cs22  1  0.67558255  0.32806073  0.34379334  1
  Cs  Cs23  1  0.66620875  0.33163852  0.66302295  1
  Cs  Cs24  1  0.66434061  0.66717274  0.00085508  1
  Cs  Cs25  1  0.66936342  0.66407877  0.33303364  1
  Cs  Cs26  1  0.66510025  0.66544184  0.66554807  1
  Sn  Sn27  1  0.49946668  0.83253832  0.83317405  1
  Sn  Sn28  1  0.49998441  0.50068314  0.83385538  1
  Sn  Sn29  1  0.83446996  0.16732164  0.83349953  1
  Sn  Sn30  1  0.16684924  0.49974706  0.49988355  1
  Sn  Sn31  1  0.16602775  0.16692825  0.83260872  1
  Sn  Sn32  1  0.49935356  0.83243846  0.16725950  1
  Sn  Sn33  1  0.16670562  0.49986380  0.83325655  1
  Sn  Sn34  1  0.49972912  0.49951653  0.16663571  1
  Sn  Sn35  1  0.49986348  0.83337715  0.49927519  1
  Sn  Sn36  1  0.16727833  0.16689100  0.50076952  1
  Sn  Sn37  1  0.16679527  0.83239690  0.16651364  1
  Sn  Sn38  1  0.83334851  0.49957120  0.83328031  1
  Sn  Sn39  1  0.16733564  0.50103679  0.16682757  1
  Pb  Pb40  1  0.83296858  0.49985365  0.16460258  1
  Pb  Pb41  1  0.49813603  0.50125286  0.49953447  1
  Pb  Pb42  1  0.49705547  0.16414089  0.49992713  1
  Pb  Pb43  1  0.49943112  0.16744389  0.83342183  1
  Pb  Pb44  1  0.83339603  0.16709973  0.16343936  1
  Pb  Pb45  1  0.50012017  0.16808783  0.16690235  1
  Pb  Pb46  1  0.16811759  0.83335168  0.49723138  1
  Pb  Pb47  1  0.83019908  0.83326206  0.83337790  1
  Pb  Pb48  1  0.83260729  0.83304722  0.16646387  1
  Pb  Pb49  1  0.16665937  0.16703508  0.16638328  1
  Pb  Pb50  1  0.16879667  0.83342722  0.83552613  1
  Pb  Pb51  1  0.83682146  0.16676781  0.50335131  1
  Pb  Pb52  1  0.82995618  0.83312261  0.50012998  1
  Pb  Pb53  1  0.83679444  0.50021897  0.50336069  1
  I  I54  1  0.17258552  -0.00280708  0.16568383  1
  I  I55  1  0.16889014  0.00243036  0.50524127  1
  I  I56  1  0.16348741  0.00266363  0.82979193  1
  I  I57  1  0.17140608  0.33705416  0.16545375  1
  I  I58  1  0.16829257  0.33432578  0.49994481  1
  I  I59  1  0.16820207  0.33500273  0.83472031  1
  I  I60  1  0.17164942  0.66517552  0.16569125  1
  I  I61  1  0.16843527  0.66375582  0.50418482  1
  I  I62  1  0.16435073  0.66332233  0.83041774  1
  I  I63  1  0.49443485  -0.00357121  0.16405110  1
  I  I64  1  0.49733707  -0.00417938  0.50150904  1
  I  I65  1  0.49961265  -0.00278145  0.83467424  1
  I  I66  1  0.49281800  0.33810549  0.15807823  1
  I  I67  1  0.50066236  0.33347467  0.50060615  1
  I  I68  1  0.49912547  0.33718500  0.83848688  1
  I  I69  1  0.49464052  0.66655578  0.16418661  1
  I  I70  1  0.49566029  0.66932094  0.50147167  1
  I  I71  1  0.49942542  0.66548862  0.83419485  1
  I  I72  1  0.83383419  -0.00007408  0.16436233  1
  I  I73  1  0.83529994  0.00019344  0.50248996  1
  I  I74  1  0.83804088  0.00294901  0.83282147  1
  I  I75  1  0.83345529  0.33377628  0.16743494  1
  I  I76  1  0.82847562  0.33347363  0.49764999  1
  I  I77  1  0.83290081  0.33435021  0.83462640  1
  I  I78  1  0.83463640  0.66639285  0.16329997  1
  I  I79  1  0.83710367  0.66641476  0.50285802  1
  I  I80  1  0.83665177  0.66332128  0.83398547  1
  I  I81  1  0.16320683  0.17037660  -0.00334354  1
  I  I82  1  0.16969400  0.16981329  0.33592480  1
  I  I83  1  0.16427578  0.17462481  0.66793741  1
  I  I84  1  0.16734809  0.49937926  -0.00088966  1
  I  I85  1  0.17347198  0.49973378  0.33257610  1
  I  I86  1  0.16734239  0.49491682  0.66795760  1
  I  I87  1  0.17278134  0.82988191  0.00319376  1
  I  I88  1  0.17413330  0.82961691  0.32960784  1
  I  I89  1  0.16910433  0.83148321  0.66674074  1
  I  I90  1  0.49828923  0.16131311  -0.00022515  1
  I  I91  1  0.49715199  0.16628699  0.33340275  1
  I  I92  1  0.50144044  0.16518945  0.66698460  1
  I  I93  1  0.49516304  0.50775598  -0.00103180  1
  I  I94  1  0.49264190  0.50603076  0.33017209  1
  I  I95  1  0.49888325  0.50427559  0.66974375  1
  I  I96  1  0.49663696  0.82954445  0.00018191  1
  I  I97  1  0.49345650  0.82895841  0.33198398  1
  I  I98  1  0.50001763  0.82928849  0.66754153  1
  I  I99  1  0.84075095  0.17070709  -0.00467844  1
  I  I100  1  0.83341702  0.16514193  0.33388057  1
  I  I101  1  0.83340550  0.17187785  0.67089279  1
  I  I102  1  0.83765482  0.49637099  -0.00386600  1
  I  I103  1  0.83268081  0.50081406  0.33354600  1
  I  I104  1  0.83024856  0.49568698  0.67163406  1
  I  I105  1  0.83209234  0.83469802  -0.00032027  1
  I  I106  1  0.83313804  0.83403871  0.33321850  1
  I  I107  1  0.83325281  0.83295649  0.66713252  1
  I  I108  1  0.00054771  0.16541414  0.16887122  1
  I  I109  1  0.00454267  0.17027655  0.50049334  1
  I  I110  1  0.00135520  0.17554466  0.83056661  1
  I  I111  1  0.00360364  0.50353056  0.16558515  1
  I  I112  1  0.00518689  0.49653008  0.49775074  1
  I  I113  1  0.00142196  0.49456824  0.83399719  1
  I  I114  1  0.00312665  0.82898155  0.16602609  1
  I  I115  1  0.00041399  0.83395323  0.49900661  1
  I  I116  1  0.00025799  0.83126760  0.83484679  1
  I  I117  1  0.33307312  0.16520772  0.16325324  1
  I  I118  1  0.32925073  0.17147074  0.50792794  1
  I  I119  1  0.33000302  0.17022480  0.83012666  1
  I  I120  1  0.33258157  0.50449912  0.16087376  1
  I  I121  1  0.32984570  0.49714547  0.50529026  1
  I  I122  1  0.33267646  0.49970668  0.83398928  1
  I  I123  1  0.33417232  0.82961452  0.16605590  1
  I  I124  1  0.33602926  0.83314392  0.50262001  1
  I  I125  1  0.33688758  0.82989762  0.83203761  1
  I  I126  1  0.66665392  0.16466221  0.16426854  1
  I  I127  1  0.66698322  0.16461793  0.50054636  1
  I  I128  1  0.66903402  0.16926296  0.83492506  1
  I  I129  1  0.66286649  0.50689321  0.15988016  1
  I  I130  1  0.66662064  0.50235550  0.49994685  1
  I  I131  1  0.66553212  0.50057165  0.83898197  1
  I  I132  1  0.66226244  0.82821784  0.16488676  1
  I  I133  1  0.66161151  0.83161755  0.49890541  1
  I  I134  1  0.66196596  0.82978565  0.83662487  1
