# generated using pymatgen
data_Cs27Sn14Pb13I81
_symmetry_space_group_name_H-M   'P 1'
_cell_length_a   18.97694817
_cell_length_b   18.97152390
_cell_length_c   18.97742921
_cell_angle_alpha   90.00143339
_cell_angle_beta   89.99919799
_cell_angle_gamma   90.00027805
_symmetry_Int_Tables_number   1
_chemical_formula_structural   Cs27Sn14Pb13I81
_chemical_formula_sum   'Cs27 Sn14 Pb13 I81'
_cell_volume   6832.28491463
_cell_formula_units_Z   1
loop_
 _symmetry_equiv_pos_site_id
 _symmetry_equiv_pos_as_xyz
  1  'x, y, z'
loop_
 _atom_site_type_symbol
 _atom_site_label
 _atom_site_symmetry_multiplicity
 _atom_site_fract_x
 _atom_site_fract_y
 _atom_site_fract_z
 _atom_site_occupancy
  Cs  Cs0  1  -0.00042237  -0.00031513  0.00125504  1
  Cs  Cs1  1  0.00352495  -0.00196674  0.33570546  1
  Cs  Cs2  1  -0.00018924  0.00159309  0.66311987  1
  Cs  Cs3  1  0.00440317  0.33265667  -0.00122685  1
  Cs  Cs4  1  -0.00172055  0.33158626  0.34048330  1
  Cs  Cs5  1  0.00005267  0.33980856  0.65960999  1
  Cs  Cs6  1  -0.00920579  0.66606445  0.00043971  1
  Cs  Cs7  1  0.00157511  0.67261728  0.32955698  1
  Cs  Cs8  1  0.00056184  0.65629306  0.66978247  1
  Cs  Cs9  1  0.33436371  0.00185284  -0.00062661  1
  Cs  Cs10  1  0.33274167  -0.00147345  0.33326415  1
  Cs  Cs11  1  0.33641142  -0.00011936  0.66887285  1
  Cs  Cs12  1  0.33224437  0.33197572  0.00007359  1
  Cs  Cs13  1  0.33443130  0.33592102  0.33046416  1
  Cs  Cs14  1  0.33157971  0.33617660  0.66879903  1
  Cs  Cs15  1  0.33355597  0.66646956  -0.00124762  1
  Cs  Cs16  1  0.33228288  0.66702625  0.33531240  1
  Cs  Cs17  1  0.33194451  0.66548392  0.66692158  1
  Cs  Cs18  1  0.66571511  0.00140466  -0.00160806  1
  Cs  Cs19  1  0.66471304  0.00057547  0.33639925  1
  Cs  Cs20  1  0.66513253  -0.00088836  0.66654044  1
  Cs  Cs21  1  0.66512595  0.32991956  0.00214038  1
  Cs  Cs22  1  0.66806014  0.34024859  0.33368891  1
  Cs  Cs23  1  0.66756026  0.33267228  0.66317529  1
  Cs  Cs24  1  0.67396553  0.66595754  0.00159912  1
  Cs  Cs25  1  0.66701692  0.65894545  0.33293312  1
  Cs  Cs26  1  0.66781128  0.66996280  0.66717385  1
  Sn  Sn27  1  0.83267434  0.83346989  0.50030018  1
  Sn  Sn28  1  0.50014982  0.83374205  0.16643061  1
  Sn  Sn29  1  0.16661819  0.16745540  0.16605646  1
  Sn  Sn30  1  0.50094307  0.83419782  0.49989632  1
  Sn  Sn31  1  0.50049105  0.50009039  0.83368787  1
  Sn  Sn32  1  0.49958989  0.16630959  0.49984373  1
  Sn  Sn33  1  0.49947814  0.83314095  0.83374660  1
  Sn  Sn34  1  0.49995183  0.16676017  0.83309345  1
  Sn  Sn35  1  0.50013946  0.16594276  0.16716171  1
  Sn  Sn36  1  0.16667881  0.49931240  0.16635093  1
  Sn  Sn37  1  0.83329595  0.16632052  0.16629842  1
  Sn  Sn38  1  0.16632992  0.16579633  0.83367739  1
  Sn  Sn39  1  0.83373852  0.16651366  0.83359514  1
  Sn  Sn40  1  0.16682352  0.83410150  0.83349846  1
  Pb  Pb41  1  0.16833646  0.49980105  0.83511557  1
  Pb  Pb42  1  0.16965814  0.16661224  0.50016503  1
  Pb  Pb43  1  0.49987008  0.50042618  0.50262812  1
  Pb  Pb44  1  0.16724797  0.83347444  0.50330510  1
  Pb  Pb45  1  0.83347984  0.83559598  0.83172233  1
  Pb  Pb46  1  0.49863636  0.49999423  0.16442675  1
  Pb  Pb47  1  0.16703473  0.50005432  0.49653204  1
  Pb  Pb48  1  0.16866436  0.83398723  0.16408944  1
  Pb  Pb49  1  0.83037335  0.49640570  0.83352254  1
  Pb  Pb50  1  0.83037500  0.83607052  0.16876608  1
  Pb  Pb51  1  0.83310595  0.50371389  0.49984981  1
  Pb  Pb52  1  0.83093315  0.16527583  0.49984653  1
  Pb  Pb53  1  0.83642654  0.49677507  0.16650227  1
  I  I54  1  0.16611368  0.00352555  0.16459233  1
  I  I55  1  0.16483780  0.00002586  0.49482096  1
  I  I56  1  0.17282803  0.00154432  0.83859729  1
  I  I57  1  0.16995703  0.33049792  0.15985322  1
  I  I58  1  0.16819826  0.33297427  0.50561526  1
  I  I59  1  0.16923249  0.32977940  0.83611940  1
  I  I60  1  0.17106093  0.66510457  0.16593220  1
  I  I61  1  0.16912806  0.66703321  0.50034088  1
  I  I62  1  0.17365141  0.66926060  0.83319532  1
  I  I63  1  0.49781269  0.00151037  0.16307810  1
  I  I64  1  0.50315198  -0.00013014  0.50384155  1
  I  I65  1  0.49931825  0.00078777  0.83309613  1
  I  I66  1  0.50141211  0.32954203  0.16609498  1
  I  I67  1  0.49951184  0.33012334  0.49998940  1
  I  I68  1  0.49947212  0.33101732  0.83389825  1
  I  I69  1  0.49674370  0.66957300  0.16688900  1
  I  I70  1  0.50336202  0.67049904  0.49967900  1
  I  I71  1  0.49348975  0.66823248  0.83241442  1
  I  I72  1  0.83771840  0.00407327  0.16195637  1
  I  I73  1  0.82919012  -0.00238621  0.50069742  1
  I  I74  1  0.82812895  0.00371321  0.83688538  1
  I  I75  1  0.82553614  0.32839606  0.16320850  1
  I  I76  1  0.83213444  0.33308955  0.50014898  1
  I  I77  1  0.83346606  0.32806737  0.83699096  1
  I  I78  1  0.83370060  0.66695757  0.16865905  1
  I  I79  1  0.82395777  0.67149260  0.50093165  1
  I  I80  1  0.83373454  0.66679155  0.83087239  1
  I  I81  1  0.17143594  0.16682523  -0.00032321  1
  I  I82  1  0.16658420  0.17070250  0.32988730  1
  I  I83  1  0.16761178  0.16180066  0.67026812  1
  I  I84  1  0.16985255  0.49593167  0.00261378  1
  I  I85  1  0.16936483  0.49268335  0.32861091  1
  I  I86  1  0.16752476  0.50026119  0.66709748  1
  I  I87  1  0.17375293  0.83618826  -0.00369810  1
  I  I88  1  0.16778792  0.83267141  0.33313133  1
  I  I89  1  0.17392935  0.84045067  0.67118529  1
  I  I90  1  0.49986129  0.16465536  -0.00037954  1
  I  I91  1  0.49931740  0.15933294  0.33233676  1
  I  I92  1  0.50047493  0.16385310  0.66813344  1
  I  I93  1  0.49798227  0.49865118  -0.00331472  1
  I  I94  1  0.49837299  0.49975023  0.33307475  1
  I  I95  1  0.49813029  0.49819838  0.67062803  1
  I  I96  1  0.49457115  0.83730420  -0.00077505  1
  I  I97  1  0.50342541  0.84186674  0.33327601  1
  I  I98  1  0.50019203  0.83689772  0.66751076  1
  I  I99  1  0.82807566  0.16567752  -0.00024910  1
  I  I100  1  0.83366822  0.16504957  0.33048194  1
  I  I101  1  0.83169067  0.16438540  0.66937112  1
  I  I102  1  0.83246090  0.50535495  -0.00003884  1
  I  I103  1  0.83206003  0.49644573  0.33304366  1
  I  I104  1  0.83410163  0.49645236  0.66689488  1
  I  I105  1  0.83273642  0.83186277  0.00000392  1
  I  I106  1  0.82805094  0.83643310  0.33643948  1
  I  I107  1  0.82553829  0.83785249  0.66422864  1
  I  I108  1  0.00056782  0.17124368  0.15850275  1
  I  I109  1  -0.00012811  0.16497045  0.50005472  1
  I  I110  1  0.00086940  0.16042128  0.84179939  1
  I  I111  1  0.00423045  0.49609436  0.16417031  1
  I  I112  1  -0.00000361  0.49983635  0.50244831  1
  I  I113  1  0.00004542  0.50138379  0.83389254  1
  I  I114  1  -0.00003770  0.83333040  0.16790973  1
  I  I115  1  -0.00241235  0.83463522  0.50038282  1
  I  I116  1  0.00265019  0.83901890  0.83208983  1
  I  I117  1  0.33412691  0.16690010  0.16378961  1
  I  I118  1  0.33791383  0.15914692  0.50069735  1
  I  I119  1  0.33450270  0.16578547  0.83565010  1
  I  I120  1  0.33105211  0.49248482  0.16460521  1
  I  I121  1  0.33379204  0.50197788  0.50085698  1
  I  I122  1  0.33629743  0.49576284  0.83417825  1
  I  I123  1  0.33703403  0.83899160  0.17068673  1
  I  I124  1  0.33723014  0.83733392  0.49844911  1
  I  I125  1  0.33547754  0.83827396  0.83179950  1
  I  I126  1  0.66523815  0.16129301  0.16257536  1
  I  I127  1  0.66268576  0.16372804  0.50160929  1
  I  I128  1  0.66497771  0.16635205  0.83614664  1
  I  I129  1  0.66670226  0.49975277  0.16625546  1
  I  I130  1  0.66617647  0.49655176  0.49891552  1
  I  I131  1  0.66228238  0.50189881  0.83422458  1
  I  I132  1  0.66204309  0.83871537  0.16036838  1
  I  I133  1  0.66402075  0.83892489  0.50309170  1
  I  I134  1  0.66298071  0.83476804  0.83430173  1
