# generated using pymatgen
data_Cs27Sn14Pb13I81
_symmetry_space_group_name_H-M   'P 1'
_cell_length_a   18.97799642
_cell_length_b   18.97677428
_cell_length_c   18.97220769
_cell_angle_alpha   89.99868010
_cell_angle_beta   89.99873887
_cell_angle_gamma   90.00044545
_symmetry_Int_Tables_number   1
_chemical_formula_structural   Cs27Sn14Pb13I81
_chemical_formula_sum   'Cs27 Sn14 Pb13 I81'
_cell_volume   6832.67277505
_cell_formula_units_Z   1
loop_
 _symmetry_equiv_pos_site_id
 _symmetry_equiv_pos_as_xyz
  1  'x, y, z'
loop_
 _atom_site_type_symbol
 _atom_site_label
 _atom_site_symmetry_multiplicity
 _atom_site_fract_x
 _atom_site_fract_y
 _atom_site_fract_z
 _atom_site_occupancy
  Cs  Cs0  1  -0.00072756  -0.00339208  0.00002884  1
  Cs  Cs1  1  -0.00144968  0.00146239  0.33640848  1
  Cs  Cs2  1  -0.00093438  -0.00190711  0.66409836  1
  Cs  Cs3  1  -0.00071842  0.33515208  0.00342172  1
  Cs  Cs4  1  -0.00271081  0.33206660  0.33451849  1
  Cs  Cs5  1  0.00042707  0.33407336  0.66444384  1
  Cs  Cs6  1  0.01127506  0.66836417  -0.00138881  1
  Cs  Cs7  1  -0.00047046  0.66751820  0.33479638  1
  Cs  Cs8  1  -0.00123568  0.66663177  0.66824050  1
  Cs  Cs9  1  0.33445296  0.00131245  0.00210156  1
  Cs  Cs10  1  0.33259597  -0.00064922  0.33213629  1
  Cs  Cs11  1  0.33584235  0.00536018  0.66541319  1
  Cs  Cs12  1  0.33161047  0.33211202  -0.00266679  1
  Cs  Cs13  1  0.33412858  0.33228069  0.33435182  1
  Cs  Cs14  1  0.33274683  0.33133015  0.66805248  1
  Cs  Cs15  1  0.32336240  0.66770754  0.00683443  1
  Cs  Cs16  1  0.34334114  0.66884359  0.32693049  1
  Cs  Cs17  1  0.33473525  0.66416391  0.66590068  1
  Cs  Cs18  1  0.66710953  0.00243256  -0.00375818  1
  Cs  Cs19  1  0.66810732  -0.00096743  0.33285095  1
  Cs  Cs20  1  0.66699705  -0.00017319  0.66912289  1
  Cs  Cs21  1  0.66804880  0.33180772  -0.00040166  1
  Cs  Cs22  1  0.66908833  0.33546356  0.33025358  1
  Cs  Cs23  1  0.66603507  0.33425459  0.66810252  1
  Cs  Cs24  1  0.66629958  0.66627080  -0.00157267  1
  Cs  Cs25  1  0.65884380  0.66644967  0.33280118  1
  Cs  Cs26  1  0.66733039  0.66580969  0.66564534  1
  Sn  Sn27  1  0.83389880  0.50016685  0.50061276  1
  Sn  Sn28  1  0.16479201  0.16645343  0.83431279  1
  Sn  Sn29  1  0.50030122  0.50166605  0.83347301  1
  Sn  Sn30  1  0.83472110  0.16752169  0.83245215  1
  Sn  Sn31  1  0.49954478  0.83162732  0.83334073  1
  Sn  Sn32  1  0.16636630  0.50171263  0.49977533  1
  Sn  Sn33  1  0.50160070  0.16674385  0.49875778  1
  Sn  Sn34  1  0.49962849  0.16677982  0.16787579  1
  Sn  Sn35  1  0.83327493  0.83283154  0.16717702  1
  Sn  Sn36  1  0.83211428  0.16686579  0.50087378  1
  Sn  Sn37  1  0.83288697  0.49938555  0.83292158  1
  Sn  Sn38  1  0.16693816  0.16672544  0.16576875  1
  Sn  Sn39  1  0.83368898  0.83289683  0.49898285  1
  Sn  Sn40  1  0.16661242  0.83165590  0.50011691  1
  Pb  Pb41  1  0.50009725  0.49738374  0.16320742  1
  Pb  Pb42  1  0.16936421  0.83591259  0.83067619  1
  Pb  Pb43  1  0.16614431  0.16669587  0.49994063  1
  Pb  Pb44  1  0.83244584  0.83275635  0.83288965  1
  Pb  Pb45  1  0.50036804  0.83542991  0.50152840  1
  Pb  Pb46  1  0.16651852  0.49751255  0.17029463  1
  Pb  Pb47  1  0.50038697  0.49764499  0.50152526  1
  Pb  Pb48  1  0.50051553  0.16715671  0.83336961  1
  Pb  Pb49  1  0.16467500  0.83560489  0.16951798  1
  Pb  Pb50  1  0.16608642  0.49811404  0.83146128  1
  Pb  Pb51  1  0.50217685  0.83553330  0.16399670  1
  Pb  Pb52  1  0.83345243  0.50312865  0.16636967  1
  Pb  Pb53  1  0.83344681  0.16532994  0.16649190  1
  I  I54  1  0.17037781  0.00351610  0.16519052  1
  I  I55  1  0.16301713  -0.00164107  0.50027042  1
  I  I56  1  0.16243829  0.00399399  0.83352748  1
  I  I57  1  0.16930674  0.32928498  0.16451417  1
  I  I58  1  0.16344395  0.33509717  0.50058756  1
  I  I59  1  0.16882714  0.32993795  0.83307195  1
  I  I60  1  0.16513679  0.66693854  0.16448676  1
  I  I61  1  0.15660360  0.66667357  0.50273035  1
  I  I62  1  0.16482306  0.66669607  0.83374302  1
  I  I63  1  0.49667342  0.00348209  0.16770852  1
  I  I64  1  0.50277384  0.00355895  0.50102030  1
  I  I65  1  0.50088135  -0.00107206  0.83260890  1
  I  I66  1  0.49808618  0.32912672  0.16924406  1
  I  I67  1  0.50248116  0.32951644  0.50002340  1
  I  I68  1  0.50162456  0.33523513  0.83250162  1
  I  I69  1  0.50129076  0.66684262  0.16795940  1
  I  I70  1  0.50141689  0.66655936  0.50085108  1
  I  I71  1  0.50869924  0.66588951  0.82974303  1
  I  I72  1  0.83338180  -0.00224372  0.17125740  1
  I  I73  1  0.83418008  0.00047418  0.50031742  1
  I  I74  1  0.83384271  0.00260969  0.83022524  1
  I  I75  1  0.83312520  0.33328379  0.16875661  1
  I  I76  1  0.83418730  0.33299351  0.50510046  1
  I  I77  1  0.83034914  0.33274671  0.82559913  1
  I  I78  1  0.83236800  0.67078541  0.17132192  1
  I  I79  1  0.83925836  0.66644809  0.50144230  1
  I  I80  1  0.82898335  0.66388226  0.82926438  1
  I  I81  1  0.16827330  0.16687307  -0.00059042  1
  I  I82  1  0.16810047  0.16628547  0.33160064  1
  I  I83  1  0.16705150  0.16682437  0.66844908  1
  I  I84  1  0.16654201  0.49989060  -0.00008888  1
  I  I85  1  0.15870522  0.49991738  0.33834027  1
  I  I86  1  0.16458211  0.49940580  0.66351787  1
  I  I87  1  0.16537881  0.83339975  0.00001171  1
  I  I88  1  0.16499382  0.83343774  0.33748199  1
  I  I89  1  0.15804813  0.83353335  0.66306196  1
  I  I90  1  0.49906844  0.16605198  0.00177420  1
  I  I91  1  0.49919278  0.16571782  0.33406499  1
  I  I92  1  0.50023837  0.16609518  0.66475408  1
  I  I93  1  0.50798687  0.50027163  -0.00487356  1
  I  I94  1  0.50016755  0.49969258  0.33341873  1
  I  I95  1  0.50212679  0.49926945  0.66944588  1
  I  I96  1  0.50378679  0.83374877  -0.00363189  1
  I  I97  1  0.49853062  0.83410362  0.33338160  1
  I  I98  1  0.50306790  0.83468631  0.66920286  1
  I  I99  1  0.83273080  0.16879301  -0.00288796  1
  I  I100  1  0.83316954  0.16849168  0.33638983  1
  I  I101  1  0.83284374  0.16472750  0.66594404  1
  I  I102  1  0.82757939  0.49420044  -0.00356882  1
  I  I103  1  0.83812283  0.49509234  0.33700507  1
  I  I104  1  0.83310214  0.50006642  0.66591986  1
  I  I105  1  0.82898258  0.83703719  0.00151729  1
  I  I106  1  0.83719228  0.83661895  0.33574879  1
  I  I107  1  0.83566636  0.83489655  0.66351637  1
  I  I108  1  0.00209141  0.16482971  0.16620522  1
  I  I109  1  -0.00298430  0.16639272  0.50090947  1
  I  I110  1  -0.00145431  0.17135730  0.83183347  1
  I  I111  1  -0.00010285  0.49670225  0.16181173  1
  I  I112  1  -0.00179480  0.49744321  0.50582174  1
  I  I113  1  -0.00317240  0.49671558  0.83018617  1
  I  I114  1  -0.00309895  0.83688693  0.16676386  1
  I  I115  1  -0.00160268  0.83685176  0.49737955  1
  I  I116  1  0.00015992  0.83254432  0.83542565  1
  I  I117  1  0.33342510  0.16582596  0.16653314  1
  I  I118  1  0.33496355  0.16638901  0.50094880  1
  I  I119  1  0.33175969  0.16624754  0.83256021  1
  I  I120  1  0.33331761  0.50161977  0.16709985  1
  I  I121  1  0.33110109  0.50065052  0.50262659  1
  I  I122  1  0.33540807  0.49966650  0.83036528  1
  I  I123  1  0.33327549  0.83382942  0.16718465  1
  I  I124  1  0.33102956  0.83251613  0.50381607  1
  I  I125  1  0.33693738  0.83069613  0.83102179  1
  I  I126  1  0.66473422  0.16442889  0.16702396  1
  I  I127  1  0.66833888  0.16585848  0.50146579  1
  I  I128  1  0.66931032  0.16680799  0.83209997  1
  I  I129  1  0.66683222  0.49707988  0.17111242  1
  I  I130  1  0.67006795  0.50172666  0.50279345  1
  I  I131  1  0.66802515  0.49670195  0.82697214  1
  I  I132  1  0.66973202  0.83657125  0.17461877  1
  I  I133  1  0.67002675  0.83214924  0.49800778  1
  I  I134  1  0.66468662  0.83675108  0.83106300  1
