# generated using pymatgen
data_Cs27Sn13Pb14I81
_symmetry_space_group_name_H-M   'P 1'
_cell_length_a   18.97981007
_cell_length_b   18.97587122
_cell_length_c   18.97597438
_cell_angle_alpha   89.99962618
_cell_angle_beta   89.99800124
_cell_angle_gamma   89.99866917
_symmetry_Int_Tables_number   1
_chemical_formula_structural   Cs27Sn13Pb14I81
_chemical_formula_sum   'Cs27 Sn13 Pb14 I81'
_cell_volume   6834.35716842
_cell_formula_units_Z   1
loop_
 _symmetry_equiv_pos_site_id
 _symmetry_equiv_pos_as_xyz
  1  'x, y, z'
loop_
 _atom_site_type_symbol
 _atom_site_label
 _atom_site_symmetry_multiplicity
 _atom_site_fract_x
 _atom_site_fract_y
 _atom_site_fract_z
 _atom_site_occupancy
  Cs  Cs0  1  -0.00181308  -0.00239371  0.00034835  1
  Cs  Cs1  1  0.00171910  0.00298193  0.33167239  1
  Cs  Cs2  1  -0.00268008  0.00188743  0.66875460  1
  Cs  Cs3  1  0.00076502  0.33308378  0.00250947  1
  Cs  Cs4  1  -0.00119309  0.33318494  0.33285200  1
  Cs  Cs5  1  0.00092002  0.33499326  0.66622595  1
  Cs  Cs6  1  -0.00272526  0.67013491  0.00183417  1
  Cs  Cs7  1  0.00490135  0.66380606  0.33279239  1
  Cs  Cs8  1  0.00179660  0.66233281  0.66502135  1
  Cs  Cs9  1  0.33503474  0.00207284  -0.00287530  1
  Cs  Cs10  1  0.33354681  -0.00591786  0.33410207  1
  Cs  Cs11  1  0.33351990  -0.00144072  0.66782943  1
  Cs  Cs12  1  0.33900170  0.33542108  -0.00538985  1
  Cs  Cs13  1  0.33430831  0.33172210  0.33088204  1
  Cs  Cs14  1  0.33241703  0.33471706  0.67385942  1
  Cs  Cs15  1  0.33580835  0.66357671  -0.00063535  1
  Cs  Cs16  1  0.33355717  0.67712351  0.33430990  1
  Cs  Cs17  1  0.33038529  0.66776856  0.66653601  1
  Cs  Cs18  1  0.66841863  -0.00169255  0.00087831  1
  Cs  Cs19  1  0.66442514  0.00069895  0.33532817  1
  Cs  Cs20  1  0.66839372  -0.00098692  0.66568929  1
  Cs  Cs21  1  0.66259620  0.33443258  0.00115402  1
  Cs  Cs22  1  0.66789810  0.33322438  0.33393885  1
  Cs  Cs23  1  0.66754380  0.33362627  0.66407506  1
  Cs  Cs24  1  0.66789280  0.66710155  0.00068498  1
  Cs  Cs25  1  0.66215243  0.66672602  0.33371764  1
  Cs  Cs26  1  0.66779197  0.66820271  0.66624134  1
  Sn  Sn27  1  0.16677114  0.16689469  0.49968198  1
  Sn  Sn28  1  0.49924552  0.83337277  0.83336090  1
  Sn  Sn29  1  0.83401829  0.49901937  0.16594872  1
  Sn  Sn30  1  0.83398881  0.83372333  0.49944255  1
  Sn  Sn31  1  0.16624266  0.16772997  0.16713235  1
  Sn  Sn32  1  0.16728494  0.83340191  0.83344666  1
  Sn  Sn33  1  0.49952182  0.16772559  0.50017253  1
  Sn  Sn34  1  0.83325027  0.16783064  0.83359826  1
  Sn  Sn35  1  0.83365854  0.16588826  0.49984761  1
  Sn  Sn36  1  0.83343964  0.49886694  0.83412980  1
  Sn  Sn37  1  0.16633636  0.49903600  0.16674696  1
  Sn  Sn38  1  0.83387575  0.16751069  0.16663806  1
  Sn  Sn39  1  0.49940194  0.49926311  0.49985577  1
  Pb  Pb40  1  0.83349841  0.83307176  0.83174402  1
  Pb  Pb41  1  0.49987523  0.16656109  0.16880851  1
  Pb  Pb42  1  0.16457936  0.16558820  0.83392365  1
  Pb  Pb43  1  0.50164073  0.83371492  0.50150535  1
  Pb  Pb44  1  0.50289251  0.16514661  0.83081641  1
  Pb  Pb45  1  0.83244788  0.49953218  0.49924324  1
  Pb  Pb46  1  0.49998191  0.49986368  0.16890633  1
  Pb  Pb47  1  0.16661014  0.83391264  0.16441303  1
  Pb  Pb48  1  0.50256238  0.50185040  0.83104962  1
  Pb  Pb49  1  0.16425297  0.50187269  0.83586424  1
  Pb  Pb50  1  0.83341610  0.83329036  0.16969481  1
  Pb  Pb51  1  0.50011873  0.83348495  0.16358070  1
  Pb  Pb52  1  0.16948679  0.49744316  0.49767829  1
  Pb  Pb53  1  0.16411646  0.83591313  0.50189054  1
  I  I54  1  0.16115612  0.00375643  0.17019088  1
  I  I55  1  0.17041072  0.00417266  0.49354107  1
  I  I56  1  0.16720609  -0.00231159  0.83386726  1
  I  I57  1  0.16025394  0.33224548  0.17124088  1
  I  I58  1  0.15938714  0.32920555  0.49986355  1
  I  I59  1  0.16650755  0.33330645  0.83102579  1
  I  I60  1  0.16120257  0.66377707  0.16463120  1
  I  I61  1  0.16647023  0.66665054  0.49917958  1
  I  I62  1  0.16771208  0.66968339  0.83362758  1
  I  I63  1  0.50093858  0.00034716  0.16982102  1
  I  I64  1  0.50044656  0.00316904  0.50106791  1
  I  I65  1  0.49883837  -0.00261783  0.83037141  1
  I  I66  1  0.50042887  0.33318577  0.16486278  1
  I  I67  1  0.50496039  0.33178587  0.49963972  1
  I  I68  1  0.49982509  0.33328513  0.83349674  1
  I  I69  1  0.50076470  0.66636955  0.17120212  1
  I  I70  1  0.50470157  0.66469833  0.50084486  1
  I  I71  1  0.49892701  0.66956893  0.82981172  1
  I  I72  1  0.83752848  0.00369820  0.16385851  1
  I  I73  1  0.83066797  0.00271337  0.50166156  1
  I  I74  1  0.83345472  0.00273832  0.83423117  1
  I  I75  1  0.83725132  0.33227291  0.16842416  1
  I  I76  1  0.83398489  0.32989951  0.50036674  1
  I  I77  1  0.83372277  0.33244582  0.83062669  1
  I  I78  1  0.83683667  0.66328653  0.16259306  1
  I  I79  1  0.82924706  0.66823584  0.50248915  1
  I  I80  1  0.83289697  0.66422274  0.83588622  1
  I  I81  1  0.16053943  0.16753739  0.00320926  1
  I  I82  1  0.16083374  0.16970031  0.33343978  1
  I  I83  1  0.16495566  0.16346153  0.66403859  1
  I  I84  1  0.16559344  0.49302923  0.00373232  1
  I  I85  1  0.15803780  0.49871496  0.32988759  1
  I  I86  1  0.16563688  0.50023880  0.66667870  1
  I  I87  1  0.16855476  0.83581147  -0.00327592  1
  I  I88  1  0.16530451  0.83162549  0.33338657  1
  I  I89  1  0.16914425  0.83491371  0.66952282  1
  I  I90  1  0.50023316  0.16423208  -0.00029702  1
  I  I91  1  0.50604786  0.16936340  0.33719609  1
  I  I92  1  0.50053194  0.16946980  0.66258960  1
  I  I93  1  0.49934786  0.50255427  -0.00008732  1
  I  I94  1  0.50484430  0.49583879  0.33662846  1
  I  I95  1  0.50330901  0.49520874  0.66340369  1
  I  I96  1  0.49844242  0.83324511  -0.00443124  1
  I  I97  1  0.50187473  0.83268887  0.33386173  1
  I  I98  1  0.49829101  0.83398890  0.66912897  1
  I  I99  1  0.83857405  0.16980653  0.00056121  1
  I  I100  1  0.83356280  0.16672181  0.33363800  1
  I  I101  1  0.83289086  0.16552550  0.66587615  1
  I  I102  1  0.83604669  0.49374123  0.00045881  1
  I  I103  1  0.83528705  0.49685515  0.33039509  1
  I  I104  1  0.83035908  0.49803144  0.66845444  1
  I  I105  1  0.83247081  0.83577466  -0.00000959  1
  I  I106  1  0.83186567  0.83840287  0.33742182  1
  I  I107  1  0.83249266  0.83867224  0.66410663  1
  I  I108  1  -0.00116205  0.17008101  0.17189764  1
  I  I109  1  -0.00108724  0.16127958  0.49934829  1
  I  I110  1  -0.00372505  0.16646283  0.82810323  1
  I  I111  1  -0.00118806  0.49584330  0.16400403  1
  I  I112  1  0.00018504  0.50099324  0.50218915  1
  I  I113  1  -0.00381705  0.49891326  0.83185152  1
  I  I114  1  -0.00012719  0.83329663  0.16298290  1
  I  I115  1  -0.00360379  0.83820293  0.50353421  1
  I  I116  1  0.00161814  0.83442279  0.83222353  1
  I  I117  1  0.32974795  0.16993462  0.17119763  1
  I  I118  1  0.33304399  0.17090762  0.49486714  1
  I  I119  1  0.33337923  0.16559989  0.83302606  1
  I  I120  1  0.33022200  0.49514501  0.16812035  1
  I  I121  1  0.33699287  0.49543673  0.49939811  1
  I  I122  1  0.33331097  0.50020777  0.83419317  1
  I  I123  1  0.33306206  0.83313271  0.17056154  1
  I  I124  1  0.33314220  0.83396273  0.49987618  1
  I  I125  1  0.33331577  0.83464800  0.83165720  1
  I  I126  1  0.67037888  0.17048937  0.16730953  1
  I  I127  1  0.66797334  0.16612034  0.50058075  1
  I  I128  1  0.67124510  0.16691678  0.83357537  1
  I  I129  1  0.67011001  0.49565723  0.16425611  1
  I  I130  1  0.66483275  0.49502058  0.49911253  1
  I  I131  1  0.67057365  0.49870936  0.83891251  1
  I  I132  1  0.66719291  0.83311005  0.16440319  1
  I  I133  1  0.66943394  0.83909909  0.50352285  1
  I  I134  1  0.66525079  0.83356438  0.82989915  1
