# generated using pymatgen
data_Cs27Sn13Pb14I81
_symmetry_space_group_name_H-M   'P 1'
_cell_length_a   18.97823258
_cell_length_b   18.97254533
_cell_length_c   18.97732568
_cell_angle_alpha   90.00107194
_cell_angle_beta   90.00157915
_cell_angle_gamma   90.00062505
_symmetry_Int_Tables_number   1
_chemical_formula_structural   Cs27Sn13Pb14I81
_chemical_formula_sum   'Cs27 Sn13 Pb14 I81'
_cell_volume   6833.07793613
_cell_formula_units_Z   1
loop_
 _symmetry_equiv_pos_site_id
 _symmetry_equiv_pos_as_xyz
  1  'x, y, z'
loop_
 _atom_site_type_symbol
 _atom_site_label
 _atom_site_symmetry_multiplicity
 _atom_site_fract_x
 _atom_site_fract_y
 _atom_site_fract_z
 _atom_site_occupancy
  Cs  Cs0  1  0.00059044  0.00173145  0.00170927  1
  Cs  Cs1  1  -0.00104274  0.00004372  0.33417097  1
  Cs  Cs2  1  -0.00118622  -0.00245151  0.66276636  1
  Cs  Cs3  1  -0.00111200  0.33192747  0.00342241  1
  Cs  Cs4  1  0.00352089  0.33725837  0.33141925  1
  Cs  Cs5  1  -0.00059813  0.33486389  0.66583101  1
  Cs  Cs6  1  -0.00358088  0.66501100  -0.00332171  1
  Cs  Cs7  1  0.00138182  0.66475923  0.33465072  1
  Cs  Cs8  1  -0.00117179  0.66780982  0.66840043  1
  Cs  Cs9  1  0.33275310  0.00063571  -0.00096871  1
  Cs  Cs10  1  0.33150970  -0.00349025  0.33204227  1
  Cs  Cs11  1  0.33315316  -0.00003166  0.66805988  1
  Cs  Cs12  1  0.32834967  0.32764582  -0.00301884  1
  Cs  Cs13  1  0.33075413  0.34352627  0.33552389  1
  Cs  Cs14  1  0.33759109  0.33350852  0.66712076  1
  Cs  Cs15  1  0.33672980  0.66989160  -0.00300951  1
  Cs  Cs16  1  0.33566929  0.66359344  0.33386664  1
  Cs  Cs17  1  0.33213830  0.66657240  0.66720149  1
  Cs  Cs18  1  0.66682879  0.00124802  0.00331396  1
  Cs  Cs19  1  0.66900930  0.00143327  0.33181269  1
  Cs  Cs20  1  0.66879765  0.00198046  0.66254868  1
  Cs  Cs21  1  0.67074947  0.33236269  0.00023735  1
  Cs  Cs22  1  0.66433062  0.33308158  0.33670415  1
  Cs  Cs23  1  0.66364235  0.32948599  0.66288387  1
  Cs  Cs24  1  0.66656923  0.66332782  -0.00048728  1
  Cs  Cs25  1  0.66148018  0.66447221  0.32880663  1
  Cs  Cs26  1  0.67057070  0.66836957  0.67038416  1
  Sn  Sn27  1  0.16568398  0.83323986  0.16648211  1
  Sn  Sn28  1  0.16703624  0.83283165  0.83339182  1
  Sn  Sn29  1  0.16726431  0.50049662  0.83348075  1
  Sn  Sn30  1  0.16708170  0.16637688  0.50003699  1
  Sn  Sn31  1  0.49968772  0.83311570  0.83233174  1
  Sn  Sn32  1  0.16747618  0.83402153  0.50002584  1
  Sn  Sn33  1  0.83262528  0.16585059  0.16608761  1
  Sn  Sn34  1  0.83348223  0.16613264  0.83334423  1
  Sn  Sn35  1  0.49937468  0.50027568  0.83355098  1
  Sn  Sn36  1  0.49960415  0.83370592  0.50088620  1
  Sn  Sn37  1  0.49985568  0.16688343  0.16697685  1
  Sn  Sn38  1  0.83412770  0.83350843  0.16649713  1
  Sn  Sn39  1  0.83310494  0.50034272  0.49995729  1
  Pb  Pb40  1  0.83523289  0.16835526  0.49892963  1
  Pb  Pb41  1  0.49981820  0.83443677  0.16625541  1
  Pb  Pb42  1  0.83322710  0.49970504  0.16888561  1
  Pb  Pb43  1  0.49974655  0.49670948  0.16351578  1
  Pb  Pb44  1  0.16564199  0.50098308  0.50232051  1
  Pb  Pb45  1  0.83320254  0.83161522  0.49740868  1
  Pb  Pb46  1  0.50192243  0.16597811  0.83470549  1
  Pb  Pb47  1  0.83314807  0.49763728  0.83184710  1
  Pb  Pb48  1  0.83317060  0.83526505  0.83534236  1
  Pb  Pb49  1  0.50206895  0.50280857  0.50250254  1
  Pb  Pb50  1  0.49735604  0.16440462  0.49742263  1
  Pb  Pb51  1  0.16649225  0.16494432  0.16893636  1
  Pb  Pb52  1  0.16469872  0.16603319  0.83143701  1
  Pb  Pb53  1  0.16686598  0.50339860  0.16335367  1
  I  I54  1  0.16566407  -0.00351073  0.16219708  1
  I  I55  1  0.16805426  -0.00222313  0.50227499  1
  I  I56  1  0.17028934  -0.00359457  0.83496925  1
  I  I57  1  0.16581381  0.33329032  0.16757957  1
  I  I58  1  0.16279643  0.33160264  0.50082152  1
  I  I59  1  0.16979776  0.33555516  0.83025139  1
  I  I60  1  0.16149006  0.67183784  0.17272848  1
  I  I61  1  0.16874556  0.67035448  0.49824726  1
  I  I62  1  0.16935458  0.66832596  0.83157051  1
  I  I63  1  0.50226844  0.00209244  0.16432234  1
  I  I64  1  0.49934372  -0.00369651  0.50697253  1
  I  I65  1  0.49539666  -0.00328884  0.83167654  1
  I  I66  1  0.50791250  0.32899687  0.16594678  1
  I  I67  1  0.49961569  0.33337831  0.50051821  1
  I  I68  1  0.49652145  0.33562561  0.83572804  1
  I  I69  1  0.50080438  0.66687125  0.16843061  1
  I  I70  1  0.49311139  0.67075102  0.49890863  1
  I  I71  1  0.49627328  0.66800035  0.83040207  1
  I  I72  1  0.83347989  0.00029218  0.16360273  1
  I  I73  1  0.83271795  -0.00018692  0.50119550  1
  I  I74  1  0.83373983  0.00290253  0.83463811  1
  I  I75  1  0.82969424  0.32995050  0.16334667  1
  I  I76  1  0.83599764  0.33580025  0.50040507  1
  I  I77  1  0.83425620  0.33006177  0.83922103  1
  I  I78  1  0.83774009  0.66959245  0.16807250  1
  I  I79  1  0.83594775  0.66437608  0.50081507  1
  I  I80  1  0.83341222  0.66687076  0.83408636  1
  I  I81  1  0.16715328  0.16623829  0.00010426  1
  I  I82  1  0.16421129  0.16016386  0.33654563  1
  I  I83  1  0.16387768  0.16054243  0.66389019  1
  I  I84  1  0.16874387  0.50319509  -0.00467886  1
  I  I85  1  0.16415045  0.49953633  0.33350162  1
  I  I86  1  0.16847850  0.50536112  0.67002925  1
  I  I87  1  0.16722824  0.82952425  -0.00077057  1
  I  I88  1  0.16609775  0.83956586  0.33383258  1
  I  I89  1  0.17103656  0.83337555  0.66689085  1
  I  I90  1  0.50159563  0.16386342  0.00255502  1
  I  I91  1  0.50811849  0.16285715  0.32997836  1
  I  I92  1  0.50181898  0.16803089  0.66656692  1
  I  I93  1  0.49819816  0.50911306  -0.00431577  1
  I  I94  1  0.50202628  0.50092772  0.33354759  1
  I  I95  1  0.49624782  0.50018969  0.67030261  1
  I  I96  1  0.49672541  0.83130374  -0.00291106  1
  I  I97  1  0.49718731  0.83600753  0.33537672  1
  I  I98  1  0.49232054  0.83057549  0.66743865  1
  I  I99  1  0.83090405  0.16378218  0.00104143  1
  I  I100  1  0.83076391  0.16287201  0.33011886  1
  I  I101  1  0.83507581  0.16857562  0.66833168  1
  I  I102  1  0.83358810  0.50066350  -0.00012392  1
  I  I103  1  0.83509028  0.49916365  0.33641052  1
  I  I104  1  0.83457016  0.49910624  0.66444340  1
  I  I105  1  0.83704787  0.83523626  0.00323543  1
  I  I106  1  0.83688818  0.83970719  0.32970161  1
  I  I107  1  0.83525302  0.83444069  0.66665820  1
  I  I108  1  -0.00274056  0.16390959  0.16397853  1
  I  I109  1  0.00285773  0.15956736  0.49961720  1
  I  I110  1  -0.00289321  0.16710432  0.83965194  1
  I  I111  1  0.00008867  0.49603334  0.16471880  1
  I  I112  1  -0.00196111  0.50106825  0.50249824  1
  I  I113  1  0.00253266  0.50475941  0.83098741  1
  I  I114  1  0.00057498  0.83962462  0.16673584  1
  I  I115  1  0.00307286  0.83540783  0.50241256  1
  I  I116  1  0.00304314  0.83018466  0.83087560  1
  I  I117  1  0.33526870  0.16335617  0.16642206  1
  I  I118  1  0.32968929  0.16454759  0.50030765  1
  I  I119  1  0.33327813  0.16728033  0.83492805  1
  I  I120  1  0.33322952  0.49920806  0.17141889  1
  I  I121  1  0.33344855  0.49785851  0.49920045  1
  I  I122  1  0.33309980  0.50434001  0.83239036  1
  I  I123  1  0.33062942  0.83590229  0.16643937  1
  I  I124  1  0.33208658  0.83697935  0.49867480  1
  I  I125  1  0.33257382  0.83018297  0.83473330  1
  I  I126  1  0.66813074  0.15959555  0.16282414  1
  I  I127  1  0.66656337  0.16653062  0.50152202  1
  I  I128  1  0.66970953  0.16702339  0.83493173  1
  I  I129  1  0.66661846  0.50579995  0.16453504  1
  I  I130  1  0.66937773  0.49969805  0.50184306  1
  I  I131  1  0.66401181  0.50473696  0.83203749  1
  I  I132  1  0.66880491  0.83646566  0.16720614  1
  I  I133  1  0.66408110  0.83117101  0.50400911  1
  I  I134  1  0.66376162  0.83009410  0.83048704  1
