# generated using pymatgen
data_Cs27Sn13Pb14I81
_symmetry_space_group_name_H-M   'P 1'
_cell_length_a   18.97478822
_cell_length_b   18.98136377
_cell_length_c   18.97437024
_cell_angle_alpha   90.00152353
_cell_angle_beta   89.99692334
_cell_angle_gamma   89.99957155
_symmetry_Int_Tables_number   1
_chemical_formula_structural   Cs27Sn13Pb14I81
_chemical_formula_sum   'Cs27 Sn13 Pb14 I81'
_cell_volume   6833.94878194
_cell_formula_units_Z   1
loop_
 _symmetry_equiv_pos_site_id
 _symmetry_equiv_pos_as_xyz
  1  'x, y, z'
loop_
 _atom_site_type_symbol
 _atom_site_label
 _atom_site_symmetry_multiplicity
 _atom_site_fract_x
 _atom_site_fract_y
 _atom_site_fract_z
 _atom_site_occupancy
  Cs  Cs0  1  -0.00122145  0.00025928  -0.00026826  1
  Cs  Cs1  1  -0.00159548  0.00092547  0.33319378  1
  Cs  Cs2  1  0.00003965  -0.00006167  0.66747417  1
  Cs  Cs3  1  -0.00185282  0.33013740  0.00037767  1
  Cs  Cs4  1  0.00094408  0.33789331  0.33686792  1
  Cs  Cs5  1  0.00168176  0.33409944  0.66235116  1
  Cs  Cs6  1  0.00145402  0.66690714  0.00366240  1
  Cs  Cs7  1  0.00017237  0.66095511  0.33116657  1
  Cs  Cs8  1  -0.00139833  0.66837392  0.66604761  1
  Cs  Cs9  1  0.33174227  0.00121803  0.00043352  1
  Cs  Cs10  1  0.33688120  -0.00211537  0.33152469  1
  Cs  Cs11  1  0.33289091  0.00004159  0.66636418  1
  Cs  Cs12  1  0.33720535  0.33218675  -0.00128861  1
  Cs  Cs13  1  0.33124888  0.33317126  0.33488968  1
  Cs  Cs14  1  0.33231941  0.33245971  0.66634792  1
  Cs  Cs15  1  0.33189657  0.66505836  0.00304993  1
  Cs  Cs16  1  0.33290924  0.67193851  0.32488402  1
  Cs  Cs17  1  0.33546684  0.66974898  0.66848849  1
  Cs  Cs18  1  0.67076380  0.00253343  0.00035471  1
  Cs  Cs19  1  0.66635908  0.00026734  0.33422094  1
  Cs  Cs20  1  0.66740560  -0.00039796  0.66561001  1
  Cs  Cs21  1  0.66365913  0.34029153  -0.00040843  1
  Cs  Cs22  1  0.66741041  0.33237676  0.33229571  1
  Cs  Cs23  1  0.66590965  0.33475757  0.66729169  1
  Cs  Cs24  1  0.66773759  0.65320287  -0.00367187  1
  Cs  Cs25  1  0.66705662  0.66839929  0.33440492  1
  Cs  Cs26  1  0.66567686  0.66439504  0.66715643  1
  Sn  Sn27  1  0.16729009  0.16668865  0.83399496  1
  Sn  Sn28  1  0.16643676  0.49993674  0.83301903  1
  Sn  Sn29  1  0.83442663  0.83428043  0.49924482  1
  Sn  Sn30  1  0.16594297  0.16633305  0.16621105  1
  Sn  Sn31  1  0.83424231  0.16585916  0.16766105  1
  Sn  Sn32  1  0.16744574  0.83330627  0.83269734  1
  Sn  Sn33  1  0.16599499  0.83356878  0.50019899  1
  Sn  Sn34  1  0.83290937  0.83406961  0.16724993  1
  Sn  Sn35  1  0.49940925  0.49932124  0.49969741  1
  Sn  Sn36  1  0.50070486  0.16743553  0.50080930  1
  Sn  Sn37  1  0.49968374  0.83435963  0.83376769  1
  Sn  Sn38  1  0.49949374  0.16540504  0.83242299  1
  Sn  Sn39  1  0.83263163  0.16584107  0.49936713  1
  Pb  Pb40  1  0.49784260  0.49967087  0.83172100  1
  Pb  Pb41  1  0.50027321  0.83386683  0.50137941  1
  Pb  Pb42  1  0.16680934  0.16495757  0.50005412  1
  Pb  Pb43  1  0.49969200  0.49996231  0.17008370  1
  Pb  Pb44  1  0.83147196  0.50007379  0.50003130  1
  Pb  Pb45  1  0.16925537  0.50345413  0.50178585  1
  Pb  Pb46  1  0.83674934  0.49983897  0.83290666  1
  Pb  Pb47  1  0.16487575  0.83543203  0.16633686  1
  Pb  Pb48  1  0.50360029  0.83350743  0.16261672  1
  Pb  Pb49  1  0.83308603  0.16686435  0.83304077  1
  Pb  Pb50  1  0.50044287  0.16657094  0.16659138  1
  Pb  Pb51  1  0.83327111  0.83330852  0.83341308  1
  Pb  Pb52  1  0.83348239  0.49936422  0.16700738  1
  Pb  Pb53  1  0.16673117  0.49661616  0.16421512  1
  I  I54  1  0.16461328  0.00320516  0.16050424  1
  I  I55  1  0.16701642  -0.00275255  0.50632647  1
  I  I56  1  0.17089788  0.00015467  0.83318654  1
  I  I57  1  0.16053628  0.32841387  0.16303570  1
  I  I58  1  0.16438012  0.33313867  0.50095541  1
  I  I59  1  0.17062644  0.33172143  0.83816869  1
  I  I60  1  0.16500338  0.66693303  0.16604057  1
  I  I61  1  0.16195563  0.67132890  0.50582805  1
  I  I62  1  0.17020539  0.66818002  0.82744262  1
  I  I63  1  0.49784147  0.00005573  0.17131333  1
  I  I64  1  0.50145636  0.00281017  0.50288894  1
  I  I65  1  0.49174010  0.00105474  0.82690047  1
  I  I66  1  0.50243757  0.33286043  0.16100491  1
  I  I67  1  0.50505898  0.33100472  0.50622337  1
  I  I68  1  0.49624309  0.33012862  0.83153390  1
  I  I69  1  0.50120813  0.66702873  0.16693031  1
  I  I70  1  0.50008318  0.66533404  0.50346473  1
  I  I71  1  0.49699604  0.66918204  0.83114963  1
  I  I72  1  0.83716996  0.00101554  0.17071242  1
  I  I73  1  0.83091076  0.00040195  0.49647013  1
  I  I74  1  0.83681305  0.00009791  0.83322255  1
  I  I75  1  0.83737967  0.32928737  0.17069526  1
  I  I76  1  0.83178429  0.32980996  0.49644890  1
  I  I77  1  0.83242753  0.33286412  0.83400610  1
  I  I78  1  0.83340371  0.66981362  0.17072464  1
  I  I79  1  0.83584216  0.67023686  0.49683939  1
  I  I80  1  0.83103655  0.66702994  0.83304277  1
  I  I81  1  0.16633172  0.16460876  -0.00150789  1
  I  I82  1  0.16595546  0.16371580  0.33132292  1
  I  I83  1  0.16757425  0.16729281  0.66955064  1
  I  I84  1  0.16825056  0.50670069  -0.00406150  1
  I  I85  1  0.16750221  0.49997078  0.33348789  1
  I  I86  1  0.16744261  0.49375730  0.66977114  1
  I  I87  1  0.16892297  0.83216080  -0.00331315  1
  I  I88  1  0.16544427  0.83578958  0.33581306  1
  I  I89  1  0.16444881  0.83606617  0.66773670  1
  I  I90  1  0.49823570  0.16247011  -0.00331499  1
  I  I91  1  0.50059891  0.17035401  0.33647582  1
  I  I92  1  0.49953746  0.16644513  0.66684429  1
  I  I93  1  0.50047640  0.49974408  -0.00045721  1
  I  I94  1  0.50047300  0.49311701  0.33812142  1
  I  I95  1  0.49998897  0.49818542  0.66413968  1
  I  I96  1  0.49275162  0.84026274  -0.00520545  1
  I  I97  1  0.49674659  0.83300141  0.33329968  1
  I  I98  1  0.49958571  0.83497596  0.66941366  1
  I  I99  1  0.83563232  0.16141695  0.00276897  1
  I  I100  1  0.83294398  0.16204031  0.33403641  1
  I  I101  1  0.83246677  0.16176872  0.66346656  1
  I  I102  1  0.83122990  0.50056087  0.00005357  1
  I  I103  1  0.83332971  0.50010216  0.33359499  1
  I  I104  1  0.83258017  0.50017298  0.66624838  1
  I  I105  1  0.83389799  0.83956467  0.00274905  1
  I  I106  1  0.83819981  0.83816515  0.33463377  1
  I  I107  1  0.83482139  0.83824004  0.66366447  1
  I  I108  1  -0.00030871  0.16234573  0.16494194  1
  I  I109  1  -0.00238427  0.16339955  0.49991870  1
  I  I110  1  0.00328326  0.16507299  0.83426800  1
  I  I111  1  0.00017071  0.50155617  0.16585464  1
  I  I112  1  0.00037411  0.49779093  0.50171209  1
  I  I113  1  0.00491395  0.50008906  0.83240629  1
  I  I114  1  -0.00299773  0.83690603  0.16568905  1
  I  I115  1  -0.00041921  0.83942697  0.50373130  1
  I  I116  1  0.00333551  0.83480330  0.83181564  1
  I  I117  1  0.33075358  0.16702244  0.16474265  1
  I  I118  1  0.33577331  0.16856175  0.50165033  1
  I  I119  1  0.33271916  0.16597798  0.83302597  1
  I  I120  1  0.33298689  0.49925130  0.16678213  1
  I  I121  1  0.33665963  0.49213605  0.50240891  1
  I  I122  1  0.33021348  0.49976180  0.83141823  1
  I  I123  1  0.33330880  0.83459987  0.17005184  1
  I  I124  1  0.33111480  0.83389173  0.50424792  1
  I  I125  1  0.33195400  0.83472946  0.82637666  1
  I  I126  1  0.66991872  0.16207188  0.16815919  1
  I  I127  1  0.66690985  0.16438347  0.50018957  1
  I  I128  1  0.66344945  0.16104218  0.83173550  1
  I  I129  1  0.66674665  0.49823999  0.16369902  1
  I  I130  1  0.66356843  0.50035979  0.50266054  1
  I  I131  1  0.66610583  0.50065367  0.83335123  1
  I  I132  1  0.67132525  0.84191537  0.17439329  1
  I  I133  1  0.66936282  0.83455558  0.49792099  1
  I  I134  1  0.66376631  0.83954843  0.83210939  1
