# generated using pymatgen
data_Cs27Sn14Pb13I81
_symmetry_space_group_name_H-M   'P 1'
_cell_length_a   18.96927808
_cell_length_b   18.98035395
_cell_length_c   18.98023874
_cell_angle_alpha   89.99963225
_cell_angle_beta   89.99885328
_cell_angle_gamma   89.99847963
_symmetry_Int_Tables_number   1
_chemical_formula_structural   Cs27Sn14Pb13I81
_chemical_formula_sum   'Cs27 Sn14 Pb13 I81'
_cell_volume   6833.71371006
_cell_formula_units_Z   1
loop_
 _symmetry_equiv_pos_site_id
 _symmetry_equiv_pos_as_xyz
  1  'x, y, z'
loop_
 _atom_site_type_symbol
 _atom_site_label
 _atom_site_symmetry_multiplicity
 _atom_site_fract_x
 _atom_site_fract_y
 _atom_site_fract_z
 _atom_site_occupancy
  Cs  Cs0  1  -0.00460884  -0.00144577  -0.00153392  1
  Cs  Cs1  1  0.00006268  0.00108432  0.33542449  1
  Cs  Cs2  1  -0.00244498  0.00407344  0.66461714  1
  Cs  Cs3  1  -0.00043250  0.33692391  -0.00398868  1
  Cs  Cs4  1  0.00183777  0.33122471  0.33590166  1
  Cs  Cs5  1  -0.00143519  0.33212015  0.66614079  1
  Cs  Cs6  1  -0.00445394  0.66582912  -0.00064450  1
  Cs  Cs7  1  0.00289046  0.66752795  0.33443853  1
  Cs  Cs8  1  0.00089415  0.66620984  0.66589290  1
  Cs  Cs9  1  0.33415314  0.00023044  -0.00151457  1
  Cs  Cs10  1  0.33179074  -0.00263372  0.33373651  1
  Cs  Cs11  1  0.33379511  -0.00202592  0.66769118  1
  Cs  Cs12  1  0.33273112  0.32916736  -0.00103208  1
  Cs  Cs13  1  0.33382584  0.33493506  0.33294081  1
  Cs  Cs14  1  0.33334490  0.33447119  0.66830888  1
  Cs  Cs15  1  0.33214763  0.66881097  -0.00276764  1
  Cs  Cs16  1  0.33264647  0.66704853  0.33397843  1
  Cs  Cs17  1  0.33397010  0.66756449  0.66710100  1
  Cs  Cs18  1  0.67071446  0.00332359  0.00241200  1
  Cs  Cs19  1  0.66974763  0.00176604  0.33459396  1
  Cs  Cs20  1  0.66701542  0.00133595  0.66491635  1
  Cs  Cs21  1  0.67150475  0.32766159  0.00964192  1
  Cs  Cs22  1  0.66453105  0.33264418  0.32742156  1
  Cs  Cs23  1  0.67041314  0.33095682  0.66525877  1
  Cs  Cs24  1  0.67605800  0.66729051  -0.00136386  1
  Cs  Cs25  1  0.66415469  0.66435590  0.33288483  1
  Cs  Cs26  1  0.66418288  0.66679352  0.66716862  1
  Sn  Sn27  1  0.83202656  0.83197995  0.50001971  1
  Sn  Sn28  1  0.50092435  0.83394136  0.49980166  1
  Sn  Sn29  1  0.49945300  0.83250642  0.83396232  1
  Sn  Sn30  1  0.16700983  0.16630023  0.16722501  1
  Sn  Sn31  1  0.49866445  0.16616598  0.50020666  1
  Sn  Sn32  1  0.16777037  0.50118533  0.83327299  1
  Sn  Sn33  1  0.49941875  0.83282942  0.16627847  1
  Sn  Sn34  1  0.49973717  0.50027065  0.83385862  1
  Sn  Sn35  1  0.16718694  0.83262289  0.83420734  1
  Sn  Sn36  1  0.16822451  0.16770095  0.49945098  1
  Sn  Sn37  1  0.16627489  0.49912864  0.50015990  1
  Sn  Sn38  1  0.16746727  0.83343642  0.16538005  1
  Sn  Sn39  1  0.83375508  0.50104342  0.49987333  1
  Sn  Sn40  1  0.16723492  0.50017337  0.16644377  1
  Pb  Pb41  1  0.49752921  0.16405445  0.16902235  1
  Pb  Pb42  1  0.83363860  0.83316892  0.16941198  1
  Pb  Pb43  1  0.83609635  0.50020740  0.16964454  1
  Pb  Pb44  1  0.16711201  0.83331581  0.50033992  1
  Pb  Pb45  1  0.83689607  0.16660867  0.16697563  1
  Pb  Pb46  1  0.49971982  0.49996541  0.50143015  1
  Pb  Pb47  1  0.49769225  0.50250515  0.16329130  1
  Pb  Pb48  1  0.49997060  0.16656598  0.83140560  1
  Pb  Pb49  1  0.83310141  0.16679957  0.83346433  1
  Pb  Pb50  1  0.16663820  0.16644321  0.83328633  1
  Pb  Pb51  1  0.83308328  0.50001478  0.83114741  1
  Pb  Pb52  1  0.83326473  0.16715336  0.49982078  1
  Pb  Pb53  1  0.83323287  0.83335099  0.83069450  1
  I  I54  1  0.17111937  -0.00083863  0.16848965  1
  I  I55  1  0.16690810  0.00191127  0.49722267  1
  I  I56  1  0.17159584  -0.00339039  0.83514325  1
  I  I57  1  0.16521536  0.33381377  0.16865254  1
  I  I58  1  0.16582527  0.33410283  0.49732463  1
  I  I59  1  0.17021246  0.33669276  0.83475829  1
  I  I60  1  0.17022475  0.66695686  0.16816672  1
  I  I61  1  0.16579169  0.66432008  0.49805083  1
  I  I62  1  0.17045561  0.66652554  0.83439805  1
  I  I63  1  0.49319969  -0.00414502  0.16251600  1
  I  I64  1  0.49932791  -0.00156953  0.50203736  1
  I  I65  1  0.49400017  -0.00383652  0.83352210  1
  I  I66  1  0.49926462  0.33337891  0.16759786  1
  I  I67  1  0.49830702  0.33123206  0.50281019  1
  I  I68  1  0.49311455  0.33654877  0.82868132  1
  I  I69  1  0.49294103  0.67062579  0.17466056  1
  I  I70  1  0.50019244  0.66964386  0.49901188  1
  I  I71  1  0.49404086  0.66803020  0.82892375  1
  I  I72  1  0.83597487  -0.00037049  0.16970772  1
  I  I73  1  0.83299317  -0.00253031  0.50040906  1
  I  I74  1  0.83554053  -0.00058786  0.82916409  1
  I  I75  1  0.83242509  0.33349567  0.16944243  1
  I  I76  1  0.83637678  0.33618975  0.50176378  1
  I  I77  1  0.83511735  0.33394206  0.82836464  1
  I  I78  1  0.83640472  0.66677187  0.16661863  1
  I  I79  1  0.83508004  0.66670747  0.50040039  1
  I  I80  1  0.83442083  0.66673630  0.83312133  1
  I  I81  1  0.16634092  0.16872317  0.00296355  1
  I  I82  1  0.17007694  0.16914303  0.33424363  1
  I  I83  1  0.16899976  0.16919095  0.66342808  1
  I  I84  1  0.17225686  0.50022854  -0.00031021  1
  I  I85  1  0.16148971  0.50011547  0.33368139  1
  I  I86  1  0.16629327  0.50066742  0.66647989  1
  I  I87  1  0.17448739  0.83113098  0.00021949  1
  I  I88  1  0.16910121  0.83109962  0.33128302  1
  I  I89  1  0.16951705  0.82991174  0.66891567  1
  I  I90  1  0.49865581  0.16619297  0.00029959  1
  I  I91  1  0.49787251  0.16221397  0.33718650  1
  I  I92  1  0.49314610  0.16064799  0.66297930  1
  I  I93  1  0.49270896  0.50521922  -0.00463436  1
  I  I94  1  0.49973076  0.50091116  0.33321728  1
  I  I95  1  0.49304544  0.50634502  0.66909378  1
  I  I96  1  0.49196476  0.82821591  -0.00043521  1
  I  I97  1  0.49851631  0.83796419  0.33378385  1
  I  I98  1  0.49883880  0.83331725  0.66661937  1
  I  I99  1  0.83409004  0.16617842  0.00048247  1
  I  I100  1  0.83202582  0.16584510  0.33384693  1
  I  I101  1  0.83684987  0.16613044  0.66570104  1
  I  I102  1  0.83433225  0.49943110  0.00004317  1
  I  I103  1  0.83830059  0.50437298  0.33776096  1
  I  I104  1  0.84027826  0.50373826  0.66315127  1
  I  I105  1  0.83185953  0.83437144  0.00004999  1
  I  I106  1  0.83080160  0.83011448  0.33740827  1
  I  I107  1  0.83094342  0.82989097  0.66272067  1
  I  I108  1  0.00553829  0.16329978  0.17550435  1
  I  I109  1  0.00323974  0.16659430  0.49636823  1
  I  I110  1  0.00082152  0.16572316  0.82977647  1
  I  I111  1  0.00518239  0.50319262  0.16129050  1
  I  I112  1  0.00211405  0.50058975  0.50152348  1
  I  I113  1  0.00380849  0.50391255  0.83545540  1
  I  I114  1  0.00398306  0.83330075  0.16377778  1
  I  I115  1  -0.00134392  0.83270904  0.49986704  1
  I  I116  1  0.00346400  0.82919842  0.83708562  1
  I  I117  1  0.32935251  0.16897569  0.16934800  1
  I  I118  1  0.33229306  0.16590269  0.49682964  1
  I  I119  1  0.33309063  0.16682233  0.83318322  1
  I  I120  1  0.32907090  0.49855779  0.17448616  1
  I  I121  1  0.33006300  0.49942092  0.49833581  1
  I  I122  1  0.33156732  0.50492329  0.82921742  1
  I  I123  1  0.33218942  0.83330063  0.16936831  1
  I  I124  1  0.33587909  0.83410391  0.50023387  1
  I  I125  1  0.33320115  0.82928998  0.83082000  1
  I  I126  1  0.66623526  0.16544462  0.16793300  1
  I  I127  1  0.66377535  0.16445683  0.50273227  1
  I  I128  1  0.66601438  0.16642255  0.82864715  1
  I  I129  1  0.66637038  0.50153867  0.16708701  1
  I  I130  1  0.66854981  0.50158541  0.50399784  1
  I  I131  1  0.66339151  0.50681427  0.82846460  1
  I  I132  1  0.66339649  0.83318702  0.16440164  1
  I  I133  1  0.66504324  0.83393133  0.50064991  1
  I  I134  1  0.66295462  0.82844996  0.83477544  1
