# generated using pymatgen
data_Cs27Sn13Pb14I81
_symmetry_space_group_name_H-M   'P 1'
_cell_length_a   18.97030890
_cell_length_b   18.97869353
_cell_length_c   18.98294992
_cell_angle_alpha   89.99963079
_cell_angle_beta   89.99932401
_cell_angle_gamma   90.00060256
_symmetry_Int_Tables_number   1
_chemical_formula_structural   Cs27Sn13Pb14I81
_chemical_formula_sum   'Cs27 Sn13 Pb14 I81'
_cell_volume   6834.46332591
_cell_formula_units_Z   1
loop_
 _symmetry_equiv_pos_site_id
 _symmetry_equiv_pos_as_xyz
  1  'x, y, z'
loop_
 _atom_site_type_symbol
 _atom_site_label
 _atom_site_symmetry_multiplicity
 _atom_site_fract_x
 _atom_site_fract_y
 _atom_site_fract_z
 _atom_site_occupancy
  Cs  Cs0  1  0.00113017  0.00072428  -0.00092241  1
  Cs  Cs1  1  -0.00495950  -0.00093866  0.33435983  1
  Cs  Cs2  1  -0.00148784  0.00012962  0.66736725  1
  Cs  Cs3  1  0.00366720  0.33998803  0.00111217  1
  Cs  Cs4  1  -0.00025741  0.33520679  0.33398113  1
  Cs  Cs5  1  0.00115633  0.33279772  0.66627053  1
  Cs  Cs6  1  0.00268655  0.65883248  0.00078468  1
  Cs  Cs7  1  0.00791937  0.66552971  0.33493411  1
  Cs  Cs8  1  0.00971869  0.66616054  0.66515953  1
  Cs  Cs9  1  0.32650697  -0.00010658  0.00654019  1
  Cs  Cs10  1  0.33490586  -0.00525863  0.32348848  1
  Cs  Cs11  1  0.33278186  0.00073754  0.66861823  1
  Cs  Cs12  1  0.33082338  0.32912940  0.00255316  1
  Cs  Cs13  1  0.33359720  0.33272417  0.33396596  1
  Cs  Cs14  1  0.33607759  0.33295933  0.66527181  1
  Cs  Cs15  1  0.32938364  0.67050027  0.00087468  1
  Cs  Cs16  1  0.32816269  0.67327815  0.33255001  1
  Cs  Cs17  1  0.32925065  0.66720897  0.66526056  1
  Cs  Cs18  1  0.66708115  -0.00027153  -0.00070448  1
  Cs  Cs19  1  0.66800506  -0.00205124  0.33206824  1
  Cs  Cs20  1  0.66760948  0.00077829  0.66710949  1
  Cs  Cs21  1  0.66697862  0.33530335  -0.00082427  1
  Cs  Cs22  1  0.66653799  0.33238293  0.33467698  1
  Cs  Cs23  1  0.66541512  0.33211154  0.66631862  1
  Cs  Cs24  1  0.66804107  0.66455845  -0.00231067  1
  Cs  Cs25  1  0.66582076  0.66839105  0.33470349  1
  Cs  Cs26  1  0.66588510  0.66717364  0.66790258  1
  Sn  Sn27  1  0.50071078  0.83393514  0.83323293  1
  Sn  Sn28  1  0.16721770  0.16626835  0.49984294  1
  Sn  Sn29  1  0.83278947  0.83329470  0.16547477  1
  Sn  Sn30  1  0.83266133  0.16649489  0.83380012  1
  Sn  Sn31  1  0.50110002  0.49969685  0.49966096  1
  Sn  Sn32  1  0.50034907  0.50000529  0.16704391  1
  Sn  Sn33  1  0.50043860  0.49986403  0.83344125  1
  Sn  Sn34  1  0.49993553  0.16672734  0.50014481  1
  Sn  Sn35  1  0.83276691  0.83358551  0.83424432  1
  Sn  Sn36  1  0.83298612  0.16752523  0.50015632  1
  Sn  Sn37  1  0.83235504  0.49962991  0.50043397  1
  Sn  Sn38  1  0.83282194  0.16652183  0.16607791  1
  Sn  Sn39  1  0.50075214  0.16622490  0.83315384  1
  Pb  Pb40  1  0.50007209  0.83368810  0.50213552  1
  Pb  Pb41  1  0.16649950  0.16675008  0.83161376  1
  Pb  Pb42  1  0.17057529  0.49955209  0.83313030  1
  Pb  Pb43  1  0.50208550  0.16798447  0.16648108  1
  Pb  Pb44  1  0.16264201  0.83352061  0.16633755  1
  Pb  Pb45  1  0.83173053  0.50030160  0.16916506  1
  Pb  Pb46  1  0.16684561  0.83705540  0.50010850  1
  Pb  Pb47  1  0.16590485  0.83369870  0.83335817  1
  Pb  Pb48  1  0.83330657  0.83298098  0.50072327  1
  Pb  Pb49  1  0.83199815  0.50004990  0.83086820  1
  Pb  Pb50  1  0.50237090  0.83088651  0.16377012  1
  Pb  Pb51  1  0.17026865  0.49966001  0.16696860  1
  Pb  Pb52  1  0.16753206  0.49779819  0.50007359  1
  Pb  Pb53  1  0.16312107  0.16677901  0.16953442  1
  I  I54  1  0.17164413  0.00025435  0.16829815  1
  I  I55  1  0.16435216  0.00501839  0.50208880  1
  I  I56  1  0.17133083  0.00022846  0.83069870  1
  I  I57  1  0.16364741  0.33305561  0.16613587  1
  I  I58  1  0.16565962  0.32999777  0.50076929  1
  I  I59  1  0.16502589  0.33301219  0.83305136  1
  I  I60  1  0.16494494  0.66665771  0.16773353  1
  I  I61  1  0.16563446  0.66653960  0.49982571  1
  I  I62  1  0.16553714  0.66669720  0.83224611  1
  I  I63  1  0.49920192  -0.00014661  0.16806133  1
  I  I64  1  0.50223519  0.00398088  0.50476028  1
  I  I65  1  0.50523250  0.00120937  0.82645470  1
  I  I66  1  0.50384964  0.33588877  0.16308020  1
  I  I67  1  0.50117173  0.33268935  0.50464999  1
  I  I68  1  0.50432110  0.33268593  0.83129808  1
  I  I69  1  0.50342895  0.66306399  0.16864536  1
  I  I70  1  0.50605812  0.66325103  0.50124804  1
  I  I71  1  0.50522259  0.66655007  0.83327465  1
  I  I72  1  0.83196951  0.00114021  0.16918869  1
  I  I73  1  0.83254625  0.00361357  0.49970083  1
  I  I74  1  0.82583265  0.00133895  0.83140879  1
  I  I75  1  0.83147865  0.33055411  0.16537944  1
  I  I76  1  0.83237357  0.33142113  0.49972350  1
  I  I77  1  0.82903980  0.33008578  0.83458597  1
  I  I78  1  0.83011245  0.66915531  0.16217962  1
  I  I79  1  0.82660648  0.66358582  0.49969989  1
  I  I80  1  0.82753985  0.66927233  0.83709797  1
  I  I81  1  0.16794720  0.16596665  0.00022949  1
  I  I82  1  0.16850292  0.16833078  0.33762687  1
  I  I83  1  0.16262405  0.16791779  0.66358152  1
  I  I84  1  0.16534425  0.49939920  0.00006922  1
  I  I85  1  0.16711266  0.49909465  0.33372061  1
  I  I86  1  0.16674199  0.50041078  0.66635521  1
  I  I87  1  0.17056415  0.83507487  -0.00014768  1
  I  I88  1  0.16612279  0.83286755  0.33317028  1
  I  I89  1  0.16414969  0.83195938  0.66680288  1
  I  I90  1  0.50530155  0.16864133  -0.00323084  1
  I  I91  1  0.50129784  0.17253913  0.33644963  1
  I  I92  1  0.50407718  0.17082319  0.66658584  1
  I  I93  1  0.50119056  0.49961830  -0.00104551  1
  I  I94  1  0.50490629  0.49321631  0.33477415  1
  I  I95  1  0.50429748  0.49826614  0.66639961  1
  I  I96  1  0.50264320  0.83443830  -0.00432697  1
  I  I97  1  0.50076604  0.83292426  0.33295767  1
  I  I98  1  0.50748394  0.83026419  0.67043130  1
  I  I99  1  0.82676546  0.16143521  -0.00101447  1
  I  I100  1  0.83335935  0.16619696  0.33430426  1
  I  I101  1  0.83247790  0.16601996  0.66650649  1
  I  I102  1  0.83115624  0.49730410  -0.00014177  1
  I  I103  1  0.82672709  0.49481874  0.33694072  1
  I  I104  1  0.82709605  0.49527009  0.66305858  1
  I  I105  1  0.82795126  0.84226998  -0.00094610  1
  I  I106  1  0.83331943  0.83773172  0.33114836  1
  I  I107  1  0.82846964  0.83759123  0.67007604  1
  I  I108  1  -0.00534753  0.16326583  0.16585168  1
  I  I109  1  -0.00196613  0.16997817  0.49987483  1
  I  I110  1  -0.00396306  0.16076836  0.83154651  1
  I  I111  1  -0.00034787  0.50067033  0.16874418  1
  I  I112  1  -0.00286646  0.49608858  0.49947898  1
  I  I113  1  -0.00022651  0.50049925  0.83160777  1
  I  I114  1  -0.00535933  0.83786946  0.16112225  1
  I  I115  1  -0.00039220  0.83218689  0.50160140  1
  I  I116  1  -0.00419815  0.84016160  0.83572999  1
  I  I117  1  0.33353429  0.16867259  0.16660457  1
  I  I118  1  0.33521333  0.17210469  0.50688160  1
  I  I119  1  0.33726572  0.16767184  0.82805252  1
  I  I120  1  0.33857845  0.49844300  0.16842063  1
  I  I121  1  0.33751391  0.49523442  0.50164563  1
  I  I122  1  0.33951814  0.49949184  0.82911733  1
  I  I123  1  0.33352448  0.83174178  0.16603881  1
  I  I124  1  0.33369793  0.83181980  0.50260535  1
  I  I125  1  0.33688865  0.83258372  0.83083756  1
  I  I126  1  0.67024076  0.16397168  0.17134414  1
  I  I127  1  0.66688238  0.17131885  0.50147984  1
  I  I128  1  0.66664893  0.16620984  0.82836927  1
  I  I129  1  0.66383036  0.49916100  0.16478836  1
  I  I130  1  0.66556809  0.49158032  0.50033985  1
  I  I131  1  0.66333408  0.49966492  0.83428122  1
  I  I132  1  0.67010620  0.83815502  0.16581475  1
  I  I133  1  0.66680094  0.83640477  0.49792397  1
  I  I134  1  0.66685162  0.83463021  0.83619064  1
