# generated using pymatgen
data_Cs27Sn13Pb14I81
_symmetry_space_group_name_H-M   'P 1'
_cell_length_a   18.98178737
_cell_length_b   18.98178736
_cell_length_c   19.00997460
_cell_angle_alpha   90.00000003
_cell_angle_beta   90.00000001
_cell_angle_gamma   90.00277386
_symmetry_Int_Tables_number   1
_chemical_formula_structural   Cs27Sn13Pb14I81
_chemical_formula_sum   'Cs27 Sn13 Pb14 I81'
_cell_volume   6849.45070278
_cell_formula_units_Z   1
loop_
 _symmetry_equiv_pos_site_id
 _symmetry_equiv_pos_as_xyz
  1  'x, y, z'
loop_
 _atom_site_type_symbol
 _atom_site_label
 _atom_site_symmetry_multiplicity
 _atom_site_fract_x
 _atom_site_fract_y
 _atom_site_fract_z
 _atom_site_occupancy
  Cs  Cs0  1  -0.00179793  0.00390593  0.00208488  1
  Cs  Cs1  1  -0.00179789  0.00390606  0.33124822  1
  Cs  Cs2  1  -0.00172281  -0.00016077  0.66666672  1
  Cs  Cs3  1  -0.00052897  0.33598070  -0.00041939  1
  Cs  Cs4  1  -0.00052900  0.33598056  0.33375265  1
  Cs  Cs5  1  -0.00155172  0.33481801  0.66666668  1
  Cs  Cs6  1  0.00377430  0.66289237  -0.00182586  1
  Cs  Cs7  1  0.00377427  0.66289242  0.33515917  1
  Cs  Cs8  1  0.00081635  0.66585028  0.66666663  1
  Cs  Cs9  1  0.33363943  0.00423292  -0.00170361  1
  Cs  Cs10  1  0.33363934  0.00423284  0.33503702  1
  Cs  Cs11  1  0.33268575  0.00151148  0.66666667  1
  Cs  Cs12  1  0.34098825  0.32567841  -0.00397494  1
  Cs  Cs13  1  0.34098836  0.32567845  0.33730839  1
  Cs  Cs14  1  0.34228042  0.32438618  0.66666660  1
  Cs  Cs15  1  0.33068609  0.66719566  -0.00041957  1
  Cs  Cs16  1  0.33068627  0.66719574  0.33375284  1
  Cs  Cs17  1  0.33184869  0.66821832  0.66666663  1
  Cs  Cs18  1  0.66925389  -0.00258726  0.01194497  1
  Cs  Cs19  1  0.66925401  -0.00258712  0.32138843  1
  Cs  Cs20  1  0.66993973  -0.00327332  0.66666666  1
  Cs  Cs21  1  0.66243372  0.33302733  -0.00170368  1
  Cs  Cs22  1  0.66243373  0.33302725  0.33503685  1
  Cs  Cs23  1  0.66515518  0.33398089  0.66666663  1
  Cs  Cs24  1  0.66276061  0.66846458  0.00208498  1
  Cs  Cs25  1  0.66276070  0.66846447  0.33124839  1
  Cs  Cs26  1  0.66682746  0.66838955  0.66666673  1
  Sn  Sn27  1  0.16640460  0.83297749  0.16666667  1
  Sn  Sn28  1  0.16712324  0.83287147  0.50009359  1
  Sn  Sn29  1  0.16712328  0.83287145  0.83323973  1
  Sn  Sn30  1  0.16697204  0.49969466  0.16666668  1
  Sn  Sn31  1  0.83368916  0.50026212  0.16666669  1
  Sn  Sn32  1  0.83360127  0.16741666  0.50083011  1
  Sn  Sn33  1  0.16673622  0.49993045  0.83288090  1
  Sn  Sn34  1  0.49925002  0.83306542  0.83250327  1
  Sn  Sn35  1  0.83379523  0.49954339  0.83323972  1
  Sn  Sn36  1  0.83360130  0.16741665  0.83250328  1
  Sn  Sn37  1  0.83379524  0.49954337  0.50009360  1
  Sn  Sn38  1  0.16673624  0.49993044  0.50045243  1
  Sn  Sn39  1  0.49925006  0.83306541  0.50083001  1
  Pb  Pb40  1  0.49956753  0.50218131  0.50019188  1
  Pb  Pb41  1  0.49994570  0.16672094  0.16666669  1
  Pb  Pb42  1  0.83676291  0.82990375  0.16666668  1
  Pb  Pb43  1  0.83379027  0.83287640  0.83351311  1
  Pb  Pb44  1  0.50389730  0.16276934  0.83314173  1
  Pb  Pb45  1  0.16448539  0.16709919  0.83314141  1
  Pb  Pb46  1  0.16655490  0.16823094  0.16666664  1
  Pb  Pb47  1  0.49843572  0.50011178  0.16666666  1
  Pb  Pb48  1  0.50389731  0.16276936  0.50019156  1
  Pb  Pb49  1  0.16448538  0.16709918  0.50019188  1
  Pb  Pb50  1  0.83374219  0.17024972  0.16666662  1
  Pb  Pb51  1  0.49956749  0.50218131  0.83314143  1
  Pb  Pb52  1  0.83379029  0.83287637  0.49982025  1
  Pb  Pb53  1  0.49641698  0.83292451  0.16666665  1
  I  I54  1  0.16839139  -0.00316734  0.16666704  1
  I  I55  1  0.16919145  -0.00340176  0.50003999  1
  I  I56  1  0.16919153  -0.00340176  0.83329307  1
  I  I57  1  0.15968462  0.33821370  0.16666652  1
  I  I58  1  0.16266028  0.33713883  0.49907811  1
  I  I59  1  0.16266046  0.33713880  0.83425538  1
  I  I60  1  0.16224253  0.66622741  0.16666655  1
  I  I61  1  0.16401494  0.66636526  0.49990570  1
  I  I62  1  0.16401471  0.66636529  0.83342775  1
  I  I63  1  0.50060017  -0.00075549  0.16666655  1
  I  I64  1  0.49230413  -0.00477734  0.50493780  1
  I  I65  1  0.49230430  -0.00477738  0.82839564  1
  I  I66  1  0.49794811  0.33359813  0.16666651  1
  I  I67  1  0.49688127  0.33296294  0.49896691  1
  I  I68  1  0.49688121  0.33296291  0.83436658  1
  I  I69  1  0.50589184  0.66685636  0.16666704  1
  I  I70  1  0.50113220  0.67007352  0.50364538  1
  I  I71  1  0.50113233  0.67007350  0.82968772  1
  I  I72  1  0.83292925  0.00010703  0.16666654  1
  I  I73  1  0.83353779  0.00236912  0.50689825  1
  I  I74  1  0.83353771  0.00236912  0.82643524  1
  I  I75  1  0.84258793  0.33791111  0.16666678  1
  I  I76  1  0.84003625  0.33530461  0.50037998  1
  I  I77  1  0.84003626  0.33530461  0.83295333  1
  I  I78  1  0.83428110  0.66200418  0.16666678  1
  I  I79  1  0.83493550  0.66311118  0.50171497  1
  I  I80  1  0.83493571  0.66311117  0.83161823  1
  I  I81  1  0.16363170  0.16484358  -0.00017230  1
  I  I82  1  0.16363209  0.16484404  0.33350563  1
  I  I83  1  0.16618916  0.16514861  0.66666670  1
  I  I84  1  0.15823034  0.50843621  -0.00050618  1
  I  I85  1  0.15823030  0.50843621  0.33383951  1
  I  I86  1  0.15794897  0.50871790  0.66666670  1
  I  I87  1  0.16942528  0.82621217  -0.00071187  1
  I  I88  1  0.16942536  0.82621181  0.33404517  1
  I  I89  1  0.17057969  0.82696441  0.66666668  1
  I  I90  1  0.50186559  0.16480114  -0.00064910  1
  I  I91  1  0.50186544  0.16480118  0.33398244  1
  I  I92  1  0.49855679  0.16810985  0.66666670  1
  I  I93  1  0.50182287  0.50303498  -0.00017228  1
  I  I94  1  0.50182260  0.50303444  0.33350566  1
  I  I95  1  0.50151817  0.50047782  0.66666668  1
  I  I96  1  0.49751543  0.83273586  -0.00286450  1
  I  I97  1  0.49751531  0.83273614  0.33619782  1
  I  I98  1  0.49160295  0.83202614  0.66666667  1
  I  I99  1  0.83393087  0.16915124  -0.00286449  1
  I  I100  1  0.83393078  0.16915105  0.33619779  1
  I  I101  1  0.83464030  0.17506392  0.66666666  1
  I  I102  1  0.84045467  0.49724140  -0.00071187  1
  I  I103  1  0.84045492  0.49724145  0.33404518  1
  I  I104  1  0.83970202  0.49608683  0.66666668  1
  I  I105  1  0.83106739  0.83559923  -0.00006038  1
  I  I106  1  0.83106739  0.83559953  0.33339374  1
  I  I107  1  0.83660096  0.83006581  0.66666667  1
  I  I108  1  -0.00018971  0.16077483  0.16666688  1
  I  I109  1  -0.00340686  0.16553406  0.50364571  1
  I  I110  1  -0.00340687  0.16553404  0.82968749  1
  I  I111  1  0.00043922  0.50442396  0.16666657  1
  I  I112  1  0.00030141  0.50265217  0.49990591  1
  I  I113  1  0.00030140  0.50265194  0.83342758  1
  I  I114  1  0.00466253  0.83238565  0.16666668  1
  I  I115  1  0.00355553  0.83173083  0.50171492  1
  I  I116  1  0.00355553  0.83173116  0.83161844  1
  I  I117  1  0.33306853  0.16871924  0.16666644  1
  I  I118  1  0.33370371  0.16978533  0.49896678  1
  I  I119  1  0.33370370  0.16978522  0.83436669  1
  I  I120  1  0.32845291  0.50698179  0.16666656  1
  I  I121  1  0.32952788  0.50400604  0.49907806  1
  I  I122  1  0.32952784  0.50400631  0.83425537  1
  I  I123  1  0.32875552  0.82407838  0.16666662  1
  I  I124  1  0.33136205  0.82663081  0.50038014  1
  I  I125  1  0.33136207  0.82663065  0.83295323  1
  I  I126  1  0.66742218  0.16606592  0.16666673  1
  I  I127  1  0.67144401  0.17436273  0.50493748  1
  I  I128  1  0.67144403  0.17436292  0.82839574  1
  I  I129  1  0.66983394  0.49827563  0.16666681  1
  I  I130  1  0.67006843  0.49747508  0.50003986  1
  I  I131  1  0.67006844  0.49747508  0.83329335  1
  I  I132  1  0.66655963  0.83373752  0.16666664  1
  I  I133  1  0.66429758  0.83312857  0.50689810  1
  I  I134  1  0.66429759  0.83312848  0.82643522  1
