# generated using pymatgen
data_Cs27Sn14Pb13I81
_symmetry_space_group_name_H-M   'P 1'
_cell_length_a   18.97195944
_cell_length_b   18.98295182
_cell_length_c   18.97347701
_cell_angle_alpha   90.00065517
_cell_angle_beta   89.99898462
_cell_angle_gamma   89.99950683
_symmetry_Int_Tables_number   1
_chemical_formula_structural   Cs27Sn14Pb13I81
_chemical_formula_sum   'Cs27 Sn14 Pb13 I81'
_cell_volume   6833.17995380
_cell_formula_units_Z   1
loop_
 _symmetry_equiv_pos_site_id
 _symmetry_equiv_pos_as_xyz
  1  'x, y, z'
loop_
 _atom_site_type_symbol
 _atom_site_label
 _atom_site_symmetry_multiplicity
 _atom_site_fract_x
 _atom_site_fract_y
 _atom_site_fract_z
 _atom_site_occupancy
  Cs  Cs0  1  -0.00416301  0.00209534  0.00712971  1
  Cs  Cs1  1  0.00098712  0.00009152  0.32860677  1
  Cs  Cs2  1  -0.00271962  0.00150087  0.66668155  1
  Cs  Cs3  1  -0.00521932  0.32910864  -0.01127066  1
  Cs  Cs4  1  -0.00374434  0.33465348  0.33647869  1
  Cs  Cs5  1  0.00116627  0.33014311  0.67020605  1
  Cs  Cs6  1  -0.01157250  0.66817521  0.00065727  1
  Cs  Cs7  1  0.00224017  0.66698361  0.33284129  1
  Cs  Cs8  1  0.00183933  0.66664812  0.66680987  1
  Cs  Cs9  1  0.33182627  0.00144908  0.00312290  1
  Cs  Cs10  1  0.33232848  -0.00080112  0.33086167  1
  Cs  Cs11  1  0.33489626  -0.00305569  0.66598207  1
  Cs  Cs12  1  0.33321706  0.33073537  -0.00119779  1
  Cs  Cs13  1  0.33394526  0.33586258  0.33367350  1
  Cs  Cs14  1  0.33296000  0.33405855  0.66727660  1
  Cs  Cs15  1  0.33430842  0.66672062  0.00003002  1
  Cs  Cs16  1  0.33335642  0.66631949  0.33463762  1
  Cs  Cs17  1  0.33395478  0.66779529  0.66612929  1
  Cs  Cs18  1  0.67022202  -0.00087622  0.00094663  1
  Cs  Cs19  1  0.66620952  0.00637972  0.33440448  1
  Cs  Cs20  1  0.66704524  -0.00048153  0.66624168  1
  Cs  Cs21  1  0.66759645  0.33445952  0.00591567  1
  Cs  Cs22  1  0.66783505  0.33230495  0.33268226  1
  Cs  Cs23  1  0.66480955  0.33087605  0.66482378  1
  Cs  Cs24  1  0.67052439  0.66646285  -0.00021823  1
  Cs  Cs25  1  0.66474642  0.66528821  0.33484407  1
  Cs  Cs26  1  0.66420742  0.66883095  0.66582752  1
  Sn  Sn27  1  0.49873362  0.50117519  0.16673243  1
  Sn  Sn28  1  0.16657668  0.49986668  0.49950328  1
  Sn  Sn29  1  0.49850987  0.16771526  0.50084021  1
  Sn  Sn30  1  0.49964023  0.16639581  0.83259402  1
  Sn  Sn31  1  0.16697065  0.49988822  0.16632997  1
  Sn  Sn32  1  0.83460080  0.83250027  0.49993450  1
  Sn  Sn33  1  0.49965683  0.49994167  0.83345203  1
  Sn  Sn34  1  0.16711801  0.83310527  0.83335572  1
  Sn  Sn35  1  0.16572949  0.83352365  0.50071217  1
  Sn  Sn36  1  0.49990035  0.49914984  0.50007744  1
  Sn  Sn37  1  0.83349667  0.50115993  0.50035816  1
  Sn  Sn38  1  0.49897863  0.83346987  0.83466160  1
  Sn  Sn39  1  0.16785959  0.16662832  0.49990655  1
  Sn  Sn40  1  0.49978176  0.83246348  0.16560853  1
  Pb  Pb41  1  0.83359418  0.16675659  0.50006398  1
  Pb  Pb42  1  0.49982104  0.16712231  0.16671323  1
  Pb  Pb43  1  0.83021680  0.16645996  0.83303659  1
  Pb  Pb44  1  0.83030488  0.50004632  0.83020769  1
  Pb  Pb45  1  0.16681887  0.17038735  0.16894196  1
  Pb  Pb46  1  0.83373596  0.49992419  0.16891950  1
  Pb  Pb47  1  0.16833229  0.50211530  0.83369903  1
  Pb  Pb48  1  0.83005876  0.83312717  0.17007949  1
  Pb  Pb49  1  0.83342844  0.83334491  0.83105969  1
  Pb  Pb50  1  0.16887565  0.16362033  0.83126712  1
  Pb  Pb51  1  0.49963351  0.83357943  0.49986474  1
  Pb  Pb52  1  0.83371428  0.16702729  0.16676689  1
  Pb  Pb53  1  0.16833925  0.83107797  0.16637353  1
  I  I54  1  0.16869809  -0.00014995  0.16858457  1
  I  I55  1  0.16789572  -0.00058393  0.50554398  1
  I  I56  1  0.17451873  -0.00421345  0.82608869  1
  I  I57  1  0.17662925  0.33841457  0.17339719  1
  I  I58  1  0.16817635  0.33442842  0.49497204  1
  I  I59  1  0.16819233  0.33338911  0.83257669  1
  I  I60  1  0.17137847  0.66335960  0.17542635  1
  I  I61  1  0.16727127  0.66614835  0.49992928  1
  I  I62  1  0.17515143  0.66979685  0.82492049  1
  I  I63  1  0.50045266  -0.00263188  0.16519404  1
  I  I64  1  0.49830588  0.00219938  0.50251246  1
  I  I65  1  0.49614551  -0.00058970  0.83115936  1
  I  I66  1  0.49711204  0.33693023  0.16560150  1
  I  I67  1  0.49831741  0.33469548  0.50253909  1
  I  I68  1  0.50064073  0.33396777  0.83085885  1
  I  I69  1  0.49680106  0.66536853  0.16578179  1
  I  I70  1  0.49848381  0.66395714  0.50160599  1
  I  I71  1  0.49662227  0.66664900  0.83190135  1
  I  I72  1  0.83064005  -0.00044995  0.17022358  1
  I  I73  1  0.83446512  -0.00277529  0.50074168  1
  I  I74  1  0.82969097  -0.00032601  0.82863545  1
  I  I75  1  0.82881379  0.33402381  0.17113606  1
  I  I76  1  0.83374760  0.33644261  0.49898812  1
  I  I77  1  0.83394591  0.33344397  0.83039694  1
  I  I78  1  0.83348118  0.66658810  0.16578619  1
  I  I79  1  0.83434196  0.66595474  0.50015930  1
  I  I80  1  0.82985050  0.66668378  0.83382305  1
  I  I81  1  0.16835029  0.16630888  -0.00024946  1
  I  I82  1  0.17421691  0.16084987  0.33804779  1
  I  I83  1  0.16897712  0.17287298  0.66266403  1
  I  I84  1  0.17523176  0.50293823  0.00259367  1
  I  I85  1  0.17241187  0.50222990  0.33578038  1
  I  I86  1  0.16786868  0.49892514  0.66302931  1
  I  I87  1  0.17273131  0.83110708  -0.00268865  1
  I  I88  1  0.16501509  0.83444826  0.33670091  1
  I  I89  1  0.17038296  0.83061147  0.66493073  1
  I  I90  1  0.50091935  0.16896619  -0.00304254  1
  I  I91  1  0.49788170  0.16892534  0.33670138  1
  I  I92  1  0.49676094  0.16991849  0.66555229  1
  I  I93  1  0.49446169  0.50060850  0.00016944  1
  I  I94  1  0.49990387  0.50079692  0.33450307  1
  I  I95  1  0.50029330  0.50005330  0.66571247  1
  I  I96  1  0.49420725  0.83043085  -0.00121628  1
  I  I97  1  0.50033376  0.82942901  0.33159831  1
  I  I98  1  0.49965209  0.83101861  0.66869765  1
  I  I99  1  0.83158132  0.16678635  -0.00031497  1
  I  I100  1  0.82832554  0.16645227  0.33437065  1
  I  I101  1  0.83355274  0.16684397  0.66603936  1
  I  I102  1  0.83329259  0.49936302  -0.00009514  1
  I  I103  1  0.82806365  0.50340049  0.33747372  1
  I  I104  1  0.83406185  0.50406929  0.66187746  1
  I  I105  1  0.83528886  0.83424835  0.00012656  1
  I  I106  1  0.83836992  0.82860911  0.33794072  1
  I  I107  1  0.83109565  0.82903974  0.66295744  1
  I  I108  1  0.00067486  0.16632051  0.17043073  1
  I  I109  1  0.00328811  0.16936758  0.49883533  1
  I  I110  1  0.00049355  0.16606176  0.83143741  1
  I  I111  1  0.00329277  0.50085304  0.17470841  1
  I  I112  1  0.00126413  0.50093357  0.49391852  1
  I  I113  1  0.00009762  0.50239063  0.83393881  1
  I  I114  1  0.00005037  0.83186543  0.16420198  1
  I  I115  1  0.00164307  0.82970864  0.50564697  1
  I  I116  1  0.00318105  0.83135218  0.82856067  1
  I  I117  1  0.33357245  0.16424516  0.16631085  1
  I  I118  1  0.33416962  0.16990826  0.50368363  1
  I  I119  1  0.33727413  0.16956140  0.83026289  1
  I  I120  1  0.33499452  0.50395504  0.17389794  1
  I  I121  1  0.33386921  0.49984851  0.49947725  1
  I  I122  1  0.33719544  0.49910410  0.82752767  1
  I  I123  1  0.33658057  0.83064412  0.16871896  1
  I  I124  1  0.33086797  0.83088694  0.50092467  1
  I  I125  1  0.33488049  0.83248271  0.82864365  1
  I  I126  1  0.66578644  0.16816755  0.17018812  1
  I  I127  1  0.66335622  0.16884528  0.50302226  1
  I  I128  1  0.66116983  0.16404625  0.82445894  1
  I  I129  1  0.66297714  0.50280355  0.16719213  1
  I  I130  1  0.66507931  0.50067742  0.50050649  1
  I  I131  1  0.66126230  0.50313222  0.83374116  1
  I  I132  1  0.66189881  0.82680481  0.16167461  1
  I  I133  1  0.66800043  0.82967376  0.49964654  1
  I  I134  1  0.66284722  0.83308555  0.83491466  1
