# generated using pymatgen
data_Cs27Sn13Pb14I81
_symmetry_space_group_name_H-M   'P 1'
_cell_length_a   18.97123999
_cell_length_b   18.98495995
_cell_length_c   18.97621564
_cell_angle_alpha   90.00031042
_cell_angle_beta   90.00104490
_cell_angle_gamma   89.99954498
_symmetry_Int_Tables_number   1
_chemical_formula_structural   Cs27Sn13Pb14I81
_chemical_formula_sum   'Cs27 Sn13 Pb14 I81'
_cell_volume   6834.63002778
_cell_formula_units_Z   1
loop_
 _symmetry_equiv_pos_site_id
 _symmetry_equiv_pos_as_xyz
  1  'x, y, z'
loop_
 _atom_site_type_symbol
 _atom_site_label
 _atom_site_symmetry_multiplicity
 _atom_site_fract_x
 _atom_site_fract_y
 _atom_site_fract_z
 _atom_site_occupancy
  Cs  Cs0  1  0.00037258  0.00092635  0.00098523  1
  Cs  Cs1  1  0.00520070  -0.00134084  0.33743396  1
  Cs  Cs2  1  -0.00168220  0.00000242  0.66113260  1
  Cs  Cs3  1  -0.00071952  0.33394758  -0.00081905  1
  Cs  Cs4  1  -0.00094835  0.33325062  0.34274352  1
  Cs  Cs5  1  0.00019551  0.33226994  0.66223594  1
  Cs  Cs6  1  -0.00230610  0.66444842  -0.00087228  1
  Cs  Cs7  1  -0.00029959  0.66724803  0.34058017  1
  Cs  Cs8  1  -0.00523923  0.66967983  0.66113658  1
  Cs  Cs9  1  0.33265965  -0.00205771  0.00483778  1
  Cs  Cs10  1  0.32765494  -0.00166862  0.32443114  1
  Cs  Cs11  1  0.33524499  0.00014095  0.66904068  1
  Cs  Cs12  1  0.33273050  0.33349649  -0.00157349  1
  Cs  Cs13  1  0.33370149  0.33310057  0.33229257  1
  Cs  Cs14  1  0.33508022  0.33463907  0.66840638  1
  Cs  Cs15  1  0.33328422  0.66650339  -0.00023151  1
  Cs  Cs16  1  0.33188479  0.66701832  0.33350551  1
  Cs  Cs17  1  0.33438049  0.66481756  0.66735507  1
  Cs  Cs18  1  0.66725987  -0.00139578  0.00187704  1
  Cs  Cs19  1  0.66668697  0.00055442  0.33081727  1
  Cs  Cs20  1  0.66710953  -0.00114602  0.66654639  1
  Cs  Cs21  1  0.66834528  0.33315787  0.00064086  1
  Cs  Cs22  1  0.66637639  0.33395942  0.33277760  1
  Cs  Cs23  1  0.66309936  0.33166197  0.66672223  1
  Cs  Cs24  1  0.67082963  0.66902993  -0.00090652  1
  Cs  Cs25  1  0.66724651  0.66405166  0.33244897  1
  Cs  Cs26  1  0.66901036  0.67161928  0.66875973  1
  Sn  Sn27  1  0.83363895  0.16601968  0.16632582  1
  Sn  Sn28  1  0.50002353  0.16694382  0.83323325  1
  Sn  Sn29  1  0.49963484  0.16601882  0.50007630  1
  Sn  Sn30  1  0.16678024  0.16654908  0.83358145  1
  Sn  Sn31  1  0.16696618  0.49965249  0.16608355  1
  Sn  Sn32  1  0.16665722  0.83301419  0.83332314  1
  Sn  Sn33  1  0.49977886  0.50024930  0.50041039  1
  Sn  Sn34  1  0.49970942  0.49964229  0.83377119  1
  Sn  Sn35  1  0.83366398  0.83411209  0.16658417  1
  Sn  Sn36  1  0.83321159  0.16685201  0.83405496  1
  Sn  Sn37  1  0.49956453  0.83377934  0.49975878  1
  Sn  Sn38  1  0.49922427  0.49991226  0.16590567  1
  Sn  Sn39  1  0.16703984  0.50030267  0.83394247  1
  Pb  Pb40  1  0.83599258  0.83618359  0.83481639  1
  Pb  Pb41  1  0.83350312  0.49782293  0.83311257  1
  Pb  Pb42  1  0.16935046  0.83342374  0.50251790  1
  Pb  Pb43  1  0.16403172  0.16925516  0.16465688  1
  Pb  Pb44  1  0.83016714  0.49992840  0.50040099  1
  Pb  Pb45  1  0.83412095  0.49948423  0.16660856  1
  Pb  Pb46  1  0.50134685  0.16851149  0.16609523  1
  Pb  Pb47  1  0.83088187  0.83368737  0.49729268  1
  Pb  Pb48  1  0.50141056  0.83050148  0.16875925  1
  Pb  Pb49  1  0.49857743  0.83342512  0.83225342  1
  Pb  Pb50  1  0.16892369  0.49995960  0.50067347  1
  Pb  Pb51  1  0.16431797  0.83056154  0.16463612  1
  Pb  Pb52  1  0.83086791  0.16658038  0.50003943  1
  Pb  Pb53  1  0.17003477  0.16658982  0.50256000  1
  I  I54  1  0.16754559  0.00008151  0.16476987  1
  I  I55  1  0.16982524  0.00009437  0.50177118  1
  I  I56  1  0.16729698  0.00108788  0.83171900  1
  I  I57  1  0.17021182  0.33697993  0.16032990  1
  I  I58  1  0.16757895  0.33333170  0.50076861  1
  I  I59  1  0.16858159  0.33350845  0.83752096  1
  I  I60  1  0.16985221  0.66286679  0.16010753  1
  I  I61  1  0.16946706  0.66654078  0.50206565  1
  I  I62  1  0.17364191  0.66520695  0.83762053  1
  I  I63  1  0.50034780  0.00003041  0.16737286  1
  I  I64  1  0.50176058  0.00093342  0.50791210  1
  I  I65  1  0.49958711  0.00324433  0.82796858  1
  I  I66  1  0.49946079  0.33668186  0.17006486  1
  I  I67  1  0.50057207  0.33361518  0.50215471  1
  I  I68  1  0.49668628  0.33335234  0.82915630  1
  I  I69  1  0.49919010  0.66226288  0.16540872  1
  I  I70  1  0.49972697  0.66547907  0.49989296  1
  I  I71  1  0.49518378  0.66347335  0.83231077  1
  I  I72  1  0.83069520  0.00098238  0.16111740  1
  I  I73  1  0.82897393  0.00021602  0.50256686  1
  I  I74  1  0.83082081  0.00426856  0.83507598  1
  I  I75  1  0.83160819  0.33058026  0.16143174  1
  I  I76  1  0.83182758  0.33299578  0.49713087  1
  I  I77  1  0.83520125  0.32953308  0.84019187  1
  I  I78  1  0.83170906  0.66856540  0.16714285  1
  I  I79  1  0.83095685  0.66692230  0.49784536  1
  I  I80  1  0.83245081  0.66692696  0.83529820  1
  I  I81  1  0.17265238  0.16540110  -0.00407568  1
  I  I82  1  0.16605609  0.16802114  0.33314811  1
  I  I83  1  0.16142669  0.17051380  0.67157816  1
  I  I84  1  0.17530476  0.49957071  -0.00143738  1
  I  I85  1  0.17065770  0.50052935  0.33065037  1
  I  I86  1  0.17145056  0.49846956  0.67062491  1
  I  I87  1  0.16884841  0.83585771  -0.00338562  1
  I  I88  1  0.16608193  0.83159071  0.33313301  1
  I  I89  1  0.16657320  0.83091286  0.67082182  1
  I  I90  1  0.49871167  0.17173628  -0.00352063  1
  I  I91  1  0.50410521  0.16930606  0.33565507  1
  I  I92  1  0.50130046  0.17155056  0.66806707  1
  I  I93  1  0.49609282  0.49450541  -0.00108106  1
  I  I94  1  0.49750269  0.49985721  0.33332766  1
  I  I95  1  0.49610102  0.49803721  0.66755135  1
  I  I96  1  0.50018128  0.83319004  0.00016312  1
  I  I97  1  0.50157328  0.83389217  0.33686631  1
  I  I98  1  0.49913178  0.82903663  0.66412075  1
  I  I99  1  0.83037661  0.16393421  -0.00114757  1
  I  I100  1  0.82990092  0.16460232  0.33047785  1
  I  I101  1  0.83501453  0.16830516  0.67003936  1
  I  I102  1  0.82753475  0.50137445  -0.00002835  1
  I  I103  1  0.83284381  0.49759828  0.33309998  1
  I  I104  1  0.83436210  0.49869588  0.66701990  1
  I  I105  1  0.83124262  0.83435074  0.00254985  1
  I  I106  1  0.83291362  0.83907599  0.32957196  1
  I  I107  1  0.83389684  0.83349994  0.66667863  1
  I  I108  1  -0.00379780  0.16536371  0.15963475  1
  I  I109  1  0.00009487  0.16653239  0.50087066  1
  I  I110  1  0.00041206  0.16730583  0.84004900  1
  I  I111  1  0.00309001  0.49987124  0.15825489  1
  I  I112  1  0.00035400  0.50046510  0.49879590  1
  I  I113  1  0.00363019  0.49896079  0.84059501  1
  I  I114  1  -0.00327332  0.83641680  0.16457336  1
  I  I115  1  0.00006439  0.83289570  0.50025683  1
  I  I116  1  0.00393381  0.83062056  0.83491249  1
  I  I117  1  0.33320631  0.16605551  0.16689234  1
  I  I118  1  0.33824023  0.16914137  0.50552804  1
  I  I119  1  0.33379339  0.16880880  0.82745403  1
  I  I120  1  0.33434431  0.49978604  0.16563175  1
  I  I121  1  0.33757176  0.49918610  0.50072796  1
  I  I122  1  0.33412505  0.49537175  0.83350297  1
  I  I123  1  0.33311027  0.83406768  0.16749358  1
  I  I124  1  0.33745117  0.83193029  0.49990929  1
  I  I125  1  0.33055732  0.83685451  0.83278332  1
  I  I126  1  0.66922227  0.16612178  0.16093790  1
  I  I127  1  0.66259152  0.16862499  0.50631937  1
  I  I128  1  0.66549583  0.17196662  0.83269042  1
  I  I129  1  0.66370376  0.49955855  0.16719201  1
  I  I130  1  0.66115697  0.49883788  0.49922196  1
  I  I131  1  0.66296424  0.49541090  0.83352798  1
  I  I132  1  0.66924970  0.83523571  0.16600995  1
  I  I133  1  0.66273743  0.83183625  0.50266151  1
  I  I134  1  0.66679255  0.83271772  0.83260914  1
