# generated using pymatgen
data_Cs27Sn14Pb13I81
_symmetry_space_group_name_H-M   'P 1'
_cell_length_a   18.96666841
_cell_length_b   18.97890330
_cell_length_c   18.98196897
_cell_angle_alpha   89.99981140
_cell_angle_beta   89.99941341
_cell_angle_gamma   89.99916016
_symmetry_Int_Tables_number   1
_chemical_formula_structural   Cs27Sn14Pb13I81
_chemical_formula_sum   'Cs27 Sn14 Pb13 I81'
_cell_volume   6832.87418130
_cell_formula_units_Z   1
loop_
 _symmetry_equiv_pos_site_id
 _symmetry_equiv_pos_as_xyz
  1  'x, y, z'
loop_
 _atom_site_type_symbol
 _atom_site_label
 _atom_site_symmetry_multiplicity
 _atom_site_fract_x
 _atom_site_fract_y
 _atom_site_fract_z
 _atom_site_occupancy
  Cs  Cs0  1  0.00163830  0.00008832  -0.00235974  1
  Cs  Cs1  1  -0.00174209  0.00297847  0.33527857  1
  Cs  Cs2  1  0.00001013  0.00048243  0.66780324  1
  Cs  Cs3  1  -0.00175996  0.32982094  -0.00260432  1
  Cs  Cs4  1  -0.00002485  0.33309941  0.33434999  1
  Cs  Cs5  1  0.00060243  0.33287973  0.66599751  1
  Cs  Cs6  1  0.00001835  0.67130437  -0.00174131  1
  Cs  Cs7  1  -0.00030578  0.66498023  0.33468982  1
  Cs  Cs8  1  -0.00135390  0.66725233  0.66692052  1
  Cs  Cs9  1  0.33115829  -0.00429889  0.00233831  1
  Cs  Cs10  1  0.34110038  -0.00338384  0.33529923  1
  Cs  Cs11  1  0.33529123  0.00145396  0.66477164  1
  Cs  Cs12  1  0.34083394  0.33595789  -0.00346916  1
  Cs  Cs13  1  0.32907951  0.33757155  0.33123123  1
  Cs  Cs14  1  0.33224527  0.33194542  0.66927990  1
  Cs  Cs15  1  0.33491596  0.66838464  0.00944780  1
  Cs  Cs16  1  0.33228738  0.66662083  0.32396764  1
  Cs  Cs17  1  0.33490595  0.66585865  0.66633124  1
  Cs  Cs18  1  0.66630946  0.00333479  0.00300512  1
  Cs  Cs19  1  0.66140807  -0.00004657  0.33257338  1
  Cs  Cs20  1  0.66388644  -0.00190769  0.66489433  1
  Cs  Cs21  1  0.66125902  0.33316000  0.00080333  1
  Cs  Cs22  1  0.66943030  0.33059505  0.33174293  1
  Cs  Cs23  1  0.66603516  0.33564530  0.66759705  1
  Cs  Cs24  1  0.66694085  0.66420979  -0.00219240  1
  Cs  Cs25  1  0.66837239  0.66845821  0.33612700  1
  Cs  Cs26  1  0.66798931  0.66626117  0.66665806  1
  Sn  Sn27  1  0.83382019  0.83289021  0.16750778  1
  Sn  Sn28  1  0.83259527  0.49976594  0.50006037  1
  Sn  Sn29  1  0.16590424  0.49987084  0.83345010  1
  Sn  Sn30  1  0.16665727  0.16678694  0.16673271  1
  Sn  Sn31  1  0.49998406  0.83322581  0.83316487  1
  Sn  Sn32  1  0.83370485  0.16744072  0.83229638  1
  Sn  Sn33  1  0.50047300  0.49987399  0.49991110  1
  Sn  Sn34  1  0.83393618  0.50065707  0.16640006  1
  Sn  Sn35  1  0.16603821  0.83380661  0.50020541  1
  Sn  Sn36  1  0.83374875  0.16651731  0.50107118  1
  Sn  Sn37  1  0.83409453  0.83371247  0.49922279  1
  Sn  Sn38  1  0.16592807  0.16565536  0.49977324  1
  Sn  Sn39  1  0.16587776  0.16753931  0.83345665  1
  Sn  Sn40  1  0.83429288  0.49905740  0.83356079  1
  Pb  Pb41  1  0.50000565  0.83110862  0.50104194  1
  Pb  Pb42  1  0.16403782  0.83554077  0.16970618  1
  Pb  Pb43  1  0.83449682  0.16673719  0.16662200  1
  Pb  Pb44  1  0.50007503  0.16456990  0.83312361  1
  Pb  Pb45  1  0.16378794  0.49788431  0.16334234  1
  Pb  Pb46  1  0.49613718  0.16682291  0.16682638  1
  Pb  Pb47  1  0.50300924  0.49994676  0.16973755  1
  Pb  Pb48  1  0.83211881  0.83377125  0.83301667  1
  Pb  Pb49  1  0.49991651  0.16931542  0.50004934  1
  Pb  Pb50  1  0.50011227  0.50170917  0.83181678  1
  Pb  Pb51  1  0.16860708  0.83340720  0.83127349  1
  Pb  Pb52  1  0.50324092  0.83323153  0.16411994  1
  Pb  Pb53  1  0.16615557  0.49991194  0.50149085  1
  I  I54  1  0.16236311  0.00329407  0.15988342  1
  I  I55  1  0.15843867  0.00116718  0.50266485  1
  I  I56  1  0.16246422  0.00341606  0.83452679  1
  I  I57  1  0.16257406  0.33014960  0.17409694  1
  I  I58  1  0.16361216  0.33027147  0.49888480  1
  I  I59  1  0.16249186  0.33232412  0.82989617  1
  I  I60  1  0.16829603  0.66663475  0.16666098  1
  I  I61  1  0.16273080  0.66873334  0.50372791  1
  I  I62  1  0.16184431  0.66408630  0.82925854  1
  I  I63  1  0.50392445  -0.00021564  0.16686765  1
  I  I64  1  0.50189681  -0.00011349  0.50098844  1
  I  I65  1  0.50141218  -0.00282252  0.83106987  1
  I  I66  1  0.50363276  0.33364557  0.16552439  1
  I  I67  1  0.50571624  0.33686181  0.50235355  1
  I  I68  1  0.49959185  0.33343768  0.83242989  1
  I  I69  1  0.49580090  0.66656457  0.16603771  1
  I  I70  1  0.50581553  0.66369892  0.50342003  1
  I  I71  1  0.50188458  0.66897470  0.83003058  1
  I  I72  1  0.83504151  -0.00214774  0.16925754  1
  I  I73  1  0.83875427  0.00028205  0.50059238  1
  I  I74  1  0.83679740  0.00299064  0.83084404  1
  I  I75  1  0.83534622  0.33584297  0.16973999  1
  I  I76  1  0.83352377  0.33336184  0.50032646  1
  I  I77  1  0.83707806  0.33363038  0.82994980  1
  I  I78  1  0.83339443  0.66609766  0.16982153  1
  I  I79  1  0.83326314  0.66640517  0.50005856  1
  I  I80  1  0.83558307  0.66386015  0.83075418  1
  I  I81  1  0.16089815  0.17084073  -0.00149507  1
  I  I82  1  0.16090413  0.16290500  0.33494020  1
  I  I83  1  0.16232408  0.16682544  0.66653634  1
  I  I84  1  0.16187260  0.49549348  -0.00465924  1
  I  I85  1  0.16736920  0.49892393  0.33326444  1
  I  I86  1  0.16135931  0.49517642  0.66929305  1
  I  I87  1  0.16701395  0.83436376  0.00008035  1
  I  I88  1  0.16577179  0.83702710  0.33774303  1
  I  I89  1  0.15944388  0.83801721  0.66347344  1
  I  I90  1  0.50294230  0.16683143  -0.00026275  1
  I  I91  1  0.50252199  0.16558254  0.33370170  1
  I  I92  1  0.49607513  0.16605045  0.66656174  1
  I  I93  1  0.50016611  0.50115504  0.00004137  1
  I  I94  1  0.50384894  0.50124720  0.33759348  1
  I  I95  1  0.50724103  0.50138523  0.66425212  1
  I  I96  1  0.49987313  0.83237615  -0.00331146  1
  I  I97  1  0.49808151  0.83227261  0.33330999  1
  I  I98  1  0.50312640  0.83255855  0.66848247  1
  I  I99  1  0.83770886  0.16863119  -0.00280108  1
  I  I100  1  0.83790633  0.16953128  0.33640392  1
  I  I101  1  0.84065102  0.16917023  0.66605987  1
  I  I102  1  0.83885550  0.50054357  -0.00099908  1
  I  I103  1  0.82820039  0.50035332  0.33456251  1
  I  I104  1  0.83303051  0.49991512  0.66636697  1
  I  I105  1  0.83021867  0.83012214  0.00187955  1
  I  I106  1  0.83697433  0.82982372  0.33502308  1
  I  I107  1  0.83527879  0.83099159  0.66361654  1
  I  I108  1  0.00228961  0.16689398  0.16681797  1
  I  I109  1  -0.00069189  0.16799365  0.50116912  1
  I  I110  1  -0.00012382  0.17013779  0.83181339  1
  I  I111  1  -0.00414146  0.50336250  0.17398668  1
  I  I112  1  -0.00350538  0.50007524  0.49861244  1
  I  I113  1  -0.00162032  0.49652593  0.82994952  1
  I  I114  1  -0.00377579  0.82858805  0.16629614  1
  I  I115  1  -0.00159702  0.83203666  0.49811685  1
  I  I116  1  -0.00009911  0.83297084  0.83482079  1
  I  I117  1  0.32792121  0.16650355  0.16676257  1
  I  I118  1  0.32957566  0.16293463  0.50124369  1
  I  I119  1  0.32958945  0.17062071  0.83200357  1
  I  I120  1  0.33296101  0.49839626  0.16716002  1
  I  I121  1  0.33476311  0.49966577  0.50478239  1
  I  I122  1  0.33062351  0.49536473  0.82895522  1
  I  I123  1  0.33304623  0.83503719  0.16732098  1
  I  I124  1  0.33064544  0.83784041  0.50420665  1
  I  I125  1  0.33584346  0.83337322  0.82892928  1
  I  I126  1  0.66708124  0.16623456  0.16612087  1
  I  I127  1  0.67051979  0.16414749  0.50474025  1
  I  I128  1  0.67032320  0.17013131  0.82854859  1
  I  I129  1  0.67152121  0.50229490  0.16059876  1
  I  I130  1  0.66987613  0.50103190  0.50280654  1
  I  I131  1  0.67041057  0.49718392  0.83442117  1
  I  I132  1  0.67120193  0.83116087  0.17417580  1
  I  I133  1  0.67025829  0.83532025  0.49787333  1
  I  I134  1  0.66488566  0.83216420  0.83072155  1
