# generated using pymatgen
data_Cs27Sn13Pb14I81
_symmetry_space_group_name_H-M   'P 1'
_cell_length_a   18.98326427
_cell_length_b   18.97384681
_cell_length_c   18.97445022
_cell_angle_alpha   90.00375343
_cell_angle_beta   89.99837692
_cell_angle_gamma   89.99818092
_symmetry_Int_Tables_number   1
_chemical_formula_structural   Cs27Sn13Pb14I81
_chemical_formula_sum   'Cs27 Sn13 Pb14 I81'
_cell_volume   6834.32273260
_cell_formula_units_Z   1
loop_
 _symmetry_equiv_pos_site_id
 _symmetry_equiv_pos_as_xyz
  1  'x, y, z'
loop_
 _atom_site_type_symbol
 _atom_site_label
 _atom_site_symmetry_multiplicity
 _atom_site_fract_x
 _atom_site_fract_y
 _atom_site_fract_z
 _atom_site_occupancy
  Cs  Cs0  1  0.00173405  -0.00158071  0.00089659  1
  Cs  Cs1  1  -0.00259155  -0.00074267  0.33243162  1
  Cs  Cs2  1  0.00520011  -0.00077717  0.66707555  1
  Cs  Cs3  1  -0.00408322  0.33285177  -0.00072265  1
  Cs  Cs4  1  -0.00094230  0.33339570  0.33330068  1
  Cs  Cs5  1  -0.00159190  0.33157511  0.66727492  1
  Cs  Cs6  1  0.00105458  0.66879298  -0.00308860  1
  Cs  Cs7  1  0.00010850  0.66720871  0.33593997  1
  Cs  Cs8  1  0.00073534  0.66783913  0.66964571  1
  Cs  Cs9  1  0.33176575  -0.00011989  -0.00352733  1
  Cs  Cs10  1  0.33299203  0.00170445  0.33588874  1
  Cs  Cs11  1  0.33330335  -0.00012145  0.66824898  1
  Cs  Cs12  1  0.33380771  0.33468649  0.00243419  1
  Cs  Cs13  1  0.33429063  0.33575023  0.33267178  1
  Cs  Cs14  1  0.33345975  0.33181531  0.66521059  1
  Cs  Cs15  1  0.33275609  0.66526622  0.00130568  1
  Cs  Cs16  1  0.33316506  0.66245463  0.33261827  1
  Cs  Cs17  1  0.33343770  0.66763932  0.66635307  1
  Cs  Cs18  1  0.66274006  -0.00135116  -0.00025122  1
  Cs  Cs19  1  0.66946198  -0.00041048  0.33296475  1
  Cs  Cs20  1  0.66041780  -0.00085265  0.66670570  1
  Cs  Cs21  1  0.67026748  0.33271659  -0.00098480  1
  Cs  Cs22  1  0.66656672  0.33207350  0.33532627  1
  Cs  Cs23  1  0.66775109  0.33577725  0.66495236  1
  Cs  Cs24  1  0.66511695  0.66839794  0.00237395  1
  Cs  Cs25  1  0.66703936  0.67205811  0.33221088  1
  Cs  Cs26  1  0.66593754  0.66391178  0.66559674  1
  Sn  Sn27  1  0.50025608  0.16680724  0.16726564  1
  Sn  Sn28  1  0.49915487  0.49965115  0.83298803  1
  Sn  Sn29  1  0.83342813  0.83369341  0.83314352  1
  Sn  Sn30  1  0.83311089  0.16727276  0.16716947  1
  Sn  Sn31  1  0.83334462  0.49985071  0.16752133  1
  Sn  Sn32  1  0.16672465  0.83374997  0.16647985  1
  Sn  Sn33  1  0.50080684  0.49932720  0.50049907  1
  Sn  Sn34  1  0.83269378  0.49950488  0.49895505  1
  Sn  Sn35  1  0.16658070  0.16610506  0.16659086  1
  Sn  Sn36  1  0.16745703  0.50008254  0.83334030  1
  Sn  Sn37  1  0.50086846  0.16761378  0.49903789  1
  Sn  Sn38  1  0.83269973  0.16725745  0.49957999  1
  Sn  Sn39  1  0.16592507  0.83238861  0.83430564  1
  Pb  Pb40  1  0.16638576  0.49986295  0.50250542  1
  Pb  Pb41  1  0.83500344  0.83367717  0.16503837  1
  Pb  Pb42  1  0.16670299  0.83327629  0.49993473  1
  Pb  Pb43  1  0.83331119  0.83368062  0.50252716  1
  Pb  Pb44  1  0.16657017  0.16682614  0.49735650  1
  Pb  Pb45  1  0.50014963  0.16933912  0.83289177  1
  Pb  Pb46  1  0.50244496  0.49813350  0.16711277  1
  Pb  Pb47  1  0.83321362  0.50143224  0.83307826  1
  Pb  Pb48  1  0.16415424  0.49985869  0.16475915  1
  Pb  Pb49  1  0.49930410  0.83058654  0.83335176  1
  Pb  Pb50  1  0.83319533  0.16384769  0.83280394  1
  Pb  Pb51  1  0.50005541  0.83333877  0.49971772  1
  Pb  Pb52  1  0.49690808  0.83638652  0.16682082  1
  Pb  Pb53  1  0.16664348  0.16680072  0.83567053  1
  I  I54  1  0.16500396  0.00064020  0.16069143  1
  I  I55  1  0.16710073  0.00028799  0.50478911  1
  I  I56  1  0.16205264  -0.00302027  0.83553804  1
  I  I57  1  0.16774047  0.33045205  0.16547597  1
  I  I58  1  0.16642156  0.33335022  0.50114272  1
  I  I59  1  0.17025468  0.33627201  0.83401427  1
  I  I60  1  0.16406711  0.66890818  0.16315427  1
  I  I61  1  0.16670825  0.66635130  0.49530252  1
  I  I62  1  0.16621611  0.66716762  0.83924176  1
  I  I63  1  0.50629918  0.00491061  0.17210498  1
  I  I64  1  0.50457552  0.00399804  0.49564478  1
  I  I65  1  0.49922081  0.00007186  0.83270609  1
  I  I66  1  0.49453661  0.32989573  0.16724515  1
  I  I67  1  0.50424653  0.33329376  0.50060434  1
  I  I68  1  0.49497899  0.33726303  0.83215959  1
  I  I69  1  0.50034793  0.66633926  0.16658022  1
  I  I70  1  0.50409572  0.66276975  0.50510780  1
  I  I71  1  0.49931532  0.66258811  0.82737086  1
  I  I72  1  0.83231600  0.00341713  0.17006715  1
  I  I73  1  0.82926874  0.00365371  0.49534360  1
  I  I74  1  0.84129566  -0.00370993  0.83435965  1
  I  I75  1  0.83594299  0.33224938  0.16868472  1
  I  I76  1  0.82954753  0.33337051  0.49678053  1
  I  I77  1  0.83426959  0.33338712  0.83448143  1
  I  I78  1  0.83490992  0.66413063  0.16936048  1
  I  I79  1  0.82900453  0.66325721  0.49652612  1
  I  I80  1  0.83580170  0.66902387  0.83407709  1
  I  I81  1  0.16611425  0.16546609  0.00412043  1
  I  I82  1  0.16616885  0.16104877  0.32902813  1
  I  I83  1  0.16665000  0.16528046  0.66660157  1
  I  I84  1  0.17090798  0.50147689  -0.00317724  1
  I  I85  1  0.16895923  0.50110890  0.33306219  1
  I  I86  1  0.16571221  0.50692035  0.67060964  1
  I  I87  1  0.16215591  0.83402719  -0.00064906  1
  I  I88  1  0.16626686  0.83863300  0.32982328  1
  I  I89  1  0.16272547  0.82895204  0.67041711  1
  I  I90  1  0.50064495  0.16729916  0.00311887  1
  I  I91  1  0.49974923  0.17256114  0.33350156  1
  I  I92  1  0.50569236  0.16826749  0.66312269  1
  I  I93  1  0.49764866  0.49937992  -0.00208819  1
  I  I94  1  0.50162751  0.49731454  0.33633250  1
  I  I95  1  0.50231348  0.49490653  0.66573507  1
  I  I96  1  0.50283573  0.83333618  0.00001676  1
  I  I97  1  0.49822728  0.82786969  0.33310938  1
  I  I98  1  0.49762273  0.83851959  0.66678415  1
  I  I99  1  0.83336858  0.17098905  0.00342398  1
  I  I100  1  0.83328905  0.17012089  0.33263405  1
  I  I101  1  0.82808829  0.17137574  0.66302305  1
  I  I102  1  0.83397760  0.49600763  0.00216953  1
  I  I103  1  0.82918153  0.49622540  0.33383962  1
  I  I104  1  0.83224643  0.49649718  0.66384954  1
  I  I105  1  0.83636130  0.83181015  -0.00274320  1
  I  I106  1  0.83540976  0.83268562  0.33329333  1
  I  I107  1  0.84096598  0.83197116  0.67024275  1
  I  I108  1  -0.00082674  0.16638890  0.16958161  1
  I  I109  1  -0.00345239  0.17095374  0.49673577  1
  I  I110  1  -0.00008631  0.17137981  0.83288319  1
  I  I111  1  -0.00362813  0.49434384  0.17031732  1
  I  I112  1  -0.00356162  0.49558391  0.49730070  1
  I  I113  1  0.00199682  0.50328132  0.83448589  1
  I  I114  1  0.00288395  0.83898090  0.16325535  1
  I  I115  1  -0.00023196  0.83330793  0.49951305  1
  I  I116  1  0.00137858  0.82698260  0.83669238  1
  I  I117  1  0.33348790  0.16212548  0.16950808  1
  I  I118  1  0.33666923  0.17086855  0.49630743  1
  I  I119  1  0.33338224  0.16305806  0.83327969  1
  I  I120  1  0.33334400  0.49926776  0.16789793  1
  I  I121  1  0.33657966  0.49579773  0.50230674  1
  I  I122  1  0.33333738  0.50520989  0.82920355  1
  I  I123  1  0.32883084  0.83689440  0.15903544  1
  I  I124  1  0.33340001  0.83412425  0.50231168  1
  I  I125  1  0.32987609  0.83148127  0.83769998  1
  I  I126  1  0.66736621  0.17188681  0.17030419  1
  I  I127  1  0.66686452  0.17120465  0.49163028  1
  I  I128  1  0.66673086  0.16526315  0.83928041  1
  I  I129  1  0.67030355  0.49513634  0.16410817  1
  I  I130  1  0.66675795  0.49535784  0.50363342  1
  I  I131  1  0.66459646  0.50100817  0.83179424  1
  I  I132  1  0.66681577  0.83351817  0.16395067  1
  I  I133  1  0.66688997  0.83311772  0.50301157  1
  I  I134  1  0.66885127  0.83279624  0.83291721  1
