# generated using pymatgen
data_Cs27Sn13Pb14I81
_symmetry_space_group_name_H-M   'P 1'
_cell_length_a   19.00619174
_cell_length_b   18.98834057
_cell_length_c   18.98271739
_cell_angle_alpha   89.99498359
_cell_angle_beta   90.00031238
_cell_angle_gamma   89.99948847
_symmetry_Int_Tables_number   1
_chemical_formula_structural   Cs27Sn13Pb14I81
_chemical_formula_sum   'Cs27 Sn13 Pb14 I81'
_cell_volume   6850.78754007
_cell_formula_units_Z   1
loop_
 _symmetry_equiv_pos_site_id
 _symmetry_equiv_pos_as_xyz
  1  'x, y, z'
loop_
 _atom_site_type_symbol
 _atom_site_label
 _atom_site_symmetry_multiplicity
 _atom_site_fract_x
 _atom_site_fract_y
 _atom_site_fract_z
 _atom_site_occupancy
  Cs  Cs0  1  0.00087732  0.00263695  0.00099573  1
  Cs  Cs1  1  -0.00162541  -0.00077251  0.33372085  1
  Cs  Cs2  1  -0.00179257  -0.00732008  0.65971270  1
  Cs  Cs3  1  -0.00082389  0.33057896  -0.00310868  1
  Cs  Cs4  1  0.00348089  0.33825584  0.33500712  1
  Cs  Cs5  1  -0.00107175  0.33280889  0.66973264  1
  Cs  Cs6  1  -0.00097888  0.66652685  0.00264573  1
  Cs  Cs7  1  0.00388995  0.66326857  0.33258048  1
  Cs  Cs8  1  0.00015466  0.67240745  0.66522288  1
  Cs  Cs9  1  0.33031869  0.00059854  0.00089890  1
  Cs  Cs10  1  0.33664684  0.00157796  0.33166023  1
  Cs  Cs11  1  0.32985594  -0.00035654  0.66709856  1
  Cs  Cs12  1  0.33437490  0.33241635  -0.00133405  1
  Cs  Cs13  1  0.33424447  0.33389286  0.33561118  1
  Cs  Cs14  1  0.33059601  0.33171538  0.66727496  1
  Cs  Cs15  1  0.33768662  0.66650085  -0.00262573  1
  Cs  Cs16  1  0.33197894  0.66531912  0.33453199  1
  Cs  Cs17  1  0.33553914  0.66931040  0.66721240  1
  Cs  Cs18  1  0.66881767  0.00032509  0.00075682  1
  Cs  Cs19  1  0.66506406  0.00053812  0.33411402  1
  Cs  Cs20  1  0.67117826  -0.00101101  0.66434355  1
  Cs  Cs21  1  0.66710378  0.33394324  -0.00053208  1
  Cs  Cs22  1  0.66312312  0.33279811  0.33393405  1
  Cs  Cs23  1  0.66849255  0.33448022  0.66658119  1
  Cs  Cs24  1  0.66389395  0.66476333  -0.00154741  1
  Cs  Cs25  1  0.66561473  0.66621552  0.33359607  1
  Cs  Cs26  1  0.66509065  0.66606186  0.66669296  1
  Sn  Sn27  1  0.83431767  0.49964980  0.83254327  1
  Sn  Sn28  1  0.16665098  0.83401794  0.16631839  1
  Sn  Sn29  1  0.16559989  0.49979877  0.83354709  1
  Sn  Sn30  1  0.50015048  0.83281326  0.49940274  1
  Sn  Sn31  1  0.16571455  0.16624665  0.16624680  1
  Sn  Sn32  1  0.83275999  0.49984525  0.50080606  1
  Sn  Sn33  1  0.83366797  0.16688049  0.83372441  1
  Sn  Sn34  1  0.83329479  0.83392851  0.16638421  1
  Sn  Sn35  1  0.50033191  0.16624542  0.83318216  1
  Sn  Sn36  1  0.50065462  0.50038352  0.50031702  1
  Sn  Sn37  1  0.16592271  0.16700557  0.83378330  1
  Sn  Sn38  1  0.83413863  0.16627663  0.16629329  1
  Sn  Sn39  1  0.50007831  0.83326737  0.16705553  1
  Pb  Pb40  1  0.83350009  0.16896246  0.49947537  1
  Pb  Pb41  1  0.83142316  0.83066053  0.49696457  1
  Pb  Pb42  1  0.50018918  0.49797804  0.83129441  1
  Pb  Pb43  1  0.83335502  0.83321301  0.83547701  1
  Pb  Pb44  1  0.50008133  0.16638794  0.50266143  1
  Pb  Pb45  1  0.83334457  0.49913909  0.16629314  1
  Pb  Pb46  1  0.50016375  0.83603875  0.83311090  1
  Pb  Pb47  1  0.16660342  0.49997549  0.50317395  1
  Pb  Pb48  1  0.49990661  0.50234983  0.16906571  1
  Pb  Pb49  1  0.16635733  0.16663023  0.49974616  1
  Pb  Pb50  1  0.16924961  0.83342954  0.49676653  1
  Pb  Pb51  1  0.50011194  0.16491086  0.16483955  1
  Pb  Pb52  1  0.16668780  0.49917351  0.16381540  1
  Pb  Pb53  1  0.16646406  0.83361285  0.83551812  1
  I  I54  1  0.16661627  0.00054139  0.16000565  1
  I  I55  1  0.16898354  -0.00017003  0.50660912  1
  I  I56  1  0.16715743  0.00366183  0.83610594  1
  I  I57  1  0.16031391  0.32957069  0.16464382  1
  I  I58  1  0.17087990  0.33360580  0.49326013  1
  I  I59  1  0.16654185  0.33198606  0.83908501  1
  I  I60  1  0.16597100  0.66961455  0.16637220  1
  I  I61  1  0.16462824  0.66662709  0.49970375  1
  I  I62  1  0.16219612  0.66379194  0.83401201  1
  I  I63  1  0.50014258  -0.00323592  0.17313201  1
  I  I64  1  0.49879178  -0.00300503  0.49522503  1
  I  I65  1  0.49933232  0.00399405  0.83257161  1
  I  I66  1  0.50000227  0.33297522  0.16789567  1
  I  I67  1  0.50408061  0.33612679  0.50247984  1
  I  I68  1  0.49974829  0.33012197  0.83251662  1
  I  I69  1  0.50048955  0.67110810  0.16590662  1
  I  I70  1  0.50443491  0.66665914  0.49586985  1
  I  I71  1  0.49966138  0.66668970  0.83567432  1
  I  I72  1  0.83351305  0.00060164  0.16041645  1
  I  I73  1  0.83166409  -0.00018468  0.50323065  1
  I  I74  1  0.83374396  0.00350875  0.83630858  1
  I  I75  1  0.83907301  0.32983026  0.16498444  1
  I  I76  1  0.82565545  0.33679716  0.49935790  1
  I  I77  1  0.83359683  0.33250729  0.83559503  1
  I  I78  1  0.83339100  0.66933262  0.16707534  1
  I  I79  1  0.83124765  0.66302728  0.50627852  1
  I  I80  1  0.83743942  0.66328524  0.83085999  1
  I  I81  1  0.16609629  0.16620007  -0.00039481  1
  I  I82  1  0.16224755  0.16161874  0.32924105  1
  I  I83  1  0.16734754  0.17248439  0.67062925  1
  I  I84  1  0.15962554  0.49827398  -0.00390492  1
  I  I85  1  0.16642596  0.49995150  0.33335240  1
  I  I86  1  0.16590815  0.49140512  0.67091842  1
  I  I87  1  0.16999799  0.83475019  0.00379810  1
  I  I88  1  0.16336097  0.83931408  0.32850559  1
  I  I89  1  0.16909650  0.83396657  0.66666037  1
  I  I90  1  0.49993204  0.16578217  -0.00314999  1
  I  I91  1  0.49964831  0.16872160  0.33330380  1
  I  I92  1  0.49962375  0.16550902  0.67078353  1
  I  I93  1  0.50066988  0.50166343  -0.00048005  1
  I  I94  1  0.50689893  0.49946750  0.33727952  1
  I  I95  1  0.50158104  0.50747549  0.66365951  1
  I  I96  1  0.49950813  0.83551511  0.00319414  1
  I  I97  1  0.49999390  0.82964656  0.33245545  1
  I  I98  1  0.50040129  0.82939051  0.66374085  1
  I  I99  1  0.83361554  0.16858461  -0.00060195  1
  I  I100  1  0.83753633  0.16293145  0.32960504  1
  I  I101  1  0.83344081  0.16970158  0.67009990  1
  I  I102  1  0.83771936  0.49885355  -0.00314610  1
  I  I103  1  0.82788077  0.50111719  0.33575083  1
  I  I104  1  0.83261372  0.49312419  0.66795433  1
  I  I105  1  0.83020134  0.83226746  0.00383303  1
  I  I106  1  0.83541926  0.83905727  0.32900504  1
  I  I107  1  0.83110897  0.83638927  0.66643838  1
  I  I108  1  -0.00018853  0.15751957  0.15752053  1
  I  I109  1  -0.00022619  0.16895201  0.50357217  1
  I  I110  1  -0.00025637  0.17370623  0.84005917  1
  I  I111  1  -0.00012082  0.50664928  0.17273573  1
  I  I112  1  -0.00292351  0.49794929  0.50076275  1
  I  I113  1  -0.00099039  0.49099724  0.82862973  1
  I  I114  1  -0.00007866  0.83772583  0.16370519  1
  I  I115  1  -0.00019033  0.83229962  0.49988983  1
  I  I116  1  -0.00009915  0.83557562  0.83445306  1
  I  I117  1  0.33056311  0.16218759  0.16155471  1
  I  I118  1  0.33349457  0.16919808  0.50030475  1
  I  I119  1  0.33206074  0.17047488  0.83700074  1
  I  I120  1  0.33321351  0.49973556  0.16626725  1
  I  I121  1  0.33620848  0.50472701  0.50005533  1
  I  I122  1  0.33104705  0.49535517  0.83370853  1
  I  I123  1  0.33317799  0.83777520  0.17073282  1
  I  I124  1  0.33719514  0.82611818  0.49551437  1
  I  I125  1  0.33336539  0.83269954  0.83574798  1
  I  I126  1  0.66956642  0.16291852  0.16194018  1
  I  I127  1  0.66673026  0.16514576  0.50008557  1
  I  I128  1  0.66824888  0.17050040  0.83759997  1
  I  I129  1  0.66681728  0.49995397  0.16168713  1
  I  I130  1  0.66694382  0.50386838  0.50633912  1
  I  I131  1  0.66955230  0.49548634  0.83199856  1
  I  I132  1  0.66681767  0.83759868  0.17059296  1
  I  I133  1  0.66371784  0.83220487  0.49393902  1
  I  I134  1  0.66670621  0.83384402  0.83731249  1
