# generated using pymatgen
data_Cs27Sn13Pb14I81
_symmetry_space_group_name_H-M   'P 1'
_cell_length_a   18.99873204
_cell_length_b   18.98135119
_cell_length_c   18.99490159
_cell_angle_alpha   89.99973423
_cell_angle_beta   90.00014867
_cell_angle_gamma   90.00118607
_symmetry_Int_Tables_number   1
_chemical_formula_structural   Cs27Sn13Pb14I81
_chemical_formula_sum   'Cs27 Sn13 Pb14 I81'
_cell_volume   6849.97189606
_cell_formula_units_Z   1
loop_
 _symmetry_equiv_pos_site_id
 _symmetry_equiv_pos_as_xyz
  1  'x, y, z'
loop_
 _atom_site_type_symbol
 _atom_site_label
 _atom_site_symmetry_multiplicity
 _atom_site_fract_x
 _atom_site_fract_y
 _atom_site_fract_z
 _atom_site_occupancy
  Cs  Cs0  1  -0.00068879  0.00551795  0.00395146  1
  Cs  Cs1  1  -0.00067199  0.00041199  0.33316584  1
  Cs  Cs2  1  0.00009897  -0.00537199  0.66309186  1
  Cs  Cs3  1  0.00050490  0.32933601  -0.00988801  1
  Cs  Cs4  1  0.00073421  0.33451611  0.33263951  1
  Cs  Cs5  1  -0.00228183  0.33296966  0.67494340  1
  Cs  Cs6  1  -0.00103457  0.66495519  -0.00090211  1
  Cs  Cs7  1  0.00060630  0.66675792  0.33431906  1
  Cs  Cs8  1  -0.00019593  0.66786783  0.66666319  1
  Cs  Cs9  1  0.34081282  0.00721754  -0.00094085  1
  Cs  Cs10  1  0.33024847  0.00144030  0.33174286  1
  Cs  Cs11  1  0.33454149  -0.00383783  0.66910685  1
  Cs  Cs12  1  0.33022412  0.32892020  -0.00112672  1
  Cs  Cs13  1  0.33513915  0.33546242  0.33377403  1
  Cs  Cs14  1  0.33557982  0.33157899  0.66712617  1
  Cs  Cs15  1  0.33565998  0.66614518  0.00026430  1
  Cs  Cs16  1  0.33111450  0.66479531  0.33509183  1
  Cs  Cs17  1  0.33261282  0.66750457  0.66491692  1
  Cs  Cs18  1  0.65728643  0.00385105  0.00857363  1
  Cs  Cs19  1  0.66913104  0.00687272  0.32555468  1
  Cs  Cs20  1  0.66561897  0.00536005  0.66814662  1
  Cs  Cs21  1  0.66953990  0.33233773  -0.00493372  1
  Cs  Cs22  1  0.66465347  0.33171203  0.33767903  1
  Cs  Cs23  1  0.66686077  0.32432315  0.66552545  1
  Cs  Cs24  1  0.66410145  0.66741404  0.00205236  1
  Cs  Cs25  1  0.66837964  0.66530179  0.33176753  1
  Cs  Cs26  1  0.66761725  0.66662057  0.66613293  1
  Sn  Sn27  1  0.16668360  0.83251767  0.16614411  1
  Sn  Sn28  1  0.16556488  0.49976124  0.49981778  1
  Sn  Sn29  1  0.16662671  0.83309886  0.49972705  1
  Sn  Sn30  1  0.16632343  0.16714817  0.50024201  1
  Sn  Sn31  1  0.50093456  0.83322630  0.49940608  1
  Sn  Sn32  1  0.16608920  0.50098102  0.16683970  1
  Sn  Sn33  1  0.49980166  0.50050291  0.16555856  1
  Sn  Sn34  1  0.83405228  0.50039111  0.16717788  1
  Sn  Sn35  1  0.16595426  0.83290026  0.83424868  1
  Sn  Sn36  1  0.49997354  0.50062793  0.83365137  1
  Sn  Sn37  1  0.83424391  0.50077673  0.49955051  1
  Sn  Sn38  1  0.83341408  0.83321318  0.83346725  1
  Sn  Sn39  1  0.83269708  0.83263331  0.50036307  1
  Pb  Pb40  1  0.83129666  0.50200725  0.83270991  1
  Pb  Pb41  1  0.50037583  0.50138760  0.49988427  1
  Pb  Pb42  1  0.49974137  0.17056436  0.16707022  1
  Pb  Pb43  1  0.83541344  0.83173731  0.16669994  1
  Pb  Pb44  1  0.83344549  0.16202021  0.83325783  1
  Pb  Pb45  1  0.50046561  0.83196855  0.83162429  1
  Pb  Pb46  1  0.16652719  0.16731955  0.16879024  1
  Pb  Pb47  1  0.49732665  0.83125755  0.16934897  1
  Pb  Pb48  1  0.16647984  0.16286842  0.83038103  1
  Pb  Pb49  1  0.83377351  0.17061450  0.16692264  1
  Pb  Pb50  1  0.49981794  0.16980409  0.83311098  1
  Pb  Pb51  1  0.16818608  0.50203170  0.83317112  1
  Pb  Pb52  1  0.49723288  0.16301127  0.49973830  1
  Pb  Pb53  1  0.83590219  0.16664837  0.49997468  1
  I  I54  1  0.16576783  -0.00325744  0.16898289  1
  I  I55  1  0.16722747  -0.00234245  0.50038141  1
  I  I56  1  0.16369626  -0.00543924  0.83271757  1
  I  I57  1  0.16808617  0.33752745  0.17264055  1
  I  I58  1  0.16332709  0.33518443  0.49340891  1
  I  I59  1  0.16910314  0.33333897  0.83321827  1
  I  I60  1  0.16705825  0.66587164  0.17285948  1
  I  I61  1  0.16655248  0.66730396  0.49905853  1
  I  I62  1  0.16413863  0.66996106  0.82721020  1
  I  I63  1  0.49868599  -0.00023186  0.16747049  1
  I  I64  1  0.49950260  -0.00518728  0.50268273  1
  I  I65  1  0.49946668  -0.00023167  0.83083652  1
  I  I66  1  0.49578868  0.33897805  0.16515177  1
  I  I67  1  0.49957044  0.33341501  0.50012067  1
  I  I68  1  0.49924639  0.33804885  0.83649861  1
  I  I69  1  0.50134308  0.66314651  0.16358793  1
  I  I70  1  0.49384757  0.66913250  0.50025572  1
  I  I71  1  0.49906045  0.66423634  0.83721433  1
  I  I72  1  0.83523836  -0.00028737  0.16703757  1
  I  I73  1  0.83498299  -0.00374175  0.50525649  1
  I  I74  1  0.83878963  -0.00586207  0.82340832  1
  I  I75  1  0.83538487  0.33938223  0.17427784  1
  I  I76  1  0.83654762  0.33702676  0.49479064  1
  I  I77  1  0.83110638  0.33350768  0.83335044  1
  I  I78  1  0.83183590  0.66333856  0.16883282  1
  I  I79  1  0.83877371  0.66700065  0.49981382  1
  I  I80  1  0.83813071  0.66968761  0.82994246  1
  I  I81  1  0.16699546  0.16714862  -0.00017240  1
  I  I82  1  0.16658088  0.16106023  0.33664389  1
  I  I83  1  0.16666595  0.16864866  0.66246598  1
  I  I84  1  0.16510996  0.50578563  0.00308259  1
  I  I85  1  0.16860474  0.50471697  0.33398630  1
  I  I86  1  0.16435958  0.50187906  0.66315193  1
  I  I87  1  0.16128199  0.82505804  0.00034961  1
  I  I88  1  0.16737639  0.83229424  0.33480942  1
  I  I89  1  0.16644601  0.83330507  0.66486703  1
  I  I90  1  0.49865978  0.16183865  0.00008633  1
  I  I91  1  0.49962507  0.16896528  0.33359908  1
  I  I92  1  0.49932321  0.17061778  0.66625518  1
  I  I93  1  0.49955019  0.50290409  0.00110300  1
  I  I94  1  0.49886148  0.50219657  0.33099937  1
  I  I95  1  0.49844052  0.50353004  0.66819592  1
  I  I96  1  0.49962683  0.83328250  0.00032797  1
  I  I97  1  0.49919073  0.82925122  0.33716090  1
  I  I98  1  0.49363048  0.82857334  0.66375736  1
  I  I99  1  0.83504792  0.16779973  -0.00003723  1
  I  I100  1  0.83372671  0.16087376  0.33365740  1
  I  I101  1  0.83363392  0.17331020  0.66647700  1
  I  I102  1  0.83550432  0.50190409  0.00261824  1
  I  I103  1  0.83272942  0.50653540  0.33425338  1
  I  I104  1  0.83767108  0.50308287  0.66328616  1
  I  I105  1  0.83966819  0.82982273  -0.00235939  1
  I  I106  1  0.83493068  0.83066829  0.33664111  1
  I  I107  1  0.83966412  0.82655787  0.66469727  1
  I  I108  1  0.00036963  0.16710812  0.16788387  1
  I  I109  1  0.00352234  0.16110631  0.49872446  1
  I  I110  1  0.00020189  0.17286894  0.83384011  1
  I  I111  1  0.00089342  0.50518627  0.17393078  1
  I  I112  1  0.00095465  0.50542108  0.49210935  1
  I  I113  1  -0.00006449  0.49886875  0.83561361  1
  I  I114  1  0.00358901  0.82720827  0.17172815  1
  I  I115  1  0.00113754  0.83272681  0.50120003  1
  I  I116  1  0.00085067  0.83071277  0.82615228  1
  I  I117  1  0.33302893  0.16744794  0.16786378  1
  I  I118  1  0.32922799  0.16868913  0.49920005  1
  I  I119  1  0.33300793  0.16409703  0.83235726  1
  I  I120  1  0.33209595  0.50482569  0.16846157  1
  I  I121  1  0.33026933  0.50213620  0.49731483  1
  I  I122  1  0.33573184  0.50408072  0.83606808  1
  I  I123  1  0.32911578  0.82669496  0.16796915  1
  I  I124  1  0.33111540  0.83217014  0.50057725  1
  I  I125  1  0.33054398  0.83094972  0.83004583  1
  I  I126  1  0.66663079  0.16466634  0.16751162  1
  I  I127  1  0.66679636  0.16787166  0.50055372  1
  I  I128  1  0.66660411  0.16591278  0.83144302  1
  I  I129  1  0.66702381  0.50078314  0.16780000  1
  I  I130  1  0.66946888  0.50660783  0.49661907  1
  I  I131  1  0.66392416  0.50446650  0.83761131  1
  I  I132  1  0.66668605  0.83119607  0.16682872  1
  I  I133  1  0.66802765  0.82469477  0.50649277  1
  I  I134  1  0.66954424  0.82938416  0.82587235  1
