# generated using pymatgen
data_Cs27Sn14Pb13I81
_symmetry_space_group_name_H-M   'P 1'
_cell_length_a   18.97983260
_cell_length_b   18.96846026
_cell_length_c   18.98031750
_cell_angle_alpha   89.99829667
_cell_angle_beta   90.00186943
_cell_angle_gamma   89.99912636
_symmetry_Int_Tables_number   1
_chemical_formula_structural   Cs27Sn14Pb13I81
_chemical_formula_sum   'Cs27 Sn14 Pb13 I81'
_cell_volume   6833.25974047
_cell_formula_units_Z   1
loop_
 _symmetry_equiv_pos_site_id
 _symmetry_equiv_pos_as_xyz
  1  'x, y, z'
loop_
 _atom_site_type_symbol
 _atom_site_label
 _atom_site_symmetry_multiplicity
 _atom_site_fract_x
 _atom_site_fract_y
 _atom_site_fract_z
 _atom_site_occupancy
  Cs  Cs0  1  -0.00586880  -0.00286147  0.00398570  1
  Cs  Cs1  1  0.00073461  -0.00856083  0.33348819  1
  Cs  Cs2  1  0.00399886  -0.00085107  0.66296449  1
  Cs  Cs3  1  -0.00012101  0.33458580  -0.00018827  1
  Cs  Cs4  1  0.00023373  0.33377612  0.32942504  1
  Cs  Cs5  1  0.00280246  0.33137088  0.67056245  1
  Cs  Cs6  1  0.00112737  0.66438171  -0.00157649  1
  Cs  Cs7  1  0.00171040  0.67192927  0.33787275  1
  Cs  Cs8  1  -0.00272835  0.66955883  0.66547650  1
  Cs  Cs9  1  0.33626041  -0.00335413  0.00042959  1
  Cs  Cs10  1  0.33144927  -0.00209063  0.33544229  1
  Cs  Cs11  1  0.33217530  0.00238943  0.66416729  1
  Cs  Cs12  1  0.33274565  0.33432462  0.00013004  1
  Cs  Cs13  1  0.33461093  0.33439624  0.33174422  1
  Cs  Cs14  1  0.33194542  0.33140010  0.66886594  1
  Cs  Cs15  1  0.33390497  0.66776476  0.00063925  1
  Cs  Cs16  1  0.33202974  0.66590727  0.33126607  1
  Cs  Cs17  1  0.33417663  0.66483285  0.66909470  1
  Cs  Cs18  1  0.66771709  -0.00400035  -0.00116136  1
  Cs  Cs19  1  0.66711982  0.00379779  0.33020802  1
  Cs  Cs20  1  0.66448996  0.00169548  0.66914432  1
  Cs  Cs21  1  0.66723759  0.33216863  0.00044405  1
  Cs  Cs22  1  0.66604679  0.33344213  0.33408609  1
  Cs  Cs23  1  0.66562802  0.33312162  0.66588656  1
  Cs  Cs24  1  0.66472671  0.67075383  -0.00266696  1
  Cs  Cs25  1  0.66804611  0.66368228  0.34022004  1
  Cs  Cs26  1  0.67014924  0.66761761  0.66463780  1
  Sn  Sn27  1  0.50102149  0.49916489  0.83414588  1
  Sn  Sn28  1  0.83287238  0.49976966  0.16605844  1
  Sn  Sn29  1  0.16684465  0.83376322  0.83354633  1
  Sn  Sn30  1  0.83263869  0.16755433  0.83237946  1
  Sn  Sn31  1  0.50011586  0.83418691  0.49997742  1
  Sn  Sn32  1  0.50060248  0.16752439  0.83374229  1
  Sn  Sn33  1  0.50052511  0.16588622  0.49991266  1
  Sn  Sn34  1  0.16739451  0.16699067  0.16654509  1
  Sn  Sn35  1  0.16670464  0.49916808  0.16773625  1
  Sn  Sn36  1  0.83318887  0.16719601  0.50065344  1
  Sn  Sn37  1  0.83213159  0.49899031  0.83414290  1
  Sn  Sn38  1  0.49896992  0.16739988  0.16633031  1
  Sn  Sn39  1  0.16669276  0.49918801  0.49947856  1
  Sn  Sn40  1  0.50048951  0.49924622  0.16575910  1
  Pb  Pb41  1  0.16663753  0.16828399  0.49754372  1
  Pb  Pb42  1  0.16897408  0.83081574  0.50199186  1
  Pb  Pb43  1  0.83565206  0.49761248  0.50055668  1
  Pb  Pb44  1  0.83062022  0.83683018  0.50025373  1
  Pb  Pb45  1  0.83530109  0.83362398  0.83323861  1
  Pb  Pb46  1  0.83288911  0.82912739  0.16671608  1
  Pb  Pb47  1  0.16662867  0.50107367  0.83397101  1
  Pb  Pb48  1  0.49872019  0.83338250  0.83149651  1
  Pb  Pb49  1  0.49862515  0.49899981  0.50026892  1
  Pb  Pb50  1  0.83302516  0.16806262  0.16644099  1
  Pb  Pb51  1  0.50017965  0.83303897  0.16903940  1
  Pb  Pb52  1  0.16647531  0.16462577  0.83611923  1
  Pb  Pb53  1  0.16688060  0.83310500  0.16483043  1
  I  I54  1  0.17212263  0.00302217  0.16470563  1
  I  I55  1  0.16467629  0.00024227  0.49909981  1
  I  I56  1  0.16819075  -0.00247070  0.83390405  1
  I  I57  1  0.16838877  0.33455802  0.16951470  1
  I  I58  1  0.16969095  0.33608052  0.49941779  1
  I  I59  1  0.16663862  0.33317984  0.83148397  1
  I  I60  1  0.16750061  0.66286734  0.16912257  1
  I  I61  1  0.16828552  0.66298053  0.49308843  1
  I  I62  1  0.16797656  0.66842431  0.83417930  1
  I  I63  1  0.49519316  0.00376099  0.16428791  1
  I  I64  1  0.50256301  0.00244719  0.50093241  1
  I  I65  1  0.50293577  0.00357960  0.83603118  1
  I  I66  1  0.49862634  0.33339654  0.16820080  1
  I  I67  1  0.50274548  0.33005153  0.49951885  1
  I  I68  1  0.50245520  0.33295995  0.83188850  1
  I  I69  1  0.49847795  0.66269963  0.16289710  1
  I  I70  1  0.49575185  0.66778232  0.50015233  1
  I  I71  1  0.50152544  0.66338642  0.83634420  1
  I  I72  1  0.83457891  0.00041245  0.16640637  1
  I  I73  1  0.83383278  0.00498558  0.50610621  1
  I  I74  1  0.82932231  0.00368697  0.82995954  1
  I  I75  1  0.83396523  0.33636747  0.16540629  1
  I  I76  1  0.82460760  0.33006022  0.50099785  1
  I  I77  1  0.83016201  0.33348493  0.83342492  1
  I  I78  1  0.83382733  0.66052548  0.15992818  1
  I  I79  1  0.83320449  0.66640538  0.49943457  1
  I  I80  1  0.83038839  0.66313760  0.83838514  1
  I  I81  1  0.17042886  0.17453906  0.00368870  1
  I  I82  1  0.17077041  0.16963385  0.32968900  1
  I  I83  1  0.16885786  0.16747418  0.66677560  1
  I  I84  1  0.16676916  0.49778118  0.00303830  1
  I  I85  1  0.16803335  0.49644108  0.33147098  1
  I  I86  1  0.16801142  0.50255194  0.66523752  1
  I  I87  1  0.16843036  0.83055332  -0.00254543  1
  I  I88  1  0.16703346  0.83404877  0.33340667  1
  I  I89  1  0.16720374  0.83160553  0.66933447  1
  I  I90  1  0.49942663  0.17206266  -0.00010919  1
  I  I91  1  0.50043008  0.16725865  0.33303820  1
  I  I92  1  0.50441730  0.16692040  0.66712642  1
  I  I93  1  0.49781351  0.49316088  0.00026384  1
  I  I94  1  0.50143237  0.49727614  0.33046820  1
  I  I95  1  0.50180756  0.49765319  0.66951253  1
  I  I96  1  0.49843680  0.83492396  -0.00013719  1
  I  I97  1  0.49852872  0.83730530  0.33676866  1
  I  I98  1  0.49774823  0.83714691  0.66387243  1
  I  I99  1  0.83127710  0.16892155  -0.00272352  1
  I  I100  1  0.82908263  0.16892375  0.33521514  1
  I  I101  1  0.82538511  0.17259364  0.66770617  1
  I  I102  1  0.83566326  0.49333549  -0.00045355  1
  I  I103  1  0.83034996  0.49769442  0.33068564  1
  I  I104  1  0.82984261  0.49857793  0.66983188  1
  I  I105  1  0.83341108  0.83929774  -0.00021716  1
  I  I106  1  0.83473282  0.83397030  0.33366894  1
  I  I107  1  0.83478241  0.82653533  0.66669083  1
  I  I108  1  0.00196222  0.17208431  0.16568603  1
  I  I109  1  -0.00240202  0.17122189  0.50468051  1
  I  I110  1  -0.00298914  0.17059479  0.82996499  1
  I  I111  1  0.00033560  0.49473515  0.16548741  1
  I  I112  1  0.00319310  0.49832681  0.49607740  1
  I  I113  1  -0.00263634  0.49700486  0.83612476  1
  I  I114  1  0.00011424  0.83624889  0.16660248  1
  I  I115  1  0.00007320  0.83353547  0.50063482  1
  I  I116  1  0.00285793  0.83153795  0.83343652  1
  I  I117  1  0.33486749  0.17498125  0.16661780  1
  I  I118  1  0.33651754  0.16458616  0.50264722  1
  I  I119  1  0.33665834  0.17043125  0.83056863  1
  I  I120  1  0.33386583  0.49607448  0.16668453  1
  I  I121  1  0.33095009  0.49861325  0.49626514  1
  I  I122  1  0.33614399  0.49719536  0.83511852  1
  I  I123  1  0.33352212  0.82892659  0.16609944  1
  I  I124  1  0.33634613  0.84133263  0.50082505  1
  I  I125  1  0.33125259  0.83146988  0.83287904  1
  I  I126  1  0.66348102  0.17095324  0.16813583  1
  I  I127  1  0.66518855  0.16383841  0.49863599  1
  I  I128  1  0.66556585  0.17022452  0.83403175  1
  I  I129  1  0.66567845  0.49507653  0.16252468  1
  I  I130  1  0.66667247  0.50274863  0.49721757  1
  I  I131  1  0.66607596  0.49679428  0.84051568  1
  I  I132  1  0.66632100  0.83596094  0.16531254  1
  I  I133  1  0.66287496  0.83104209  0.50162927  1
  I  I134  1  0.66661790  0.83246902  0.83201006  1
