# generated using pymatgen
data_Cs27Sn13Pb14I81
_symmetry_space_group_name_H-M   'P 1'
_cell_length_a   18.97204682
_cell_length_b   18.97651070
_cell_length_c   18.98086301
_cell_angle_alpha   90.00104150
_cell_angle_beta   89.99960869
_cell_angle_gamma   90.00136823
_symmetry_Int_Tables_number   1
_chemical_formula_structural   Cs27Sn13Pb14I81
_chemical_formula_sum   'Cs27 Sn13 Pb14 I81'
_cell_volume   6833.55197704
_cell_formula_units_Z   1
loop_
 _symmetry_equiv_pos_site_id
 _symmetry_equiv_pos_as_xyz
  1  'x, y, z'
loop_
 _atom_site_type_symbol
 _atom_site_label
 _atom_site_symmetry_multiplicity
 _atom_site_fract_x
 _atom_site_fract_y
 _atom_site_fract_z
 _atom_site_occupancy
  Cs  Cs0  1  -0.00057569  -0.00039296  -0.00110411  1
  Cs  Cs1  1  0.00115028  -0.00013670  0.33473806  1
  Cs  Cs2  1  0.00003550  -0.00133072  0.66695132  1
  Cs  Cs3  1  -0.00052044  0.33365770  0.00143324  1
  Cs  Cs4  1  0.00444008  0.33146330  0.33921031  1
  Cs  Cs5  1  -0.00066574  0.33324615  0.65967299  1
  Cs  Cs6  1  -0.00138006  0.66669403  -0.00034616  1
  Cs  Cs7  1  -0.00014040  0.66878009  0.33296263  1
  Cs  Cs8  1  0.00037244  0.66949102  0.66709079  1
  Cs  Cs9  1  0.33436598  0.00083161  -0.00056387  1
  Cs  Cs10  1  0.33382259  -0.00091737  0.33324697  1
  Cs  Cs11  1  0.33407423  0.00040181  0.66864483  1
  Cs  Cs12  1  0.33183099  0.33560312  -0.00146355  1
  Cs  Cs13  1  0.32611398  0.33100762  0.33235234  1
  Cs  Cs14  1  0.33580738  0.34259442  0.66954698  1
  Cs  Cs15  1  0.33287340  0.66316218  -0.00013713  1
  Cs  Cs16  1  0.33692767  0.66869067  0.33542246  1
  Cs  Cs17  1  0.33872674  0.65705957  0.66490809  1
  Cs  Cs18  1  0.66687446  0.00107350  -0.00088980  1
  Cs  Cs19  1  0.66530084  0.00162950  0.33211694  1
  Cs  Cs20  1  0.66467664  0.00015300  0.67188928  1
  Cs  Cs21  1  0.66832486  0.33189543  0.00234638  1
  Cs  Cs22  1  0.66890329  0.33217576  0.33262828  1
  Cs  Cs23  1  0.66568538  0.33419686  0.66389011  1
  Cs  Cs24  1  0.67006148  0.66846883  0.00196695  1
  Cs  Cs25  1  0.66469322  0.66575957  0.33259561  1
  Cs  Cs26  1  0.65999777  0.66661262  0.66581189  1
  Sn  Sn27  1  0.83310433  0.49948777  0.16634501  1
  Sn  Sn28  1  0.16595384  0.83357496  0.16645327  1
  Sn  Sn29  1  0.16666447  0.83382371  0.83324730  1
  Sn  Sn30  1  0.16625489  0.83361524  0.50029441  1
  Sn  Sn31  1  0.83362577  0.49897388  0.83366892  1
  Sn  Sn32  1  0.83412999  0.83366961  0.16762703  1
  Sn  Sn33  1  0.49994741  0.16653276  0.49925639  1
  Sn  Sn34  1  0.83330248  0.83360118  0.49928616  1
  Sn  Sn35  1  0.16570409  0.16635727  0.83334360  1
  Sn  Sn36  1  0.50048780  0.16775773  0.16758438  1
  Sn  Sn37  1  0.83327903  0.16684486  0.16639571  1
  Sn  Sn38  1  0.50069184  0.49867335  0.16669923  1
  Sn  Sn39  1  0.83446831  0.16778427  0.83393445  1
  Pb  Pb40  1  0.50041858  0.83360351  0.16640809  1
  Pb  Pb41  1  0.16380245  0.49974906  0.83343378  1
  Pb  Pb42  1  0.50347817  0.49975622  0.83640366  1
  Pb  Pb43  1  0.83202986  0.16436049  0.50016270  1
  Pb  Pb44  1  0.49632406  0.83307201  0.83345232  1
  Pb  Pb45  1  0.50017286  0.83533386  0.49992392  1
  Pb  Pb46  1  0.83329547  0.50273049  0.49956126  1
  Pb  Pb47  1  0.50034886  0.49687410  0.49660550  1
  Pb  Pb48  1  0.16645113  0.16462545  0.16499711  1
  Pb  Pb49  1  0.16648843  0.50296015  0.49989812  1
  Pb  Pb50  1  0.16605629  0.50260923  0.16682843  1
  Pb  Pb51  1  0.83445669  0.83342594  0.83340002  1
  Pb  Pb52  1  0.50023243  0.16683085  0.83403876  1
  Pb  Pb53  1  0.16919084  0.16461465  0.50314155  1
  I  I54  1  0.16279302  -0.00358810  0.16795789  1
  I  I55  1  0.16268067  -0.00358003  0.49743028  1
  I  I56  1  0.16019283  -0.00038496  0.83400248  1
  I  I57  1  0.16536730  0.33311095  0.16422309  1
  I  I58  1  0.16774114  0.33282316  0.50116572  1
  I  I59  1  0.16580221  0.33025727  0.83510817  1
  I  I60  1  0.16271935  0.67109826  0.16407242  1
  I  I61  1  0.16276172  0.67185584  0.50186778  1
  I  I62  1  0.16464125  0.66984424  0.83385041  1
  I  I63  1  0.50310009  0.00314818  0.16955080  1
  I  I64  1  0.50031170  0.00289359  0.49216486  1
  I  I65  1  0.50498906  0.00035433  0.83588917  1
  I  I66  1  0.50897965  0.33245495  0.16980493  1
  I  I67  1  0.50183411  0.32925440  0.49970581  1
  I  I68  1  0.49361967  0.33312285  0.83026953  1
  I  I69  1  0.50320139  0.66417500  0.16489201  1
  I  I70  1  0.49881943  0.66650677  0.49964084  1
  I  I71  1  0.50072793  0.66625934  0.83445277  1
  I  I72  1  0.83279170  0.00027668  0.16590415  1
  I  I73  1  0.83702393  -0.00346571  0.49568059  1
  I  I74  1  0.83489861  0.00263291  0.83658121  1
  I  I75  1  0.82693378  0.33278466  0.16024819  1
  I  I76  1  0.83148867  0.33303917  0.49850530  1
  I  I77  1  0.83815664  0.33215407  0.84221712  1
  I  I78  1  0.83305956  0.66683982  0.16555641  1
  I  I79  1  0.83788976  0.67089099  0.49637933  1
  I  I80  1  0.83488049  0.66472925  0.83774426  1
  I  I81  1  0.16678118  0.15963132  -0.00281520  1
  I  I82  1  0.16517389  0.16498346  0.33337955  1
  I  I83  1  0.16097623  0.15966578  0.67077519  1
  I  I84  1  0.16952056  0.50401827  0.00014745  1
  I  I85  1  0.16461146  0.50059327  0.33301855  1
  I  I86  1  0.16554205  0.50191948  0.66693617  1
  I  I87  1  0.16213868  0.83685281  0.00024064  1
  I  I88  1  0.16196944  0.83248209  0.33296262  1
  I  I89  1  0.16071544  0.83879906  0.66670705  1
  I  I90  1  0.50170306  0.16944561  0.00344872  1
  I  I91  1  0.50623889  0.16867297  0.33133753  1
  I  I92  1  0.50018879  0.16233698  0.66468042  1
  I  I93  1  0.50061057  0.49336260  0.00414624  1
  I  I94  1  0.50813574  0.50083364  0.32895402  1
  I  I95  1  0.50002888  0.49997753  0.66659265  1
  I  I96  1  0.50084266  0.83636716  0.00041645  1
  I  I97  1  0.49533616  0.83203101  0.33297230  1
  I  I98  1  0.50302490  0.83691379  0.66650051  1
  I  I99  1  0.83108490  0.16430740  0.00116821  1
  I  I100  1  0.83048491  0.16807363  0.33008045  1
  I  I101  1  0.83521020  0.16868758  0.66968005  1
  I  I102  1  0.82988406  0.50201282  0.00145199  1
  I  I103  1  0.82905147  0.49874126  0.32942400  1
  I  I104  1  0.83596030  0.49632294  0.66956447  1
  I  I105  1  0.83683296  0.83297073  0.00304893  1
  I  I106  1  0.84100755  0.83358006  0.33157352  1
  I  I107  1  0.83807844  0.83423610  0.66465449  1
  I  I108  1  -0.00334802  0.16808881  0.16373043  1
  I  I109  1  0.00013620  0.16686781  0.49803615  1
  I  I110  1  -0.00123515  0.16519681  0.83954466  1
  I  I111  1  -0.00390212  0.49896516  0.16193741  1
  I  I112  1  -0.00041564  0.49671541  0.49748953  1
  I  I113  1  -0.00389126  0.49977000  0.84225655  1
  I  I114  1  -0.00119467  0.83334190  0.16716827  1
  I  I115  1  0.00013433  0.83444841  0.49834154  1
  I  I116  1  0.00261688  0.83481651  0.83389187  1
  I  I117  1  0.33593074  0.16880451  0.16861318  1
  I  I118  1  0.33661436  0.16318680  0.49287750  1
  I  I119  1  0.33063766  0.15933017  0.83367408  1
  I  I120  1  0.33610572  0.49676544  0.16766524  1
  I  I121  1  0.33366230  0.50267278  0.49938756  1
  I  I122  1  0.33339235  0.50098345  0.83385554  1
  I  I123  1  0.33037457  0.83380714  0.16685148  1
  I  I124  1  0.33008501  0.83551720  0.49863633  1
  I  I125  1  0.32764327  0.84143000  0.83484734  1
  I  I126  1  0.66809383  0.16439602  0.16464217  1
  I  I127  1  0.66426962  0.16324765  0.49942934  1
  I  I128  1  0.67006684  0.16954240  0.83482703  1
  I  I129  1  0.66821422  0.50184054  0.16258664  1
  I  I130  1  0.66682596  0.50438765  0.50336052  1
  I  I131  1  0.67133921  0.49421114  0.83501939  1
  I  I132  1  0.67033345  0.83305169  0.17110102  1
  I  I133  1  0.66973409  0.83389079  0.49389521  1
  I  I134  1  0.66710010  0.83430338  0.83310857  1
