# generated using pymatgen
data_Cs27Sn13Pb14I81
_symmetry_space_group_name_H-M   'P 1'
_cell_length_a   18.98197189
_cell_length_b   18.97135750
_cell_length_c   18.97830139
_cell_angle_alpha   89.99756748
_cell_angle_beta   89.99988190
_cell_angle_gamma   90.00040563
_symmetry_Int_Tables_number   1
_chemical_formula_structural   Cs27Sn13Pb14I81
_chemical_formula_sum   'Cs27 Sn13 Pb14 I81'
_cell_volume   6834.34774952
_cell_formula_units_Z   1
loop_
 _symmetry_equiv_pos_site_id
 _symmetry_equiv_pos_as_xyz
  1  'x, y, z'
loop_
 _atom_site_type_symbol
 _atom_site_label
 _atom_site_symmetry_multiplicity
 _atom_site_fract_x
 _atom_site_fract_y
 _atom_site_fract_z
 _atom_site_occupancy
  Cs  Cs0  1  -0.00199211  -0.00086299  0.00148402  1
  Cs  Cs1  1  0.00336192  -0.00066421  0.33494417  1
  Cs  Cs2  1  -0.00091813  0.00129731  0.66338089  1
  Cs  Cs3  1  0.00050103  0.32650079  -0.00134541  1
  Cs  Cs4  1  -0.00084781  0.33317219  0.33249412  1
  Cs  Cs5  1  0.00155389  0.33594811  0.66834616  1
  Cs  Cs6  1  0.00136613  0.66668739  -0.00020926  1
  Cs  Cs7  1  -0.00070752  0.66769184  0.33218022  1
  Cs  Cs8  1  -0.00112253  0.66499637  0.66855753  1
  Cs  Cs9  1  0.33839837  0.00296695  0.00030827  1
  Cs  Cs10  1  0.32746576  0.00009609  0.33562538  1
  Cs  Cs11  1  0.33712810  0.00018032  0.66314455  1
  Cs  Cs12  1  0.33211346  0.32575624  -0.00264903  1
  Cs  Cs13  1  0.33691518  0.33264118  0.33120996  1
  Cs  Cs14  1  0.32830464  0.33535271  0.67001369  1
  Cs  Cs15  1  0.32906459  0.66760425  -0.00078753  1
  Cs  Cs16  1  0.33449926  0.66660313  0.33455726  1
  Cs  Cs17  1  0.33721760  0.66678429  0.66629844  1
  Cs  Cs18  1  0.66397146  0.00366906  -0.00307463  1
  Cs  Cs19  1  0.66816828  0.00049391  0.33458661  1
  Cs  Cs20  1  0.66559120  0.00106328  0.66856076  1
  Cs  Cs21  1  0.66559917  0.32753333  0.00669026  1
  Cs  Cs22  1  0.66395741  0.33555319  0.33024648  1
  Cs  Cs23  1  0.66751149  0.33381037  0.66455576  1
  Cs  Cs24  1  0.66710906  0.66711203  0.00005221  1
  Cs  Cs25  1  0.66578441  0.66327273  0.33277025  1
  Cs  Cs26  1  0.66604111  0.66616107  0.66693941  1
  Sn  Sn27  1  0.16644874  0.50046499  0.16720510  1
  Sn  Sn28  1  0.50055718  0.16685941  0.50014663  1
  Sn  Sn29  1  0.49997785  0.83277864  0.16695500  1
  Sn  Sn30  1  0.16596503  0.50059311  0.49879392  1
  Sn  Sn31  1  0.50136231  0.50004382  0.83384980  1
  Sn  Sn32  1  0.83258082  0.16713185  0.50003510  1
  Sn  Sn33  1  0.83325097  0.83303195  0.50021826  1
  Sn  Sn34  1  0.83393447  0.50000947  0.50037240  1
  Sn  Sn35  1  0.83296828  0.83288100  0.16642640  1
  Sn  Sn36  1  0.83212312  0.50045363  0.83333971  1
  Sn  Sn37  1  0.83410739  0.83247798  0.83331366  1
  Sn  Sn38  1  0.16615003  0.83327120  0.83356363  1
  Sn  Sn39  1  0.16682135  0.83239039  0.16571641  1
  Pb  Pb40  1  0.83503516  0.50160947  0.16607763  1
  Pb  Pb41  1  0.50031135  0.16971157  0.83090307  1
  Pb  Pb42  1  0.50037637  0.83194885  0.83509162  1
  Pb  Pb43  1  0.50270599  0.83487227  0.49789305  1
  Pb  Pb44  1  0.16624252  0.16975281  0.49997643  1
  Pb  Pb45  1  0.16652968  0.16626772  0.16666039  1
  Pb  Pb46  1  0.16474919  0.83119678  0.50026552  1
  Pb  Pb47  1  0.50029563  0.49834634  0.50136769  1
  Pb  Pb48  1  0.16641423  0.16230271  0.83308728  1
  Pb  Pb49  1  0.83344061  0.16369267  0.16950927  1
  Pb  Pb50  1  0.49722504  0.50179849  0.16391986  1
  Pb  Pb51  1  0.50003020  0.16394300  0.16925905  1
  Pb  Pb52  1  0.16592075  0.50151080  0.83372703  1
  Pb  Pb53  1  0.83346674  0.16674834  0.83111479  1
  I  I54  1  0.16591960  -0.00431298  0.16326444  1
  I  I55  1  0.16566893  -0.00022592  0.49978108  1
  I  I56  1  0.16028110  -0.00588812  0.83936181  1
  I  I57  1  0.16618276  0.33659713  0.17143275  1
  I  I58  1  0.16114176  0.33781939  0.49578265  1
  I  I59  1  0.16686815  0.33367180  0.83345237  1
  I  I60  1  0.16575415  0.66807499  0.16704098  1
  I  I61  1  0.16137692  0.66332592  0.49877045  1
  I  I62  1  0.16417126  0.66950657  0.83538543  1
  I  I63  1  0.49835338  -0.00436483  0.16505905  1
  I  I64  1  0.50510099  0.00275453  0.49975581  1
  I  I65  1  0.49915375  -0.00008292  0.83402466  1
  I  I66  1  0.49838562  0.33347279  0.16618074  1
  I  I67  1  0.50636461  0.33070888  0.50056703  1
  I  I68  1  0.50503958  0.33773728  0.83320755  1
  I  I69  1  0.50259205  0.66995478  0.16818378  1
  I  I70  1  0.50041721  0.66655357  0.50013587  1
  I  I71  1  0.50176663  0.66414010  0.83118097  1
  I  I72  1  0.83643771  -0.00534964  0.16558477  1
  I  I73  1  0.82911107  -0.00101883  0.49920902  1
  I  I74  1  0.83766575  -0.00377014  0.83331043  1
  I  I75  1  0.83534551  0.33347061  0.16645764  1
  I  I76  1  0.83408241  0.33463658  0.50568333  1
  I  I77  1  0.83076490  0.33687988  0.82770394  1
  I  I78  1  0.83257277  0.67038986  0.17144361  1
  I  I79  1  0.83825210  0.66658738  0.50079959  1
  I  I80  1  0.83342378  0.66747278  0.82801224  1
  I  I81  1  0.16729821  0.17297531  -0.00003891  1
  I  I82  1  0.16597409  0.16141021  0.33356705  1
  I  I83  1  0.16676402  0.16760432  0.66624042  1
  I  I84  1  0.16699013  0.50495603  0.00239593  1
  I  I85  1  0.16131595  0.50591955  0.33361495  1
  I  I86  1  0.16516685  0.50054615  0.66462380  1
  I  I87  1  0.16125865  0.82633070  0.00101040  1
  I  I88  1  0.16555788  0.83181284  0.33053744  1
  I  I89  1  0.16143766  0.83113662  0.66918249  1
  I  I90  1  0.49890660  0.16656845  0.00004597  1
  I  I91  1  0.50575620  0.16853202  0.33687732  1
  I  I92  1  0.50531577  0.16416051  0.66320384  1
  I  I93  1  0.50623505  0.50243897  -0.00365596  1
  I  I94  1  0.50131201  0.49957653  0.33313897  1
  I  I95  1  0.49922185  0.50128304  0.66921572  1
  I  I96  1  0.50357351  0.83177233  0.00303751  1
  I  I97  1  0.49860806  0.83317972  0.32991539  1
  I  I98  1  0.49886854  0.83391642  0.66664182  1
  I  I99  1  0.83378063  0.16707935  0.00001030  1
  I  I100  1  0.82997842  0.16787728  0.33787682  1
  I  I101  1  0.82988434  0.16159078  0.66282022  1
  I  I102  1  0.83159523  0.50680271  -0.00304809  1
  I  I103  1  0.83592239  0.50115846  0.33628283  1
  I  I104  1  0.83529686  0.50453128  0.66576671  1
  I  I105  1  0.83510338  0.82736347  -0.00034327  1
  I  I106  1  0.83361903  0.83398875  0.33347838  1
  I  I107  1  0.83831864  0.83270805  0.66679382  1
  I  I108  1  -0.00013228  0.16460914  0.16908161  1
  I  I109  1  -0.00346161  0.16362154  0.50001650  1
  I  I110  1  -0.00024319  0.17206627  0.83050013  1
  I  I111  1  0.00294723  0.50739622  0.16729545  1
  I  I112  1  -0.00165029  0.49895363  0.50242187  1
  I  I113  1  -0.00301884  0.50352418  0.83032200  1
  I  I114  1  -0.00013631  0.82970781  0.16628287  1
  I  I115  1  -0.00378511  0.83747601  0.49613741  1
  I  I116  1  -0.00152072  0.82725942  0.83740922  1
  I  I117  1  0.33333668  0.16443311  0.17028918  1
  I  I118  1  0.33575730  0.16716093  0.49953447  1
  I  I119  1  0.33346132  0.16839215  0.82993867  1
  I  I120  1  0.32941982  0.50732939  0.17234456  1
  I  I121  1  0.33081742  0.49874281  0.49852868  1
  I  I122  1  0.33465059  0.50225009  0.83222448  1
  I  I123  1  0.33204153  0.82945572  0.16179058  1
  I  I124  1  0.33327491  0.83419057  0.50008069  1
  I  I125  1  0.33085414  0.83042753  0.83849801  1
  I  I126  1  0.66681530  0.16522967  0.16598343  1
  I  I127  1  0.66839663  0.16713378  0.50033528  1
  I  I128  1  0.66691662  0.16140897  0.83370985  1
  I  I129  1  0.66671490  0.50256893  0.16930080  1
  I  I130  1  0.67012798  0.50227574  0.50257439  1
  I  I131  1  0.66875236  0.50717720  0.82591445  1
  I  I132  1  0.66787799  0.83397560  0.16766990  1
  I  I133  1  0.67134266  0.82847622  0.50077638  1
  I  I134  1  0.67016212  0.83128592  0.83340601  1
