# generated using pymatgen
data_Cs27Sn13Pb14I81
_symmetry_space_group_name_H-M   'P 1'
_cell_length_a   18.97980032
_cell_length_b   18.97988957
_cell_length_c   18.97063195
_cell_angle_alpha   89.99843348
_cell_angle_beta   90.00075845
_cell_angle_gamma   89.99963789
_symmetry_Int_Tables_number   1
_chemical_formula_structural   Cs27Sn13Pb14I81
_chemical_formula_sum   'Cs27 Sn13 Pb14 I81'
_cell_volume   6833.87638096
_cell_formula_units_Z   1
loop_
 _symmetry_equiv_pos_site_id
 _symmetry_equiv_pos_as_xyz
  1  'x, y, z'
loop_
 _atom_site_type_symbol
 _atom_site_label
 _atom_site_symmetry_multiplicity
 _atom_site_fract_x
 _atom_site_fract_y
 _atom_site_fract_z
 _atom_site_occupancy
  Cs  Cs0  1  0.00160944  0.00048452  0.00249421  1
  Cs  Cs1  1  0.00067737  -0.00147090  0.33363303  1
  Cs  Cs2  1  -0.00187143  0.00173055  0.66580176  1
  Cs  Cs3  1  0.00111223  0.33319198  0.00080702  1
  Cs  Cs4  1  -0.00012705  0.33498205  0.33389541  1
  Cs  Cs5  1  -0.00180073  0.33245195  0.66609339  1
  Cs  Cs6  1  0.00829593  0.66565879  0.00834895  1
  Cs  Cs7  1  0.00066234  0.66737496  0.33207808  1
  Cs  Cs8  1  -0.00191646  0.66532753  0.66497272  1
  Cs  Cs9  1  0.33105631  -0.00211221  -0.00264219  1
  Cs  Cs10  1  0.33518356  0.00173305  0.33532341  1
  Cs  Cs11  1  0.33281261  0.00078271  0.66678064  1
  Cs  Cs12  1  0.33183468  0.33895679  0.00088652  1
  Cs  Cs13  1  0.34286955  0.33091983  0.33464822  1
  Cs  Cs14  1  0.33567246  0.33315935  0.66410617  1
  Cs  Cs15  1  0.32594880  0.66159851  -0.00667176  1
  Cs  Cs16  1  0.33340500  0.66665299  0.33282758  1
  Cs  Cs17  1  0.33489755  0.66594137  0.67246208  1
  Cs  Cs18  1  0.66721194  0.00130449  -0.00005314  1
  Cs  Cs19  1  0.66462087  -0.00175165  0.32970207  1
  Cs  Cs20  1  0.66970457  -0.00154483  0.66859418  1
  Cs  Cs21  1  0.66550394  0.33136896  0.00684074  1
  Cs  Cs22  1  0.65830999  0.33329080  0.32519831  1
  Cs  Cs23  1  0.66958732  0.33468513  0.66637721  1
  Cs  Cs24  1  0.66508931  0.66507563  0.00078975  1
  Cs  Cs25  1  0.66623566  0.66783620  0.33340766  1
  Cs  Cs26  1  0.66735279  0.66716883  0.66599120  1
  Sn  Sn27  1  0.83340887  0.83339775  0.50055803  1
  Sn  Sn28  1  0.16648064  0.16664359  0.83394669  1
  Sn  Sn29  1  0.83334278  0.16680119  0.83272895  1
  Sn  Sn30  1  0.16655184  0.16663546  0.16642133  1
  Sn  Sn31  1  0.16660068  0.83244752  0.50056007  1
  Sn  Sn32  1  0.83300118  0.16687751  0.49983004  1
  Sn  Sn33  1  0.83380041  0.49982852  0.50018298  1
  Sn  Sn34  1  0.83389369  0.83286155  0.83325758  1
  Sn  Sn35  1  0.49955563  0.83299667  0.16628786  1
  Sn  Sn36  1  0.50007957  0.83344438  0.49969867  1
  Sn  Sn37  1  0.50024064  0.16684742  0.83292285  1
  Sn  Sn38  1  0.16617672  0.50059024  0.50024827  1
  Sn  Sn39  1  0.83364496  0.50017645  0.83313537  1
  Pb  Pb40  1  0.49731776  0.16463544  0.16385126  1
  Pb  Pb41  1  0.50288927  0.49726099  0.83310247  1
  Pb  Pb42  1  0.16502467  0.16697002  0.50026616  1
  Pb  Pb43  1  0.50193406  0.83466030  0.83320082  1
  Pb  Pb44  1  0.16911231  0.83501576  0.16916466  1
  Pb  Pb45  1  0.50061230  0.50260041  0.50016836  1
  Pb  Pb46  1  0.16385517  0.83509215  0.83098027  1
  Pb  Pb47  1  0.83340496  0.50011237  0.16706427  1
  Pb  Pb48  1  0.83189654  0.83333433  0.16666955  1
  Pb  Pb49  1  0.16416917  0.49749095  0.83079876  1
  Pb  Pb50  1  0.16667659  0.49733339  0.17007106  1
  Pb  Pb51  1  0.49968501  0.50332583  0.16640022  1
  Pb  Pb52  1  0.83496976  0.16653537  0.16659703  1
  Pb  Pb53  1  0.50329688  0.16429692  0.50194922  1
  I  I54  1  0.16578014  0.00279907  0.16421399  1
  I  I55  1  0.16504123  -0.00237369  0.50017582  1
  I  I56  1  0.16378507  0.00332451  0.83381511  1
  I  I57  1  0.16531938  0.32961553  0.16269341  1
  I  I58  1  0.15975973  0.33548809  0.50086995  1
  I  I59  1  0.16409932  0.32937006  0.83449753  1
  I  I60  1  0.16768421  0.66669374  0.16588798  1
  I  I61  1  0.16087949  0.66747960  0.49918605  1
  I  I62  1  0.16628483  0.66657014  0.83443894  1
  I  I63  1  0.50082764  -0.00275366  0.17254592  1
  I  I64  1  0.49893503  -0.00368367  0.49713641  1
  I  I65  1  0.50335021  0.00278215  0.83227479  1
  I  I66  1  0.49978074  0.33297728  0.16636555  1
  I  I67  1  0.49908182  0.33306313  0.50074566  1
  I  I68  1  0.50137475  0.32902540  0.83271300  1
  I  I69  1  0.50231392  0.67119038  0.17269515  1
  I  I70  1  0.50498102  0.67081356  0.49718026  1
  I  I71  1  0.50211181  0.66677343  0.83359961  1
  I  I72  1  0.83357356  -0.00001201  0.16733825  1
  I  I73  1  0.83408187  -0.00057564  0.50621762  1
  I  I74  1  0.83293233  0.00070683  0.82667407  1
  I  I75  1  0.83308858  0.33321641  0.16780021  1
  I  I76  1  0.84082417  0.33340623  0.50799309  1
  I  I77  1  0.83401104  0.33237463  0.82587375  1
  I  I78  1  0.83256185  0.66677085  0.16596793  1
  I  I79  1  0.83353069  0.66733537  0.50605244  1
  I  I80  1  0.83109130  0.66704557  0.82476407  1
  I  I81  1  0.16365488  0.16507345  -0.00153440  1
  I  I82  1  0.16358785  0.16547692  0.33182470  1
  I  I83  1  0.16649276  0.16590743  0.66926144  1
  I  I84  1  0.16535097  0.50073310  -0.00021294  1
  I  I85  1  0.15814556  0.50272215  0.33792682  1
  I  I86  1  0.16377604  0.50215353  0.66294558  1
  I  I87  1  0.16678079  0.83366851  -0.00024617  1
  I  I88  1  0.16041048  0.83313845  0.33751206  1
  I  I89  1  0.17077820  0.83289230  0.66263441  1
  I  I90  1  0.50757767  0.16337111  -0.00380966  1
  I  I91  1  0.49954431  0.16737763  0.33338580  1
  I  I92  1  0.49535866  0.16392156  0.66976926  1
  I  I93  1  0.50241667  0.50197342  -0.00036681  1
  I  I94  1  0.50228145  0.49615361  0.33365554  1
  I  I95  1  0.49785373  0.50202409  0.66655025  1
  I  I96  1  0.50394857  0.83752486  0.00198105  1
  I  I97  1  0.50278741  0.83475221  0.33518785  1
  I  I98  1  0.49989546  0.83488790  0.66369736  1
  I  I99  1  0.83143308  0.16617054  -0.00395147  1
  I  I100  1  0.83686179  0.16514826  0.33663097  1
  I  I101  1  0.83580227  0.16560066  0.66740316  1
  I  I102  1  0.83158138  0.49820334  -0.00352643  1
  I  I103  1  0.83761228  0.50116159  0.33764278  1
  I  I104  1  0.83673030  0.49946422  0.66584545  1
  I  I105  1  0.82998326  0.83605788  -0.00332511  1
  I  I106  1  0.83498846  0.83374958  0.33735033  1
  I  I107  1  0.83122167  0.83469524  0.66534097  1
  I  I108  1  0.00264235  0.16514470  0.16141492  1
  I  I109  1  -0.00310314  0.16219051  0.50554367  1
  I  I110  1  -0.00141231  0.16633106  0.83265606  1
  I  I111  1  0.00014478  0.50063968  0.16531408  1
  I  I112  1  -0.00145737  0.50406573  0.50361470  1
  I  I113  1  -0.00398199  0.49768375  0.82958268  1
  I  I114  1  0.00044838  0.83431382  0.16721161  1
  I  I115  1  -0.00113931  0.83361656  0.50467061  1
  I  I116  1  -0.00436890  0.83660138  0.82706395  1
  I  I117  1  0.32979784  0.16519694  0.16384572  1
  I  I118  1  0.33344093  0.16629279  0.50129880  1
  I  I119  1  0.33283236  0.16403182  0.83740184  1
  I  I120  1  0.33300321  0.49858950  0.16866997  1
  I  I121  1  0.33055509  0.50308563  0.49878421  1
  I  I122  1  0.33296360  0.49855269  0.83230970  1
  I  I123  1  0.33670753  0.83659755  0.17318583  1
  I  I124  1  0.33310156  0.83051390  0.49470035  1
  I  I125  1  0.33310813  0.83709260  0.83155525  1
  I  I126  1  0.66625297  0.16613460  0.16652452  1
  I  I127  1  0.67149399  0.16713878  0.50599684  1
  I  I128  1  0.66845194  0.16559858  0.82758831  1
  I  I129  1  0.66665688  0.49815539  0.16858495  1
  I  I130  1  0.67046002  0.50073814  0.50490543  1
  I  I131  1  0.67137920  0.49933265  0.82519275  1
  I  I132  1  0.66410442  0.83533219  0.17304148  1
  I  I133  1  0.66807723  0.83405323  0.50016384  1
  I  I134  1  0.67033835  0.83653913  0.82713260  1
