# generated using pymatgen
data_Cs27Sn14Pb13I81
_symmetry_space_group_name_H-M   'P 1'
_cell_length_a   18.96895381
_cell_length_b   18.98443065
_cell_length_c   18.97311406
_cell_angle_alpha   89.99945783
_cell_angle_beta   89.99994724
_cell_angle_gamma   90.00016415
_symmetry_Int_Tables_number   1
_chemical_formula_structural   Cs27Sn14Pb13I81
_chemical_formula_sum   'Cs27 Sn14 Pb13 I81'
_cell_volume   6832.49894696
_cell_formula_units_Z   1
loop_
 _symmetry_equiv_pos_site_id
 _symmetry_equiv_pos_as_xyz
  1  'x, y, z'
loop_
 _atom_site_type_symbol
 _atom_site_label
 _atom_site_symmetry_multiplicity
 _atom_site_fract_x
 _atom_site_fract_y
 _atom_site_fract_z
 _atom_site_occupancy
  Cs  Cs0  1  0.00270951  0.00766553  0.00100171  1
  Cs  Cs1  1  0.00052953  -0.00005528  0.33403958  1
  Cs  Cs2  1  -0.00155139  0.00193890  0.66654841  1
  Cs  Cs3  1  0.00593529  0.32763209  0.00645893  1
  Cs  Cs4  1  -0.00236692  0.33558879  0.32614056  1
  Cs  Cs5  1  0.00201574  0.33110271  0.66908672  1
  Cs  Cs6  1  0.00604287  0.66509522  0.00074657  1
  Cs  Cs7  1  -0.00615062  0.66405157  0.33239076  1
  Cs  Cs8  1  -0.00398306  0.66701246  0.66593633  1
  Cs  Cs9  1  0.32786810  -0.01077076  0.00181288  1
  Cs  Cs10  1  0.33368020  -0.00022007  0.33506131  1
  Cs  Cs11  1  0.33357995  -0.00072841  0.66432935  1
  Cs  Cs12  1  0.33113059  0.33530471  0.00016700  1
  Cs  Cs13  1  0.33681751  0.33241968  0.33674498  1
  Cs  Cs14  1  0.33569654  0.33458832  0.66443416  1
  Cs  Cs15  1  0.32643401  0.67401230  0.00013243  1
  Cs  Cs16  1  0.33392543  0.66755504  0.33386324  1
  Cs  Cs17  1  0.33321051  0.66541014  0.66694314  1
  Cs  Cs18  1  0.66808788  -0.00291926  -0.00069509  1
  Cs  Cs19  1  0.66603060  -0.00054891  0.33405531  1
  Cs  Cs20  1  0.66723235  0.00080322  0.66706598  1
  Cs  Cs21  1  0.66781864  0.33277122  -0.00087026  1
  Cs  Cs22  1  0.66461865  0.33429764  0.33202314  1
  Cs  Cs23  1  0.66395303  0.33408018  0.66825766  1
  Cs  Cs24  1  0.66574905  0.66960917  -0.00314087  1
  Cs  Cs25  1  0.67031282  0.66585121  0.33298000  1
  Cs  Cs26  1  0.66946049  0.66586903  0.66860539  1
  Sn  Sn27  1  0.16654571  0.16716478  0.49998074  1
  Sn  Sn28  1  0.50007846  0.16655734  0.50014947  1
  Sn  Sn29  1  0.83302294  0.16738749  0.49988527  1
  Sn  Sn30  1  0.49979874  0.83292679  0.50024673  1
  Sn  Sn31  1  0.50018053  0.49975542  0.16610881  1
  Sn  Sn32  1  0.50043237  0.49952126  0.83391537  1
  Sn  Sn33  1  0.83339708  0.83289431  0.83471782  1
  Sn  Sn34  1  0.49973022  0.50047174  0.50002240  1
  Sn  Sn35  1  0.16705821  0.49997632  0.50015378  1
  Sn  Sn36  1  0.49998503  0.16689235  0.16592397  1
  Sn  Sn37  1  0.83325122  0.83341380  0.16522497  1
  Sn  Sn38  1  0.16725778  0.83288472  0.50017688  1
  Sn  Sn39  1  0.49976693  0.16687502  0.83398785  1
  Sn  Sn40  1  0.83323082  0.50001392  0.83371850  1
  Pb  Pb41  1  0.16712363  0.49988745  0.83128595  1
  Pb  Pb42  1  0.50127712  0.83311303  0.16904455  1
  Pb  Pb43  1  0.83083056  0.16498373  0.16885094  1
  Pb  Pb44  1  0.17012503  0.16666980  0.16924324  1
  Pb  Pb45  1  0.83312499  0.49733126  0.50176923  1
  Pb  Pb46  1  0.83094274  0.50152873  0.16337134  1
  Pb  Pb47  1  0.16325671  0.83339624  0.83061321  1
  Pb  Pb48  1  0.83160162  0.16723088  0.83194017  1
  Pb  Pb49  1  0.16349662  0.83329935  0.16967443  1
  Pb  Pb50  1  0.83335004  0.83493771  0.50040394  1
  Pb  Pb51  1  0.16970759  0.50002285  0.16957298  1
  Pb  Pb52  1  0.50119013  0.83309053  0.83098901  1
  Pb  Pb53  1  0.17040542  0.16670592  0.83136083  1
  I  I54  1  0.16946008  -0.00001957  0.17009517  1
  I  I55  1  0.17047496  0.00042505  0.50012201  1
  I  I56  1  0.16692820  0.00002734  0.82914249  1
  I  I57  1  0.16223933  0.33333251  0.16859047  1
  I  I58  1  0.17198413  0.33313438  0.50129320  1
  I  I59  1  0.16125702  0.33331304  0.82981454  1
  I  I60  1  0.16960267  0.66669016  0.17008581  1
  I  I61  1  0.17519072  0.66642579  0.50049933  1
  I  I62  1  0.17136361  0.66664111  0.82934162  1
  I  I63  1  0.50231390  0.00259368  0.16950329  1
  I  I64  1  0.49831541  0.00131028  0.49993653  1
  I  I65  1  0.50240788  0.00252772  0.83023705  1
  I  I66  1  0.50099141  0.33331524  0.17310272  1
  I  I67  1  0.49801340  0.33307080  0.50026847  1
  I  I68  1  0.50630776  0.33400613  0.82681670  1
  I  I69  1  0.50226831  0.66382548  0.16869791  1
  I  I70  1  0.49376003  0.66580021  0.49995794  1
  I  I71  1  0.50290314  0.66361624  0.83134326  1
  I  I72  1  0.82971289  -0.00281132  0.16213750  1
  I  I73  1  0.83100245  0.00274411  0.50187182  1
  I  I74  1  0.83087428  -0.00213130  0.83346599  1
  I  I75  1  0.83410487  0.33335061  0.16748020  1
  I  I76  1  0.83100564  0.32966058  0.50218983  1
  I  I77  1  0.82866417  0.33601862  0.82778185  1
  I  I78  1  0.82975332  0.66937423  0.16971379  1
  I  I79  1  0.83317123  0.66642846  0.49879375  1
  I  I80  1  0.82570547  0.66633257  0.83369222  1
  I  I81  1  0.16623638  0.16619765  0.00021258  1
  I  I82  1  0.16916226  0.16604143  0.33818492  1
  I  I83  1  0.16896824  0.16654571  0.66214355  1
  I  I84  1  0.16737045  0.50109302  0.00009607  1
  I  I85  1  0.17156700  0.49932783  0.33821571  1
  I  I86  1  0.17353447  0.49924049  0.66258949  1
  I  I87  1  0.16876873  0.83283493  0.00007933  1
  I  I88  1  0.16980205  0.83473015  0.33804665  1
  I  I89  1  0.16974779  0.83407805  0.66216454  1
  I  I90  1  0.50357118  0.17526966  -0.00024741  1
  I  I91  1  0.49976238  0.16903451  0.33527827  1
  I  I92  1  0.50010876  0.16907014  0.66491950  1
  I  I93  1  0.50720236  0.49123651  -0.00066245  1
  I  I94  1  0.49549081  0.49701717  0.33467158  1
  I  I95  1  0.49994119  0.49721198  0.66577142  1
  I  I96  1  0.50092641  0.83434558  -0.00007597  1
  I  I97  1  0.49947536  0.83441647  0.33746059  1
  I  I98  1  0.49931835  0.83454458  0.66255664  1
  I  I99  1  0.83044778  0.16665122  0.00003868  1
  I  I100  1  0.83081531  0.16403753  0.33719369  1
  I  I101  1  0.83032421  0.16336578  0.66356812  1
  I  I102  1  0.82536980  0.50129747  -0.00445465  1
  I  I103  1  0.83299089  0.50157431  0.33334281  1
  I  I104  1  0.82627839  0.50721968  0.66927641  1
  I  I105  1  0.82801406  0.82965139  -0.00077770  1
  I  I106  1  0.83258512  0.83616469  0.33208035  1
  I  I107  1  0.83277735  0.83070483  0.66863000  1
  I  I108  1  0.00002621  0.16501646  0.16921359  1
  I  I109  1  0.00050670  0.16408618  0.50181890  1
  I  I110  1  0.00006060  0.16599180  0.82901778  1
  I  I111  1  -0.00013633  0.50199190  0.16816498  1
  I  I112  1  0.00248502  0.50096908  0.50294785  1
  I  I113  1  -0.00278745  0.50614595  0.82823735  1
  I  I114  1  -0.00416253  0.83309880  0.16558441  1
  I  I115  1  0.00251514  0.83443673  0.50020832  1
  I  I116  1  -0.00476270  0.82661040  0.83340466  1
  I  I117  1  0.33830729  0.17024552  0.17020583  1
  I  I118  1  0.33495069  0.16645212  0.49997071  1
  I  I119  1  0.33872670  0.17416361  0.82940039  1
  I  I120  1  0.33822859  0.49649643  0.16293312  1
  I  I121  1  0.33535318  0.49642593  0.50168429  1
  I  I122  1  0.33729521  0.49449022  0.83281650  1
  I  I123  1  0.33335954  0.83358734  0.16634948  1
  I  I124  1  0.33439363  0.83774153  0.49979203  1
  I  I125  1  0.33331836  0.83335334  0.83374579  1
  I  I126  1  0.66267406  0.17015009  0.17196809  1
  I  I127  1  0.66447085  0.16526942  0.50021918  1
  I  I128  1  0.66314922  0.16777381  0.82780089  1
  I  I129  1  0.66269793  0.49636199  0.17455658  1
  I  I130  1  0.66304799  0.50013404  0.49868046  1
  I  I131  1  0.66484994  0.50045193  0.82920535  1
  I  I132  1  0.66896713  0.83383252  0.16719502  1
  I  I133  1  0.66406669  0.83424888  0.49996269  1
  I  I134  1  0.66910940  0.83221990  0.83218593  1
