# generated using pymatgen
data_Cs27Sn14Pb13I81
_symmetry_space_group_name_H-M   'P 1'
_cell_length_a   18.97320941
_cell_length_b   18.98197823
_cell_length_c   18.97101827
_cell_angle_alpha   90.00034352
_cell_angle_beta   89.99856048
_cell_angle_gamma   90.00074495
_symmetry_Int_Tables_number   1
_chemical_formula_structural   Cs27Sn14Pb13I81
_chemical_formula_sum   'Cs27 Sn14 Pb13 I81'
_cell_volume   6832.39416696
_cell_formula_units_Z   1
loop_
 _symmetry_equiv_pos_site_id
 _symmetry_equiv_pos_as_xyz
  1  'x, y, z'
loop_
 _atom_site_type_symbol
 _atom_site_label
 _atom_site_symmetry_multiplicity
 _atom_site_fract_x
 _atom_site_fract_y
 _atom_site_fract_z
 _atom_site_occupancy
  Cs  Cs0  1  0.00347455  -0.00319693  0.00191627  1
  Cs  Cs1  1  -0.00180657  0.00145550  0.33289748  1
  Cs  Cs2  1  -0.00144191  -0.00315061  0.66528993  1
  Cs  Cs3  1  -0.00027887  0.33466664  0.00174402  1
  Cs  Cs4  1  -0.00018542  0.33307942  0.33267030  1
  Cs  Cs5  1  0.00294132  0.33402620  0.66603983  1
  Cs  Cs6  1  0.00077397  0.66480045  -0.00167870  1
  Cs  Cs7  1  -0.00321675  0.66359204  0.33499638  1
  Cs  Cs8  1  -0.00007420  0.66847168  0.66668265  1
  Cs  Cs9  1  0.33275629  -0.01011750  0.00147198  1
  Cs  Cs10  1  0.33359672  0.00157009  0.33334029  1
  Cs  Cs11  1  0.33319677  0.00172868  0.66471031  1
  Cs  Cs12  1  0.33144064  0.33316740  -0.00125408  1
  Cs  Cs13  1  0.33362617  0.33266161  0.33478782  1
  Cs  Cs14  1  0.33112599  0.33347237  0.66440822  1
  Cs  Cs15  1  0.33989189  0.67747740  0.00213431  1
  Cs  Cs16  1  0.33806220  0.66604796  0.33390166  1
  Cs  Cs17  1  0.33207113  0.66563126  0.66460851  1
  Cs  Cs18  1  0.66387047  0.00267923  -0.00637899  1
  Cs  Cs19  1  0.66867982  0.00187590  0.33492239  1
  Cs  Cs20  1  0.66846247  0.00016829  0.67034004  1
  Cs  Cs21  1  0.66685650  0.33233038  -0.00735809  1
  Cs  Cs22  1  0.66810075  0.33192028  0.33333843  1
  Cs  Cs23  1  0.66453659  0.33279972  0.67428762  1
  Cs  Cs24  1  0.65748306  0.66646664  -0.00278663  1
  Cs  Cs25  1  0.66714001  0.66599772  0.33242156  1
  Cs  Cs26  1  0.66832690  0.66635473  0.67409508  1
  Sn  Sn27  1  0.16730097  0.83333144  0.49928563  1
  Sn  Sn28  1  0.83318622  0.16785351  0.49968594  1
  Sn  Sn29  1  0.83371348  0.49891758  0.49957890  1
  Sn  Sn30  1  0.50072614  0.16723955  0.16731850  1
  Sn  Sn31  1  0.83236121  0.16668002  0.16717837  1
  Sn  Sn32  1  0.16670807  0.49946060  0.83360493  1
  Sn  Sn33  1  0.49993679  0.83400962  0.49968384  1
  Sn  Sn34  1  0.16581586  0.50013842  0.49946591  1
  Sn  Sn35  1  0.50040435  0.16602046  0.49931153  1
  Sn  Sn36  1  0.83374595  0.50010169  0.16725219  1
  Sn  Sn37  1  0.83323858  0.83314222  0.16658661  1
  Sn  Sn38  1  0.16646990  0.16701485  0.83287663  1
  Sn  Sn39  1  0.16637642  0.16651161  0.50054090  1
  Sn  Sn40  1  0.16664975  0.50007662  0.16679729  1
  Pb  Pb41  1  0.50060769  0.49732748  0.16688464  1
  Pb  Pb42  1  0.49985605  0.83373135  0.82963954  1
  Pb  Pb43  1  0.83298563  0.83308368  0.49895649  1
  Pb  Pb44  1  0.83548760  0.49990240  0.83338334  1
  Pb  Pb45  1  0.49619229  0.49984390  0.83338887  1
  Pb  Pb46  1  0.16653644  0.83318470  0.83075799  1
  Pb  Pb47  1  0.16478280  0.83015181  0.16971469  1
  Pb  Pb48  1  0.50091277  0.49955032  0.50003932  1
  Pb  Pb49  1  0.83358213  0.83326882  0.83717963  1
  Pb  Pb50  1  0.83632053  0.16662165  0.83334964  1
  Pb  Pb51  1  0.49673770  0.16663959  0.83316480  1
  Pb  Pb52  1  0.50271336  0.83624370  0.16929003  1
  Pb  Pb53  1  0.16653365  0.16808995  0.16680354  1
  I  I54  1  0.16564152  -0.00006318  0.16568241  1
  I  I55  1  0.16664422  0.00135147  0.50493572  1
  I  I56  1  0.16662587  0.00294463  0.82858424  1
  I  I57  1  0.16195511  0.33613290  0.17094141  1
  I  I58  1  0.16647579  0.33334586  0.50080486  1
  I  I59  1  0.16621959  0.33364502  0.82724754  1
  I  I60  1  0.16086514  0.66197732  0.16621745  1
  I  I61  1  0.16632417  0.66540616  0.50003340  1
  I  I62  1  0.16486599  0.66336284  0.83179191  1
  I  I63  1  0.50324408  0.00406661  0.16937787  1
  I  I64  1  0.49561898  0.00158333  0.49579512  1
  I  I65  1  0.49676760  0.00043379  0.83632331  1
  I  I66  1  0.50375190  0.32952748  0.17529852  1
  I  I67  1  0.49660854  0.32978439  0.49625789  1
  I  I68  1  0.50203225  0.33292510  0.83095638  1
  I  I69  1  0.50009397  0.66691630  0.16701012  1
  I  I70  1  0.49517186  0.66904364  0.50031248  1
  I  I71  1  0.49868834  0.66685958  0.83287296  1
  I  I72  1  0.82985000  0.00155224  0.17257209  1
  I  I73  1  0.83657969  0.00297028  0.49557715  1
  I  I74  1  0.83664102  0.00028798  0.83130370  1
  I  I75  1  0.83453719  0.33323880  0.17184838  1
  I  I76  1  0.83767749  0.33276833  0.49201452  1
  I  I77  1  0.83194721  0.33320518  0.83706682  1
  I  I78  1  0.84055003  0.66519808  0.17282009  1
  I  I79  1  0.83804548  0.66384385  0.49501418  1
  I  I80  1  0.83723161  0.66639559  0.82976072  1
  I  I81  1  0.16580296  0.17321825  -0.00191478  1
  I  I82  1  0.16680249  0.16725225  0.33665079  1
  I  I83  1  0.16730756  0.17147886  0.66404748  1
  I  I84  1  0.16100860  0.49222360  0.00040998  1
  I  I85  1  0.16212342  0.49902365  0.33456358  1
  I  I86  1  0.16347387  0.49902837  0.66492987  1
  I  I87  1  0.16485166  0.83411650  0.00043451  1
  I  I88  1  0.17006408  0.83657958  0.33771263  1
  I  I89  1  0.16905018  0.82952570  0.66223784  1
  I  I90  1  0.50528388  0.16924880  0.00291621  1
  I  I91  1  0.49823911  0.16354140  0.33497924  1
  I  I92  1  0.50225833  0.16301959  0.66288230  1
  I  I93  1  0.50087192  0.49748800  0.00030531  1
  I  I94  1  0.49364026  0.50184343  0.33359989  1
  I  I95  1  0.50124983  0.49855430  0.66627347  1
  I  I96  1  0.50088504  0.83417417  0.00041332  1
  I  I97  1  0.49436753  0.83515737  0.33689296  1
  I  I98  1  0.49634331  0.84023450  0.66160146  1
  I  I99  1  0.82958238  0.16770471  0.00363764  1
  I  I100  1  0.83533863  0.16748708  0.33409200  1
  I  I101  1  0.83074282  0.17111962  0.66284519  1
  I  I102  1  0.83854050  0.49868705  0.00363617  1
  I  I103  1  0.84209085  0.49851801  0.33343196  1
  I  I104  1  0.83690427  0.49553287  0.66308708  1
  I  I105  1  0.83549566  0.83413356  0.00538208  1
  I  I106  1  0.83445988  0.83345871  0.33113423  1
  I  I107  1  0.83300568  0.83308830  0.66630166  1
  I  I108  1  -0.00300478  0.16576832  0.16997428  1
  I  I109  1  0.00026316  0.16715477  0.49953177  1
  I  I110  1  0.00400835  0.17145846  0.82855550  1
  I  I111  1  -0.00040037  0.49694313  0.16818991  1
  I  I112  1  0.00111510  0.49741324  0.49917993  1
  I  I113  1  0.00365089  0.49528397  0.83241311  1
  I  I114  1  -0.00294009  0.84011194  0.17034213  1
  I  I115  1  0.00249264  0.83532004  0.49911478  1
  I  I116  1  0.00043194  0.83417461  0.82941182  1
  I  I117  1  0.33524237  0.16964968  0.17090608  1
  I  I118  1  0.33256805  0.16648478  0.49995908  1
  I  I119  1  0.32906142  0.17259948  0.82797569  1
  I  I120  1  0.33022815  0.49686970  0.16835665  1
  I  I121  1  0.32992456  0.49776993  0.50019101  1
  I  I122  1  0.32783065  0.49401393  0.83028021  1
  I  I123  1  0.33349564  0.83324885  0.16492027  1
  I  I124  1  0.33232914  0.83623344  0.50001945  1
  I  I125  1  0.33297273  0.83279162  0.83783013  1
  I  I126  1  0.66798432  0.16806338  0.17620251  1
  I  I127  1  0.66720338  0.16598137  0.49388417  1
  I  I128  1  0.66665572  0.16564739  0.83116641  1
  I  I129  1  0.67058758  0.50198257  0.17415362  1
  I  I130  1  0.67040062  0.49779929  0.49257805  1
  I  I131  1  0.66679245  0.50132821  0.83277174  1
  I  I132  1  0.67038487  0.82703230  0.17104048  1
  I  I133  1  0.66439362  0.83741781  0.49689788  1
  I  I134  1  0.66659573  0.83320192  0.82997974  1
