# generated using pymatgen
data_Cs27Sn14Pb13I81
_symmetry_space_group_name_H-M   'P 1'
_cell_length_a   18.97956018
_cell_length_b   18.97966147
_cell_length_c   18.96952095
_cell_angle_alpha   90.00068877
_cell_angle_beta   89.99851123
_cell_angle_gamma   89.99955956
_symmetry_Int_Tables_number   1
_chemical_formula_structural   Cs27Sn14Pb13I81
_chemical_formula_sum   'Cs27 Sn14 Pb13 I81'
_cell_volume   6833.30757379
_cell_formula_units_Z   1
loop_
 _symmetry_equiv_pos_site_id
 _symmetry_equiv_pos_as_xyz
  1  'x, y, z'
loop_
 _atom_site_type_symbol
 _atom_site_label
 _atom_site_symmetry_multiplicity
 _atom_site_fract_x
 _atom_site_fract_y
 _atom_site_fract_z
 _atom_site_occupancy
  Cs  Cs0  1  -0.00100631  -0.00347707  0.00045782  1
  Cs  Cs1  1  0.00167271  -0.00036317  0.33311302  1
  Cs  Cs2  1  -0.00331333  -0.00135036  0.66710115  1
  Cs  Cs3  1  -0.00287582  0.33137515  0.00208618  1
  Cs  Cs4  1  -0.00001964  0.33519951  0.33440228  1
  Cs  Cs5  1  0.00078048  0.33498983  0.66337217  1
  Cs  Cs6  1  0.00567459  0.67197073  -0.00085667  1
  Cs  Cs7  1  -0.00048621  0.66637046  0.33340324  1
  Cs  Cs8  1  0.00248647  0.66558802  0.66731642  1
  Cs  Cs9  1  0.33462127  0.00301548  0.00015774  1
  Cs  Cs10  1  0.33130283  -0.00295079  0.33167049  1
  Cs  Cs11  1  0.33680440  0.00260088  0.66588859  1
  Cs  Cs12  1  0.33539818  0.33235899  -0.00087340  1
  Cs  Cs13  1  0.32912592  0.32919653  0.33287940  1
  Cs  Cs14  1  0.33411167  0.33318719  0.66731116  1
  Cs  Cs15  1  0.32977900  0.66554541  0.00116823  1
  Cs  Cs16  1  0.33483348  0.67247984  0.32900440  1
  Cs  Cs17  1  0.33405488  0.66357633  0.66795897  1
  Cs  Cs18  1  0.66778862  0.00248621  -0.00199314  1
  Cs  Cs19  1  0.66583448  -0.00307903  0.33603559  1
  Cs  Cs20  1  0.66730918  0.00172377  0.66658489  1
  Cs  Cs21  1  0.66652303  0.33364387  0.00158769  1
  Cs  Cs22  1  0.67050299  0.33747750  0.32779881  1
  Cs  Cs23  1  0.66553556  0.33200550  0.66777349  1
  Cs  Cs24  1  0.66585057  0.66351617  -0.00028307  1
  Cs  Cs25  1  0.66629301  0.66599376  0.33159110  1
  Cs  Cs26  1  0.66549139  0.66501287  0.66640438  1
  Sn  Sn27  1  0.49995416  0.83320074  0.83344610  1
  Sn  Sn28  1  0.83353336  0.16774589  0.83236003  1
  Sn  Sn29  1  0.50110649  0.16790549  0.50024640  1
  Sn  Sn30  1  0.16564792  0.83274245  0.16757671  1
  Sn  Sn31  1  0.16655506  0.50002352  0.16686168  1
  Sn  Sn32  1  0.83246433  0.16627786  0.50056194  1
  Sn  Sn33  1  0.83352147  0.83349020  0.16747533  1
  Sn  Sn34  1  0.50024150  0.16684082  0.83256691  1
  Sn  Sn35  1  0.16615495  0.16661280  0.83299130  1
  Sn  Sn36  1  0.50077831  0.49990933  0.83262885  1
  Sn  Sn37  1  0.49994043  0.49879262  0.50013720  1
  Sn  Sn38  1  0.83320651  0.49938634  0.83306494  1
  Sn  Sn39  1  0.83408485  0.83367433  0.49943697  1
  Sn  Sn40  1  0.16598571  0.83337927  0.50010976  1
  Pb  Pb41  1  0.16646820  0.16471736  0.50193107  1
  Pb  Pb42  1  0.49794644  0.49985479  0.16678179  1
  Pb  Pb43  1  0.16904764  0.83536044  0.83310704  1
  Pb  Pb44  1  0.50037990  0.16673342  0.16771583  1
  Pb  Pb45  1  0.50035921  0.83345949  0.50176203  1
  Pb  Pb46  1  0.83552268  0.50267368  0.16373368  1
  Pb  Pb47  1  0.16645083  0.16605725  0.16447057  1
  Pb  Pb48  1  0.50021534  0.83344507  0.16377351  1
  Pb  Pb49  1  0.16958201  0.50245819  0.49794066  1
  Pb  Pb50  1  0.16665951  0.49765925  0.83478744  1
  Pb  Pb51  1  0.83158382  0.49999552  0.50177179  1
  Pb  Pb52  1  0.83324108  0.16439014  0.16732387  1
  Pb  Pb53  1  0.83156820  0.83320433  0.83287010  1
  I  I54  1  0.16318676  -0.00347908  0.16935778  1
  I  I55  1  0.16839544  -0.00317924  0.49383818  1
  I  I56  1  0.16659097  0.00313691  0.83501948  1
  I  I57  1  0.16962748  0.33558035  0.16330677  1
  I  I58  1  0.16478047  0.33329141  0.49831154  1
  I  I59  1  0.17132652  0.32989236  0.83502304  1
  I  I60  1  0.16359163  0.66822850  0.16815539  1
  I  I61  1  0.16169008  0.67047938  0.50039467  1
  I  I62  1  0.16746458  0.66680249  0.83275135  1
  I  I63  1  0.49637459  -0.00020245  0.16493779  1
  I  I64  1  0.50102355  0.00258220  0.50576552  1
  I  I65  1  0.49986896  0.00162602  0.83010837  1
  I  I66  1  0.49681805  0.33345709  0.16193879  1
  I  I67  1  0.50423176  0.33228924  0.50962673  1
  I  I68  1  0.49996669  0.33284121  0.82955416  1
  I  I69  1  0.50135980  0.66678555  0.16602775  1
  I  I70  1  0.49921450  0.66472585  0.50608922  1
  I  I71  1  0.50488671  0.66538601  0.82928232  1
  I  I72  1  0.84073817  -0.00351374  0.16435804  1
  I  I73  1  0.83086382  0.00033945  0.50286827  1
  I  I74  1  0.83167152  0.00275337  0.83301621  1
  I  I75  1  0.83514893  0.33357036  0.16809572  1
  I  I76  1  0.83101174  0.33038839  0.50386879  1
  I  I77  1  0.82918187  0.33194257  0.82891145  1
  I  I78  1  0.83433010  0.67045943  0.17165849  1
  I  I79  1  0.83521293  0.66949017  0.49801121  1
  I  I80  1  0.82717027  0.66457436  0.83398717  1
  I  I81  1  0.16842920  0.16451022  -0.00388925  1
  I  I82  1  0.16763803  0.16778472  0.33356892  1
  I  I83  1  0.16808876  0.16493569  0.66998959  1
  I  I84  1  0.16804743  0.50817224  0.00245406  1
  I  I85  1  0.16784582  0.50109788  0.33015082  1
  I  I86  1  0.16575748  0.50173137  0.66664261  1
  I  I87  1  0.16334005  0.83101639  0.00251639  1
  I  I88  1  0.16427014  0.83052616  0.33310972  1
  I  I89  1  0.16256937  0.83591220  0.66424522  1
  I  I90  1  0.50014056  0.16684440  -0.00391587  1
  I  I91  1  0.50457397  0.17078716  0.33769614  1
  I  I92  1  0.50038633  0.16644832  0.66793096  1
  I  I93  1  0.50260037  0.49917364  -0.00359315  1
  I  I94  1  0.49893505  0.49588731  0.33651156  1
  I  I95  1  0.50258703  0.49966609  0.66818188  1
  I  I96  1  0.50016949  0.83415149  -0.00443572  1
  I  I97  1  0.49928938  0.83338887  0.33349421  1
  I  I98  1  0.49995123  0.83403879  0.66972895  1
  I  I99  1  0.83181407  0.16861922  -0.00348019  1
  I  I100  1  0.82816966  0.16398444  0.33713298  1
  I  I101  1  0.83184889  0.16290096  0.66739398  1
  I  I102  1  0.82575890  0.49440688  -0.00416880  1
  I  I103  1  0.83190248  0.49745131  0.33332249  1
  I  I104  1  0.83213088  0.50132189  0.67000275  1
  I  I105  1  0.83717546  0.83290488  0.00174480  1
  I  I106  1  0.83662896  0.83929476  0.33446352  1
  I  I107  1  0.83648963  0.83531788  0.66394782  1
  I  I108  1  -0.00009771  0.16857904  0.16425500  1
  I  I109  1  -0.00300585  0.16330700  0.50534238  1
  I  I110  1  -0.00155277  0.17055796  0.83017845  1
  I  I111  1  0.00310666  0.50200796  0.16475388  1
  I  I112  1  0.00003003  0.49785006  0.50110774  1
  I  I113  1  -0.00258741  0.49579094  0.83525449  1
  I  I114  1  0.00045828  0.82969786  0.16889800  1
  I  I115  1  -0.00095095  0.83932003  0.49686146  1
  I  I116  1  -0.00000620  0.83379842  0.83400541  1
  I  I117  1  0.33320325  0.16386866  0.16536811  1
  I  I118  1  0.33618483  0.16881029  0.50536169  1
  I  I119  1  0.33504055  0.16564883  0.83073663  1
  I  I120  1  0.33033092  0.50852389  0.16410424  1
  I  I121  1  0.33734722  0.49505872  0.50840909  1
  I  I122  1  0.33646425  0.49933115  0.83129488  1
  I  I123  1  0.33026132  0.82991955  0.17026948  1
  I  I124  1  0.33142404  0.83342795  0.49646743  1
  I  I125  1  0.33687073  0.83336679  0.83275882  1
  I  I126  1  0.66694908  0.16434211  0.16074896  1
  I  I127  1  0.66689018  0.16248633  0.50953724  1
  I  I128  1  0.66640168  0.16633308  0.82952875  1
  I  I129  1  0.66688384  0.50176457  0.16706237  1
  I  I130  1  0.66351992  0.50186307  0.50266248  1
  I  I131  1  0.66554542  0.49643914  0.83069353  1
  I  I132  1  0.66959963  0.83501521  0.17085605  1
  I  I133  1  0.66939507  0.83497808  0.49721118  1
  I  I134  1  0.66375420  0.83730582  0.83276728  1
