# generated using pymatgen
data_Cs27Sn13Pb14I81
_symmetry_space_group_name_H-M   'P 1'
_cell_length_a   18.98692411
_cell_length_b   18.98302782
_cell_length_c   18.96518244
_cell_angle_alpha   90.00176127
_cell_angle_beta   89.99755089
_cell_angle_gamma   89.99969165
_symmetry_Int_Tables_number   1
_chemical_formula_structural   Cs27Sn13Pb14I81
_chemical_formula_sum   'Cs27 Sn13 Pb14 I81'
_cell_volume   6835.60758223
_cell_formula_units_Z   1
loop_
 _symmetry_equiv_pos_site_id
 _symmetry_equiv_pos_as_xyz
  1  'x, y, z'
loop_
 _atom_site_type_symbol
 _atom_site_label
 _atom_site_symmetry_multiplicity
 _atom_site_fract_x
 _atom_site_fract_y
 _atom_site_fract_z
 _atom_site_occupancy
  Cs  Cs0  1  0.00109243  -0.00272270  0.00211083  1
  Cs  Cs1  1  0.00228932  0.00300125  0.32880658  1
  Cs  Cs2  1  0.00080704  -0.00024814  0.66816220  1
  Cs  Cs3  1  0.00120722  0.33253528  -0.00106244  1
  Cs  Cs4  1  -0.00896848  0.33610170  0.33249514  1
  Cs  Cs5  1  0.00014140  0.33453373  0.66609659  1
  Cs  Cs6  1  -0.00298827  0.66992458  0.00108198  1
  Cs  Cs7  1  -0.00031472  0.66177012  0.33225259  1
  Cs  Cs8  1  0.00184742  0.66698524  0.66619956  1
  Cs  Cs9  1  0.33104268  0.00181536  0.00309613  1
  Cs  Cs10  1  0.33251545  -0.00118011  0.33215986  1
  Cs  Cs11  1  0.33415241  0.00024887  0.66590582  1
  Cs  Cs12  1  0.33491878  0.33565846  0.00008296  1
  Cs  Cs13  1  0.33291781  0.33094891  0.33288800  1
  Cs  Cs14  1  0.33282422  0.33293228  0.66830903  1
  Cs  Cs15  1  0.33486665  0.66213623  0.00171294  1
  Cs  Cs16  1  0.33288156  0.66946673  0.33514709  1
  Cs  Cs17  1  0.33304494  0.66614687  0.66573049  1
  Cs  Cs18  1  0.66844976  -0.00292483  0.00094148  1
  Cs  Cs19  1  0.66598141  0.00325885  0.33177161  1
  Cs  Cs20  1  0.66529073  -0.00050587  0.66663658  1
  Cs  Cs21  1  0.66477931  0.33712905  0.00339211  1
  Cs  Cs22  1  0.67576881  0.33441271  0.32831380  1
  Cs  Cs23  1  0.66672290  0.33092942  0.66698669  1
  Cs  Cs24  1  0.66951247  0.66456373  0.00719296  1
  Cs  Cs25  1  0.66626183  0.66423221  0.32825693  1
  Cs  Cs26  1  0.66392191  0.67139902  0.66724027  1
  Sn  Sn27  1  0.50015322  0.83358381  0.50073504  1
  Sn  Sn28  1  0.16706754  0.49980359  0.16676328  1
  Sn  Sn29  1  0.49992894  0.16574304  0.83276751  1
  Sn  Sn30  1  0.49891875  0.83404911  0.83311417  1
  Sn  Sn31  1  0.83349981  0.83361301  0.50006045  1
  Sn  Sn32  1  0.16703351  0.16614115  0.50085088  1
  Sn  Sn33  1  0.83311789  0.16745883  0.83279055  1
  Sn  Sn34  1  0.16635237  0.83425442  0.50096972  1
  Sn  Sn35  1  0.16797822  0.83401793  0.83250417  1
  Sn  Sn36  1  0.50003996  0.49936834  0.50036213  1
  Sn  Sn37  1  0.83318953  0.49956320  0.83225231  1
  Sn  Sn38  1  0.16690969  0.16587878  0.83229648  1
  Sn  Sn39  1  0.49947857  0.16690687  0.50056520  1
  Pb  Pb40  1  0.16691229  0.83160171  0.16661251  1
  Pb  Pb41  1  0.83347665  0.83359410  0.17058823  1
  Pb  Pb42  1  0.49982801  0.16652855  0.16662504  1
  Pb  Pb43  1  0.16518071  0.50028177  0.83453869  1
  Pb  Pb44  1  0.16824045  0.49948156  0.49864506  1
  Pb  Pb45  1  0.49788145  0.49983620  0.16995030  1
  Pb  Pb46  1  0.16674937  0.16864648  0.16697274  1
  Pb  Pb47  1  0.83069723  0.50231497  0.50227451  1
  Pb  Pb48  1  0.83346247  0.16474076  0.50189459  1
  Pb  Pb49  1  0.83315414  0.83380164  0.83206432  1
  Pb  Pb50  1  0.50183438  0.50028451  0.83169589  1
  Pb  Pb51  1  0.83562411  0.49998613  0.16379608  1
  Pb  Pb52  1  0.83341913  0.16636652  0.16298991  1
  Pb  Pb53  1  0.49972275  0.83357615  0.16626546  1
  I  I54  1  0.16612528  0.00008211  0.16662926  1
  I  I55  1  0.17087010  -0.00039764  0.50370356  1
  I  I56  1  0.16494140  0.00034614  0.82971246  1
  I  I57  1  0.16734136  0.33600370  0.16592267  1
  I  I58  1  0.17216443  0.32988746  0.50399976  1
  I  I59  1  0.16866223  0.32995804  0.83046107  1
  I  I60  1  0.16647756  0.66411929  0.16683806  1
  I  I61  1  0.16803447  0.66993222  0.50306385  1
  I  I62  1  0.16914018  0.67006626  0.82956558  1
  I  I63  1  0.49939427  0.00001201  0.17077794  1
  I  I64  1  0.49943042  -0.00020713  0.50453862  1
  I  I65  1  0.50157674  0.00035383  0.82533207  1
  I  I66  1  0.49835753  0.33327992  0.16564213  1
  I  I67  1  0.49360559  0.33166927  0.50512759  1
  I  I68  1  0.49748849  0.33013251  0.82878552  1
  I  I69  1  0.49950917  0.66666981  0.16611928  1
  I  I70  1  0.49937625  0.66842176  0.50413083  1
  I  I71  1  0.49663069  0.66989623  0.82766148  1
  I  I72  1  0.83427192  -0.00005802  0.16367760  1
  I  I73  1  0.82910301  -0.00301143  0.50439505  1
  I  I74  1  0.83323078  0.00273581  0.83103510  1
  I  I75  1  0.83439976  0.33342449  0.17059858  1
  I  I76  1  0.83340259  0.33313893  0.49902019  1
  I  I77  1  0.83399459  0.33196992  0.83225821  1
  I  I78  1  0.83415435  0.66656343  0.16291431  1
  I  I79  1  0.83487426  0.67017380  0.50416834  1
  I  I80  1  0.83414604  0.66525106  0.83121219  1
  I  I81  1  0.16674704  0.16326622  -0.00386809  1
  I  I82  1  0.17268644  0.16197217  0.33718172  1
  I  I83  1  0.16777200  0.16356972  0.66720310  1
  I  I84  1  0.16548542  0.50003956  0.00217671  1
  I  I85  1  0.16857024  0.50115290  0.33108275  1
  I  I86  1  0.16592517  0.50046832  0.66663577  1
  I  I87  1  0.17008566  0.83710772  -0.00380106  1
  I  I88  1  0.16810316  0.83667786  0.33728770  1
  I  I89  1  0.16768043  0.83590731  0.66620260  1
  I  I90  1  0.49912847  0.16234881  -0.00437999  1
  I  I91  1  0.49404625  0.16436246  0.33765075  1
  I  I92  1  0.49918828  0.16552735  0.66664022  1
  I  I93  1  0.50130383  0.50024434  -0.00017328  1
  I  I94  1  0.49983994  0.50200258  0.33821751  1
  I  I95  1  0.49848669  0.50116513  0.66364693  1
  I  I96  1  0.49550477  0.83844238  -0.00422710  1
  I  I97  1  0.49901582  0.83369667  0.33765199  1
  I  I98  1  0.49934321  0.83394677  0.66582957  1
  I  I99  1  0.83371265  0.16930838  -0.00572031  1
  I  I100  1  0.83356627  0.16549748  0.33378980  1
  I  I101  1  0.83342677  0.16982427  0.67013686  1
  I  I102  1  0.83162127  0.49712391  -0.00402256  1
  I  I103  1  0.83277605  0.50179892  0.33351869  1
  I  I104  1  0.83600959  0.49516502  0.66979848  1
  I  I105  1  0.83359755  0.83255578  -0.00036303  1
  I  I106  1  0.83264375  0.83264029  0.33885796  1
  I  I107  1  0.83270512  0.83309699  0.66415082  1
  I  I108  1  0.00026512  0.16786022  0.16805788  1
  I  I109  1  0.00305104  0.16208464  0.50426772  1
  I  I110  1  0.00117014  0.16686555  0.82951821  1
  I  I111  1  0.00289516  0.50025691  0.16922330  1
  I  I112  1  -0.00010003  0.50075587  0.49837791  1
  I  I113  1  -0.00258412  0.49640333  0.83390058  1
  I  I114  1  0.00033404  0.83203469  0.16456327  1
  I  I115  1  0.00159767  0.83710051  0.50538791  1
  I  I116  1  0.00267632  0.83548673  0.82906100  1
  I  I117  1  0.33317735  0.16831635  0.16277604  1
  I  I118  1  0.33358873  0.16309257  0.50697469  1
  I  I119  1  0.33328098  0.16243009  0.82925825  1
  I  I120  1  0.33063425  0.50034298  0.16340785  1
  I  I121  1  0.33613283  0.50457183  0.50078473  1
  I  I122  1  0.33344866  0.49834125  0.83466727  1
  I  I123  1  0.33322745  0.83174557  0.17078043  1
  I  I124  1  0.33348957  0.83313141  0.50332873  1
  I  I125  1  0.33325216  0.83952518  0.82555847  1
  I  I126  1  0.66659314  0.16841136  0.16890741  1
  I  I127  1  0.66352211  0.16497627  0.50461503  1
  I  I128  1  0.66543248  0.16610416  0.82830061  1
  I  I129  1  0.66682776  0.50037319  0.16681468  1
  I  I130  1  0.66278297  0.49931497  0.50165690  1
  I  I131  1  0.66947975  0.49636024  0.83109526  1
  I  I132  1  0.66656446  0.83105395  0.16441386  1
  I  I133  1  0.66490813  0.83318419  0.50548333  1
  I  I134  1  0.66385848  0.83658080  0.82756987  1
