# generated using pymatgen
data_Cs27Sn13Pb14I81
_symmetry_space_group_name_H-M   'P 1'
_cell_length_a   18.99966099
_cell_length_b   18.99971229
_cell_length_c   18.97878540
_cell_angle_alpha   89.99987941
_cell_angle_beta   90.00001162
_cell_angle_gamma   90.00089869
_symmetry_Int_Tables_number   1
_chemical_formula_structural   Cs27Sn13Pb14I81
_chemical_formula_sum   'Cs27 Sn13 Pb14 I81'
_cell_volume   6851.11553866
_cell_formula_units_Z   1
loop_
 _symmetry_equiv_pos_site_id
 _symmetry_equiv_pos_as_xyz
  1  'x, y, z'
loop_
 _atom_site_type_symbol
 _atom_site_label
 _atom_site_symmetry_multiplicity
 _atom_site_fract_x
 _atom_site_fract_y
 _atom_site_fract_z
 _atom_site_occupancy
  Cs  Cs0  1  -0.00001111  -0.00258217  0.00121903  1
  Cs  Cs1  1  -0.00005767  0.00210683  0.33216369  1
  Cs  Cs2  1  0.00172769  0.00236169  0.66679125  1
  Cs  Cs3  1  -0.00068318  0.33173940  -0.00123069  1
  Cs  Cs4  1  -0.00758120  0.33293504  0.32608675  1
  Cs  Cs5  1  0.00345434  0.33433668  0.66809107  1
  Cs  Cs6  1  0.00021051  0.67043333  0.00146481  1
  Cs  Cs7  1  -0.00148116  0.66462985  0.33492870  1
  Cs  Cs8  1  0.00126074  0.66409935  0.66501213  1
  Cs  Cs9  1  0.33058315  -0.00513151  0.00105898  1
  Cs  Cs10  1  0.33452755  0.00431094  0.33327004  1
  Cs  Cs11  1  0.33407600  -0.00134268  0.66612049  1
  Cs  Cs12  1  0.33581751  0.33431557  0.00258414  1
  Cs  Cs13  1  0.33572857  0.33315695  0.32810174  1
  Cs  Cs14  1  0.33102889  0.33571198  0.66701713  1
  Cs  Cs15  1  0.33274831  0.67080387  0.00267828  1
  Cs  Cs16  1  0.33069163  0.66398543  0.33248875  1
  Cs  Cs17  1  0.33337907  0.66524317  0.66702561  1
  Cs  Cs18  1  0.66811591  -0.00422883  -0.00102463  1
  Cs  Cs19  1  0.66420800  0.00382252  0.34047770  1
  Cs  Cs20  1  0.66343205  -0.00104021  0.66046193  1
  Cs  Cs21  1  0.66466664  0.33335913  -0.00003869  1
  Cs  Cs22  1  0.67182009  0.32600476  0.32576024  1
  Cs  Cs23  1  0.66568740  0.33380973  0.66886053  1
  Cs  Cs24  1  0.66617678  0.66916802  0.00057711  1
  Cs  Cs25  1  0.67071280  0.66744370  0.33195990  1
  Cs  Cs26  1  0.66498430  0.66724942  0.66478657  1
  Sn  Sn27  1  0.83330730  0.83328944  0.83302187  1
  Sn  Sn28  1  0.16666162  0.16781979  0.50071795  1
  Sn  Sn29  1  0.83336920  0.50027726  0.83310743  1
  Sn  Sn30  1  0.50079470  0.83334757  0.16706372  1
  Sn  Sn31  1  0.49950950  0.16694310  0.83313889  1
  Sn  Sn32  1  0.16693481  0.49951345  0.83338056  1
  Sn  Sn33  1  0.16672373  0.83326758  0.50029427  1
  Sn  Sn34  1  0.49963683  0.49959787  0.83273118  1
  Sn  Sn35  1  0.83317046  0.16645981  0.83296370  1
  Sn  Sn36  1  0.16718155  0.16735299  0.83293369  1
  Sn  Sn37  1  0.49988005  0.49951055  0.50017322  1
  Sn  Sn38  1  0.83210199  0.83347079  0.16644223  1
  Sn  Sn39  1  0.16752287  0.49905672  0.50054119  1
  Pb  Pb40  1  0.83325081  0.50221789  0.16355420  1
  Pb  Pb41  1  0.16457087  0.83317345  0.83160623  1
  Pb  Pb42  1  0.16612929  0.83331610  0.16982295  1
  Pb  Pb43  1  0.83565181  0.16697613  0.50268089  1
  Pb  Pb44  1  0.49770273  0.16970626  0.50231840  1
  Pb  Pb45  1  0.50204186  0.83302911  0.83407289  1
  Pb  Pb46  1  0.83318125  0.16383824  0.16380524  1
  Pb  Pb47  1  0.50013109  0.50168701  0.16668307  1
  Pb  Pb48  1  0.16671502  0.16686671  0.16604621  1
  Pb  Pb49  1  0.49771678  0.83076660  0.49756865  1
  Pb  Pb50  1  0.16662641  0.49985630  0.16647060  1
  Pb  Pb51  1  0.83310470  0.49970590  0.50192366  1
  Pb  Pb52  1  0.50000102  0.16407926  0.16368330  1
  Pb  Pb53  1  0.83530467  0.83336390  0.50015881  1
  I  I54  1  0.16663505  -0.00015169  0.16568537  1
  I  I55  1  0.16423847  0.00078758  0.50466500  1
  I  I56  1  0.16662047  0.00287341  0.82933554  1
  I  I57  1  0.16702415  0.33332962  0.16988028  1
  I  I58  1  0.17105039  0.33399188  0.50841903  1
  I  I59  1  0.16170978  0.33361625  0.82565845  1
  I  I60  1  0.16656815  0.66684953  0.16551313  1
  I  I61  1  0.16966963  0.66530148  0.50409226  1
  I  I62  1  0.16684919  0.66359909  0.82920426  1
  I  I63  1  0.50383533  -0.00358485  0.16494375  1
  I  I64  1  0.49812642  0.00022619  0.50033297  1
  I  I65  1  0.49916725  0.00265930  0.83641810  1
  I  I66  1  0.49854179  0.33325004  0.16796523  1
  I  I67  1  0.49346518  0.33741684  0.50323493  1
  I  I68  1  0.50403101  0.33409458  0.83000007  1
  I  I69  1  0.50404749  0.66939312  0.16313839  1
  I  I70  1  0.49326808  0.66323854  0.50870260  1
  I  I71  1  0.49945455  0.66338804  0.83132746  1
  I  I72  1  0.83123854  -0.00385853  0.15905487  1
  I  I73  1  0.83611671  0.00002056  0.50314323  1
  I  I74  1  0.83505647  0.00021542  0.83860957  1
  I  I75  1  0.83460378  0.33309303  0.16745415  1
  I  I76  1  0.83539207  0.33340247  0.50100829  1
  I  I77  1  0.83430133  0.33346246  0.83068918  1
  I  I78  1  0.83014454  0.67011891  0.15996905  1
  I  I79  1  0.83718218  0.66656511  0.50329177  1
  I  I80  1  0.83393237  0.66625777  0.83748527  1
  I  I81  1  0.16568290  0.17133825  -0.00458312  1
  I  I82  1  0.16754025  0.16610021  0.33680376  1
  I  I83  1  0.16528866  0.16718289  0.66807324  1
  I  I84  1  0.16707409  0.49527906  -0.00444938  1
  I  I85  1  0.17278182  0.50064257  0.33724517  1
  I  I86  1  0.16656606  0.49995488  0.66768000  1
  I  I87  1  0.16769721  0.83326542  -0.00000119  1
  I  I88  1  0.16492527  0.83207444  0.33766053  1
  I  I89  1  0.16502087  0.83273865  0.66386646  1
  I  I90  1  0.49763648  0.17479785  -0.00497397  1
  I  I91  1  0.49758434  0.16720686  0.33358495  1
  I  I92  1  0.50338709  0.16584348  0.67081334  1
  I  I93  1  0.49968131  0.49668774  -0.00393005  1
  I  I94  1  0.49098197  0.50384781  0.33652575  1
  I  I95  1  0.49871521  0.49801353  0.66850349  1
  I  I96  1  0.50075181  0.83167146  0.00199244  1
  I  I97  1  0.50770089  0.83122064  0.32996501  1
  I  I98  1  0.50108985  0.83501566  0.66651428  1
  I  I99  1  0.83725141  0.17022507  -0.00501505  1
  I  I100  1  0.83557571  0.16485638  0.33325825  1
  I  I101  1  0.83150156  0.16324403  0.67161691  1
  I  I102  1  0.83359334  0.49674752  -0.00541013  1
  I  I103  1  0.83476497  0.50346870  0.33328261  1
  I  I104  1  0.83417627  0.50321169  0.67112750  1
  I  I105  1  0.83089027  0.83299267  -0.00150371  1
  I  I106  1  0.83120742  0.83194217  0.33043823  1
  I  I107  1  0.83536705  0.83318221  0.67009876  1
  I  I108  1  -0.00011182  0.16340815  0.16508388  1
  I  I109  1  0.00430675  0.16854689  0.50662768  1
  I  I110  1  0.00034277  0.16925544  0.82955262  1
  I  I111  1  -0.00010309  0.50376632  0.16750369  1
  I  I112  1  0.00363017  0.50134691  0.50498860  1
  I  I113  1  0.00050019  0.49787989  0.82969718  1
  I  I114  1  -0.00296596  0.83346242  0.16134298  1
  I  I115  1  0.00339003  0.82978424  0.49969460  1
  I  I116  1  -0.00340761  0.83310401  0.83931963  1
  I  I117  1  0.33342384  0.16223408  0.16349779  1
  I  I118  1  0.32960853  0.16284060  0.50710558  1
  I  I119  1  0.33268523  0.17370034  0.82953285  1
  I  I120  1  0.33345557  0.50491525  0.16125826  1
  I  I121  1  0.33213711  0.50160750  0.50940316  1
  I  I122  1  0.33306657  0.49291910  0.82888833  1
  I  I123  1  0.33559861  0.83255013  0.16641154  1
  I  I124  1  0.32989817  0.83525548  0.49989445  1
  I  I125  1  0.33328836  0.83376977  0.83562543  1
  I  I126  1  0.66664901  0.16889104  0.16533199  1
  I  I127  1  0.66627278  0.16629570  0.50126097  1
  I  I128  1  0.66676496  0.17044862  0.83606075  1
  I  I129  1  0.66669534  0.50002207  0.16711083  1
  I  I130  1  0.66355728  0.50307062  0.50655821  1
  I  I131  1  0.66630874  0.49750909  0.82997997  1
  I  I132  1  0.66749232  0.83149751  0.15924009  1
  I  I133  1  0.66653964  0.83147473  0.50170166  1
  I  I134  1  0.67012554  0.83294434  0.83532341  1
