# generated using pymatgen
data_Cs27Sn13Pb14I81
_symmetry_space_group_name_H-M   'P 1'
_cell_length_a   18.98426956
_cell_length_b   18.96675365
_cell_length_c   18.97992431
_cell_angle_alpha   90.00068714
_cell_angle_beta   90.00028905
_cell_angle_gamma   89.99986009
_symmetry_Int_Tables_number   1
_chemical_formula_structural   Cs27Sn13Pb14I81
_chemical_formula_sum   'Cs27 Sn13 Pb14 I81'
_cell_volume   6834.10066024
_cell_formula_units_Z   1
loop_
 _symmetry_equiv_pos_site_id
 _symmetry_equiv_pos_as_xyz
  1  'x, y, z'
loop_
 _atom_site_type_symbol
 _atom_site_label
 _atom_site_symmetry_multiplicity
 _atom_site_fract_x
 _atom_site_fract_y
 _atom_site_fract_z
 _atom_site_occupancy
  Cs  Cs0  1  0.00101446  -0.00238550  -0.00386704  1
  Cs  Cs1  1  0.00070992  0.00895994  0.33547208  1
  Cs  Cs2  1  0.00099847  -0.00123371  0.66801578  1
  Cs  Cs3  1  -0.00136782  0.33576151  0.00250290  1
  Cs  Cs4  1  -0.00196096  0.32829139  0.33181397  1
  Cs  Cs5  1  -0.00268534  0.33442332  0.66640912  1
  Cs  Cs6  1  -0.00098011  0.66669063  -0.00047357  1
  Cs  Cs7  1  0.00304120  0.66529980  0.33515245  1
  Cs  Cs8  1  0.00018866  0.66760687  0.66654294  1
  Cs  Cs9  1  0.33452510  0.00901185  -0.00041709  1
  Cs  Cs10  1  0.33312978  0.00166291  0.32888673  1
  Cs  Cs11  1  0.33227491  0.00400454  0.67032517  1
  Cs  Cs12  1  0.33294003  0.33212953  -0.00157214  1
  Cs  Cs13  1  0.33407712  0.33070327  0.33544383  1
  Cs  Cs14  1  0.33762049  0.33082287  0.66678842  1
  Cs  Cs15  1  0.33306870  0.66547712  0.00107364  1
  Cs  Cs16  1  0.33226074  0.66633792  0.33437701  1
  Cs  Cs17  1  0.33398453  0.66584083  0.66469157  1
  Cs  Cs18  1  0.66385573  -0.00374475  0.00802269  1
  Cs  Cs19  1  0.66709071  0.00339996  0.32490316  1
  Cs  Cs20  1  0.66738910  0.00050734  0.66632514  1
  Cs  Cs21  1  0.66808375  0.33462111  -0.00201337  1
  Cs  Cs22  1  0.66930516  0.32662873  0.33567472  1
  Cs  Cs23  1  0.66596558  0.33269028  0.66669160  1
  Cs  Cs24  1  0.66692450  0.66771834  0.00179643  1
  Cs  Cs25  1  0.66542497  0.66731481  0.33278383  1
  Cs  Cs26  1  0.66560810  0.66583002  0.66572159  1
  Sn  Sn27  1  0.49995144  0.50103106  0.83408632  1
  Sn  Sn28  1  0.83319479  0.16694132  0.83350769  1
  Sn  Sn29  1  0.16658633  0.83240728  0.16720990  1
  Sn  Sn30  1  0.16594931  0.50026577  0.50001664  1
  Sn  Sn31  1  0.83342157  0.83248616  0.49977818  1
  Sn  Sn32  1  0.16766779  0.50079273  0.16703707  1
  Sn  Sn33  1  0.49947238  0.50031314  0.16634554  1
  Sn  Sn34  1  0.16679580  0.50050057  0.83295214  1
  Sn  Sn35  1  0.49970517  0.83241650  0.83273308  1
  Sn  Sn36  1  0.83326370  0.49966919  0.83241760  1
  Sn  Sn37  1  0.49983320  0.83303540  0.50055459  1
  Sn  Sn38  1  0.83392314  0.50110719  0.50059667  1
  Sn  Sn39  1  0.16678912  0.83265025  0.49918794  1
  Pb  Pb40  1  0.50241962  0.16684071  0.83332024  1
  Pb  Pb41  1  0.50012701  0.50107031  0.49981763  1
  Pb  Pb42  1  0.16675831  0.16679705  0.50028681  1
  Pb  Pb43  1  0.83333784  0.16664213  0.50193967  1
  Pb  Pb44  1  0.16661647  0.16709762  0.16649771  1
  Pb  Pb45  1  0.83665460  0.83291782  0.16998511  1
  Pb  Pb46  1  0.83355516  0.16659252  0.16314330  1
  Pb  Pb47  1  0.83348996  0.50020392  0.16724949  1
  Pb  Pb48  1  0.83108299  0.83261877  0.83166640  1
  Pb  Pb49  1  0.49761931  0.83138891  0.16668950  1
  Pb  Pb50  1  0.16903242  0.83146236  0.83316341  1
  Pb  Pb51  1  0.50007738  0.16242946  0.50015050  1
  Pb  Pb52  1  0.16410867  0.17000157  0.83317226  1
  Pb  Pb53  1  0.49987338  0.17067325  0.16645581  1
  I  I54  1  0.16617275  -0.00331675  0.17298691  1
  I  I55  1  0.16572794  -0.00405034  0.49497375  1
  I  I56  1  0.16671848  -0.00025676  0.83365873  1
  I  I57  1  0.16991139  0.33774651  0.16663578  1
  I  I58  1  0.16154500  0.33772738  0.49913675  1
  I  I59  1  0.17223717  0.33897426  0.83329510  1
  I  I60  1  0.17027406  0.66504635  0.16830625  1
  I  I61  1  0.16541309  0.66603128  0.49950460  1
  I  I62  1  0.16177264  0.66276365  0.83309573  1
  I  I63  1  0.49878234  -0.00030982  0.16626287  1
  I  I64  1  0.49954530  -0.00613331  0.50720744  1
  I  I65  1  0.50088441  -0.00312370  0.82773103  1
  I  I66  1  0.49339447  0.33888545  0.16052577  1
  I  I67  1  0.50017237  0.33360822  0.49983192  1
  I  I68  1  0.49777461  0.33727829  0.83720780  1
  I  I69  1  0.49772001  0.66337374  0.16403683  1
  I  I70  1  0.49978377  0.66927543  0.50190616  1
  I  I71  1  0.50217276  0.66498132  0.83290861  1
  I  I72  1  0.83413638  -0.00037992  0.16657022  1
  I  I73  1  0.83445394  -0.00341847  0.50195081  1
  I  I74  1  0.83172149  0.00169941  0.83075859  1
  I  I75  1  0.83477450  0.33386707  0.17161055  1
  I  I76  1  0.83804278  0.33695834  0.50139334  1
  I  I77  1  0.83209440  0.33642270  0.82773642  1
  I  I78  1  0.83107366  0.66642718  0.16081955  1
  I  I79  1  0.83510082  0.66581215  0.50651221  1
  I  I80  1  0.83502200  0.66302766  0.83108819  1
  I  I81  1  0.16535957  0.16525288  -0.00017631  1
  I  I82  1  0.16540920  0.17073651  0.33339428  1
  I  I83  1  0.16658545  0.16517751  0.66681487  1
  I  I84  1  0.16700214  0.50342910  -0.00014854  1
  I  I85  1  0.16718439  0.50485722  0.33381913  1
  I  I86  1  0.16537459  0.50415879  0.66636410  1
  I  I87  1  0.16811444  0.82792245  0.00225186  1
  I  I88  1  0.16851370  0.82408706  0.33465426  1
  I  I89  1  0.16484191  0.82890386  0.66347041  1
  I  I90  1  0.50142230  0.16126799  -0.00026400  1
  I  I91  1  0.50127523  0.16760902  0.33322954  1
  I  I92  1  0.50003264  0.17177136  0.66694948  1
  I  I93  1  0.49744788  0.50506946  -0.00153774  1
  I  I94  1  0.49625579  0.50283927  0.33120979  1
  I  I95  1  0.49821848  0.50215665  0.66939823  1
  I  I96  1  0.50006239  0.83038304  -0.00255386  1
  I  I97  1  0.50147056  0.83077324  0.33618890  1
  I  I98  1  0.49858909  0.82616443  0.66643574  1
  I  I99  1  0.83354401  0.17585011  -0.00466141  1
  I  I100  1  0.83309024  0.16745239  0.33347305  1
  I  I101  1  0.83300261  0.17056454  0.66951246  1
  I  I102  1  0.83535776  0.49554026  -0.00311638  1
  I  I103  1  0.83601776  0.50499442  0.33691652  1
  I  I104  1  0.83630670  0.50001630  0.66699215  1
  I  I105  1  0.83272471  0.83402902  -0.00004348  1
  I  I106  1  0.82725345  0.82569647  0.33835763  1
  I  I107  1  0.83852547  0.83133051  0.66339825  1
  I  I108  1  0.00019020  0.16945404  0.16736724  1
  I  I109  1  -0.00001530  0.16306001  0.50113186  1
  I  I110  1  -0.00361057  0.17103107  0.83199382  1
  I  I111  1  0.00341926  0.50347405  0.16382302  1
  I  I112  1  0.00042252  0.50714219  0.50361766  1
  I  I113  1  0.00006922  0.49563224  0.83287123  1
  I  I114  1  0.00463375  0.82479203  0.16891380  1
  I  I115  1  0.00051595  0.82844778  0.49639569  1
  I  I116  1  0.00012612  0.83345755  0.83321315  1
  I  I117  1  0.33319537  0.16452836  0.16521363  1
  I  I118  1  0.33329415  0.16964621  0.50128974  1
  I  I119  1  0.33346456  0.16689329  0.83393076  1
  I  I120  1  0.33224383  0.50418795  0.16343863  1
  I  I121  1  0.33051351  0.50451010  0.50194544  1
  I  I122  1  0.33337276  0.50544784  0.83384221  1
  I  I123  1  0.32998610  0.82906919  0.17288156  1
  I  I124  1  0.33254266  0.82731356  0.49998338  1
  I  I125  1  0.33675803  0.82668325  0.82773347  1
  I  I126  1  0.66664023  0.16685838  0.16751706  1
  I  I127  1  0.66689546  0.16943219  0.50132909  1
  I  I128  1  0.66983312  0.17463794  0.83103512  1
  I  I129  1  0.66397428  0.50051086  0.16239978  1
  I  I130  1  0.66921764  0.50441042  0.50373074  1
  I  I131  1  0.66666790  0.49945588  0.83324331  1
  I  I132  1  0.66637740  0.83282286  0.16735478  1
  I  I133  1  0.66681066  0.82794011  0.50690831  1
  I  I134  1  0.66326182  0.82748561  0.82788191  1
