# generated using pymatgen
data_Cs27Sn14Pb13I81
_symmetry_space_group_name_H-M   'P 1'
_cell_length_a   18.97775599
_cell_length_b   18.98179639
_cell_length_c   18.96726324
_cell_angle_alpha   89.99755117
_cell_angle_beta   89.99908482
_cell_angle_gamma   90.00069017
_symmetry_Int_Tables_number   1
_chemical_formula_structural   Cs27Sn14Pb13I81
_chemical_formula_sum   'Cs27 Sn14 Pb13 I81'
_cell_volume   6832.61326965
_cell_formula_units_Z   1
loop_
 _symmetry_equiv_pos_site_id
 _symmetry_equiv_pos_as_xyz
  1  'x, y, z'
loop_
 _atom_site_type_symbol
 _atom_site_label
 _atom_site_symmetry_multiplicity
 _atom_site_fract_x
 _atom_site_fract_y
 _atom_site_fract_z
 _atom_site_occupancy
  Cs  Cs0  1  0.00037583  0.00269431  -0.00233640  1
  Cs  Cs1  1  0.00079265  -0.00447128  0.33607312  1
  Cs  Cs2  1  -0.00328275  0.01006766  0.66811870  1
  Cs  Cs3  1  -0.00107048  0.33313994  -0.00142024  1
  Cs  Cs4  1  0.00352177  0.33827340  0.33190140  1
  Cs  Cs5  1  -0.00013489  0.32778580  0.66964354  1
  Cs  Cs6  1  -0.00232638  0.66511718  -0.00091660  1
  Cs  Cs7  1  -0.00067878  0.66647104  0.33380861  1
  Cs  Cs8  1  -0.00040489  0.66584536  0.66526793  1
  Cs  Cs9  1  0.33670183  -0.00252282  0.00208326  1
  Cs  Cs10  1  0.33280474  -0.00137965  0.33110672  1
  Cs  Cs11  1  0.32941884  -0.00209984  0.66644628  1
  Cs  Cs12  1  0.33398890  0.33438156  0.00206685  1
  Cs  Cs13  1  0.33380959  0.33318030  0.33369331  1
  Cs  Cs14  1  0.33440761  0.33592047  0.66300055  1
  Cs  Cs15  1  0.33358406  0.66861304  -0.00477470  1
  Cs  Cs16  1  0.33096083  0.66810002  0.33324294  1
  Cs  Cs17  1  0.33522824  0.66616488  0.67286241  1
  Cs  Cs18  1  0.66373382  0.00227896  0.00062352  1
  Cs  Cs19  1  0.66716746  -0.00335237  0.33549135  1
  Cs  Cs20  1  0.67228215  0.00167058  0.66507153  1
  Cs  Cs21  1  0.66803986  0.32984530  0.00280416  1
  Cs  Cs22  1  0.66227266  0.33417061  0.33243446  1
  Cs  Cs23  1  0.66536649  0.33382328  0.66287205  1
  Cs  Cs24  1  0.66938878  0.66684025  -0.00143313  1
  Cs  Cs25  1  0.67019226  0.66852415  0.33336269  1
  Cs  Cs26  1  0.66564469  0.66520324  0.66864674  1
  Sn  Sn27  1  0.16739060  0.83228952  0.49967255  1
  Sn  Sn28  1  0.16774346  0.50057420  0.16702659  1
  Sn  Sn29  1  0.16720967  0.83294303  0.16690635  1
  Sn  Sn30  1  0.83359505  0.83300555  0.83338601  1
  Sn  Sn31  1  0.83407618  0.50001937  0.50079504  1
  Sn  Sn32  1  0.83336199  0.50040022  0.83225512  1
  Sn  Sn33  1  0.49951939  0.83278239  0.16728880  1
  Sn  Sn34  1  0.49994923  0.16650195  0.16621893  1
  Sn  Sn35  1  0.49917978  0.83308607  0.49952038  1
  Sn  Sn36  1  0.16606026  0.50102561  0.49953494  1
  Sn  Sn37  1  0.16647987  0.16646318  0.16684560  1
  Sn  Sn38  1  0.49945714  0.16673667  0.83333161  1
  Sn  Sn39  1  0.83345431  0.16632207  0.16746739  1
  Sn  Sn40  1  0.49916194  0.50075059  0.16657751  1
  Pb  Pb41  1  0.49931004  0.50244743  0.49783150  1
  Pb  Pb42  1  0.16993095  0.16676728  0.83599168  1
  Pb  Pb43  1  0.50177580  0.83512803  0.83328033  1
  Pb  Pb44  1  0.50229031  0.49776965  0.83608757  1
  Pb  Pb45  1  0.16480855  0.50000863  0.83315811  1
  Pb  Pb46  1  0.83337671  0.16997954  0.49686958  1
  Pb  Pb47  1  0.49977340  0.16376567  0.49939809  1
  Pb  Pb48  1  0.83399231  0.83158053  0.50211851  1
  Pb  Pb49  1  0.83359791  0.49845824  0.16687119  1
  Pb  Pb50  1  0.16436316  0.83334731  0.83297853  1
  Pb  Pb51  1  0.16678967  0.16665052  0.49769227  1
  Pb  Pb52  1  0.83366095  0.83542046  0.16508666  1
  Pb  Pb53  1  0.83138742  0.16721109  0.83514999  1
  I  I54  1  0.16926359  -0.00049493  0.16970707  1
  I  I55  1  0.17128895  -0.00342225  0.49540563  1
  I  I56  1  0.16200723  -0.00002007  0.83261377  1
  I  I57  1  0.16893491  0.33380697  0.17003262  1
  I  I58  1  0.16201797  0.33665411  0.49526399  1
  I  I59  1  0.16300388  0.33337828  0.83386143  1
  I  I60  1  0.17291483  0.66669171  0.17085179  1
  I  I61  1  0.16535599  0.66664917  0.49019580  1
  I  I62  1  0.16826565  0.66670624  0.83952246  1
  I  I63  1  0.49766573  -0.00009851  0.16582344  1
  I  I64  1  0.49473304  -0.00412581  0.49378885  1
  I  I65  1  0.50347758  0.00257468  0.84208384  1
  I  I66  1  0.49857220  0.33299997  0.16210453  1
  I  I67  1  0.50086956  0.33360016  0.49920465  1
  I  I68  1  0.50246599  0.33013295  0.84095166  1
  I  I69  1  0.49446590  0.66728230  0.17125916  1
  I  I70  1  0.49989679  0.67013965  0.49397297  1
  I  I71  1  0.50069610  0.66663933  0.83498453  1
  I  I72  1  0.83248566  0.00321787  0.16286995  1
  I  I73  1  0.83335048  -0.00014849  0.50196500  1
  I  I74  1  0.83213842  -0.00167263  0.83561658  1
  I  I75  1  0.83231115  0.33059068  0.16465538  1
  I  I76  1  0.83920344  0.33789002  0.50675582  1
  I  I77  1  0.83266158  0.33595659  0.83129453  1
  I  I78  1  0.83219075  0.66662416  0.16680916  1
  I  I79  1  0.83461487  0.66370628  0.49919156  1
  I  I80  1  0.83227208  0.66594871  0.83221519  1
  I  I81  1  0.16367771  0.16685739  0.00503766  1
  I  I82  1  0.17063548  0.16724407  0.32886476  1
  I  I83  1  0.16690409  0.16620262  0.66656201  1
  I  I84  1  0.16890526  0.49987891  0.00376176  1
  I  I85  1  0.16349143  0.50011688  0.33216449  1
  I  I86  1  0.16472192  0.50597858  0.66315365  1
  I  I87  1  0.17064091  0.83343703  0.00366034  1
  I  I88  1  0.16978550  0.83344966  0.33205241  1
  I  I89  1  0.17176029  0.82655540  0.66301543  1
  I  I90  1  0.50059770  0.16460002  0.00306099  1
  I  I91  1  0.49941764  0.16900170  0.32917875  1
  I  I92  1  0.50352753  0.16504361  0.66904155  1
  I  I93  1  0.49539625  0.50428315  0.00459030  1
  I  I94  1  0.50173279  0.49373846  0.32945068  1
  I  I95  1  0.49826837  0.49910838  0.66657683  1
  I  I96  1  0.49663330  0.83290178  0.00353976  1
  I  I97  1  0.49754454  0.83602354  0.33147916  1
  I  I98  1  0.49638095  0.83458223  0.66392546  1
  I  I99  1  0.83494844  0.16940801  0.00326033  1
  I  I100  1  0.82943690  0.16651169  0.32883542  1
  I  I101  1  0.83097686  0.16465051  0.66669169  1
  I  I102  1  0.83246868  0.50164424  -0.00173130  1
  I  I103  1  0.83492613  0.49805502  0.33540880  1
  I  I104  1  0.83820386  0.50442002  0.66630275  1
  I  I105  1  0.83274541  0.82676398  -0.00251787  1
  I  I106  1  0.83237630  0.83331805  0.33336279  1
  I  I107  1  0.83174143  0.83219031  0.66971511  1
  I  I108  1  0.00095857  0.16776999  0.16743816  1
  I  I109  1  0.00004162  0.16106439  0.49856705  1
  I  I110  1  -0.00014068  0.16620867  0.83555664  1
  I  I111  1  0.00294527  0.49963116  0.16741889  1
  I  I112  1  0.00118488  0.50618379  0.49588749  1
  I  I113  1  -0.00329801  0.50296114  0.83612624  1
  I  I114  1  0.00332422  0.83289338  0.17017491  1
  I  I115  1  0.00321979  0.83049015  0.49415323  1
  I  I116  1  -0.00334945  0.82964138  0.83537887  1
  I  I117  1  0.33361590  0.16668445  0.16278398  1
  I  I118  1  0.33334537  0.17249693  0.49981581  1
  I  I119  1  0.33748156  0.16492550  0.84052810  1
  I  I120  1  0.33261724  0.49493404  0.17207397  1
  I  I121  1  0.33023997  0.50075111  0.49595036  1
  I  I122  1  0.33360532  0.49845042  0.83145535  1
  I  I123  1  0.33347240  0.83759271  0.16967907  1
  I  I124  1  0.33257987  0.82875605  0.49500283  1
  I  I125  1  0.33341995  0.83543536  0.83362373  1
  I  I126  1  0.66527545  0.16774074  0.16204396  1
  I  I127  1  0.66657549  0.16616387  0.49663944  1
  I  I128  1  0.66396571  0.16620311  0.84283188  1
  I  I129  1  0.66424597  0.49871685  0.16627420  1
  I  I130  1  0.66864044  0.50087791  0.50192402  1
  I  I131  1  0.67013139  0.50372185  0.82897550  1
  I  I132  1  0.66364606  0.83380781  0.16941868  1
  I  I133  1  0.66439443  0.83311170  0.49536912  1
  I  I134  1  0.66941038  0.82989295  0.83438152  1
