# generated using pymatgen
data_Cs27Sn14Pb13I81
_symmetry_space_group_name_H-M   'P 1'
_cell_length_a   18.96786119
_cell_length_b   18.96799164
_cell_length_c   18.99077392
_cell_angle_alpha   89.99937655
_cell_angle_beta   90.00027068
_cell_angle_gamma   90.00021710
_symmetry_Int_Tables_number   1
_chemical_formula_structural   Cs27Sn14Pb13I81
_chemical_formula_sum   'Cs27 Sn14 Pb13 I81'
_cell_volume   6832.54303557
_cell_formula_units_Z   1
loop_
 _symmetry_equiv_pos_site_id
 _symmetry_equiv_pos_as_xyz
  1  'x, y, z'
loop_
 _atom_site_type_symbol
 _atom_site_label
 _atom_site_symmetry_multiplicity
 _atom_site_fract_x
 _atom_site_fract_y
 _atom_site_fract_z
 _atom_site_occupancy
  Cs  Cs0  1  0.00563857  -0.00747506  -0.00130532  1
  Cs  Cs1  1  0.00883498  0.00185295  0.33497445  1
  Cs  Cs2  1  0.00568988  -0.00300611  0.66619901  1
  Cs  Cs3  1  -0.00070895  0.33373409  0.00279978  1
  Cs  Cs4  1  -0.00141392  0.33311069  0.33224689  1
  Cs  Cs5  1  -0.00250692  0.33459378  0.66534658  1
  Cs  Cs6  1  -0.00963661  0.67343166  -0.00319193  1
  Cs  Cs7  1  -0.00256827  0.66546579  0.33173977  1
  Cs  Cs8  1  -0.00211614  0.66820783  0.67050999  1
  Cs  Cs9  1  0.32558332  -0.00073396  -0.00060853  1
  Cs  Cs10  1  0.32743709  -0.00289519  0.33254859  1
  Cs  Cs11  1  0.32878083  0.00023135  0.66828392  1
  Cs  Cs12  1  0.33385080  0.33456822  -0.00135650  1
  Cs  Cs13  1  0.33395555  0.33552463  0.33276462  1
  Cs  Cs14  1  0.33470125  0.33506454  0.66902238  1
  Cs  Cs15  1  0.33538738  0.66269795  0.00112573  1
  Cs  Cs16  1  0.33512632  0.66506600  0.33351026  1
  Cs  Cs17  1  0.33486168  0.66441236  0.66597897  1
  Cs  Cs18  1  0.66646361  0.00138125  0.00119500  1
  Cs  Cs19  1  0.66581035  0.00197753  0.33513809  1
  Cs  Cs20  1  0.66557863  0.00219393  0.66447551  1
  Cs  Cs21  1  0.66549771  0.33044925  0.00080377  1
  Cs  Cs22  1  0.66709981  0.33149509  0.33399045  1
  Cs  Cs23  1  0.66647619  0.33090487  0.66559996  1
  Cs  Cs24  1  0.67131106  0.67136245  0.00065863  1
  Cs  Cs25  1  0.66622188  0.66889357  0.33332149  1
  Cs  Cs26  1  0.66581971  0.66758205  0.66533534  1
  Sn  Sn27  1  0.50007286  0.50084622  0.83341561  1
  Sn  Sn28  1  0.50009728  0.83300349  0.83278613  1
  Sn  Sn29  1  0.50000214  0.16641649  0.49912578  1
  Sn  Sn30  1  0.16706272  0.50003350  0.16633000  1
  Sn  Sn31  1  0.83286238  0.16641399  0.16682499  1
  Sn  Sn32  1  0.83278223  0.16539240  0.49993035  1
  Sn  Sn33  1  0.50046736  0.83370178  0.50086570  1
  Sn  Sn34  1  0.83256724  0.83455879  0.49977715  1
  Sn  Sn35  1  0.16723408  0.49979746  0.50006469  1
  Sn  Sn36  1  0.49993825  0.49923375  0.16671684  1
  Sn  Sn37  1  0.49959249  0.49984097  0.49994964  1
  Sn  Sn38  1  0.50026446  0.16710092  0.16753026  1
  Sn  Sn39  1  0.83359123  0.16658432  0.83326434  1
  Sn  Sn40  1  0.16689131  0.49981451  0.83363295  1
  Pb  Pb41  1  0.16724079  0.16930710  0.50016373  1
  Pb  Pb42  1  0.83243010  0.49831638  0.83336934  1
  Pb  Pb43  1  0.16735886  0.16874528  0.16667667  1
  Pb  Pb44  1  0.83251555  0.49828852  0.16663854  1
  Pb  Pb45  1  0.83304927  0.83711143  0.16980932  1
  Pb  Pb46  1  0.16710457  0.83015325  0.49999017  1
  Pb  Pb47  1  0.16974029  0.83015954  0.83314576  1
  Pb  Pb48  1  0.83064051  0.83621247  0.83083454  1
  Pb  Pb49  1  0.50088962  0.16651241  0.83349977  1
  Pb  Pb50  1  0.83274044  0.49996837  0.50000453  1
  Pb  Pb51  1  0.49995087  0.83378694  0.16685300  1
  Pb  Pb52  1  0.16679741  0.82934206  0.16668273  1
  Pb  Pb53  1  0.16359177  0.16936479  0.83327317  1
  I  I54  1  0.16686914  0.00008729  0.16648818  1
  I  I55  1  0.16862404  -0.00009389  0.49990772  1
  I  I56  1  0.16743857  -0.00032027  0.83373280  1
  I  I57  1  0.16831242  0.33714064  0.16733666  1
  I  I58  1  0.17047236  0.33746155  0.49977699  1
  I  I59  1  0.17548029  0.33767531  0.83288905  1
  I  I60  1  0.17572156  0.66098212  0.16863273  1
  I  I61  1  0.17148535  0.66206770  0.49965879  1
  I  I62  1  0.16734935  0.66189178  0.83215446  1
  I  I63  1  0.50669966  0.00350225  0.16971939  1
  I  I64  1  0.50653311  0.00049583  0.50035113  1
  I  I65  1  0.50481282  -0.00224269  0.82938428  1
  I  I66  1  0.50031456  0.33401780  0.16948939  1
  I  I67  1  0.50050313  0.33364070  0.49991723  1
  I  I68  1  0.49749412  0.33630260  0.83102490  1
  I  I69  1  0.49420393  0.66336061  0.16924915  1
  I  I70  1  0.50003278  0.66593746  0.50049732  1
  I  I71  1  0.49605914  0.66518489  0.82939854  1
  I  I72  1  0.82387905  0.00512786  0.16404726  1
  I  I73  1  0.82343849  0.00124432  0.49999863  1
  I  I74  1  0.82933620  0.00402649  0.83586366  1
  I  I75  1  0.83187703  0.32993657  0.17110237  1
  I  I76  1  0.83042384  0.32996195  0.49960392  1
  I  I77  1  0.83073277  0.33026165  0.82925542  1
  I  I78  1  0.83456207  0.66701912  0.16758026  1
  I  I79  1  0.82992147  0.66918367  0.50111314  1
  I  I80  1  0.83588601  0.66708157  0.83171758  1
  I  I81  1  0.16766667  0.17021289  0.00005661  1
  I  I82  1  0.16189292  0.16982880  0.33348548  1
  I  I83  1  0.16698069  0.17070928  0.66654581  1
  I  I84  1  0.17532570  0.49780667  0.00004640  1
  I  I85  1  0.17332673  0.49941517  0.33340533  1
  I  I86  1  0.17366812  0.49908122  0.66657422  1
  I  I87  1  0.16789974  0.83291343  -0.00028095  1
  I  I88  1  0.16822020  0.83162972  0.33368066  1
  I  I89  1  0.16405152  0.83113289  0.66649415  1
  I  I90  1  0.50537670  0.17141567  0.00253708  1
  I  I91  1  0.50834299  0.17149819  0.33415894  1
  I  I92  1  0.50492079  0.17014686  0.66374438  1
  I  I93  1  0.49401396  0.49864144  0.00011423  1
  I  I94  1  0.49474213  0.49918924  0.33386993  1
  I  I95  1  0.49490981  0.49988093  0.66605639  1
  I  I96  1  0.49920281  0.82896669  -0.00269900  1
  I  I97  1  0.50393382  0.83017482  0.33684133  1
  I  I98  1  0.50399259  0.82920613  0.66530184  1
  I  I99  1  0.82761185  0.17190583  0.00075519  1
  I  I100  1  0.82802195  0.16451905  0.33411368  1
  I  I101  1  0.82802022  0.16520098  0.66511516  1
  I  I102  1  0.83359456  0.49656216  0.00002340  1
  I  I103  1  0.83494563  0.49830725  0.33350474  1
  I  I104  1  0.83438649  0.49595378  0.66648640  1
  I  I105  1  0.83303095  0.83368978  -0.00016275  1
  I  I106  1  0.82496883  0.83545590  0.33766765  1
  I  I107  1  0.83086889  0.83808905  0.66312816  1
  I  I108  1  -0.00290165  0.16926410  0.16862794  1
  I  I109  1  -0.00328678  0.16388159  0.49923321  1
  I  I110  1  -0.00460447  0.16936324  0.83193990  1
  I  I111  1  0.00280646  0.49765171  0.16809031  1
  I  I112  1  0.00266699  0.49915554  0.49986666  1
  I  I113  1  0.00276256  0.49582861  0.83238319  1
  I  I114  1  -0.00028375  0.83284225  0.16818686  1
  I  I115  1  -0.00277367  0.83797823  0.49881012  1
  I  I116  1  -0.00020691  0.83241805  0.83241635  1
  I  I117  1  0.33704743  0.16910530  0.17207818  1
  I  I118  1  0.33731488  0.16457471  0.49511867  1
  I  I119  1  0.33347199  0.16464504  0.83329230  1
  I  I120  1  0.33501032  0.49408767  0.16702204  1
  I  I121  1  0.33528146  0.49971852  0.49990129  1
  I  I122  1  0.33483696  0.50268127  0.83278554  1
  I  I123  1  0.33377725  0.83975514  0.16912386  1
  I  I124  1  0.33717675  0.83569455  0.50324719  1
  I  I125  1  0.33770304  0.83422647  0.82576864  1
  I  I126  1  0.66575470  0.17378635  0.16795384  1
  I  I127  1  0.66584950  0.16916455  0.49953833  1
  I  I128  1  0.66883086  0.16999267  0.83246480  1
  I  I129  1  0.66275564  0.49777277  0.16774893  1
  I  I130  1  0.66289767  0.49945059  0.50033046  1
  I  I131  1  0.66266969  0.50224109  0.83194850  1
  I  I132  1  0.66642240  0.82625269  0.16426438  1
  I  I133  1  0.66497831  0.83153146  0.50360901  1
  I  I134  1  0.66300998  0.82436852  0.83153150  1
