# generated using pymatgen
data_Cs27Sn14Pb13I81
_symmetry_space_group_name_H-M   'P 1'
_cell_length_a   18.95720510
_cell_length_b   18.96693507
_cell_length_c   18.96121718
_cell_angle_alpha   89.99980610
_cell_angle_beta   90.00396301
_cell_angle_gamma   90.00055194
_symmetry_Int_Tables_number   1
_chemical_formula_structural   Cs27Sn14Pb13I81
_chemical_formula_sum   'Cs27 Sn14 Pb13 I81'
_cell_volume   6817.69671652
_cell_formula_units_Z   1
loop_
 _symmetry_equiv_pos_site_id
 _symmetry_equiv_pos_as_xyz
  1  'x, y, z'
loop_
 _atom_site_type_symbol
 _atom_site_label
 _atom_site_symmetry_multiplicity
 _atom_site_fract_x
 _atom_site_fract_y
 _atom_site_fract_z
 _atom_site_occupancy
  Cs  Cs0  1  0.00022582  0.00729172  0.00252422  1
  Cs  Cs1  1  0.00047614  -0.00049930  0.33165384  1
  Cs  Cs2  1  -0.00005944  0.00125305  0.66648387  1
  Cs  Cs3  1  -0.00244385  0.32922852  -0.00091229  1
  Cs  Cs4  1  -0.00144071  0.33579634  0.33622775  1
  Cs  Cs5  1  0.00134708  0.33399225  0.66580573  1
  Cs  Cs6  1  0.00124638  0.66659693  0.00164433  1
  Cs  Cs7  1  0.00018764  0.66681411  0.33329150  1
  Cs  Cs8  1  -0.00037668  0.66573080  0.66533112  1
  Cs  Cs9  1  0.33075973  -0.00229602  0.00001876  1
  Cs  Cs10  1  0.33200964  0.00591814  0.33301145  1
  Cs  Cs11  1  0.33441780  0.00113735  0.66636529  1
  Cs  Cs12  1  0.33631301  0.33367744  -0.00169222  1
  Cs  Cs13  1  0.34223646  0.32916371  0.33345406  1
  Cs  Cs14  1  0.33148298  0.33160916  0.66765084  1
  Cs  Cs15  1  0.33242012  0.66706205  -0.00028303  1
  Cs  Cs16  1  0.33275087  0.66609973  0.33273987  1
  Cs  Cs17  1  0.33295325  0.66681236  0.66777508  1
  Cs  Cs18  1  0.66850604  -0.00063226  -0.00064016  1
  Cs  Cs19  1  0.66715423  -0.00042791  0.33425213  1
  Cs  Cs20  1  0.66579520  -0.00412071  0.66644917  1
  Cs  Cs21  1  0.66637423  0.33016775  0.00202759  1
  Cs  Cs22  1  0.66297358  0.33325028  0.33007279  1
  Cs  Cs23  1  0.66767406  0.33517879  0.66745114  1
  Cs  Cs24  1  0.66718796  0.66785287  -0.00129580  1
  Cs  Cs25  1  0.66679867  0.66708747  0.33398139  1
  Cs  Cs26  1  0.66730651  0.66874030  0.66676470  1
  Sn  Sn27  1  0.16724282  0.50099631  0.83351891  1
  Sn  Sn28  1  0.83331843  0.16678361  0.50005267  1
  Sn  Sn29  1  0.49909947  0.83302009  0.83422315  1
  Sn  Sn30  1  0.16698965  0.83260634  0.83262914  1
  Sn  Sn31  1  0.16602318  0.83261097  0.50067533  1
  Sn  Sn32  1  0.83440053  0.83314962  0.49915569  1
  Sn  Sn33  1  0.83413004  0.50106357  0.16730177  1
  Sn  Sn34  1  0.16616593  0.50005846  0.16693261  1
  Sn  Sn35  1  0.83379741  0.50013394  0.49909256  1
  Sn  Sn36  1  0.16641145  0.50084011  0.49948081  1
  Sn  Sn37  1  0.83274307  0.83235902  0.16730068  1
  Sn  Sn38  1  0.50010993  0.16626504  0.83318728  1
  Sn  Sn39  1  0.49946069  0.50032655  0.83318716  1
  Sn  Sn40  1  0.50051270  0.83292760  0.16621257  1
  Pb  Pb41  1  0.83439912  0.83333658  0.83372748  1
  Pb  Pb42  1  0.50036434  0.50197807  0.16446625  1
  Pb  Pb43  1  0.16661947  0.17091843  0.16684132  1
  Pb  Pb44  1  0.50010460  0.16322623  0.16431256  1
  Pb  Pb45  1  0.50261237  0.16668402  0.50216488  1
  Pb  Pb46  1  0.49976991  0.50013723  0.50231323  1
  Pb  Pb47  1  0.16490146  0.16680603  0.49998312  1
  Pb  Pb48  1  0.49927336  0.83321665  0.49982121  1
  Pb  Pb49  1  0.16840978  0.16657018  0.83327496  1
  Pb  Pb50  1  0.83403701  0.50009801  0.83370912  1
  Pb  Pb51  1  0.83102958  0.16661417  0.83085743  1
  Pb  Pb52  1  0.83337554  0.16685995  0.16896766  1
  Pb  Pb53  1  0.16629510  0.83205003  0.16685228  1
  I  I54  1  0.16664922  -0.00035476  0.16591911  1
  I  I55  1  0.16327944  -0.00355564  0.50532148  1
  I  I56  1  0.17035177  -0.00361142  0.82845929  1
  I  I57  1  0.15997261  0.33946482  0.16572470  1
  I  I58  1  0.16211274  0.33720121  0.50182236  1
  I  I59  1  0.17007300  0.33706217  0.83230539  1
  I  I60  1  0.16547180  0.66370965  0.16581453  1
  I  I61  1  0.15896254  0.66627917  0.50211529  1
  I  I62  1  0.17482610  0.66625138  0.83182831  1
  I  I63  1  0.50579030  -0.00490353  0.16198241  1
  I  I64  1  0.50050867  -0.00039002  0.50266975  1
  I  I65  1  0.49719019  -0.00164380  0.83640244  1
  I  I66  1  0.50022344  0.33358788  0.16475035  1
  I  I67  1  0.50007212  0.33362905  0.50237192  1
  I  I68  1  0.49642791  0.33441287  0.83122069  1
  I  I69  1  0.50198112  0.66980494  0.16028990  1
  I  I70  1  0.50509281  0.66676892  0.50306730  1
  I  I71  1  0.49564608  0.66738926  0.83666859  1
  I  I72  1  0.82898498  -0.00337901  0.16973759  1
  I  I73  1  0.83595187  -0.00179050  0.49759804  1
  I  I74  1  0.83296913  -0.00039085  0.83281436  1
  I  I75  1  0.83761656  0.33695214  0.16960094  1
  I  I76  1  0.83687925  0.33511998  0.49819558  1
  I  I77  1  0.83254770  0.33371838  0.83297558  1
  I  I78  1  0.83286383  0.66664511  0.17417453  1
  I  I79  1  0.83733415  0.66668607  0.49626875  1
  I  I80  1  0.82749784  0.66668741  0.82949771  1
  I  I81  1  0.16577732  0.16477307  -0.00019711  1
  I  I82  1  0.16745005  0.16348074  0.33360979  1
  I  I83  1  0.16619675  0.17047651  0.66666088  1
  I  I84  1  0.16699536  0.50487857  -0.00065669  1
  I  I85  1  0.16011887  0.50531875  0.33418565  1
  I  I86  1  0.16630675  0.50350534  0.66650852  1
  I  I87  1  0.16884423  0.82843719  -0.00251942  1
  I  I88  1  0.16541654  0.82892916  0.33602811  1
  I  I89  1  0.16675886  0.82625652  0.66667888  1
  I  I90  1  0.50069370  0.17030292  -0.00382685  1
  I  I91  1  0.50008317  0.16605476  0.33323454  1
  I  I92  1  0.50024023  0.16373781  0.67037361  1
  I  I93  1  0.49641560  0.49911164  -0.00377827  1
  I  I94  1  0.49753482  0.50127333  0.33305140  1
  I  I95  1  0.49740873  0.50335623  0.67079476  1
  I  I96  1  0.50041702  0.83287507  -0.00127691  1
  I  I97  1  0.50205715  0.83173278  0.33066738  1
  I  I98  1  0.49997825  0.83323076  0.66990644  1
  I  I99  1  0.83252230  0.16680618  0.00016489  1
  I  I100  1  0.83336055  0.16640694  0.33695595  1
  I  I101  1  0.83329464  0.16698908  0.66271110  1
  I  I102  1  0.83573218  0.50556228  0.00314865  1
  I  I103  1  0.84059287  0.50093183  0.33401751  1
  I  I104  1  0.83523321  0.50102931  0.66344111  1
  I  I105  1  0.83145386  0.82765588  0.00309154  1
  I  I106  1  0.83268577  0.83268276  0.33403993  1
  I  I107  1  0.83310832  0.83188467  0.66348259  1
  I  I108  1  -0.00029900  0.16059923  0.16439404  1
  I  I109  1  -0.00331616  0.16683187  0.50082545  1
  I  I110  1  0.00002960  0.16668907  0.83328961  1
  I  I111  1  -0.00043643  0.50647950  0.16578959  1
  I  I112  1  -0.00009120  0.50057562  0.50200944  1
  I  I113  1  0.00357158  0.50585856  0.83256329  1
  I  I114  1  -0.00276771  0.83057698  0.16801331  1
  I  I115  1  -0.00047982  0.83230154  0.50070695  1
  I  I116  1  0.00349588  0.82633662  0.83151132  1
  I  I117  1  0.33357231  0.16595382  0.16789377  1
  I  I118  1  0.33337697  0.16662409  0.50065158  1
  I  I119  1  0.33655208  0.16675972  0.83236625  1
  I  I120  1  0.33059352  0.50232221  0.16837872  1
  I  I121  1  0.32960029  0.50576956  0.49822401  1
  I  I122  1  0.33246134  0.50079040  0.83322427  1
  I  I123  1  0.33529895  0.83127190  0.16422189  1
  I  I124  1  0.32988225  0.82733846  0.50157783  1
  I  I125  1  0.33353955  0.83244358  0.83341771  1
  I  I126  1  0.66675321  0.17139141  0.16632437  1
  I  I127  1  0.67086523  0.16630494  0.50094199  1
  I  I128  1  0.66274390  0.16661266  0.83269712  1
  I  I129  1  0.66965449  0.50190407  0.17052764  1
  I  I130  1  0.67021220  0.50092583  0.49729085  1
  I  I131  1  0.66395479  0.50089965  0.83271919  1
  I  I132  1  0.66771075  0.82805800  0.16631116  1
  I  I133  1  0.66977771  0.83248578  0.50011670  1
  I  I134  1  0.66391579  0.83274227  0.83352219  1
