# generated using pymatgen
data_Cs27Sn13Pb14I81
_symmetry_space_group_name_H-M   'P 1'
_cell_length_a   18.98354064
_cell_length_b   18.98934297
_cell_length_c   19.00387382
_cell_angle_alpha   89.99884517
_cell_angle_beta   90.00054566
_cell_angle_gamma   89.99830110
_symmetry_Int_Tables_number   1
_chemical_formula_structural   Cs27Sn13Pb14I81
_chemical_formula_sum   'Cs27 Sn13 Pb14 I81'
_cell_volume   6850.61076620
_cell_formula_units_Z   1
loop_
 _symmetry_equiv_pos_site_id
 _symmetry_equiv_pos_as_xyz
  1  'x, y, z'
loop_
 _atom_site_type_symbol
 _atom_site_label
 _atom_site_symmetry_multiplicity
 _atom_site_fract_x
 _atom_site_fract_y
 _atom_site_fract_z
 _atom_site_occupancy
  Cs  Cs0  1  0.00014013  0.00041450  -0.00017741  1
  Cs  Cs1  1  0.00402738  0.00174598  0.32964813  1
  Cs  Cs2  1  0.00018157  0.00147450  0.67004489  1
  Cs  Cs3  1  -0.00241960  0.33283259  -0.00245385  1
  Cs  Cs4  1  -0.00021584  0.33205057  0.33299481  1
  Cs  Cs5  1  0.00067531  0.33062255  0.67005249  1
  Cs  Cs6  1  -0.00582235  0.66610462  0.00174567  1
  Cs  Cs7  1  -0.00463743  0.66722724  0.33210211  1
  Cs  Cs8  1  0.00119580  0.66740123  0.66622596  1
  Cs  Cs9  1  0.33321341  -0.00238094  0.00136911  1
  Cs  Cs10  1  0.33167568  -0.00166826  0.32945267  1
  Cs  Cs11  1  0.33225679  -0.00125019  0.66844388  1
  Cs  Cs12  1  0.33612858  0.33678118  -0.00013358  1
  Cs  Cs13  1  0.33367481  0.33406320  0.33247346  1
  Cs  Cs14  1  0.33324996  0.33541759  0.66704387  1
  Cs  Cs15  1  0.33312168  0.66426778  -0.00300744  1
  Cs  Cs16  1  0.33398682  0.66780262  0.33487841  1
  Cs  Cs17  1  0.33275684  0.66597815  0.66766353  1
  Cs  Cs18  1  0.66568698  0.00040657  0.00010845  1
  Cs  Cs19  1  0.66557095  -0.00003491  0.33440493  1
  Cs  Cs20  1  0.66860183  0.00046074  0.66592065  1
  Cs  Cs21  1  0.66397213  0.33237590  0.00212808  1
  Cs  Cs22  1  0.66705612  0.33212648  0.33310051  1
  Cs  Cs23  1  0.66609783  0.33295190  0.66439918  1
  Cs  Cs24  1  0.67372940  0.66693695  0.00156200  1
  Cs  Cs25  1  0.67413923  0.67482865  0.34220854  1
  Cs  Cs26  1  0.67365918  0.66847113  0.65744943  1
  Sn  Sn27  1  0.50028614  0.50082997  0.83372442  1
  Sn  Sn28  1  0.49978476  0.83235598  0.83336520  1
  Sn  Sn29  1  0.49999789  0.16672870  0.49979174  1
  Sn  Sn30  1  0.83239679  0.16698608  0.16738124  1
  Sn  Sn31  1  0.49959602  0.16675818  0.83339437  1
  Sn  Sn32  1  0.49981582  0.50024498  0.16668129  1
  Sn  Sn33  1  0.16732455  0.50094882  0.83356395  1
  Sn  Sn34  1  0.16725748  0.83266696  0.50061917  1
  Sn  Sn35  1  0.16751467  0.49990529  0.16635053  1
  Sn  Sn36  1  0.50037271  0.16732215  0.16677663  1
  Sn  Sn37  1  0.83285483  0.16693031  0.49915910  1
  Sn  Sn38  1  0.16766903  0.83223666  0.83276942  1
  Sn  Sn39  1  0.16696717  0.50066354  0.50007086  1
  Pb  Pb40  1  0.83358236  0.83327791  0.83321502  1
  Pb  Pb41  1  0.49996738  0.83224823  0.16445246  1
  Pb  Pb42  1  0.16924610  0.16676675  0.83354894  1
  Pb  Pb43  1  0.16722425  0.16918578  0.16641117  1
  Pb  Pb44  1  0.83679681  0.83659881  0.50013212  1
  Pb  Pb45  1  0.83216426  0.49798746  0.16679686  1
  Pb  Pb46  1  0.16686500  0.16645253  0.50004238  1
  Pb  Pb47  1  0.83026521  0.16679786  0.83355183  1
  Pb  Pb48  1  0.49848291  0.49850819  0.49976295  1
  Pb  Pb49  1  0.16697589  0.83002143  0.16587707  1
  Pb  Pb50  1  0.83656618  0.49729566  0.50003109  1
  Pb  Pb51  1  0.83256513  0.49997963  0.83319707  1
  Pb  Pb52  1  0.83313450  0.83674616  0.16670294  1
  Pb  Pb53  1  0.49775599  0.83597864  0.50242074  1
  I  I54  1  0.16550478  -0.00010099  0.16769453  1
  I  I55  1  0.16645353  -0.00261019  0.50668666  1
  I  I56  1  0.17041566  -0.00311624  0.82667564  1
  I  I57  1  0.16813695  0.33726632  0.16670810  1
  I  I58  1  0.16672284  0.33617783  0.50128501  1
  I  I59  1  0.16995047  0.33691454  0.83195193  1
  I  I60  1  0.17439279  0.66202943  0.16675038  1
  I  I61  1  0.16865321  0.66581462  0.50158453  1
  I  I62  1  0.17578801  0.66576281  0.83178166  1
  I  I63  1  0.50477074  0.00314501  0.16582583  1
  I  I64  1  0.50144729  0.00426301  0.49932969  1
  I  I65  1  0.49604460  0.00030704  0.83268713  1
  I  I66  1  0.49930896  0.33273177  0.16137041  1
  I  I67  1  0.50049047  0.33019758  0.50466752  1
  I  I68  1  0.49597757  0.33355557  0.83424480  1
  I  I69  1  0.49254046  0.66268340  0.16087425  1
  I  I70  1  0.50060577  0.66677160  0.49909313  1
  I  I71  1  0.49257280  0.66564032  0.83991425  1
  I  I72  1  0.82672319  0.00513514  0.17040068  1
  I  I73  1  0.82947583  0.00420751  0.49603442  1
  I  I74  1  0.83499905  0.00025404  0.83391569  1
  I  I75  1  0.83181243  0.33002248  0.17090533  1
  I  I76  1  0.83056198  0.32946497  0.49616773  1
  I  I77  1  0.83687813  0.33311470  0.83242977  1
  I  I78  1  0.83368820  0.66637145  0.16554272  1
  I  I79  1  0.83119899  0.66691728  0.50034655  1
  I  I80  1  0.82850414  0.66666727  0.83378793  1
  I  I81  1  0.16433057  0.16497824  -0.00001297  1
  I  I82  1  0.17093225  0.16652664  0.33337007  1
  I  I83  1  0.16623836  0.17148754  0.66667224  1
  I  I84  1  0.17164956  0.50232609  -0.00077097  1
  I  I85  1  0.17101265  0.50158530  0.33315809  1
  I  I86  1  0.17094911  0.50317312  0.66749420  1
  I  I87  1  0.17140597  0.83132836  -0.00364013  1
  I  I88  1  0.16532231  0.83093554  0.33589792  1
  I  I89  1  0.17082757  0.82558401  0.66752545  1
  I  I90  1  0.50336678  0.16769109  0.00014502  1
  I  I91  1  0.50382281  0.17239152  0.33274900  1
  I  I92  1  0.50299447  0.16707684  0.66700508  1
  I  I93  1  0.49060391  0.49297243  -0.00048933  1
  I  I94  1  0.49337721  0.49134643  0.33047665  1
  I  I95  1  0.49466766  0.49729895  0.66968916  1
  I  I96  1  0.49187126  0.83972349  -0.00392848  1
  I  I97  1  0.49832972  0.83468109  0.33359722  1
  I  I98  1  0.49718468  0.83295561  0.67059039  1
  I  I99  1  0.82985616  0.16761169  0.00296601  1
  I  I100  1  0.82431309  0.16755307  0.33317484  1
  I  I101  1  0.82995473  0.16635858  0.66393282  1
  I  I102  1  0.83898436  0.49676344  0.00011292  1
  I  I103  1  0.83453328  0.50032796  0.33335866  1
  I  I104  1  0.83234081  0.49600834  0.66650894  1
  I  I105  1  0.83645101  0.83593765  -0.00015010  1
  I  I106  1  0.83517874  0.83098010  0.33368660  1
  I  I107  1  0.83083878  0.83729716  0.66650682  1
  I  I108  1  -0.00264258  0.16738357  0.17347966  1
  I  I109  1  -0.00246210  0.16706484  0.49362539  1
  I  I110  1  -0.00002205  0.16644469  0.83267430  1
  I  I111  1  0.00295298  0.49909979  0.16566074  1
  I  I112  1  0.00506890  0.50175089  0.50062140  1
  I  I113  1  0.00386817  0.50475716  0.83397170  1
  I  I114  1  0.00034753  0.83416859  0.16422966  1
  I  I115  1  0.00449720  0.83030236  0.50776477  1
  I  I116  1  0.00396298  0.82851254  0.82925138  1
  I  I117  1  0.33711132  0.16819540  0.16745633  1
  I  I118  1  0.33634294  0.16733628  0.49990373  1
  I  I119  1  0.33765762  0.16706341  0.83288832  1
  I  I120  1  0.33380489  0.49269615  0.16514324  1
  I  I121  1  0.33018828  0.49963150  0.50064717  1
  I  I122  1  0.33344910  0.49929519  0.83407947  1
  I  I123  1  0.33336677  0.84163760  0.16958461  1
  I  I124  1  0.32995378  0.83185019  0.50211348  1
  I  I125  1  0.33328458  0.83361307  0.82930527  1
  I  I126  1  0.66471224  0.17298275  0.16648286  1
  I  I127  1  0.66530528  0.16748547  0.50027236  1
  I  I128  1  0.66176630  0.16709346  0.83336446  1
  I  I129  1  0.66266246  0.49549996  0.15827560  1
  I  I130  1  0.66658086  0.50033727  0.50057564  1
  I  I131  1  0.66210834  0.49842598  0.84006511  1
  I  I132  1  0.66634030  0.82817302  0.16380887  1
  I  I133  1  0.66670076  0.83204685  0.50134681  1
  I  I134  1  0.66300349  0.83483253  0.83568625  1
