# generated using pymatgen
data_Cs27Sn13Pb14I81
_symmetry_space_group_name_H-M   'P 1'
_cell_length_a   18.97597026
_cell_length_b   18.98163328
_cell_length_c   18.97449981
_cell_angle_alpha   89.99935505
_cell_angle_beta   90.00092471
_cell_angle_gamma   90.00115738
_symmetry_Int_Tables_number   1
_chemical_formula_structural   Cs27Sn13Pb14I81
_chemical_formula_sum   'Cs27 Sn13 Pb14 I81'
_cell_volume   6834.51822161
_cell_formula_units_Z   1
loop_
 _symmetry_equiv_pos_site_id
 _symmetry_equiv_pos_as_xyz
  1  'x, y, z'
loop_
 _atom_site_type_symbol
 _atom_site_label
 _atom_site_symmetry_multiplicity
 _atom_site_fract_x
 _atom_site_fract_y
 _atom_site_fract_z
 _atom_site_occupancy
  Cs  Cs0  1  0.00272089  -0.00048160  -0.00328628  1
  Cs  Cs1  1  -0.00334539  0.00092394  0.33310411  1
  Cs  Cs2  1  -0.00074078  0.00075064  0.66862813  1
  Cs  Cs3  1  -0.00081612  0.33226011  -0.00021809  1
  Cs  Cs4  1  -0.00253206  0.33212177  0.33137280  1
  Cs  Cs5  1  -0.00030705  0.33447856  0.66673711  1
  Cs  Cs6  1  0.00035280  0.66784309  0.00013061  1
  Cs  Cs7  1  0.00180325  0.66648731  0.33079620  1
  Cs  Cs8  1  0.00170732  0.66380671  0.66724597  1
  Cs  Cs9  1  0.33128054  0.00167131  0.00148539  1
  Cs  Cs10  1  0.33280492  0.00113326  0.33252601  1
  Cs  Cs11  1  0.33363305  0.00080305  0.66645606  1
  Cs  Cs12  1  0.33656731  0.33310198  0.00180428  1
  Cs  Cs13  1  0.33403461  0.33121468  0.33573601  1
  Cs  Cs14  1  0.33385206  0.33442443  0.66547269  1
  Cs  Cs15  1  0.33807807  0.66462344  -0.00152048  1
  Cs  Cs16  1  0.33022082  0.66817013  0.33534207  1
  Cs  Cs17  1  0.33472071  0.66385545  0.66711144  1
  Cs  Cs18  1  0.66314658  -0.00222928  0.00213214  1
  Cs  Cs19  1  0.67443310  -0.00839669  0.33016513  1
  Cs  Cs20  1  0.66683226  0.00046983  0.66496537  1
  Cs  Cs21  1  0.66553334  0.33671205  0.00597512  1
  Cs  Cs22  1  0.66839734  0.33376928  0.33017210  1
  Cs  Cs23  1  0.66719449  0.33128334  0.66562074  1
  Cs  Cs24  1  0.65976578  0.66430217  0.00593055  1
  Cs  Cs25  1  0.66719288  0.67214901  0.32800644  1
  Cs  Cs26  1  0.66401049  0.66778196  0.66609424  1
  Sn  Sn27  1  0.16704576  0.16584095  0.50103513  1
  Sn  Sn28  1  0.16649158  0.83432341  0.50062932  1
  Sn  Sn29  1  0.50140579  0.49944639  0.50019013  1
  Sn  Sn30  1  0.49989013  0.16681397  0.83253510  1
  Sn  Sn31  1  0.83292342  0.16668456  0.83301434  1
  Sn  Sn32  1  0.50000523  0.16703163  0.50039017  1
  Sn  Sn33  1  0.16698635  0.16635290  0.83220487  1
  Sn  Sn34  1  0.16679490  0.50023164  0.16639725  1
  Sn  Sn35  1  0.16623690  0.83356184  0.83292069  1
  Sn  Sn36  1  0.83315764  0.50034518  0.83261358  1
  Sn  Sn37  1  0.83207586  0.50017459  0.50055601  1
  Sn  Sn38  1  0.16654142  0.83242196  0.16621604  1
  Sn  Sn39  1  0.83356077  0.83289396  0.83305916  1
  Pb  Pb40  1  0.49971952  0.83570859  0.83316787  1
  Pb  Pb41  1  0.83325143  0.16810990  0.50153372  1
  Pb  Pb42  1  0.50287749  0.49749419  0.83135130  1
  Pb  Pb43  1  0.49692571  0.83350197  0.16670909  1
  Pb  Pb44  1  0.83333972  0.16648343  0.16340244  1
  Pb  Pb45  1  0.83524680  0.50012438  0.16664994  1
  Pb  Pb46  1  0.16643097  0.49936345  0.49861921  1
  Pb  Pb47  1  0.83599591  0.83070943  0.50240634  1
  Pb  Pb48  1  0.49724913  0.49985485  0.17021813  1
  Pb  Pb49  1  0.16660589  0.16629867  0.16682414  1
  Pb  Pb50  1  0.83588363  0.83329178  0.16346288  1
  Pb  Pb51  1  0.49794992  0.83406509  0.50011093  1
  Pb  Pb52  1  0.50008696  0.16649815  0.16784575  1
  Pb  Pb53  1  0.16524600  0.49965238  0.83513557  1
  I  I54  1  0.16666280  -0.00302599  0.16548562  1
  I  I55  1  0.17205455  0.00063797  0.49942967  1
  I  I56  1  0.16245343  0.00022668  0.83463805  1
  I  I57  1  0.16612756  0.33541629  0.16704731  1
  I  I58  1  0.16756378  0.33041507  0.50369084  1
  I  I59  1  0.16531754  0.33000605  0.82984175  1
  I  I60  1  0.16521236  0.66782018  0.16788906  1
  I  I61  1  0.16608306  0.66901516  0.50194464  1
  I  I62  1  0.16120565  0.66960706  0.83112853  1
  I  I63  1  0.49731750  0.00012396  0.16711910  1
  I  I64  1  0.49585566  0.00370762  0.50541552  1
  I  I65  1  0.50323527  0.00403885  0.82656208  1
  I  I66  1  0.49602427  0.33335508  0.16346048  1
  I  I67  1  0.49592741  0.33241595  0.50486668  1
  I  I68  1  0.49679746  0.32932453  0.83108693  1
  I  I69  1  0.50064486  0.66642108  0.16706383  1
  I  I70  1  0.50147621  0.66398251  0.49962486  1
  I  I71  1  0.49923663  0.66641323  0.83224773  1
  I  I72  1  0.83590271  -0.00026762  0.16791050  1
  I  I73  1  0.83137050  -0.00014904  0.50074593  1
  I  I74  1  0.83630440  0.00036587  0.83410817  1
  I  I75  1  0.83776593  0.33358077  0.16402880  1
  I  I76  1  0.83613778  0.33607288  0.50646325  1
  I  I77  1  0.83520238  0.33293269  0.82890699  1
  I  I78  1  0.83409426  0.66670210  0.16450869  1
  I  I79  1  0.82999659  0.66286442  0.50658725  1
  I  I80  1  0.84162863  0.66682993  0.82881065  1
  I  I81  1  0.16609674  0.16390281  -0.00355577  1
  I  I82  1  0.17210946  0.16468685  0.33671122  1
  I  I83  1  0.16697639  0.16004869  0.66737493  1
  I  I84  1  0.16351856  0.50352408  0.00272680  1
  I  I85  1  0.16535280  0.50458944  0.33101698  1
  I  I86  1  0.16732666  0.50243953  0.66664872  1
  I  I87  1  0.16168779  0.83440624  -0.00128335  1
  I  I88  1  0.16926236  0.83244144  0.33379008  1
  I  I89  1  0.16282092  0.83843220  0.66738876  1
  I  I90  1  0.49867504  0.16550656  -0.00347048  1
  I  I91  1  0.49098559  0.17204275  0.33765902  1
  I  I92  1  0.49780733  0.17030799  0.66677976  1
  I  I93  1  0.50071367  0.49870085  -0.00000869  1
  I  I94  1  0.50560394  0.49223299  0.33802764  1
  I  I95  1  0.49822335  0.49819988  0.66347086  1
  I  I96  1  0.49861207  0.83494079  -0.00038758  1
  I  I97  1  0.49796270  0.83515613  0.33363803  1
  I  I98  1  0.49659750  0.83076514  0.66667694  1
  I  I99  1  0.83602090  0.16975622  -0.00592122  1
  I  I100  1  0.83469024  0.16988913  0.33375730  1
  I  I101  1  0.83489403  0.16510196  0.67028080  1
  I  I102  1  0.83691433  0.49856467  -0.00341759  1
  I  I103  1  0.83154635  0.49846381  0.33646466  1
  I  I104  1  0.83267405  0.49917731  0.66748263  1
  I  I105  1  0.84007370  0.83275705  -0.00488865  1
  I  I106  1  0.83459776  0.83156415  0.33349840  1
  I  I107  1  0.84010171  0.83612679  0.67053398  1
  I  I108  1  0.00047348  0.16802487  0.16775475  1
  I  I109  1  0.00297866  0.16478535  0.50386706  1
  I  I110  1  0.00067333  0.16562912  0.83003362  1
  I  I111  1  0.00305596  0.50376159  0.16917277  1
  I  I112  1  -0.00212120  0.50024065  0.50310168  1
  I  I113  1  -0.00289684  0.49574590  0.82750666  1
  I  I114  1  0.00419773  0.82947723  0.16871296  1
  I  I115  1  0.00434418  0.83796384  0.49832428  1
  I  I116  1  0.00116263  0.83831657  0.83350204  1
  I  I117  1  0.33302107  0.16662686  0.16143414  1
  I  I118  1  0.33250228  0.16912371  0.50762453  1
  I  I119  1  0.33222387  0.16157451  0.82987564  1
  I  I120  1  0.32951527  0.50455803  0.16643850  1
  I  I121  1  0.33511948  0.49849690  0.49735355  1
  I  I122  1  0.33354250  0.50036779  0.83313360  1
  I  I123  1  0.32821441  0.82989459  0.16347312  1
  I  I124  1  0.32907608  0.83174464  0.50271373  1
  I  I125  1  0.32946608  0.83770702  0.83395632  1
  I  I126  1  0.66660204  0.16820505  0.16644628  1
  I  I127  1  0.66394765  0.17116831  0.50626898  1
  I  I128  1  0.66686447  0.16678455  0.82851883  1
  I  I129  1  0.66656000  0.49910834  0.16439274  1
  I  I130  1  0.66663906  0.49305221  0.50585927  1
  I  I131  1  0.67111526  0.50099436  0.83222555  1
  I  I132  1  0.66699433  0.83383190  0.16574971  1
  I  I133  1  0.66704389  0.83535877  0.50167706  1
  I  I134  1  0.66977323  0.83458943  0.83209050  1
