# generated using pymatgen
data_Cs27Sn14Pb13I81
_symmetry_space_group_name_H-M   'P 1'
_cell_length_a   18.97061345
_cell_length_b   18.97607066
_cell_length_c   18.98018720
_cell_angle_alpha   89.99997774
_cell_angle_beta   90.00167104
_cell_angle_gamma   89.99847073
_symmetry_Int_Tables_number   1
_chemical_formula_structural   Cs27Sn14Pb13I81
_chemical_formula_sum   'Cs27 Sn14 Pb13 I81'
_cell_volume   6832.63395593
_cell_formula_units_Z   1
loop_
 _symmetry_equiv_pos_site_id
 _symmetry_equiv_pos_as_xyz
  1  'x, y, z'
loop_
 _atom_site_type_symbol
 _atom_site_label
 _atom_site_symmetry_multiplicity
 _atom_site_fract_x
 _atom_site_fract_y
 _atom_site_fract_z
 _atom_site_occupancy
  Cs  Cs0  1  0.00049900  -0.00198407  0.00044221  1
  Cs  Cs1  1  -0.00292692  0.00084718  0.33192444  1
  Cs  Cs2  1  -0.00051050  -0.00019920  0.66732215  1
  Cs  Cs3  1  0.00463555  0.33804341  -0.00341773  1
  Cs  Cs4  1  0.00229291  0.33462627  0.33523404  1
  Cs  Cs5  1  -0.00081270  0.33283410  0.66811095  1
  Cs  Cs6  1  -0.00153076  0.66511030  -0.00002327  1
  Cs  Cs7  1  -0.00135705  0.66557044  0.33310865  1
  Cs  Cs8  1  -0.00010267  0.66774351  0.66727835  1
  Cs  Cs9  1  0.33321998  -0.00033943  -0.00108775  1
  Cs  Cs10  1  0.33357748  0.00142214  0.33371722  1
  Cs  Cs11  1  0.33388742  -0.00907482  0.66538173  1
  Cs  Cs12  1  0.33146294  0.33282028  0.00173757  1
  Cs  Cs13  1  0.33196479  0.33243676  0.33366878  1
  Cs  Cs14  1  0.33461079  0.33555515  0.66366538  1
  Cs  Cs15  1  0.33390418  0.66792072  0.00033829  1
  Cs  Cs16  1  0.33490651  0.66718634  0.33623441  1
  Cs  Cs17  1  0.34241681  0.67546737  0.65927369  1
  Cs  Cs18  1  0.66596836  0.00933504  0.00211840  1
  Cs  Cs19  1  0.67024610  0.00305626  0.33033598  1
  Cs  Cs20  1  0.66714954  0.00213273  0.66867560  1
  Cs  Cs21  1  0.66231929  0.32929250  -0.00244968  1
  Cs  Cs22  1  0.66677011  0.33029094  0.33329428  1
  Cs  Cs23  1  0.66663978  0.33186419  0.67037261  1
  Cs  Cs24  1  0.66929831  0.66522068  0.00094720  1
  Cs  Cs25  1  0.66795414  0.66746477  0.33279865  1
  Cs  Cs26  1  0.66359720  0.66661167  0.66622472  1
  Sn  Sn27  1  0.49962530  0.50067054  0.16665419  1
  Sn  Sn28  1  0.83326744  0.83260774  0.83286770  1
  Sn  Sn29  1  0.16675889  0.16717437  0.83298006  1
  Sn  Sn30  1  0.83348616  0.50067964  0.50034023  1
  Sn  Sn31  1  0.83314582  0.49978203  0.16640867  1
  Sn  Sn32  1  0.83362721  0.83252350  0.50097120  1
  Sn  Sn33  1  0.49949819  0.83276650  0.16646130  1
  Sn  Sn34  1  0.16699542  0.50035013  0.83308997  1
  Sn  Sn35  1  0.16742975  0.83268898  0.16688060  1
  Sn  Sn36  1  0.16751827  0.16667991  0.50040979  1
  Sn  Sn37  1  0.49916376  0.16678595  0.50015557  1
  Sn  Sn38  1  0.16646246  0.16668419  0.16647795  1
  Sn  Sn39  1  0.16696993  0.50048734  0.16632007  1
  Sn  Sn40  1  0.83392306  0.50089725  0.83323928  1
  Pb  Pb41  1  0.49610819  0.16669246  0.83053444  1
  Pb  Pb42  1  0.50286744  0.49827807  0.49747711  1
  Pb  Pb43  1  0.16443877  0.83567486  0.49737860  1
  Pb  Pb44  1  0.50339492  0.83323158  0.83632768  1
  Pb  Pb45  1  0.83363444  0.16680937  0.50009879  1
  Pb  Pb46  1  0.83318777  0.83173353  0.16625696  1
  Pb  Pb47  1  0.49929657  0.50022008  0.83542879  1
  Pb  Pb48  1  0.83557520  0.16709919  0.83351571  1
  Pb  Pb49  1  0.50298401  0.83552831  0.49734765  1
  Pb  Pb50  1  0.16518931  0.49880092  0.50065904  1
  Pb  Pb51  1  0.49758605  0.16682866  0.16795155  1
  Pb  Pb52  1  0.16518379  0.83228240  0.83521053  1
  Pb  Pb53  1  0.83630805  0.17032162  0.16629688  1
  I  I54  1  0.17133596  0.00012576  0.16709647  1
  I  I55  1  0.16770806  0.00392822  0.49999886  1
  I  I56  1  0.16457158  0.00227988  0.83512581  1
  I  I57  1  0.16554248  0.33411116  0.16646407  1
  I  I58  1  0.16677348  0.33049533  0.49454259  1
  I  I59  1  0.15971374  0.33409631  0.83939414  1
  I  I60  1  0.16583381  0.66525849  0.16140988  1
  I  I61  1  0.16624578  0.66685930  0.49925284  1
  I  I62  1  0.16172013  0.66328737  0.84126738  1
  I  I63  1  0.49618968  -0.00235830  0.16851364  1
  I  I64  1  0.49640811  0.00308129  0.49686212  1
  I  I65  1  0.50133685  0.00001127  0.83659930  1
  I  I66  1  0.50071012  0.33620826  0.16817549  1
  I  I67  1  0.49712568  0.33058641  0.49634805  1
  I  I68  1  0.50607757  0.33342129  0.83585987  1
  I  I69  1  0.49516054  0.66573911  0.16707091  1
  I  I70  1  0.49934745  0.66677781  0.50026916  1
  I  I71  1  0.49480638  0.66666829  0.83085017  1
  I  I72  1  0.83312990  -0.00000410  0.16808795  1
  I  I73  1  0.83403098  -0.00256610  0.50380182  1
  I  I74  1  0.83490902  -0.00270296  0.82771669  1
  I  I75  1  0.83154871  0.33874263  0.16787145  1
  I  I76  1  0.83414204  0.33634784  0.49905772  1
  I  I77  1  0.83567128  0.33700973  0.83300930  1
  I  I78  1  0.83835916  0.66339927  0.16694031  1
  I  I79  1  0.83420716  0.66567466  0.49919298  1
  I  I80  1  0.84011451  0.66497179  0.83367339  1
  I  I81  1  0.16426530  0.16845882  0.00063572  1
  I  I82  1  0.17002595  0.16745972  0.33269922  1
  I  I83  1  0.16851419  0.17319781  0.66694460  1
  I  I84  1  0.16110915  0.49455382  0.00129291  1
  I  I85  1  0.16485965  0.49848234  0.33016127  1
  I  I86  1  0.15893636  0.49253850  0.66972046  1
  I  I87  1  0.16694120  0.83768927  0.00353586  1
  I  I88  1  0.16705598  0.83177961  0.32910163  1
  I  I89  1  0.16614277  0.83458239  0.66658188  1
  I  I90  1  0.50075817  0.16638678  0.00012291  1
  I  I91  1  0.49426674  0.16727533  0.33556402  1
  I  I92  1  0.49654919  0.16753875  0.66279647  1
  I  I93  1  0.50428396  0.50213548  0.00407391  1
  I  I94  1  0.49831711  0.50280464  0.32917482  1
  I  I95  1  0.50017548  0.49770070  0.66639369  1
  I  I96  1  0.49688613  0.82991045  0.00431873  1
  I  I97  1  0.49762961  0.82907448  0.32970518  1
  I  I98  1  0.49879849  0.83481781  0.66638502  1
  I  I99  1  0.83264900  0.16299215  0.00003894  1
  I  I100  1  0.83597467  0.16584648  0.33328837  1
  I  I101  1  0.83594169  0.17065979  0.66662063  1
  I  I102  1  0.83561825  0.50465174  0.00000722  1
  I  I103  1  0.83426613  0.50360191  0.33275799  1
  I  I104  1  0.83952182  0.50294353  0.66734425  1
  I  I105  1  0.83482586  0.82832651  -0.00216939  1
  I  I106  1  0.83375289  0.82968563  0.33498099  1
  I  I107  1  0.83495971  0.82564899  0.66668074  1
  I  I108  1  0.00474918  0.16399824  0.17078031  1
  I  I109  1  0.00307616  0.16709090  0.49853594  1
  I  I110  1  0.00373746  0.16856031  0.83159966  1
  I  I111  1  0.00053773  0.49953644  0.16626645  1
  I  I112  1  -0.00314837  0.50047750  0.49444562  1
  I  I113  1  -0.00019283  0.49910167  0.83891726  1
  I  I114  1  0.00253594  0.83393409  0.16680429  1
  I  I115  1  -0.00339099  0.83146022  0.50031303  1
  I  I116  1  -0.00287765  0.83204287  0.83269097  1
  I  I117  1  0.32932514  0.17162460  0.16504481  1
  I  I118  1  0.33172533  0.16823997  0.49788172  1
  I  I119  1  0.32809487  0.17353357  0.83859569  1
  I  I120  1  0.33187354  0.49926059  0.16181667  1
  I  I121  1  0.33343434  0.49918868  0.49955109  1
  I  I122  1  0.32950128  0.49317371  0.84038004  1
  I  I123  1  0.33227633  0.82880807  0.16666886  1
  I  I124  1  0.33336837  0.83301208  0.50075369  1
  I  I125  1  0.33325146  0.83380404  0.83297298  1
  I  I126  1  0.66650174  0.16552899  0.16997276  1
  I  I127  1  0.66463373  0.16683136  0.49719359  1
  I  I128  1  0.66651101  0.16682850  0.83133222  1
  I  I129  1  0.66711081  0.50660696  0.16792049  1
  I  I130  1  0.67118762  0.50105753  0.49994320  1
  I  I131  1  0.67001058  0.50407005  0.83423498  1
  I  I132  1  0.66457855  0.82775020  0.16779739  1
  I  I133  1  0.67068100  0.83100252  0.50081512  1
  I  I134  1  0.67145531  0.82574850  0.83059350  1
