# generated using pymatgen
data_Cs27Sn14Pb13I81
_symmetry_space_group_name_H-M   'P 1'
_cell_length_a   18.96404200
_cell_length_b   18.95641075
_cell_length_c   18.96449210
_cell_angle_alpha   89.99910501
_cell_angle_beta   89.99947633
_cell_angle_gamma   89.99923782
_symmetry_Int_Tables_number   1
_chemical_formula_structural   Cs27Sn14Pb13I81
_chemical_formula_sum   'Cs27 Sn14 Pb13 I81'
_cell_volume   6817.54847902
_cell_formula_units_Z   1
loop_
 _symmetry_equiv_pos_site_id
 _symmetry_equiv_pos_as_xyz
  1  'x, y, z'
loop_
 _atom_site_type_symbol
 _atom_site_label
 _atom_site_symmetry_multiplicity
 _atom_site_fract_x
 _atom_site_fract_y
 _atom_site_fract_z
 _atom_site_occupancy
  Cs  Cs0  1  0.00283894  0.00052995  0.00135114  1
  Cs  Cs1  1  0.00106658  -0.00112233  0.33311596  1
  Cs  Cs2  1  -0.00005282  0.00214914  0.66667118  1
  Cs  Cs3  1  0.00565711  0.34066857  0.00352727  1
  Cs  Cs4  1  -0.00342268  0.33605554  0.32980335  1
  Cs  Cs5  1  -0.00045924  0.33232158  0.66814703  1
  Cs  Cs6  1  -0.00091576  0.66158125  -0.00101315  1
  Cs  Cs7  1  -0.00124756  0.66631017  0.33316210  1
  Cs  Cs8  1  -0.00711115  0.66534350  0.66821044  1
  Cs  Cs9  1  0.33154662  0.00002211  0.00081793  1
  Cs  Cs10  1  0.33287555  -0.00057690  0.33377080  1
  Cs  Cs11  1  0.33327462  0.00003512  0.66612768  1
  Cs  Cs12  1  0.33053354  0.33330557  -0.00130594  1
  Cs  Cs13  1  0.33530824  0.33450141  0.33568561  1
  Cs  Cs14  1  0.33386437  0.33324286  0.66574025  1
  Cs  Cs15  1  0.33421138  0.66692272  0.00090584  1
  Cs  Cs16  1  0.33382186  0.66702862  0.33333622  1
  Cs  Cs17  1  0.33500500  0.66707641  0.66543858  1
  Cs  Cs18  1  0.66692513  0.00069575  -0.00013376  1
  Cs  Cs19  1  0.66725280  0.00074681  0.33257721  1
  Cs  Cs20  1  0.66720707  -0.00096400  0.66784155  1
  Cs  Cs21  1  0.66565943  0.33163730  0.00131169  1
  Cs  Cs22  1  0.66616476  0.33230689  0.33212961  1
  Cs  Cs23  1  0.66520587  0.33219276  0.66634191  1
  Cs  Cs24  1  0.66605000  0.66764773  -0.00279394  1
  Cs  Cs25  1  0.66735127  0.66668739  0.33492941  1
  Cs  Cs26  1  0.67217208  0.67209713  0.66878700  1
  Sn  Sn27  1  0.49981529  0.50077257  0.16682014  1
  Sn  Sn28  1  0.83315074  0.16690281  0.83334939  1
  Sn  Sn29  1  0.49964163  0.49974887  0.50056640  1
  Sn  Sn30  1  0.16699430  0.50012122  0.50015564  1
  Sn  Sn31  1  0.16678971  0.83308703  0.83296368  1
  Sn  Sn32  1  0.16682840  0.83284032  0.50054565  1
  Sn  Sn33  1  0.16650609  0.16722193  0.49988251  1
  Sn  Sn34  1  0.50056527  0.16726581  0.83248359  1
  Sn  Sn35  1  0.16648996  0.83318617  0.16646530  1
  Sn  Sn36  1  0.83308940  0.16661656  0.50055344  1
  Sn  Sn37  1  0.50018860  0.16707648  0.50084311  1
  Sn  Sn38  1  0.83330236  0.83341475  0.16664228  1
  Sn  Sn39  1  0.50026368  0.83272297  0.16691421  1
  Sn  Sn40  1  0.49999011  0.49945197  0.83267164  1
  Pb  Pb41  1  0.49982225  0.16695414  0.16650757  1
  Pb  Pb42  1  0.16670084  0.16509785  0.16939484  1
  Pb  Pb43  1  0.49864697  0.83344698  0.49832370  1
  Pb  Pb44  1  0.83591279  0.83577196  0.83552562  1
  Pb  Pb45  1  0.49856224  0.83386688  0.83535116  1
  Pb  Pb46  1  0.83276523  0.49749365  0.50009362  1
  Pb  Pb47  1  0.16697446  0.16544718  0.83152845  1
  Pb  Pb48  1  0.83346585  0.16525024  0.16610664  1
  Pb  Pb49  1  0.83043838  0.50249887  0.16661018  1
  Pb  Pb50  1  0.16888160  0.50228365  0.16896748  1
  Pb  Pb51  1  0.83061768  0.49700715  0.83335882  1
  Pb  Pb52  1  0.16891941  0.50232286  0.83071867  1
  Pb  Pb53  1  0.83603068  0.83573141  0.49846417  1
  I  I54  1  0.17022077  -0.00410379  0.16908056  1
  I  I55  1  0.16713736  0.00001869  0.49891784  1
  I  I56  1  0.16915786  -0.00283084  0.83193623  1
  I  I57  1  0.16798370  0.33389881  0.16727024  1
  I  I58  1  0.16909242  0.33289325  0.50103462  1
  I  I59  1  0.16515919  0.33350681  0.83209809  1
  I  I60  1  0.16567389  0.67082506  0.16951548  1
  I  I61  1  0.17355439  0.66686742  0.49832815  1
  I  I62  1  0.16931270  0.67042246  0.83268483  1
  I  I63  1  0.49893596  -0.00293445  0.16727354  1
  I  I64  1  0.49870793  0.00309884  0.50266407  1
  I  I65  1  0.50183140  0.00305802  0.82946863  1
  I  I66  1  0.50021652  0.33631283  0.16783584  1
  I  I67  1  0.49545014  0.33305574  0.49832334  1
  I  I68  1  0.50304881  0.33292622  0.83421513  1
  I  I69  1  0.49877291  0.66674420  0.16728198  1
  I  I70  1  0.49427847  0.66378337  0.50084275  1
  I  I71  1  0.49636525  0.66411478  0.83146617  1
  I  I72  1  0.83114052  -0.00320711  0.16787149  1
  I  I73  1  0.83173663  0.00397964  0.50249885  1
  I  I74  1  0.82606359  0.00347166  0.82875934  1
  I  I75  1  0.83124492  0.33343582  0.16757934  1
  I  I76  1  0.83735511  0.32912454  0.50269627  1
  I  I77  1  0.83263677  0.32889728  0.82825005  1
  I  I78  1  0.83693077  0.67074798  0.16760784  1
  I  I79  1  0.83330247  0.66684183  0.49822353  1
  I  I80  1  0.83264016  0.66687251  0.83448453  1
  I  I81  1  0.16694964  0.16283038  -0.00024161  1
  I  I82  1  0.16820489  0.16399926  0.33832007  1
  I  I83  1  0.16756426  0.16309716  0.66287693  1
  I  I84  1  0.16829337  0.50194821  -0.00004222  1
  I  I85  1  0.17273999  0.50071810  0.33722718  1
  I  I86  1  0.17316114  0.50145805  0.66248239  1
  I  I87  1  0.16789744  0.83514419  0.00083123  1
  I  I88  1  0.16743339  0.83454037  0.33361377  1
  I  I89  1  0.16883010  0.83499436  0.66548807  1
  I  I90  1  0.50518686  0.16825055  -0.00309592  1
  I  I91  1  0.49969484  0.16862902  0.33669788  1
  I  I92  1  0.49977248  0.17313043  0.66567884  1
  I  I93  1  0.50159697  0.50074792  -0.00012062  1
  I  I94  1  0.49580428  0.50001654  0.33428816  1
  I  I95  1  0.49456982  0.49377034  0.66583078  1
  I  I96  1  0.49688956  0.83028951  0.00357111  1
  I  I97  1  0.49720779  0.83073456  0.33004940  1
  I  I98  1  0.49710539  0.83139934  0.66666039  1
  I  I99  1  0.82575383  0.16338733  -0.00318051  1
  I  I100  1  0.83272042  0.16496864  0.33650723  1
  I  I101  1  0.83226421  0.16544809  0.66567025  1
  I  I102  1  0.83240828  0.49788841  -0.00002202  1
  I  I103  1  0.83141456  0.49766253  0.33347863  1
  I  I104  1  0.83229105  0.50407218  0.66658045  1
  I  I105  1  0.83421056  0.83623262  0.00345184  1
  I  I106  1  0.83442409  0.83597017  0.33040585  1
  I  I107  1  0.83476747  0.83267392  0.66677426  1
  I  I108  1  0.00005853  0.16310944  0.16711415  1
  I  I109  1  0.00053055  0.16406204  0.50341418  1
  I  I110  1  -0.00217273  0.16122258  0.82787992  1
  I  I111  1  0.00025747  0.50083900  0.16833503  1
  I  I112  1  0.00308024  0.50059592  0.49903696  1
  I  I113  1  0.00025619  0.50012683  0.83258524  1
  I  I114  1  0.00116520  0.83734058  0.16835857  1
  I  I115  1  0.00460378  0.83316305  0.49735043  1
  I  I116  1  0.00389549  0.83585915  0.83360630  1
  I  I117  1  0.33356796  0.16248840  0.16623671  1
  I  I118  1  0.33375791  0.16664379  0.50296101  1
  I  I119  1  0.33641638  0.16865765  0.82959486  1
  I  I120  1  0.33711924  0.50566036  0.16578938  1
  I  I121  1  0.33415167  0.49587862  0.49920349  1
  I  I122  1  0.33723114  0.49361887  0.83554342  1
  I  I123  1  0.33304476  0.82995817  0.16756395  1
  I  I124  1  0.33012419  0.83775234  0.49723587  1
  I  I125  1  0.33055918  0.83575364  0.83472171  1
  I  I126  1  0.66638264  0.16284515  0.17147491  1
  I  I127  1  0.66548650  0.17108632  0.50276503  1
  I  I128  1  0.66539845  0.16880493  0.82552366  1
  I  I129  1  0.66196679  0.50505978  0.17027190  1
  I  I130  1  0.66272679  0.49526338  0.49873742  1
  I  I131  1  0.66197991  0.50070929  0.83056747  1
  I  I132  1  0.66575634  0.83012720  0.16684687  1
  I  I133  1  0.66677657  0.83351403  0.49718326  1
  I  I134  1  0.66663464  0.83199038  0.83581687  1
