# generated using pymatgen
data_Cs27Sn13Pb14I81
_symmetry_space_group_name_H-M   'P 1'
_cell_length_a   18.96913254
_cell_length_b   18.98346463
_cell_length_c   18.97822105
_cell_angle_alpha   90.00117182
_cell_angle_beta   89.99973399
_cell_angle_gamma   89.99901638
_symmetry_Int_Tables_number   1
_chemical_formula_structural   Cs27Sn13Pb14I81
_chemical_formula_sum   'Cs27 Sn13 Pb14 I81'
_cell_volume   6834.05467757
_cell_formula_units_Z   1
loop_
 _symmetry_equiv_pos_site_id
 _symmetry_equiv_pos_as_xyz
  1  'x, y, z'
loop_
 _atom_site_type_symbol
 _atom_site_label
 _atom_site_symmetry_multiplicity
 _atom_site_fract_x
 _atom_site_fract_y
 _atom_site_fract_z
 _atom_site_occupancy
  Cs  Cs0  1  0.00000011  0.00098354  -0.00057376  1
  Cs  Cs1  1  -0.00173921  -0.00043025  0.33842321  1
  Cs  Cs2  1  -0.00116130  -0.00007990  0.65891734  1
  Cs  Cs3  1  0.00089161  0.33284167  0.00088505  1
  Cs  Cs4  1  0.00274819  0.33257101  0.33102415  1
  Cs  Cs5  1  -0.00719339  0.33081808  0.66571612  1
  Cs  Cs6  1  0.00358840  0.66647112  0.00181408  1
  Cs  Cs7  1  -0.00238684  0.66747895  0.33158142  1
  Cs  Cs8  1  0.00027150  0.67014169  0.66401529  1
  Cs  Cs9  1  0.33426962  0.00150612  -0.00212889  1
  Cs  Cs10  1  0.33596954  0.00268699  0.33629626  1
  Cs  Cs11  1  0.33412814  -0.00114771  0.66678613  1
  Cs  Cs12  1  0.33246477  0.33222329  0.00080914  1
  Cs  Cs13  1  0.33272728  0.33344178  0.33207570  1
  Cs  Cs14  1  0.33419318  0.33202601  0.66665609  1
  Cs  Cs15  1  0.33079444  0.66529441  -0.00088683  1
  Cs  Cs16  1  0.33421622  0.66232143  0.33177133  1
  Cs  Cs17  1  0.33391512  0.66948212  0.66795751  1
  Cs  Cs18  1  0.66598137  -0.00183255  -0.00025164  1
  Cs  Cs19  1  0.66460649  -0.00570615  0.33128628  1
  Cs  Cs20  1  0.66391878  0.00128457  0.66896055  1
  Cs  Cs21  1  0.66830386  0.33393502  -0.00253529  1
  Cs  Cs22  1  0.66373275  0.33691172  0.33342451  1
  Cs  Cs23  1  0.67343456  0.33879787  0.66773811  1
  Cs  Cs24  1  0.66505575  0.66941744  -0.00055834  1
  Cs  Cs25  1  0.66826639  0.66963977  0.33482452  1
  Cs  Cs26  1  0.66598281  0.65973173  0.66673368  1
  Sn  Sn27  1  0.50013460  0.16646337  0.50113301  1
  Sn  Sn28  1  0.16690038  0.16725095  0.83349724  1
  Sn  Sn29  1  0.16656211  0.49972369  0.50043862  1
  Sn  Sn30  1  0.83393513  0.49926062  0.16625252  1
  Sn  Sn31  1  0.16661729  0.49880915  0.83267822  1
  Sn  Sn32  1  0.83392618  0.16715902  0.16664206  1
  Sn  Sn33  1  0.49970804  0.83376099  0.50085505  1
  Sn  Sn34  1  0.16702868  0.83412026  0.16696305  1
  Sn  Sn35  1  0.50085952  0.83396585  0.83256648  1
  Sn  Sn36  1  0.16589339  0.16606432  0.16612839  1
  Sn  Sn37  1  0.49951993  0.16636850  0.83235072  1
  Sn  Sn38  1  0.16606487  0.49985809  0.16654618  1
  Sn  Sn39  1  0.83291545  0.83352766  0.83324702  1
  Pb  Pb40  1  0.49798964  0.49964963  0.83341479  1
  Pb  Pb41  1  0.83618250  0.49992650  0.49723107  1
  Pb  Pb42  1  0.50027702  0.49998660  0.16642941  1
  Pb  Pb43  1  0.83552094  0.83352132  0.16506212  1
  Pb  Pb44  1  0.83041956  0.83338519  0.50287085  1
  Pb  Pb45  1  0.16896573  0.83124270  0.49721316  1
  Pb  Pb46  1  0.16695644  0.83410599  0.83441378  1
  Pb  Pb47  1  0.49818083  0.49985380  0.50020676  1
  Pb  Pb48  1  0.49751472  0.83333209  0.16617691  1
  Pb  Pb49  1  0.83641397  0.50236409  0.83562617  1
  Pb  Pb50  1  0.82989154  0.16663722  0.49677257  1
  Pb  Pb51  1  0.83353725  0.16513211  0.83502180  1
  Pb  Pb52  1  0.16814692  0.16836650  0.50023312  1
  Pb  Pb53  1  0.50015483  0.16677682  0.16615216  1
  I  I54  1  0.16391419  0.00144191  0.16025014  1
  I  I55  1  0.16653011  0.00004984  0.49918388  1
  I  I56  1  0.16866729  0.00296103  0.84011515  1
  I  I57  1  0.16331743  0.33333344  0.16585589  1
  I  I58  1  0.17055227  0.33617591  0.49451540  1
  I  I59  1  0.17288810  0.33261634  0.83937342  1
  I  I60  1  0.16413117  0.66529698  0.16574484  1
  I  I61  1  0.16935118  0.66325655  0.50034366  1
  I  I62  1  0.16677014  0.66449942  0.83622433  1
  I  I63  1  0.49926033  0.00014000  0.16732580  1
  I  I64  1  0.49765066  0.00015217  0.50361632  1
  I  I65  1  0.49686839  0.00040987  0.83013579  1
  I  I66  1  0.49555836  0.33302991  0.16776320  1
  I  I67  1  0.49767700  0.33030420  0.50274574  1
  I  I68  1  0.49657233  0.32985058  0.83054423  1
  I  I69  1  0.49840014  0.66689001  0.16694061  1
  I  I70  1  0.49768588  0.66956789  0.50411478  1
  I  I71  1  0.50184293  0.66978166  0.82973168  1
  I  I72  1  0.83792699  0.00264768  0.16473276  1
  I  I73  1  0.83785306  -0.00001276  0.49642165  1
  I  I74  1  0.83374318  -0.00252080  0.83799029  1
  I  I75  1  0.84218217  0.33328095  0.16582853  1
  I  I76  1  0.82984178  0.33329634  0.50332501  1
  I  I77  1  0.83056724  0.33339119  0.83324890  1
  I  I78  1  0.83936802  0.66421060  0.16516646  1
  I  I79  1  0.83144618  0.66667962  0.49715324  1
  I  I80  1  0.82772867  0.66992857  0.83621595  1
  I  I81  1  0.16942072  0.17080498  0.00030671  1
  I  I82  1  0.16539404  0.16813236  0.33023833  1
  I  I83  1  0.16991484  0.17069766  0.66980286  1
  I  I84  1  0.16396013  0.49995727  0.00084266  1
  I  I85  1  0.16438277  0.50034779  0.33174476  1
  I  I86  1  0.17032928  0.49632791  0.66758058  1
  I  I87  1  0.16846508  0.82867391  0.00245219  1
  I  I88  1  0.16739935  0.83366626  0.32914466  1
  I  I89  1  0.16495100  0.83177001  0.66660896  1
  I  I90  1  0.49750053  0.16192218  -0.00321629  1
  I  I91  1  0.49941798  0.16249767  0.33574386  1
  I  I92  1  0.49223664  0.16127606  0.66799912  1
  I  I93  1  0.49633635  0.50068409  -0.00022878  1
  I  I94  1  0.49628107  0.49967093  0.33340785  1
  I  I95  1  0.49654348  0.50062479  0.66687346  1
  I  I96  1  0.50240190  0.83794115  -0.00341437  1
  I  I97  1  0.49684530  0.83779975  0.33596451  1
  I  I98  1  0.50179509  0.83816540  0.66771032  1
  I  I99  1  0.83393558  0.16981162  0.00310683  1
  I  I100  1  0.84056053  0.16965651  0.32871864  1
  I  I101  1  0.83645147  0.16459928  0.66678433  1
  I  I102  1  0.84017558  0.49640155  0.00348363  1
  I  I103  1  0.83930817  0.49741268  0.32905704  1
  I  I104  1  0.83487104  0.50146001  0.66694117  1
  I  I105  1  0.82643014  0.83345071  -0.00255802  1
  I  I106  1  0.83241282  0.83239031  0.33317253  1
  I  I107  1  0.83539241  0.83430699  0.67079560  1
  I  I108  1  0.00203792  0.16828957  0.16055194  1
  I  I109  1  0.00002896  0.16805386  0.50223960  1
  I  I110  1  0.00320772  0.16934448  0.83753132  1
  I  I111  1  0.00212962  0.49941529  0.16639468  1
  I  I112  1  0.00445107  0.49970095  0.50168921  1
  I  I113  1  0.00465354  0.49559540  0.83319794  1
  I  I114  1  0.00355131  0.83186386  0.16306136  1
  I  I115  1  0.00020556  0.83186066  0.50103432  1
  I  I116  1  -0.00148876  0.83185786  0.83865463  1
  I  I117  1  0.33000516  0.16821011  0.16557586  1
  I  I118  1  0.33613237  0.16353395  0.49900572  1
  I  I119  1  0.33286825  0.16473457  0.83626235  1
  I  I120  1  0.32913946  0.49930003  0.16684691  1
  I  I121  1  0.32993282  0.50014661  0.49534604  1
  I  I122  1  0.32934513  0.50157781  0.83787117  1
  I  I123  1  0.32934080  0.83213890  0.16409705  1
  I  I124  1  0.33664256  0.83693349  0.50705300  1
  I  I125  1  0.33592937  0.83416985  0.83116965  1
  I  I126  1  0.66954162  0.17166195  0.16668723  1
  I  I127  1  0.66185567  0.16307719  0.50534657  1
  I  I128  1  0.66379090  0.16303185  0.83227029  1
  I  I129  1  0.67023941  0.49462918  0.16646239  1
  I  I130  1  0.66672992  0.50054924  0.49732891  1
  I  I131  1  0.66703235  0.49839434  0.83546203  1
  I  I132  1  0.66668824  0.83284479  0.16806378  1
  I  I133  1  0.66227709  0.83707645  0.49807631  1
  I  I134  1  0.66512588  0.83947606  0.83216397  1
