# generated using pymatgen
data_Cs27Sn13Pb14I81
_symmetry_space_group_name_H-M   'P 1'
_cell_length_a   19.00724793
_cell_length_b   19.00585956
_cell_length_c   19.00679300
_cell_angle_alpha   90.00014525
_cell_angle_beta   89.99966337
_cell_angle_gamma   90.00207250
_symmetry_Int_Tables_number   1
_chemical_formula_structural   Cs27Sn13Pb14I81
_chemical_formula_sum   'Cs27 Sn13 Pb14 I81'
_cell_volume   6866.18656959
_cell_formula_units_Z   1
loop_
 _symmetry_equiv_pos_site_id
 _symmetry_equiv_pos_as_xyz
  1  'x, y, z'
loop_
 _atom_site_type_symbol
 _atom_site_label
 _atom_site_symmetry_multiplicity
 _atom_site_fract_x
 _atom_site_fract_y
 _atom_site_fract_z
 _atom_site_occupancy
  Cs  Cs0  1  0.00009443  -0.00204021  -0.00464883  1
  Cs  Cs1  1  -0.00121526  0.00099905  0.33290099  1
  Cs  Cs2  1  0.00260687  0.00055254  0.67192233  1
  Cs  Cs3  1  0.00120665  0.33626626  -0.00603348  1
  Cs  Cs4  1  -0.00222546  0.33170930  0.33253149  1
  Cs  Cs5  1  -0.00195077  0.33303051  0.67733047  1
  Cs  Cs6  1  0.00012817  0.66350165  -0.00801407  1
  Cs  Cs7  1  0.00033893  0.66495495  0.33334851  1
  Cs  Cs8  1  0.00772582  0.66677975  0.67372746  1
  Cs  Cs9  1  0.33397229  -0.00117130  0.00034379  1
  Cs  Cs10  1  0.33096821  0.00201305  0.33163773  1
  Cs  Cs11  1  0.33011694  -0.00656374  0.66843932  1
  Cs  Cs12  1  0.33678551  0.33327756  0.00239725  1
  Cs  Cs13  1  0.33323590  0.33300284  0.33160152  1
  Cs  Cs14  1  0.33750321  0.33422691  0.66696929  1
  Cs  Cs15  1  0.33321681  0.66598730  -0.00096868  1
  Cs  Cs16  1  0.32937757  0.66621812  0.34376628  1
  Cs  Cs17  1  0.32679210  0.67720249  0.65499848  1
  Cs  Cs18  1  0.66697507  -0.00892040  0.00158497  1
  Cs  Cs19  1  0.66950531  0.00139341  0.33175928  1
  Cs  Cs20  1  0.66728502  0.00032775  0.66733225  1
  Cs  Cs21  1  0.66263846  0.33394128  0.00057016  1
  Cs  Cs22  1  0.66755330  0.33249706  0.33356038  1
  Cs  Cs23  1  0.66600144  0.33396844  0.66714348  1
  Cs  Cs24  1  0.66747356  0.67418938  -0.00024579  1
  Cs  Cs25  1  0.66787335  0.66754244  0.33372007  1
  Cs  Cs26  1  0.66445772  0.66662781  0.66620669  1
  Sn  Sn27  1  0.83345048  0.83331068  0.49992231  1
  Sn  Sn28  1  0.83342245  0.16754464  0.16673910  1
  Sn  Sn29  1  0.83234598  0.49902272  0.16728851  1
  Sn  Sn30  1  0.16606564  0.16593126  0.16725674  1
  Sn  Sn31  1  0.16633369  0.83377616  0.16695078  1
  Sn  Sn32  1  0.16621499  0.16749814  0.49934129  1
  Sn  Sn33  1  0.83354808  0.49957837  0.49948600  1
  Sn  Sn34  1  0.49993210  0.16666040  0.49984807  1
  Sn  Sn35  1  0.83380400  0.16705349  0.49953003  1
  Sn  Sn36  1  0.50036517  0.16713737  0.83369786  1
  Sn  Sn37  1  0.50098555  0.49964944  0.16639370  1
  Sn  Sn38  1  0.49982376  0.49967226  0.83385413  1
  Sn  Sn39  1  0.50051476  0.16700147  0.16667392  1
  Pb  Pb40  1  0.83045052  0.16662557  0.83418840  1
  Pb  Pb41  1  0.16327460  0.49648566  0.49975496  1
  Pb  Pb42  1  0.16686430  0.83360571  0.83662672  1
  Pb  Pb43  1  0.49781559  0.83254241  0.16712762  1
  Pb  Pb44  1  0.17106085  0.49968466  0.83317742  1
  Pb  Pb45  1  0.83322184  0.83327356  0.82994548  1
  Pb  Pb46  1  0.16980086  0.16697349  0.83382702  1
  Pb  Pb47  1  0.16660642  0.49928915  0.16675537  1
  Pb  Pb48  1  0.83552502  0.83291678  0.16807159  1
  Pb  Pb49  1  0.16364592  0.83629636  0.49773857  1
  Pb  Pb50  1  0.50176612  0.49807384  0.49939578  1
  Pb  Pb51  1  0.50240223  0.83658065  0.49948996  1
  Pb  Pb52  1  0.83065411  0.49979241  0.83389236  1
  Pb  Pb53  1  0.49996530  0.83270105  0.83329039  1
  I  I54  1  0.16739368  0.00282551  0.17162903  1
  I  I55  1  0.16607224  0.00420354  0.49782255  1
  I  I56  1  0.16961971  0.00051766  0.83013698  1
  I  I57  1  0.16779214  0.32960933  0.17128359  1
  I  I58  1  0.16692108  0.32854083  0.49050748  1
  I  I59  1  0.16220562  0.33299656  0.83521510  1
  I  I60  1  0.16632607  0.66889797  0.16537828  1
  I  I61  1  0.16666020  0.66679482  0.49921634  1
  I  I62  1  0.16765217  0.66676332  0.83532819  1
  I  I63  1  0.50339571  0.00380630  0.16639369  1
  I  I64  1  0.50219158  0.00549097  0.49928192  1
  I  I65  1  0.50001739  0.00338471  0.83363171  1
  I  I66  1  0.49857016  0.33146916  0.16628423  1
  I  I67  1  0.50216183  0.32942340  0.49959998  1
  I  I68  1  0.50068821  0.33213597  0.83456989  1
  I  I69  1  0.50487526  0.66291792  0.15940433  1
  I  I70  1  0.50167767  0.66655166  0.50099921  1
  I  I71  1  0.50290380  0.66294704  0.84208018  1
  I  I72  1  0.82951151  0.00339739  0.17126049  1
  I  I73  1  0.83211013  0.00232130  0.49506601  1
  I  I74  1  0.82971630  0.00025265  0.83423923  1
  I  I75  1  0.83365568  0.33207915  0.17560873  1
  I  I76  1  0.83227182  0.33189372  0.49462234  1
  I  I77  1  0.83619057  0.33313011  0.82743359  1
  I  I78  1  0.82919392  0.66341832  0.17162784  1
  I  I79  1  0.83068738  0.66584734  0.49357252  1
  I  I80  1  0.82972818  0.66643995  0.83506610  1
  I  I81  1  0.16599866  0.16274686  0.00372386  1
  I  I82  1  0.17099288  0.16288500  0.33257111  1
  I  I83  1  0.16462062  0.16748152  0.66357962  1
  I  I84  1  0.15986894  0.49882790  0.00029069  1
  I  I85  1  0.17370909  0.50340009  0.33318490  1
  I  I86  1  0.16538650  0.49857245  0.66638297  1
  I  I87  1  0.16567520  0.84288798  0.00430869  1
  I  I88  1  0.16777469  0.83624925  0.33048058  1
  I  I89  1  0.16609448  0.83376142  0.66627508  1
  I  I90  1  0.49889073  0.17155211  0.00144361  1
  I  I91  1  0.50015822  0.16997250  0.33268094  1
  I  I92  1  0.50146670  0.17140252  0.66612667  1
  I  I93  1  0.50559946  0.48881665  0.00150156  1
  I  I94  1  0.50186999  0.49484019  0.33013043  1
  I  I95  1  0.50302021  0.49249117  0.66861215  1
  I  I96  1  0.50012201  0.83918374  0.00031600  1
  I  I97  1  0.49935748  0.83231651  0.33332800  1
  I  I98  1  0.50045652  0.83316588  0.66639906  1
  I  I99  1  0.83510886  0.17221157  0.00394511  1
  I  I100  1  0.82899834  0.16678572  0.33354977  1
  I  I101  1  0.83379052  0.16684818  0.66317948  1
  I  I102  1  0.83318910  0.49362493  0.00369490  1
  I  I103  1  0.82658690  0.49816313  0.33264812  1
  I  I104  1  0.83203314  0.49777376  0.66359086  1
  I  I105  1  0.83467812  0.83374094  0.00027122  1
  I  I106  1  0.83346115  0.83548006  0.33590478  1
  I  I107  1  0.83251030  0.83627550  0.66158706  1
  I  I108  1  -0.00062667  0.16644482  0.17616977  1
  I  I109  1  -0.00103170  0.16603560  0.49045856  1
  I  I110  1  0.00004144  0.16501684  0.83247077  1
  I  I111  1  -0.00327578  0.49650028  0.17314719  1
  I  I112  1  -0.00495287  0.49835449  0.49047048  1
  I  I113  1  -0.00005586  0.50205263  0.83353795  1
  I  I114  1  0.00275733  0.84033080  0.16979095  1
  I  I115  1  -0.00362286  0.83579978  0.49730821  1
  I  I116  1  0.00013326  0.83340503  0.83327325  1
  I  I117  1  0.33412231  0.16654637  0.16955102  1
  I  I118  1  0.33370471  0.16730727  0.49604304  1
  I  I119  1  0.33758363  0.17176783  0.83358629  1
  I  I120  1  0.33648440  0.49522683  0.16041103  1
  I  I121  1  0.33335619  0.49935592  0.50017652  1
  I  I122  1  0.33883759  0.49189658  0.84330449  1
  I  I123  1  0.33033674  0.84060052  0.16645439  1
  I  I124  1  0.33282740  0.83304413  0.50090923  1
  I  I125  1  0.33337029  0.83374424  0.83182138  1
  I  I126  1  0.66658110  0.17162875  0.17023757  1
  I  I127  1  0.66727829  0.16656571  0.49750606  1
  I  I128  1  0.66278766  0.17164304  0.83174696  1
  I  I129  1  0.66670713  0.49073024  0.16736213  1
  I  I130  1  0.66983826  0.49661369  0.49893666  1
  I  I131  1  0.66330789  0.49270801  0.83411386  1
  I  I132  1  0.66692686  0.83621834  0.16677694  1
  I  I133  1  0.67016644  0.83601429  0.49800455  1
  I  I134  1  0.66650657  0.83474193  0.83531853  1
