# generated using pymatgen
data_Cs27Sn13Pb14I81
_symmetry_space_group_name_H-M   'P 1'
_cell_length_a   18.97230404
_cell_length_b   18.98120637
_cell_length_c   18.97601563
_cell_angle_alpha   90.00004313
_cell_angle_beta   90.00007245
_cell_angle_gamma   90.00027558
_symmetry_Int_Tables_number   1
_chemical_formula_structural   Cs27Sn13Pb14I81
_chemical_formula_sum   'Cs27 Sn13 Pb14 I81'
_cell_volume   6833.58996287
_cell_formula_units_Z   1
loop_
 _symmetry_equiv_pos_site_id
 _symmetry_equiv_pos_as_xyz
  1  'x, y, z'
loop_
 _atom_site_type_symbol
 _atom_site_label
 _atom_site_symmetry_multiplicity
 _atom_site_fract_x
 _atom_site_fract_y
 _atom_site_fract_z
 _atom_site_occupancy
  Cs  Cs0  1  -0.00444088  0.00362122  0.00106932  1
  Cs  Cs1  1  -0.00440377  -0.00294060  0.33198559  1
  Cs  Cs2  1  0.00020039  0.00098744  0.66721309  1
  Cs  Cs3  1  -0.00003591  0.33506969  -0.00282306  1
  Cs  Cs4  1  0.00288615  0.33405630  0.33396867  1
  Cs  Cs5  1  -0.00017534  0.33183771  0.66865396  1
  Cs  Cs6  1  -0.00206583  0.66379068  0.00003276  1
  Cs  Cs7  1  -0.00020711  0.66821536  0.33350267  1
  Cs  Cs8  1  0.00203854  0.66820479  0.66618643  1
  Cs  Cs9  1  0.33435449  -0.00006038  0.00127502  1
  Cs  Cs10  1  0.33227931  0.00322406  0.33140922  1
  Cs  Cs11  1  0.33358764  -0.00635329  0.66669762  1
  Cs  Cs12  1  0.33350235  0.33351927  0.00142811  1
  Cs  Cs13  1  0.33382850  0.33219746  0.33207949  1
  Cs  Cs14  1  0.33145861  0.33134256  0.66656365  1
  Cs  Cs15  1  0.33335082  0.66745392  0.00026130  1
  Cs  Cs16  1  0.33404607  0.66539283  0.33279536  1
  Cs  Cs17  1  0.33254566  0.67844117  0.66832425  1
  Cs  Cs18  1  0.66757669  -0.00049960  0.00090560  1
  Cs  Cs19  1  0.67483974  -0.00042246  0.33098044  1
  Cs  Cs20  1  0.66493337  -0.00078853  0.66581085  1
  Cs  Cs21  1  0.66550191  0.33472244  -0.00091287  1
  Cs  Cs22  1  0.66531664  0.33616873  0.33816015  1
  Cs  Cs23  1  0.66875936  0.33354722  0.66608913  1
  Cs  Cs24  1  0.66824809  0.66493969  -0.00092944  1
  Cs  Cs25  1  0.66701727  0.66341535  0.34140616  1
  Cs  Cs26  1  0.66539464  0.66734735  0.66395464  1
  Sn  Sn27  1  0.49922633  0.16660705  0.49960069  1
  Sn  Sn28  1  0.49974039  0.16744812  0.83339870  1
  Sn  Sn29  1  0.83372359  0.49964371  0.16646394  1
  Sn  Sn30  1  0.49965534  0.16596187  0.16696322  1
  Sn  Sn31  1  0.16718360  0.83353296  0.16646126  1
  Sn  Sn32  1  0.16763130  0.16746910  0.49906326  1
  Sn  Sn33  1  0.83329485  0.83256218  0.83352952  1
  Sn  Sn34  1  0.50014860  0.49965963  0.83317997  1
  Sn  Sn35  1  0.83235817  0.50093376  0.83397429  1
  Sn  Sn36  1  0.16728107  0.49950387  0.49951273  1
  Sn  Sn37  1  0.49988973  0.83371946  0.16680498  1
  Sn  Sn38  1  0.16591267  0.49989426  0.16724749  1
  Sn  Sn39  1  0.16712030  0.16658182  0.16722653  1
  Pb  Pb40  1  0.83063379  0.16720503  0.83339421  1
  Pb  Pb41  1  0.83297781  0.83072046  0.16549259  1
  Pb  Pb42  1  0.16693614  0.50005366  0.83305492  1
  Pb  Pb43  1  0.83599299  0.49985994  0.50066973  1
  Pb  Pb44  1  0.16392501  0.83356833  0.83651908  1
  Pb  Pb45  1  0.16919566  0.16648621  0.83342169  1
  Pb  Pb46  1  0.49993348  0.83644482  0.49648792  1
  Pb  Pb47  1  0.16674040  0.83406427  0.49728537  1
  Pb  Pb48  1  0.50162505  0.83336266  0.83550523  1
  Pb  Pb49  1  0.49976988  0.49982846  0.16556617  1
  Pb  Pb50  1  0.83335757  0.83320544  0.50316990  1
  Pb  Pb51  1  0.83400367  0.16678421  0.49983089  1
  Pb  Pb52  1  0.83326756  0.16969343  0.16674714  1
  Pb  Pb53  1  0.49694775  0.49820933  0.50333221  1
  I  I54  1  0.17212491  0.00093407  0.16946068  1
  I  I55  1  0.17118488  0.00375879  0.49685937  1
  I  I56  1  0.16583620  0.00006947  0.83256639  1
  I  I57  1  0.16733263  0.33311609  0.17016473  1
  I  I58  1  0.16983310  0.33273694  0.49151340  1
  I  I59  1  0.16294089  0.33338340  0.83764031  1
  I  I60  1  0.16682360  0.66597251  0.16932653  1
  I  I61  1  0.16451918  0.66401745  0.49625627  1
  I  I62  1  0.17186741  0.66655684  0.83298797  1
  I  I63  1  0.49215194  0.00140093  0.16411994  1
  I  I64  1  0.49239738  0.00478589  0.50691000  1
  I  I65  1  0.50091493  0.00293558  0.83231024  1
  I  I66  1  0.49697797  0.33034809  0.16697831  1
  I  I67  1  0.49832772  0.32986734  0.49395885  1
  I  I68  1  0.50516682  0.33294050  0.83655816  1
  I  I69  1  0.49637449  0.66854809  0.16198236  1
  I  I70  1  0.49948737  0.66666140  0.50040468  1
  I  I71  1  0.50186621  0.66416159  0.83673897  1
  I  I72  1  0.83544515  -0.00009820  0.16446158  1
  I  I73  1  0.83530133  0.00009624  0.50136430  1
  I  I74  1  0.83296200  -0.00236713  0.83424797  1
  I  I75  1  0.83718574  0.33746273  0.15958659  1
  I  I76  1  0.83133972  0.33350094  0.50212787  1
  I  I77  1  0.83161496  0.33670138  0.83708656  1
  I  I78  1  0.83760038  0.66301502  0.16328834  1
  I  I79  1  0.83485401  0.66621317  0.49700382  1
  I  I80  1  0.82786195  0.66490598  0.83896828  1
  I  I81  1  0.17038682  0.16782147  0.00370671  1
  I  I82  1  0.17488470  0.16880999  0.33203861  1
  I  I83  1  0.16958795  0.17322855  0.66336663  1
  I  I84  1  0.16550277  0.49879053  0.00326225  1
  I  I85  1  0.16162042  0.49895308  0.33143775  1
  I  I86  1  0.16633782  0.49292340  0.66380558  1
  I  I87  1  0.17132272  0.83274145  0.00480021  1
  I  I88  1  0.16956983  0.83275360  0.32896168  1
  I  I89  1  0.16504318  0.83263401  0.66663182  1
  I  I90  1  0.49655026  0.16686651  0.00091100  1
  I  I91  1  0.49462150  0.16264486  0.33243699  1
  I  I92  1  0.49732960  0.17276727  0.66668338  1
  I  I93  1  0.49971947  0.49443690  -0.00233286  1
  I  I94  1  0.50331110  0.50006962  0.33346033  1
  I  I95  1  0.50595364  0.49441475  0.67105744  1
  I  I96  1  0.49608221  0.83917979  0.00325169  1
  I  I97  1  0.49589582  0.83610140  0.32842645  1
  I  I98  1  0.50191617  0.83397803  0.66675164  1
  I  I99  1  0.83404017  0.16574421  0.00010694  1
  I  I100  1  0.82815919  0.16774528  0.33301670  1
  I  I101  1  0.83428680  0.16810381  0.66683174  1
  I  I102  1  0.83586012  0.50277092  -0.00018607  1
  I  I103  1  0.83530107  0.49931690  0.33060876  1
  I  I104  1  0.82995233  0.50332324  0.67015211  1
  I  I105  1  0.83339140  0.83034192  -0.00231881  1
  I  I106  1  0.83341504  0.83278932  0.33293301  1
  I  I107  1  0.83177488  0.82626762  0.67125322  1
  I  I108  1  0.00356917  0.16366073  0.17152924  1
  I  I109  1  0.00417648  0.17045114  0.49479803  1
  I  I110  1  -0.00000861  0.16701239  0.83334751  1
  I  I111  1  0.00126003  0.50001560  0.16399090  1
  I  I112  1  0.00395133  0.49294088  0.49966122  1
  I  I113  1  -0.00270804  0.50405555  0.83532162  1
  I  I114  1  0.00289105  0.83592671  0.16552134  1
  I  I115  1  0.00036440  0.83562610  0.49784428  1
  I  I116  1  -0.00375997  0.82548171  0.83506645  1
  I  I117  1  0.33321127  0.16821857  0.16659343  1
  I  I118  1  0.33308558  0.17184991  0.49831295  1
  I  I119  1  0.33747150  0.17326295  0.83511676  1
  I  I120  1  0.33039673  0.49957054  0.16812589  1
  I  I121  1  0.32932213  0.49696870  0.49252882  1
  I  I122  1  0.33609315  0.49409999  0.83525399  1
  I  I123  1  0.33279142  0.83236969  0.16540591  1
  I  I124  1  0.33333044  0.82983203  0.50488946  1
  I  I125  1  0.33354166  0.83244471  0.83248776  1
  I  I126  1  0.66309710  0.16245144  0.16625081  1
  I  I127  1  0.66306458  0.16601261  0.49956790  1
  I  I128  1  0.66229176  0.16820605  0.83451849  1
  I  I129  1  0.66865538  0.49999085  0.16213884  1
  I  I130  1  0.66636141  0.49852587  0.49731324  1
  I  I131  1  0.66700380  0.49899436  0.84041557  1
  I  I132  1  0.66405089  0.83883565  0.16398546  1
  I  I133  1  0.66634358  0.83498378  0.49639387  1
  I  I134  1  0.66923184  0.83163360  0.83770113  1
