# generated using pymatgen
data_Cs27Sn14Pb13I81
_symmetry_space_group_name_H-M   'P 1'
_cell_length_a   18.97871461
_cell_length_b   18.98445175
_cell_length_c   18.96288981
_cell_angle_alpha   90.00106285
_cell_angle_beta   89.99975870
_cell_angle_gamma   90.00141971
_symmetry_Int_Tables_number   1
_chemical_formula_structural   Cs27Sn14Pb13I81
_chemical_formula_sum   'Cs27 Sn14 Pb13 I81'
_cell_volume   6832.33852051
_cell_formula_units_Z   1
loop_
 _symmetry_equiv_pos_site_id
 _symmetry_equiv_pos_as_xyz
  1  'x, y, z'
loop_
 _atom_site_type_symbol
 _atom_site_label
 _atom_site_symmetry_multiplicity
 _atom_site_fract_x
 _atom_site_fract_y
 _atom_site_fract_z
 _atom_site_occupancy
  Cs  Cs0  1  0.00157742  -0.00247608  0.00151488  1
  Cs  Cs1  1  0.00074681  0.00010349  0.33539020  1
  Cs  Cs2  1  0.00155119  0.00468815  0.66086957  1
  Cs  Cs3  1  0.00478933  0.33350819  0.00164207  1
  Cs  Cs4  1  -0.00093722  0.33342904  0.33438311  1
  Cs  Cs5  1  -0.00968372  0.33435010  0.66392116  1
  Cs  Cs6  1  0.00159186  0.66983665  -0.00080076  1
  Cs  Cs7  1  -0.00168205  0.66658924  0.33263834  1
  Cs  Cs8  1  -0.00268766  0.66101031  0.66716976  1
  Cs  Cs9  1  0.33086095  0.00183560  0.00175571  1
  Cs  Cs10  1  0.33338531  0.00020481  0.33514940  1
  Cs  Cs11  1  0.33338899  -0.00448324  0.66284605  1
  Cs  Cs12  1  0.33223514  0.33322436  0.00085425  1
  Cs  Cs13  1  0.33529335  0.33370621  0.33152342  1
  Cs  Cs14  1  0.33416579  0.33578456  0.66860369  1
  Cs  Cs15  1  0.33002160  0.66403693  0.00062647  1
  Cs  Cs16  1  0.33465750  0.66557955  0.33359763  1
  Cs  Cs17  1  0.33569193  0.66851488  0.66659322  1
  Cs  Cs18  1  0.66995460  -0.00100055  -0.00511943  1
  Cs  Cs19  1  0.66468294  -0.00136084  0.33151390  1
  Cs  Cs20  1  0.66606321  -0.00179302  0.67772596  1
  Cs  Cs21  1  0.66316733  0.33016663  -0.00088546  1
  Cs  Cs22  1  0.66437401  0.33500250  0.33298044  1
  Cs  Cs23  1  0.67516483  0.33142763  0.67121450  1
  Cs  Cs24  1  0.66964065  0.67147642  -0.00343114  1
  Cs  Cs25  1  0.66672981  0.66559795  0.33315518  1
  Cs  Cs26  1  0.66864992  0.66972916  0.67341542  1
  Sn  Sn27  1  0.83313963  0.49913938  0.16680863  1
  Sn  Sn28  1  0.50032367  0.50029722  0.16679278  1
  Sn  Sn29  1  0.50021313  0.16752416  0.49964355  1
  Sn  Sn30  1  0.83301318  0.83359948  0.49951552  1
  Sn  Sn31  1  0.16657468  0.16657040  0.16657226  1
  Sn  Sn32  1  0.49955646  0.49889795  0.49953416  1
  Sn  Sn33  1  0.49915621  0.83331350  0.16681012  1
  Sn  Sn34  1  0.83333961  0.16745061  0.16711147  1
  Sn  Sn35  1  0.16651848  0.49999236  0.16781737  1
  Sn  Sn36  1  0.16672987  0.83443894  0.83357596  1
  Sn  Sn37  1  0.16768244  0.83339653  0.16660652  1
  Sn  Sn38  1  0.16701651  0.16590085  0.83343845  1
  Sn  Sn39  1  0.50014791  0.16639808  0.16734483  1
  Sn  Sn40  1  0.16751454  0.49975681  0.49907987  1
  Pb  Pb41  1  0.16674562  0.49964328  0.83314385  1
  Pb  Pb42  1  0.83336963  0.49986749  0.83728239  1
  Pb  Pb43  1  0.83356146  0.83352658  0.16758478  1
  Pb  Pb44  1  0.49999287  0.49978815  0.83326543  1
  Pb  Pb45  1  0.83699012  0.83362260  0.83017768  1
  Pb  Pb46  1  0.82986980  0.16462590  0.49751062  1
  Pb  Pb47  1  0.49735052  0.16681276  0.83340463  1
  Pb  Pb48  1  0.16858405  0.16917334  0.49979911  1
  Pb  Pb49  1  0.16536432  0.83083682  0.49969345  1
  Pb  Pb50  1  0.50187659  0.83300884  0.49810127  1
  Pb  Pb51  1  0.83225313  0.50131350  0.49790331  1
  Pb  Pb52  1  0.49702852  0.83337969  0.83672580  1
  Pb  Pb53  1  0.83666952  0.16665489  0.83650539  1
  I  I54  1  0.16852406  0.00020549  0.16197849  1
  I  I55  1  0.16670378  0.00008387  0.49800746  1
  I  I56  1  0.16667856  0.00009558  0.84375352  1
  I  I57  1  0.16804403  0.33326039  0.16566647  1
  I  I58  1  0.16726556  0.33693148  0.49456516  1
  I  I59  1  0.16815702  0.33057061  0.83982794  1
  I  I60  1  0.16870780  0.66638652  0.16621499  1
  I  I61  1  0.17203530  0.66311759  0.49484140  1
  I  I62  1  0.16654595  0.66917029  0.83846848  1
  I  I63  1  0.49698558  0.00077268  0.17113682  1
  I  I64  1  0.50065396  0.00241610  0.49352251  1
  I  I65  1  0.50120957  0.00005054  0.83225194  1
  I  I66  1  0.49778997  0.33332544  0.16994961  1
  I  I67  1  0.49493200  0.33399723  0.48934448  1
  I  I68  1  0.49584943  0.33318437  0.83887010  1
  I  I69  1  0.49706245  0.66587412  0.17059552  1
  I  I70  1  0.49665975  0.66349493  0.49390626  1
  I  I71  1  0.49721844  0.66675147  0.83310985  1
  I  I72  1  0.83352865  0.00263238  0.16880212  1
  I  I73  1  0.83515464  -0.00253717  0.49509744  1
  I  I74  1  0.83110932  0.00009092  0.83616459  1
  I  I75  1  0.83465841  0.33337519  0.16775173  1
  I  I76  1  0.83587615  0.33326393  0.50119569  1
  I  I77  1  0.83631551  0.33308788  0.82870633  1
  I  I78  1  0.83360956  0.66420902  0.16941926  1
  I  I79  1  0.83349191  0.66865574  0.49513731  1
  I  I80  1  0.83574772  0.66693238  0.83541770  1
  I  I81  1  0.16816004  0.16816974  0.00300086  1
  I  I82  1  0.16510337  0.16374079  0.32957058  1
  I  I83  1  0.17002995  0.16191806  0.66886754  1
  I  I84  1  0.16738796  0.50000314  0.00383331  1
  I  I85  1  0.16742343  0.50037563  0.33084351  1
  I  I86  1  0.17213885  0.50141667  0.66352327  1
  I  I87  1  0.16964110  0.83160631  0.00247202  1
  I  I88  1  0.16895079  0.83589192  0.32981245  1
  I  I89  1  0.16351582  0.83736377  0.66899418  1
  I  I90  1  0.50173231  0.16790120  0.00417346  1
  I  I91  1  0.49711606  0.16760035  0.33085449  1
  I  I92  1  0.49747201  0.17178066  0.66356897  1
  I  I93  1  0.49793899  0.49849002  0.00474352  1
  I  I94  1  0.49834133  0.49918294  0.33143595  1
  I  I95  1  0.49292950  0.49593372  0.66277833  1
  I  I96  1  0.50101473  0.83314640  0.00531950  1
  I  I97  1  0.49331116  0.83364560  0.32951540  1
  I  I98  1  0.50037912  0.83314588  0.66665640  1
  I  I99  1  0.82693102  0.16920995  0.00497305  1
  I  I100  1  0.83969431  0.17002450  0.32925853  1
  I  I101  1  0.83365465  0.16514171  0.66651044  1
  I  I102  1  0.83459432  0.49816989  0.00583608  1
  I  I103  1  0.83445153  0.49719766  0.32954120  1
  I  I104  1  0.83475213  0.50229066  0.66632816  1
  I  I105  1  0.83113239  0.83267984  0.00005332  1
  I  I106  1  0.83606886  0.83252455  0.33471138  1
  I  I107  1  0.83259676  0.83153552  0.66286342  1
  I  I108  1  0.00100216  0.16898541  0.16177651  1
  I  I109  1  -0.00005904  0.16708240  0.49977881  1
  I  I110  1  0.00455466  0.16299850  0.83910285  1
  I  I111  1  0.00124238  0.49790258  0.17018755  1
  I  I112  1  0.00218078  0.50269464  0.49567394  1
  I  I113  1  0.00042832  0.50037024  0.83203097  1
  I  I114  1  0.00315332  0.83277677  0.16437693  1
  I  I115  1  -0.00202712  0.83134984  0.49632643  1
  I  I116  1  0.00439022  0.83601256  0.84376113  1
  I  I117  1  0.33314517  0.16828241  0.16587076  1
  I  I118  1  0.33632930  0.16650969  0.49271543  1
  I  I119  1  0.32967442  0.16369052  0.84185954  1
  I  I120  1  0.33308459  0.49870116  0.16962756  1
  I  I121  1  0.33365084  0.49800181  0.49104812  1
  I  I122  1  0.33307467  0.50028858  0.83783122  1
  I  I123  1  0.33254486  0.83317776  0.16412473  1
  I  I124  1  0.33341116  0.83437180  0.50184388  1
  I  I125  1  0.32923362  0.83692489  0.83388219  1
  I  I126  1  0.66570165  0.16942813  0.17249907  1
  I  I127  1  0.66217391  0.17374460  0.49203704  1
  I  I128  1  0.66668341  0.16699574  0.83390102  1
  I  I129  1  0.66557967  0.49788512  0.17120393  1
  I  I130  1  0.66322969  0.49769005  0.49303612  1
  I  I131  1  0.66666886  0.50072439  0.83247414  1
  I  I132  1  0.66413093  0.83264835  0.17103727  1
  I  I133  1  0.66908137  0.83124467  0.49376616  1
  I  I134  1  0.66678232  0.83241260  0.83388753  1
