# generated using pymatgen
data_Cs27Sn13Pb14I81
_symmetry_space_group_name_H-M   'P 1'
_cell_length_a   18.98095559
_cell_length_b   18.97166625
_cell_length_c   18.97529549
_cell_angle_alpha   89.99696207
_cell_angle_beta   90.00179168
_cell_angle_gamma   89.99957384
_symmetry_Int_Tables_number   1
_chemical_formula_structural   Cs27Sn13Pb14I81
_chemical_formula_sum   'Cs27 Sn13 Pb14 I81'
_cell_volume   6833.01062108
_cell_formula_units_Z   1
loop_
 _symmetry_equiv_pos_site_id
 _symmetry_equiv_pos_as_xyz
  1  'x, y, z'
loop_
 _atom_site_type_symbol
 _atom_site_label
 _atom_site_symmetry_multiplicity
 _atom_site_fract_x
 _atom_site_fract_y
 _atom_site_fract_z
 _atom_site_occupancy
  Cs  Cs0  1  -0.00041912  -0.00007920  0.00049406  1
  Cs  Cs1  1  0.00057131  0.00128977  0.33153253  1
  Cs  Cs2  1  0.00632993  -0.00210547  0.66705509  1
  Cs  Cs3  1  -0.00115157  0.33248657  0.00087186  1
  Cs  Cs4  1  0.00028472  0.33239356  0.33340554  1
  Cs  Cs5  1  -0.00634235  0.33571103  0.66570423  1
  Cs  Cs6  1  -0.00633843  0.66724328  -0.00313661  1
  Cs  Cs7  1  0.00547897  0.66674595  0.33528928  1
  Cs  Cs8  1  0.00110880  0.66591742  0.66786915  1
  Cs  Cs9  1  0.33343921  0.00186854  -0.00027709  1
  Cs  Cs10  1  0.33156154  -0.00083241  0.33162802  1
  Cs  Cs11  1  0.33138067  0.00056479  0.67005414  1
  Cs  Cs12  1  0.33264563  0.33439258  -0.00052570  1
  Cs  Cs13  1  0.33250592  0.34104720  0.33237249  1
  Cs  Cs14  1  0.33748336  0.33019855  0.67100957  1
  Cs  Cs15  1  0.33579758  0.66276074  0.00064466  1
  Cs  Cs16  1  0.33177724  0.66126376  0.33418323  1
  Cs  Cs17  1  0.33073921  0.66871661  0.66603354  1
  Cs  Cs18  1  0.66674272  -0.00103869  0.00217300  1
  Cs  Cs19  1  0.66767782  -0.00134166  0.33311170  1
  Cs  Cs20  1  0.66316987  0.00273903  0.66072851  1
  Cs  Cs21  1  0.66885867  0.33291804  0.00055728  1
  Cs  Cs22  1  0.66625843  0.33409355  0.33923868  1
  Cs  Cs23  1  0.66895076  0.33217820  0.65832652  1
  Cs  Cs24  1  0.66818227  0.66756131  -0.00162527  1
  Cs  Cs25  1  0.66374719  0.67046855  0.33271333  1
  Cs  Cs26  1  0.66864941  0.66505205  0.66951130  1
  Sn  Sn27  1  0.16700058  0.49991126  0.83351368  1
  Sn  Sn28  1  0.49881193  0.83398339  0.16665123  1
  Sn  Sn29  1  0.83333257  0.83333247  0.50002228  1
  Sn  Sn30  1  0.83306891  0.16607299  0.83355201  1
  Sn  Sn31  1  0.49986404  0.16655013  0.16678916  1
  Sn  Sn32  1  0.16706725  0.16623110  0.16746605  1
  Sn  Sn33  1  0.49958615  0.50028894  0.83343781  1
  Sn  Sn34  1  0.50004257  0.83290851  0.83347793  1
  Sn  Sn35  1  0.83311057  0.49944992  0.16709657  1
  Sn  Sn36  1  0.50040058  0.83339523  0.49983581  1
  Sn  Sn37  1  0.16699124  0.16701659  0.49932882  1
  Sn  Sn38  1  0.83303739  0.16764667  0.16609660  1
  Sn  Sn39  1  0.16754411  0.83362121  0.16618874  1
  Pb  Pb40  1  0.16465229  0.49993383  0.16496059  1
  Pb  Pb41  1  0.16679809  0.49689435  0.50296686  1
  Pb  Pb42  1  0.49743134  0.16463287  0.49690811  1
  Pb  Pb43  1  0.49992385  0.50273003  0.50307785  1
  Pb  Pb44  1  0.16882151  0.83142329  0.83624161  1
  Pb  Pb45  1  0.83085381  0.83598453  0.83079312  1
  Pb  Pb46  1  0.83263680  0.49814925  0.83467848  1
  Pb  Pb47  1  0.16473671  0.16846203  0.83396148  1
  Pb  Pb48  1  0.83337631  0.50293432  0.49694599  1
  Pb  Pb49  1  0.16730948  0.83475315  0.49798618  1
  Pb  Pb50  1  0.83330983  0.83376404  0.16795956  1
  Pb  Pb51  1  0.50209574  0.16667712  0.83528555  1
  Pb  Pb52  1  0.50203683  0.50016709  0.16511014  1
  Pb  Pb53  1  0.83512838  0.16470713  0.49926075  1
  I  I54  1  0.16534345  0.00102276  0.16941907  1
  I  I55  1  0.16583340  0.00266815  0.49799762  1
  I  I56  1  0.16678313  0.00010293  0.83203528  1
  I  I57  1  0.16846099  0.33005579  0.16867368  1
  I  I58  1  0.16505633  0.32916777  0.49102363  1
  I  I59  1  0.17346268  0.33605425  0.83572675  1
  I  I60  1  0.17027376  0.66927560  0.16585050  1
  I  I61  1  0.16612897  0.66683668  0.49857273  1
  I  I62  1  0.16695352  0.66371235  0.83523191  1
  I  I63  1  0.50147922  -0.00062955  0.16430327  1
  I  I64  1  0.50375399  -0.00359037  0.50440823  1
  I  I65  1  0.50226931  -0.00282922  0.83269990  1
  I  I66  1  0.49761660  0.33050559  0.16338234  1
  I  I67  1  0.49955497  0.33304277  0.50046577  1
  I  I68  1  0.49672581  0.33556795  0.83736712  1
  I  I69  1  0.49742830  0.67004623  0.16826498  1
  I  I70  1  0.50253707  0.67123799  0.49315968  1
  I  I71  1  0.49686702  0.66762822  0.83598122  1
  I  I72  1  0.83350708  0.00293899  0.16472520  1
  I  I73  1  0.82848130  -0.00282626  0.49718199  1
  I  I74  1  0.83350490  0.00345367  0.84238297  1
  I  I75  1  0.83409087  0.33126477  0.16198965  1
  I  I76  1  0.83479408  0.33302814  0.50204351  1
  I  I77  1  0.83236224  0.33025243  0.83613940  1
  I  I78  1  0.83322304  0.66502621  0.16752158  1
  I  I79  1  0.82937002  0.67074586  0.49869496  1
  I  I80  1  0.83465158  0.66681154  0.83473185  1
  I  I81  1  0.16758753  0.16416818  0.00353383  1
  I  I82  1  0.16381765  0.16198493  0.33088902  1
  I  I83  1  0.16409498  0.16726366  0.66477857  1
  I  I84  1  0.17065080  0.49803546  -0.00253879  1
  I  I85  1  0.16481728  0.50175481  0.33303556  1
  I  I86  1  0.16984943  0.49983970  0.67070199  1
  I  I87  1  0.17009816  0.84056145  0.00423429  1
  I  I88  1  0.17069812  0.83483225  0.32979628  1
  I  I89  1  0.16701105  0.83495469  0.66677762  1
  I  I90  1  0.49617998  0.16113460  0.00364728  1
  I  I91  1  0.50575885  0.16107659  0.32866630  1
  I  I92  1  0.50021430  0.16587191  0.66656980  1
  I  I93  1  0.49740120  0.50573478  -0.00267683  1
  I  I94  1  0.50146477  0.50051195  0.33315938  1
  I  I95  1  0.49709409  0.50370867  0.67121748  1
  I  I96  1  0.49572564  0.83348898  0.00092870  1
  I  I97  1  0.50157206  0.83930225  0.33225889  1
  I  I98  1  0.50572991  0.82830245  0.66680666  1
  I  I99  1  0.83533933  0.16952271  0.00218359  1
  I  I100  1  0.83222345  0.16840339  0.32982194  1
  I  I101  1  0.83474607  0.16555480  0.66857127  1
  I  I102  1  0.83362442  0.49882776  0.00271450  1
  I  I103  1  0.83374490  0.49187759  0.32914815  1
  I  I104  1  0.83337454  0.49824237  0.66673526  1
  I  I105  1  0.83291291  0.83194160  0.00009214  1
  I  I106  1  0.82743802  0.83515558  0.33549331  1
  I  I107  1  0.82878492  0.83536853  0.66326459  1
  I  I108  1  0.00015677  0.16606436  0.16652066  1
  I  I109  1  0.00266113  0.16312802  0.49441537  1
  I  I110  1  -0.00290690  0.16895557  0.83919682  1
  I  I111  1  -0.00294926  0.49659679  0.16314371  1
  I  I112  1  0.00003334  0.50357967  0.50302659  1
  I  I113  1  0.00171113  0.49708457  0.83569196  1
  I  I114  1  0.00216334  0.83639890  0.16952292  1
  I  I115  1  -0.00171584  0.83566191  0.49646760  1
  I  I116  1  -0.00002914  0.83181186  0.83314875  1
  I  I117  1  0.33316093  0.16057945  0.16999333  1
  I  I118  1  0.32989691  0.16380318  0.49606248  1
  I  I119  1  0.33354362  0.16585461  0.83371665  1
  I  I120  1  0.33344282  0.49807046  0.16609972  1
  I  I121  1  0.33335451  0.50236191  0.49601323  1
  I  I122  1  0.33413648  0.50290147  0.83567849  1
  I  I123  1  0.33446314  0.84121480  0.16771204  1
  I  I124  1  0.33641486  0.83524694  0.50146708  1
  I  I125  1  0.33714474  0.83377338  0.82888291  1
  I  I126  1  0.66674721  0.16530028  0.16079594  1
  I  I127  1  0.66642261  0.16666737  0.49990205  1
  I  I128  1  0.66966735  0.16744316  0.83992583  1
  I  I129  1  0.66962590  0.49636178  0.16320206  1
  I  I130  1  0.66667361  0.49663607  0.50236052  1
  I  I131  1  0.66392240  0.50472642  0.83631885  1
  I  I132  1  0.66364064  0.83600175  0.16560742  1
  I  I133  1  0.66536090  0.83490568  0.49674933  1
  I  I134  1  0.66273021  0.82704165  0.84005613  1
