# generated using pymatgen
data_Cs27Sn13Pb14I81
_symmetry_space_group_name_H-M   'P 1'
_cell_length_a   18.96971998
_cell_length_b   18.98280789
_cell_length_c   18.97851634
_cell_angle_alpha   90.00089331
_cell_angle_beta   90.00206781
_cell_angle_gamma   89.99999635
_symmetry_Int_Tables_number   1
_chemical_formula_structural   Cs27Sn13Pb14I81
_chemical_formula_sum   'Cs27 Sn13 Pb14 I81'
_cell_volume   6834.13621235
_cell_formula_units_Z   1
loop_
 _symmetry_equiv_pos_site_id
 _symmetry_equiv_pos_as_xyz
  1  'x, y, z'
loop_
 _atom_site_type_symbol
 _atom_site_label
 _atom_site_symmetry_multiplicity
 _atom_site_fract_x
 _atom_site_fract_y
 _atom_site_fract_z
 _atom_site_occupancy
  Cs  Cs0  1  0.00215709  0.00126267  0.00143121  1
  Cs  Cs1  1  0.00107955  -0.00038285  0.33166042  1
  Cs  Cs2  1  -0.00455784  0.00458251  0.66682845  1
  Cs  Cs3  1  0.00345462  0.33018296  -0.00364400  1
  Cs  Cs4  1  0.00062895  0.33661273  0.33473300  1
  Cs  Cs5  1  -0.00148371  0.33130242  0.66894601  1
  Cs  Cs6  1  -0.00106876  0.66775522  -0.00258361  1
  Cs  Cs7  1  -0.00177263  0.66257161  0.33551805  1
  Cs  Cs8  1  0.00091291  0.66526440  0.66674939  1
  Cs  Cs9  1  0.32663824  -0.00664846  0.00217076  1
  Cs  Cs10  1  0.33139360  0.00041677  0.33294309  1
  Cs  Cs11  1  0.33632867  -0.00315146  0.66469743  1
  Cs  Cs12  1  0.33330135  0.33306300  -0.00072203  1
  Cs  Cs13  1  0.33309919  0.33262629  0.33507713  1
  Cs  Cs14  1  0.33484612  0.33518203  0.66411598  1
  Cs  Cs15  1  0.33220786  0.67461141  0.00006855  1
  Cs  Cs16  1  0.33389977  0.66617204  0.33263315  1
  Cs  Cs17  1  0.33236871  0.66554299  0.66790689  1
  Cs  Cs18  1  0.66834172  0.00001002  -0.00026875  1
  Cs  Cs19  1  0.66728032  -0.00103713  0.33441384  1
  Cs  Cs20  1  0.66769804  -0.00067847  0.66570255  1
  Cs  Cs21  1  0.66584779  0.33439500  0.00069295  1
  Cs  Cs22  1  0.66680007  0.33531522  0.33052788  1
  Cs  Cs23  1  0.66457297  0.33180222  0.66834794  1
  Cs  Cs24  1  0.66731455  0.66612141  0.00183071  1
  Cs  Cs25  1  0.66856602  0.66653444  0.33020480  1
  Cs  Cs26  1  0.66721669  0.66962812  0.66703456  1
  Sn  Sn27  1  0.16756339  0.49980237  0.49926509  1
  Sn  Sn28  1  0.83310328  0.83275631  0.83389581  1
  Sn  Sn29  1  0.50067906  0.49960784  0.83280778  1
  Sn  Sn30  1  0.83289672  0.16631387  0.16691489  1
  Sn  Sn31  1  0.49973472  0.16696745  0.83355553  1
  Sn  Sn32  1  0.16725181  0.16682573  0.50010554  1
  Sn  Sn33  1  0.49942840  0.16749772  0.49987208  1
  Sn  Sn34  1  0.83242410  0.50043597  0.83317863  1
  Sn  Sn35  1  0.49972937  0.49953525  0.50043013  1
  Sn  Sn36  1  0.50029698  0.16651734  0.16649451  1
  Sn  Sn37  1  0.16705132  0.49991444  0.16677671  1
  Sn  Sn38  1  0.16655725  0.83321962  0.50016903  1
  Sn  Sn39  1  0.83326557  0.83388175  0.16623761  1
  Pb  Pb40  1  0.16689667  0.16829623  0.16859100  1
  Pb  Pb41  1  0.49803587  0.49830109  0.16635699  1
  Pb  Pb42  1  0.83250303  0.16695244  0.49741870  1
  Pb  Pb43  1  0.83259426  0.49980194  0.50255379  1
  Pb  Pb44  1  0.83123361  0.16679397  0.83553992  1
  Pb  Pb45  1  0.16405063  0.83088626  0.16879250  1
  Pb  Pb46  1  0.50223835  0.83620552  0.16678802  1
  Pb  Pb47  1  0.49814770  0.83289625  0.49986334  1
  Pb  Pb48  1  0.83554162  0.83327842  0.49989047  1
  Pb  Pb49  1  0.16755113  0.49998045  0.83288865  1
  Pb  Pb50  1  0.17008914  0.16656955  0.83043292  1
  Pb  Pb51  1  0.83533242  0.49954585  0.16417675  1
  Pb  Pb52  1  0.50204685  0.83308614  0.83334086  1
  Pb  Pb53  1  0.16371325  0.83363842  0.83077730  1
  I  I54  1  0.16783062  0.00003416  0.16887371  1
  I  I55  1  0.17051718  0.00101825  0.50072944  1
  I  I56  1  0.16646134  0.00016706  0.83215334  1
  I  I57  1  0.16424667  0.33596440  0.17285565  1
  I  I58  1  0.17147805  0.33379469  0.49573076  1
  I  I59  1  0.15956322  0.33343661  0.83268174  1
  I  I60  1  0.16598803  0.66323058  0.17257285  1
  I  I61  1  0.16932757  0.66522254  0.49642567  1
  I  I62  1  0.17021630  0.66655183  0.83120817  1
  I  I63  1  0.50029922  0.00489039  0.16745727  1
  I  I64  1  0.49633499  0.00354514  0.50086545  1
  I  I65  1  0.50149688  0.00325951  0.83105235  1
  I  I66  1  0.50636018  0.33003101  0.16745390  1
  I  I67  1  0.49201603  0.33300146  0.50126168  1
  I  I68  1  0.50615043  0.33371376  0.83169644  1
  I  I69  1  0.50029546  0.66641327  0.16732362  1
  I  I70  1  0.49577207  0.66298362  0.50553174  1
  I  I71  1  0.50162444  0.66320052  0.82729214  1
  I  I72  1  0.82981654  0.00016716  0.16140178  1
  I  I73  1  0.83381780  0.00016540  0.50442456  1
  I  I74  1  0.83273140  -0.00218237  0.83495225  1
  I  I75  1  0.82998012  0.33075774  0.16664840  1
  I  I76  1  0.83911985  0.33336007  0.49956591  1
  I  I77  1  0.83161363  0.33573497  0.83377451  1
  I  I78  1  0.83656166  0.66877550  0.16451581  1
  I  I79  1  0.83383847  0.66649384  0.49606993  1
  I  I80  1  0.82824509  0.66629881  0.83855242  1
  I  I81  1  0.16705592  0.16900913  0.00020231  1
  I  I82  1  0.17193981  0.16555428  0.33679530  1
  I  I83  1  0.16945636  0.17049666  0.66193692  1
  I  I84  1  0.16532402  0.49891215  0.00216058  1
  I  I85  1  0.17069704  0.49968648  0.33535453  1
  I  I86  1  0.16757640  0.49994115  0.66316327  1
  I  I87  1  0.16794494  0.83125832  0.00022330  1
  I  I88  1  0.16476472  0.83554678  0.33668811  1
  I  I89  1  0.16600900  0.82991036  0.66265129  1
  I  I90  1  0.50702454  0.17200220  -0.00011292  1
  I  I91  1  0.49982364  0.17039245  0.33417246  1
  I  I92  1  0.49540746  0.17116106  0.66608191  1
  I  I93  1  0.50291320  0.49492678  -0.00288721  1
  I  I94  1  0.49668946  0.49550200  0.33619533  1
  I  I95  1  0.49807649  0.49209109  0.66617527  1
  I  I96  1  0.49735262  0.83248103  0.00001382  1
  I  I97  1  0.50314693  0.83275023  0.33337576  1
  I  I98  1  0.50278321  0.83810690  0.66658237  1
  I  I99  1  0.82834314  0.16613207  0.00332428  1
  I  I100  1  0.82851686  0.16071631  0.32956996  1
  I  I101  1  0.83383548  0.16563755  0.66684433  1
  I  I102  1  0.82847693  0.50120961  -0.00349302  1
  I  I103  1  0.83197295  0.50121505  0.33312893  1
  I  I104  1  0.83433090  0.50549977  0.67050127  1
  I  I105  1  0.83276858  0.83305662  -0.00001667  1
  I  I106  1  0.83464954  0.83811552  0.33041033  1
  I  I107  1  0.83444258  0.82900390  0.66952745  1
  I  I108  1  -0.00238674  0.16396748  0.16785571  1
  I  I109  1  0.00290172  0.16738190  0.49796103  1
  I  I110  1  -0.00017783  0.16725708  0.83311971  1
  I  I111  1  0.00298947  0.49851327  0.17333008  1
  I  I112  1  0.00314236  0.49956980  0.49713287  1
  I  I113  1  -0.00236677  0.50472296  0.83374508  1
  I  I114  1  -0.00366884  0.84079168  0.16244228  1
  I  I115  1  0.00375755  0.83265780  0.50006280  1
  I  I116  1  -0.00427813  0.82667053  0.83699552  1
  I  I117  1  0.33632285  0.17029028  0.16600958  1
  I  I118  1  0.33416075  0.16774357  0.49820999  1
  I  I119  1  0.33830841  0.17452348  0.83804471  1
  I  I120  1  0.33031211  0.49705670  0.16816586  1
  I  I121  1  0.33336101  0.49873854  0.50213081  1
  I  I122  1  0.33677824  0.49405956  0.83101029  1
  I  I123  1  0.33290056  0.83397484  0.16698451  1
  I  I124  1  0.32999498  0.83355678  0.49962361  1
  I  I125  1  0.33332517  0.83276661  0.83274572  1
  I  I126  1  0.66594744  0.16395723  0.16895820  1
  I  I127  1  0.66273827  0.17159057  0.50184529  1
  I  I128  1  0.66317151  0.16799846  0.82781172  1
  I  I129  1  0.66661490  0.50141245  0.16940376  1
  I  I130  1  0.66297548  0.49388110  0.50192539  1
  I  I131  1  0.66568616  0.49955143  0.82842353  1
  I  I132  1  0.67049217  0.83279110  0.16417997  1
  I  I133  1  0.66683338  0.83375574  0.50015896  1
  I  I134  1  0.67010954  0.83190838  0.83595142  1
