# generated using pymatgen
data_Cs27Sn13Pb14I81
_symmetry_space_group_name_H-M   'P 1'
_cell_length_a   18.98109528
_cell_length_b   18.98205489
_cell_length_c   18.96851962
_cell_angle_alpha   89.99980893
_cell_angle_beta   90.00197347
_cell_angle_gamma   89.99915214
_symmetry_Int_Tables_number   1
_chemical_formula_structural   Cs27Sn13Pb14I81
_chemical_formula_sum   'Cs27 Sn13 Pb14 I81'
_cell_volume   6834.36126733
_cell_formula_units_Z   1
loop_
 _symmetry_equiv_pos_site_id
 _symmetry_equiv_pos_as_xyz
  1  'x, y, z'
loop_
 _atom_site_type_symbol
 _atom_site_label
 _atom_site_symmetry_multiplicity
 _atom_site_fract_x
 _atom_site_fract_y
 _atom_site_fract_z
 _atom_site_occupancy
  Cs  Cs0  1  -0.00048641  -0.00349776  0.00167568  1
  Cs  Cs1  1  -0.00023216  0.00035158  0.33311889  1
  Cs  Cs2  1  0.00196593  0.00388369  0.66360341  1
  Cs  Cs3  1  -0.00321753  0.33558771  -0.00210305  1
  Cs  Cs4  1  0.00029741  0.33383474  0.33367037  1
  Cs  Cs5  1  0.00166918  0.33338712  0.67011127  1
  Cs  Cs6  1  0.00151849  0.66759875  -0.00065686  1
  Cs  Cs7  1  0.00010153  0.66594488  0.33370990  1
  Cs  Cs8  1  -0.00093749  0.66382914  0.66355827  1
  Cs  Cs9  1  0.33327407  -0.00501087  -0.00282759  1
  Cs  Cs10  1  0.33133220  0.00341196  0.33145652  1
  Cs  Cs11  1  0.33233921  0.00173803  0.67504368  1
  Cs  Cs12  1  0.33627495  0.33633917  -0.00275186  1
  Cs  Cs13  1  0.33309620  0.33312800  0.33361474  1
  Cs  Cs14  1  0.33072580  0.33102912  0.67293773  1
  Cs  Cs15  1  0.33195100  0.66942995  -0.00674917  1
  Cs  Cs16  1  0.33244851  0.66323379  0.33367326  1
  Cs  Cs17  1  0.34083552  0.66830595  0.67094228  1
  Cs  Cs18  1  0.66776240  0.00139129  0.00160787  1
  Cs  Cs19  1  0.66783711  0.00080396  0.33281768  1
  Cs  Cs20  1  0.66418958  -0.00381594  0.66707771  1
  Cs  Cs21  1  0.66790146  0.33369136  -0.00304178  1
  Cs  Cs22  1  0.66664785  0.33265125  0.33183860  1
  Cs  Cs23  1  0.66752143  0.33351292  0.67393455  1
  Cs  Cs24  1  0.66766852  0.66463841  0.00105551  1
  Cs  Cs25  1  0.66551322  0.66593090  0.33572724  1
  Cs  Cs26  1  0.65900935  0.67072944  0.66335802  1
  Sn  Sn27  1  0.83374241  0.83323882  0.83360334  1
  Sn  Sn28  1  0.50005200  0.16583183  0.16745057  1
  Sn  Sn29  1  0.83227860  0.16772065  0.49919637  1
  Sn  Sn30  1  0.83342594  0.16694870  0.16740343  1
  Sn  Sn31  1  0.16591045  0.49919046  0.16738442  1
  Sn  Sn32  1  0.83417574  0.49988563  0.16772835  1
  Sn  Sn33  1  0.16702594  0.83244716  0.49970470  1
  Sn  Sn34  1  0.50054803  0.83366052  0.16762264  1
  Sn  Sn35  1  0.16617952  0.50089747  0.49917281  1
  Sn  Sn36  1  0.16650213  0.16767808  0.16693356  1
  Sn  Sn37  1  0.50089669  0.16698208  0.49925941  1
  Sn  Sn38  1  0.83370098  0.49893723  0.49911841  1
  Sn  Sn39  1  0.83250701  0.83311937  0.16615203  1
  Pb  Pb40  1  0.83433358  0.83342240  0.49933378  1
  Pb  Pb41  1  0.16665201  0.83277432  0.16792044  1
  Pb  Pb42  1  0.83328839  0.50252895  0.83272033  1
  Pb  Pb43  1  0.50270712  0.83357673  0.83645522  1
  Pb  Pb44  1  0.16629224  0.50015290  0.83326306  1
  Pb  Pb45  1  0.16617951  0.16665848  0.83774650  1
  Pb  Pb46  1  0.49996519  0.49704193  0.49988009  1
  Pb  Pb47  1  0.16382341  0.83314616  0.82979333  1
  Pb  Pb48  1  0.50031674  0.50003236  0.83322034  1
  Pb  Pb49  1  0.16660408  0.16746552  0.49857555  1
  Pb  Pb50  1  0.49702918  0.83611494  0.49742648  1
  Pb  Pb51  1  0.83345564  0.16448673  0.83314252  1
  Pb  Pb52  1  0.49993855  0.49980458  0.16665658  1
  Pb  Pb53  1  0.50033992  0.16653571  0.83396382  1
  I  I54  1  0.16408590  0.00225159  0.16976536  1
  I  I55  1  0.16478887  -0.00117215  0.49702947  1
  I  I56  1  0.16614899  -0.00020122  0.83188341  1
  I  I57  1  0.16391498  0.33348967  0.17304560  1
  I  I58  1  0.16528374  0.33615964  0.49636074  1
  I  I59  1  0.16646155  0.33337552  0.82833996  1
  I  I60  1  0.16282069  0.66381999  0.16965702  1
  I  I61  1  0.15899183  0.66521037  0.49265681  1
  I  I62  1  0.16590190  0.66674837  0.83941276  1
  I  I63  1  0.50332683  0.00102220  0.17031370  1
  I  I64  1  0.50615273  0.00382653  0.49635187  1
  I  I65  1  0.50024228  -0.00002426  0.83135440  1
  I  I66  1  0.50161776  0.32988229  0.17062800  1
  I  I67  1  0.49970957  0.32922221  0.49054920  1
  I  I68  1  0.50019525  0.33286916  0.83571507  1
  I  I69  1  0.50410504  0.66934904  0.16580661  1
  I  I70  1  0.50219013  0.66676218  0.49961564  1
  I  I71  1  0.50051033  0.66729675  0.83462377  1
  I  I72  1  0.83330631  0.00069111  0.16674722  1
  I  I73  1  0.83255527  0.00268560  0.49648804  1
  I  I74  1  0.83313785  -0.00311098  0.83882498  1
  I  I75  1  0.83392501  0.33299532  0.17128087  1
  I  I76  1  0.83541436  0.33322339  0.49144974  1
  I  I77  1  0.83305699  0.33343098  0.83580791  1
  I  I78  1  0.83373415  0.66638869  0.16652804  1
  I  I79  1  0.83736311  0.66407149  0.49655645  1
  I  I80  1  0.83409563  0.67000415  0.83959163  1
  I  I81  1  0.16598275  0.17112654  0.00626127  1
  I  I82  1  0.16627606  0.16703369  0.33012714  1
  I  I83  1  0.16693287  0.16614934  0.66643101  1
  I  I84  1  0.16229195  0.49546032  0.00389977  1
  I  I85  1  0.16179929  0.50011722  0.33274756  1
  I  I86  1  0.16118400  0.50310843  0.66281004  1
  I  I87  1  0.16901972  0.83392134  0.00022681  1
  I  I88  1  0.16309857  0.83236156  0.33547191  1
  I  I89  1  0.16439331  0.82860756  0.66190208  1
  I  I90  1  0.50077114  0.16329793  0.00439261  1
  I  I91  1  0.50157320  0.16296592  0.33180201  1
  I  I92  1  0.50475449  0.16789940  0.66342103  1
  I  I93  1  0.50011859  0.49771800  0.00083228  1
  I  I94  1  0.49969755  0.50266022  0.33310421  1
  I  I95  1  0.50068744  0.49888769  0.66596815  1
  I  I96  1  0.49913797  0.84015296  0.00466383  1
  I  I97  1  0.50839565  0.83555810  0.32959574  1
  I  I98  1  0.50056574  0.83415791  0.66646755  1
  I  I99  1  0.83253444  0.16924493  0.00399991  1
  I  I100  1  0.83280581  0.16483074  0.33194654  1
  I  I101  1  0.82969935  0.16946086  0.66292595  1
  I  I102  1  0.83647440  0.49727888  0.00375574  1
  I  I103  1  0.83766420  0.50111549  0.33224463  1
  I  I104  1  0.83847535  0.49572874  0.66278742  1
  I  I105  1  0.83043653  0.83424935  0.00297898  1
  I  I106  1  0.83139349  0.83418051  0.32995397  1
  I  I107  1  0.83735314  0.83380168  0.66814537  1
  I  I108  1  -0.00120975  0.16576984  0.17097104  1
  I  I109  1  -0.00281952  0.16595676  0.49538067  1
  I  I110  1  -0.00036536  0.16534724  0.83140277  1
  I  I111  1  -0.00100133  0.49736088  0.17035413  1
  I  I112  1  -0.00074959  0.49869329  0.49510936  1
  I  I113  1  -0.00027723  0.50058021  0.83420370  1
  I  I114  1  -0.00299435  0.83625821  0.16476433  1
  I  I115  1  0.00205317  0.83454675  0.49702655  1
  I  I116  1  -0.00348422  0.83377889  0.84353237  1
  I  I117  1  0.33362983  0.16615379  0.17195559  1
  I  I118  1  0.33537038  0.16566620  0.49364190  1
  I  I119  1  0.33333879  0.16592999  0.83080434  1
  I  I120  1  0.33005132  0.49655607  0.17148241  1
  I  I121  1  0.32994585  0.50269839  0.49407557  1
  I  I122  1  0.33295767  0.50076539  0.83441997  1
  I  I123  1  0.33546108  0.83781211  0.17043804  1
  I  I124  1  0.32959746  0.82796343  0.49603307  1
  I  I125  1  0.33342197  0.83311246  0.83433542  1
  I  I126  1  0.66765977  0.16523981  0.17043511  1
  I  I127  1  0.66810416  0.17039362  0.49103446  1
  I  I128  1  0.66693493  0.16665216  0.83711681  1
  I  I129  1  0.67029937  0.49890254  0.17037601  1
  I  I130  1  0.67019637  0.49911362  0.49447488  1
  I  I131  1  0.66741278  0.49976881  0.83483574  1
  I  I132  1  0.66809914  0.83684954  0.16349456  1
  I  I133  1  0.66656820  0.83092075  0.50243234  1
  I  I134  1  0.67036667  0.83352807  0.83339009  1
