# generated using pymatgen
data_Cs27Sn14Pb13I81
_symmetry_space_group_name_H-M   'P 1'
_cell_length_a   18.97479331
_cell_length_b   18.97013586
_cell_length_c   18.98482485
_cell_angle_alpha   90.00159065
_cell_angle_beta   89.99990667
_cell_angle_gamma   89.99908773
_symmetry_Int_Tables_number   1
_chemical_formula_structural   Cs27Sn14Pb13I81
_chemical_formula_sum   'Cs27 Sn14 Pb13 I81'
_cell_volume   6833.67136322
_cell_formula_units_Z   1
loop_
 _symmetry_equiv_pos_site_id
 _symmetry_equiv_pos_as_xyz
  1  'x, y, z'
loop_
 _atom_site_type_symbol
 _atom_site_label
 _atom_site_symmetry_multiplicity
 _atom_site_fract_x
 _atom_site_fract_y
 _atom_site_fract_z
 _atom_site_occupancy
  Cs  Cs0  1  -0.00170791  -0.00161556  0.00045575  1
  Cs  Cs1  1  0.00092156  0.00023787  0.33317788  1
  Cs  Cs2  1  0.00237784  0.00091478  0.66667953  1
  Cs  Cs3  1  -0.00561803  0.33134699  -0.00492162  1
  Cs  Cs4  1  -0.00626125  0.33226692  0.33282160  1
  Cs  Cs5  1  -0.00360046  0.32493008  0.67352554  1
  Cs  Cs6  1  0.00048830  0.66799095  -0.00200517  1
  Cs  Cs7  1  0.00197637  0.66659834  0.33534655  1
  Cs  Cs8  1  0.00049273  0.66686321  0.66605220  1
  Cs  Cs9  1  0.33414335  0.00054351  0.00323928  1
  Cs  Cs10  1  0.33518220  0.00095362  0.33258719  1
  Cs  Cs11  1  0.33318745  0.00288699  0.66424895  1
  Cs  Cs12  1  0.33433972  0.33398507  0.00084600  1
  Cs  Cs13  1  0.33291504  0.33547266  0.33133754  1
  Cs  Cs14  1  0.33078804  0.33271200  0.66684367  1
  Cs  Cs15  1  0.33325152  0.66510742  0.00210843  1
  Cs  Cs16  1  0.33229973  0.66556005  0.33250454  1
  Cs  Cs17  1  0.33194204  0.66445403  0.66633267  1
  Cs  Cs18  1  0.66650652  0.00036127  -0.00078160  1
  Cs  Cs19  1  0.66408853  0.00016881  0.33714383  1
  Cs  Cs20  1  0.66432076  -0.00179400  0.66505223  1
  Cs  Cs21  1  0.66600283  0.33179091  0.00259915  1
  Cs  Cs22  1  0.67386753  0.33356525  0.33184971  1
  Cs  Cs23  1  0.67066997  0.33281697  0.66349057  1
  Cs  Cs24  1  0.66547512  0.66683494  -0.00137144  1
  Cs  Cs25  1  0.66578907  0.66660999  0.33510828  1
  Cs  Cs26  1  0.66713332  0.66823945  0.66678612  1
  Sn  Sn27  1  0.16731047  0.83313948  0.83256403  1
  Sn  Sn28  1  0.49903843  0.16757299  0.16615788  1
  Sn  Sn29  1  0.83339881  0.83308304  0.83321196  1
  Sn  Sn30  1  0.49925836  0.83343867  0.83346061  1
  Sn  Sn31  1  0.49985245  0.49957077  0.83314038  1
  Sn  Sn32  1  0.49937415  0.49929785  0.16696532  1
  Sn  Sn33  1  0.49924783  0.49995617  0.49981750  1
  Sn  Sn34  1  0.49963864  0.16683096  0.83377906  1
  Sn  Sn35  1  0.16689813  0.50000220  0.49967315  1
  Sn  Sn36  1  0.83304112  0.83285337  0.16699116  1
  Sn  Sn37  1  0.16714128  0.16814101  0.16668389  1
  Sn  Sn38  1  0.83428748  0.83290585  0.49998348  1
  Sn  Sn39  1  0.16641690  0.83269731  0.50066840  1
  Sn  Sn40  1  0.16679583  0.49881506  0.16712263  1
  Pb  Pb41  1  0.83349266  0.16351940  0.50009244  1
  Pb  Pb42  1  0.16522076  0.83293350  0.16701942  1
  Pb  Pb43  1  0.49914922  0.83132584  0.50225374  1
  Pb  Pb44  1  0.83376331  0.50226744  0.16655850  1
  Pb  Pb45  1  0.16684608  0.16745208  0.49748813  1
  Pb  Pb46  1  0.16903398  0.16406788  0.83594660  1
  Pb  Pb47  1  0.16825942  0.50141714  0.83338386  1
  Pb  Pb48  1  0.83445141  0.50175795  0.50015283  1
  Pb  Pb49  1  0.83035143  0.16399427  0.83339220  1
  Pb  Pb50  1  0.83293571  0.16417037  0.16661889  1
  Pb  Pb51  1  0.50187688  0.83313849  0.16479852  1
  Pb  Pb52  1  0.49972057  0.17018426  0.49953461  1
  Pb  Pb53  1  0.83063901  0.50197448  0.83331174  1
  I  I54  1  0.17004717  0.00185210  0.16527988  1
  I  I55  1  0.16135789  -0.00312210  0.50295482  1
  I  I56  1  0.16806926  -0.00442521  0.82914956  1
  I  I57  1  0.17262142  0.33447662  0.17273809  1
  I  I58  1  0.17418821  0.33708498  0.49747956  1
  I  I59  1  0.16843972  0.33320341  0.83012121  1
  I  I60  1  0.17105757  0.66403472  0.16747802  1
  I  I61  1  0.16702738  0.66700582  0.49737535  1
  I  I62  1  0.16879599  0.67009892  0.83500171  1
  I  I63  1  0.49717729  0.00252540  0.16122794  1
  I  I64  1  0.50154308  -0.00007736  0.49998865  1
  I  I65  1  0.50132328  -0.00051580  0.83885804  1
  I  I66  1  0.49631680  0.33412220  0.16110577  1
  I  I67  1  0.49270926  0.33825864  0.50526345  1
  I  I68  1  0.49828210  0.33391924  0.83510847  1
  I  I69  1  0.49671014  0.66353786  0.16549220  1
  I  I70  1  0.49956071  0.66328240  0.49845210  1
  I  I71  1  0.50122594  0.66677217  0.83389133  1
  I  I72  1  0.83384409  -0.00394577  0.16563793  1
  I  I73  1  0.83816968  -0.00537101  0.50025099  1
  I  I74  1  0.83107488  -0.00472608  0.83378361  1
  I  I75  1  0.83291736  0.33331020  0.16706751  1
  I  I76  1  0.83251352  0.33361441  0.49900626  1
  I  I77  1  0.83333580  0.33305848  0.83357931  1
  I  I78  1  0.83271584  0.67044712  0.16555067  1
  I  I79  1  0.83373437  0.67038111  0.50100344  1
  I  I80  1  0.83041541  0.67105114  0.83342957  1
  I  I81  1  0.16925220  0.17081736  0.00370251  1
  I  I82  1  0.17456001  0.16318962  0.32958948  1
  I  I83  1  0.16733832  0.16755979  0.66692027  1
  I  I84  1  0.17185433  0.49966551  0.00283582  1
  I  I85  1  0.17585632  0.50440087  0.33322959  1
  I  I86  1  0.17256420  0.50619546  0.66397301  1
  I  I87  1  0.16603786  0.83332296  -0.00233452  1
  I  I88  1  0.16107644  0.83237189  0.33584971  1
  I  I89  1  0.16262439  0.82778305  0.66646335  1
  I  I90  1  0.49655350  0.16991796  0.00017377  1
  I  I91  1  0.49653644  0.16886597  0.32980758  1
  I  I92  1  0.50177378  0.16480262  0.66966948  1
  I  I93  1  0.49655827  0.50095017  0.00026431  1
  I  I94  1  0.49616789  0.49706656  0.33261002  1
  I  I95  1  0.49664847  0.50299376  0.66694094  1
  I  I96  1  0.49959877  0.82907419  -0.00353361  1
  I  I97  1  0.50156883  0.83384660  0.33341342  1
  I  I98  1  0.50493937  0.83367402  0.67055356  1
  I  I99  1  0.83534524  0.16219948  0.00006719  1
  I  I100  1  0.82996177  0.16271121  0.33299059  1
  I  I101  1  0.83162428  0.16563975  0.66697966  1
  I  I102  1  0.83391587  0.50546789  0.00005049  1
  I  I103  1  0.82726610  0.50463470  0.33332100  1
  I  I104  1  0.83169803  0.50365550  0.66663761  1
  I  I105  1  0.83293968  0.83335534  -0.00100495  1
  I  I106  1  0.83873676  0.83279799  0.33406128  1
  I  I107  1  0.83274486  0.83249962  0.66699258  1
  I  I108  1  0.00289780  0.16931016  0.16887535  1
  I  I109  1  0.00033355  0.17058140  0.49727131  1
  I  I110  1  0.00019618  0.16500432  0.83464023  1
  I  I111  1  0.00363933  0.49796000  0.17312192  1
  I  I112  1  0.00386083  0.50492560  0.49235538  1
  I  I113  1  0.00024113  0.50329951  0.83397217  1
  I  I114  1  -0.00264646  0.83339818  0.16155838  1
  I  I115  1  0.00067702  0.82754421  0.50437902  1
  I  I116  1  0.00012525  0.83248957  0.83340679  1
  I  I117  1  0.33430634  0.16876042  0.16244760  1
  I  I118  1  0.33344573  0.15861866  0.50214738  1
  I  I119  1  0.33721968  0.16361084  0.83514629  1
  I  I120  1  0.33421606  0.49804552  0.16701927  1
  I  I121  1  0.33326389  0.50752839  0.49875679  1
  I  I122  1  0.33696504  0.50434735  0.83395334  1
  I  I123  1  0.33346258  0.83387186  0.16592856  1
  I  I124  1  0.33026938  0.83114764  0.50439478  1
  I  I125  1  0.33378979  0.83260946  0.82931454  1
  I  I126  1  0.66311824  0.17019205  0.16204362  1
  I  I127  1  0.66624180  0.16598046  0.49796270  1
  I  I128  1  0.66202464  0.16543764  0.84087871  1
  I  I129  1  0.66309926  0.49716878  0.16636990  1
  I  I130  1  0.66370982  0.50147068  0.49986366  1
  I  I131  1  0.66151855  0.50292364  0.83427198  1
  I  I132  1  0.66975584  0.83317165  0.16673893  1
  I  I133  1  0.66871805  0.83208650  0.50083714  1
  I  I134  1  0.66622232  0.83289168  0.83401638  1
