# generated using pymatgen
data_Cs27Sn14Pb13I81
_symmetry_space_group_name_H-M   'P 1'
_cell_length_a   18.98751180
_cell_length_b   18.96751687
_cell_length_c   18.97412016
_cell_angle_alpha   90.00285433
_cell_angle_beta   90.00055894
_cell_angle_gamma   89.99933927
_symmetry_Int_Tables_number   1
_chemical_formula_structural   Cs27Sn14Pb13I81
_chemical_formula_sum   'Cs27 Sn14 Pb13 I81'
_cell_volume   6833.45252785
_cell_formula_units_Z   1
loop_
 _symmetry_equiv_pos_site_id
 _symmetry_equiv_pos_as_xyz
  1  'x, y, z'
loop_
 _atom_site_type_symbol
 _atom_site_label
 _atom_site_symmetry_multiplicity
 _atom_site_fract_x
 _atom_site_fract_y
 _atom_site_fract_z
 _atom_site_occupancy
  Cs  Cs0  1  0.00088043  0.00188827  -0.00307411  1
  Cs  Cs1  1  0.00167528  0.00081948  0.33377566  1
  Cs  Cs2  1  0.00155530  -0.00438925  0.66798567  1
  Cs  Cs3  1  -0.00051486  0.33234036  0.00038367  1
  Cs  Cs4  1  -0.00365869  0.33025307  0.33486217  1
  Cs  Cs5  1  -0.00044279  0.33927575  0.66502119  1
  Cs  Cs6  1  -0.00217256  0.66645701  -0.00027835  1
  Cs  Cs7  1  0.00044769  0.66754080  0.33138056  1
  Cs  Cs8  1  0.00219253  0.66585186  0.66907891  1
  Cs  Cs9  1  0.33262072  0.00843937  -0.00155112  1
  Cs  Cs10  1  0.33011745  -0.00284062  0.33348550  1
  Cs  Cs11  1  0.33255749  0.00159445  0.66701846  1
  Cs  Cs12  1  0.33278646  0.32672181  -0.00214588  1
  Cs  Cs13  1  0.33534055  0.33193682  0.33554949  1
  Cs  Cs14  1  0.33209198  0.33386775  0.66627982  1
  Cs  Cs15  1  0.33658002  0.66591419  0.00408345  1
  Cs  Cs16  1  0.33373847  0.66873602  0.33121796  1
  Cs  Cs17  1  0.33208211  0.66417740  0.66678329  1
  Cs  Cs18  1  0.66631538  0.00137521  -0.00119875  1
  Cs  Cs19  1  0.66797457  0.00129843  0.33374950  1
  Cs  Cs20  1  0.66623227  0.00004144  0.66802924  1
  Cs  Cs21  1  0.66794999  0.33637043  -0.00048801  1
  Cs  Cs22  1  0.66940198  0.32593434  0.34207510  1
  Cs  Cs23  1  0.66706717  0.33119274  0.66186235  1
  Cs  Cs24  1  0.66661945  0.66535146  0.00129837  1
  Cs  Cs25  1  0.66552545  0.66749509  0.33026548  1
  Cs  Cs26  1  0.66614177  0.66739101  0.66900815  1
  Sn  Sn27  1  0.83342996  0.83273568  0.49925046  1
  Sn  Sn28  1  0.16679464  0.50052447  0.16666620  1
  Sn  Sn29  1  0.50036834  0.50005227  0.16617212  1
  Sn  Sn30  1  0.16658460  0.83269407  0.16681754  1
  Sn  Sn31  1  0.50078973  0.50093777  0.83407497  1
  Sn  Sn32  1  0.49999774  0.83338890  0.16630501  1
  Sn  Sn33  1  0.16663957  0.83372629  0.49937012  1
  Sn  Sn34  1  0.16653762  0.16604544  0.50000247  1
  Sn  Sn35  1  0.83326953  0.16790824  0.83342526  1
  Sn  Sn36  1  0.83232140  0.49926558  0.83403100  1
  Sn  Sn37  1  0.49966933  0.83253138  0.83390915  1
  Sn  Sn38  1  0.83333189  0.83290063  0.16721514  1
  Sn  Sn39  1  0.83285983  0.50055576  0.16638542  1
  Sn  Sn40  1  0.49993628  0.83294003  0.49992118  1
  Pb  Pb41  1  0.83328651  0.16657102  0.16502619  1
  Pb  Pb42  1  0.16391567  0.16686855  0.83048958  1
  Pb  Pb43  1  0.16713896  0.50034330  0.83631177  1
  Pb  Pb44  1  0.16667504  0.50088125  0.49704268  1
  Pb  Pb45  1  0.50022697  0.16723256  0.16675157  1
  Pb  Pb46  1  0.16996599  0.83302058  0.83414329  1
  Pb  Pb47  1  0.16651796  0.16661262  0.16848998  1
  Pb  Pb48  1  0.50191046  0.16765464  0.83333794  1
  Pb  Pb49  1  0.83320081  0.50262241  0.49980577  1
  Pb  Pb50  1  0.49772862  0.16358846  0.50003546  1
  Pb  Pb51  1  0.83540517  0.16352255  0.50254213  1
  Pb  Pb52  1  0.50012742  0.50216095  0.49971585  1
  Pb  Pb53  1  0.83152908  0.83237199  0.83392641  1
  I  I54  1  0.16696860  -0.00374465  0.16891599  1
  I  I55  1  0.16693272  -0.00273885  0.49398152  1
  I  I56  1  0.16588782  -0.00025330  0.83813238  1
  I  I57  1  0.16663889  0.33669639  0.16702726  1
  I  I58  1  0.16589823  0.33105317  0.49932095  1
  I  I59  1  0.17146513  0.33361698  0.83290257  1
  I  I60  1  0.16697060  0.66794182  0.17244494  1
  I  I61  1  0.16721708  0.67063796  0.49814162  1
  I  I62  1  0.16074914  0.66679481  0.82625911  1
  I  I63  1  0.49955359  -0.00446817  0.16645174  1
  I  I64  1  0.50305234  -0.00532009  0.49957068  1
  I  I65  1  0.50146950  -0.00306405  0.83356693  1
  I  I66  1  0.49881780  0.33761472  0.15976324  1
  I  I67  1  0.49781519  0.33333973  0.50011972  1
  I  I68  1  0.50132553  0.33725733  0.84011887  1
  I  I69  1  0.49985132  0.66778526  0.16624825  1
  I  I70  1  0.49666223  0.67097132  0.49961470  1
  I  I71  1  0.50649129  0.66673695  0.83412930  1
  I  I72  1  0.83345413  -0.00383405  0.16920937  1
  I  I73  1  0.83034093  -0.00462644  0.49538912  1
  I  I74  1  0.83202986  0.00111058  0.83214710  1
  I  I75  1  0.83382993  0.33698292  0.16371508  1
  I  I76  1  0.83571081  0.33324569  0.49749845  1
  I  I77  1  0.82842976  0.33538369  0.83947862  1
  I  I78  1  0.83348456  0.66715352  0.16449892  1
  I  I79  1  0.83627354  0.67097102  0.50087362  1
  I  I80  1  0.83099327  0.66381005  0.83481890  1
  I  I81  1  0.16676448  0.16554371  -0.00002248  1
  I  I82  1  0.16536368  0.16282563  0.33617536  1
  I  I83  1  0.16701844  0.15720793  0.66278411  1
  I  I84  1  0.16592721  0.50799399  0.00438832  1
  I  I85  1  0.16699559  0.50278878  0.32881894  1
  I  I86  1  0.16633220  0.49961836  0.66658644  1
  I  I87  1  0.16446059  0.82832509  0.00389436  1
  I  I88  1  0.17039953  0.83337560  0.33286681  1
  I  I89  1  0.16576746  0.83829797  0.66366081  1
  I  I90  1  0.49847914  0.15950431  -0.00010328  1
  I  I91  1  0.50134661  0.16860658  0.33350590  1
  I  I92  1  0.50006379  0.16567094  0.66669132  1
  I  I93  1  0.50146942  0.50930411  0.00069944  1
  I  I94  1  0.49960423  0.50495363  0.32949455  1
  I  I95  1  0.50529695  0.50486786  0.66986405  1
  I  I96  1  0.50137564  0.82886335  0.00101179  1
  I  I97  1  0.49949923  0.82978216  0.33254158  1
  I  I98  1  0.50111171  0.83008935  0.66663562  1
  I  I99  1  0.83322326  0.16487063  -0.00286916  1
  I  I100  1  0.83425699  0.16923250  0.33372983  1
  I  I101  1  0.83304919  0.17232689  0.67008801  1
  I  I102  1  0.83293691  0.50257311  0.00097800  1
  I  I103  1  0.83303546  0.50324046  0.32963931  1
  I  I104  1  0.82842532  0.49739383  0.66981053  1
  I  I105  1  0.83410237  0.83270214  0.00324883  1
  I  I106  1  0.82977569  0.82853762  0.33218345  1
  I  I107  1  0.83328429  0.83440196  0.66444863  1
  I  I108  1  -0.00007657  0.16655447  0.16585220  1
  I  I109  1  0.00291088  0.15924211  0.49951828  1
  I  I110  1  -0.00382590  0.17144212  0.83480057  1
  I  I111  1  -0.00076352  0.50685963  0.16333617  1
  I  I112  1  -0.00007141  0.50263220  0.50138533  1
  I  I113  1  -0.00304853  0.49611021  0.83667722  1
  I  I114  1  -0.00014107  0.82725848  0.17432038  1
  I  I115  1  0.00025772  0.83731214  0.49327015  1
  I  I116  1  -0.00008211  0.83391540  0.83224385  1
  I  I117  1  0.33327584  0.16651243  0.16638154  1
  I  I118  1  0.32997093  0.16065324  0.49932479  1
  I  I119  1  0.33332181  0.16631854  0.83258906  1
  I  I120  1  0.33406272  0.50794690  0.16377562  1
  I  I121  1  0.33335364  0.50133249  0.50129273  1
  I  I122  1  0.33687766  0.50575073  0.83626672  1
  I  I123  1  0.33356559  0.82697738  0.17049282  1
  I  I124  1  0.33329270  0.83707327  0.49682223  1
  I  I125  1  0.33816405  0.82717678  0.83269863  1
  I  I126  1  0.66681308  0.16411816  0.16734129  1
  I  I127  1  0.66699487  0.16589469  0.50065038  1
  I  I128  1  0.66959075  0.16662970  0.83292544  1
  I  I129  1  0.66673089  0.50881498  0.16030913  1
  I  I130  1  0.66670848  0.50157654  0.49610638  1
  I  I131  1  0.66667018  0.50116823  0.84176695  1
  I  I132  1  0.66649246  0.82810695  0.16940511  1
  I  I133  1  0.66648159  0.83111835  0.49720240  1
  I  I134  1  0.66352930  0.83285904  0.83253220  1
