# generated using pymatgen
data_Cs27Sn13Pb14I81
_symmetry_space_group_name_H-M   'P 1'
_cell_length_a   18.96824955
_cell_length_b   18.97888523
_cell_length_c   18.98285032
_cell_angle_alpha   90.00088879
_cell_angle_beta   90.00145589
_cell_angle_gamma   90.00058788
_symmetry_Int_Tables_number   1
_chemical_formula_structural   Cs27Sn13Pb14I81
_chemical_formula_sum   'Cs27 Sn13 Pb14 I81'
_cell_volume   6833.75456822
_cell_formula_units_Z   1
loop_
 _symmetry_equiv_pos_site_id
 _symmetry_equiv_pos_as_xyz
  1  'x, y, z'
loop_
 _atom_site_type_symbol
 _atom_site_label
 _atom_site_symmetry_multiplicity
 _atom_site_fract_x
 _atom_site_fract_y
 _atom_site_fract_z
 _atom_site_occupancy
  Cs  Cs0  1  -0.00058643  -0.00417470  -0.00109375  1
  Cs  Cs1  1  0.00661488  0.00273592  0.33314131  1
  Cs  Cs2  1  0.00206508  0.00282172  0.66671093  1
  Cs  Cs3  1  -0.00137010  0.33470569  -0.00281443  1
  Cs  Cs4  1  0.00105978  0.33195571  0.33576363  1
  Cs  Cs5  1  -0.00181403  0.33387986  0.66641302  1
  Cs  Cs6  1  -0.00040333  0.66767185  0.00013697  1
  Cs  Cs7  1  -0.00175572  0.66521835  0.32806641  1
  Cs  Cs8  1  -0.00072263  0.66314174  0.66863945  1
  Cs  Cs9  1  0.33438302  0.00228204  0.00110317  1
  Cs  Cs10  1  0.32648839  0.00242233  0.33757373  1
  Cs  Cs11  1  0.33135201  -0.00404346  0.66356663  1
  Cs  Cs12  1  0.34000302  0.33121789  0.00665498  1
  Cs  Cs13  1  0.33372625  0.33262866  0.32194353  1
  Cs  Cs14  1  0.33598577  0.33518068  0.66979903  1
  Cs  Cs15  1  0.33055474  0.66622608  0.00303647  1
  Cs  Cs16  1  0.33569477  0.66500754  0.33652837  1
  Cs  Cs17  1  0.33409168  0.66910690  0.66246599  1
  Cs  Cs18  1  0.66648245  -0.00094671  0.00037211  1
  Cs  Cs19  1  0.66799397  -0.00145666  0.33454353  1
  Cs  Cs20  1  0.66670191  0.00069601  0.66658512  1
  Cs  Cs21  1  0.66376187  0.33145850  -0.00151502  1
  Cs  Cs22  1  0.66672861  0.33258745  0.33378882  1
  Cs  Cs23  1  0.66646511  0.33295089  0.66802842  1
  Cs  Cs24  1  0.66864020  0.66984162  -0.00032114  1
  Cs  Cs25  1  0.66600767  0.66878093  0.33573698  1
  Cs  Cs26  1  0.66607775  0.66653720  0.66565117  1
  Sn  Sn27  1  0.83391403  0.50088749  0.50009673  1
  Sn  Sn28  1  0.16614780  0.49876512  0.83256488  1
  Sn  Sn29  1  0.83347693  0.49992599  0.83335505  1
  Sn  Sn30  1  0.83259772  0.83329412  0.83211131  1
  Sn  Sn31  1  0.50000235  0.16712188  0.50020680  1
  Sn  Sn32  1  0.83373831  0.83298311  0.50084789  1
  Sn  Sn33  1  0.83307921  0.49889987  0.16640167  1
  Sn  Sn34  1  0.50050783  0.83314554  0.83420636  1
  Sn  Sn35  1  0.83386430  0.16673286  0.83419923  1
  Sn  Sn36  1  0.83339744  0.16716896  0.16588445  1
  Sn  Sn37  1  0.16593031  0.49964292  0.50072471  1
  Sn  Sn38  1  0.16618415  0.16783464  0.83338126  1
  Sn  Sn39  1  0.49997063  0.83342583  0.16623884  1
  Pb  Pb40  1  0.49971370  0.50248608  0.83337547  1
  Pb  Pb41  1  0.50253263  0.16433468  0.16883769  1
  Pb  Pb42  1  0.50191995  0.83496571  0.50016841  1
  Pb  Pb43  1  0.16375299  0.16678087  0.16353378  1
  Pb  Pb44  1  0.83262362  0.83357179  0.16677337  1
  Pb  Pb45  1  0.16317109  0.83051746  0.50016373  1
  Pb  Pb46  1  0.83272139  0.16696060  0.50032479  1
  Pb  Pb47  1  0.50308376  0.50236410  0.16650428  1
  Pb  Pb48  1  0.16928339  0.16986091  0.50251351  1
  Pb  Pb49  1  0.17008810  0.83325004  0.16674877  1
  Pb  Pb50  1  0.16431253  0.49997030  0.16610139  1
  Pb  Pb51  1  0.50002577  0.49772126  0.50003205  1
  Pb  Pb52  1  0.16637462  0.83282192  0.83337961  1
  Pb  Pb53  1  0.49994129  0.16446832  0.83207591  1
  I  I54  1  0.16259081  0.00029772  0.16525273  1
  I  I55  1  0.16683121  0.00033141  0.50077937  1
  I  I56  1  0.16254403  0.00257502  0.83441757  1
  I  I57  1  0.16979001  0.33339414  0.16912484  1
  I  I58  1  0.15729468  0.33732321  0.50273185  1
  I  I59  1  0.15667450  0.33404780  0.82856704  1
  I  I60  1  0.16308866  0.66627350  0.16359956  1
  I  I61  1  0.16661719  0.66252989  0.50806477  1
  I  I62  1  0.16262305  0.66321283  0.82992715  1
  I  I63  1  0.50531736  -0.00310668  0.16157865  1
  I  I64  1  0.50423778  0.00235326  0.50119033  1
  I  I65  1  0.50578784  -0.00325619  0.83577857  1
  I  I66  1  0.49922727  0.33308994  0.16833598  1
  I  I67  1  0.50464383  0.33042165  0.50193944  1
  I  I68  1  0.50286382  0.33316668  0.83121692  1
  I  I69  1  0.50329457  0.67009950  0.16311716  1
  I  I70  1  0.49903763  0.66670895  0.49972771  1
  I  I71  1  0.50599872  0.67041443  0.83512211  1
  I  I72  1  0.83052793  0.00234730  0.16298392  1
  I  I73  1  0.82839743  -0.00212224  0.50309379  1
  I  I74  1  0.83300936  0.00007164  0.83369736  1
  I  I75  1  0.83312887  0.33385143  0.16402310  1
  I  I76  1  0.83504996  0.33644799  0.50188830  1
  I  I77  1  0.83758116  0.33370429  0.83330122  1
  I  I78  1  0.83217731  0.66407092  0.16490021  1
  I  I79  1  0.83475645  0.66576437  0.50287952  1
  I  I80  1  0.83320797  0.66610454  0.83310969  1
  I  I81  1  0.16637014  0.17317910  -0.00456344  1
  I  I82  1  0.16672246  0.16675537  0.33341950  1
  I  I83  1  0.15867313  0.16752766  0.67030881  1
  I  I84  1  0.16174036  0.49797964  -0.00372895  1
  I  I85  1  0.16178680  0.50177549  0.33615307  1
  I  I86  1  0.15732181  0.49692607  0.66766215  1
  I  I87  1  0.16121670  0.83052090  -0.00048797  1
  I  I88  1  0.16599638  0.83231241  0.33371081  1
  I  I89  1  0.17221274  0.83569952  0.66690136  1
  I  I90  1  0.49873620  0.16657976  -0.00003430  1
  I  I91  1  0.50349571  0.16509154  0.33622372  1
  I  I92  1  0.50418258  0.16426205  0.66470880  1
  I  I93  1  0.49983260  0.49767817  -0.00017695  1
  I  I94  1  0.50060842  0.50255095  0.33336964  1
  I  I95  1  0.50475468  0.50206201  0.66673087  1
  I  I96  1  0.50829907  0.83376299  -0.00132419  1
  I  I97  1  0.50418511  0.83411352  0.33139872  1
  I  I98  1  0.50319801  0.83472366  0.66931079  1
  I  I99  1  0.83559885  0.16918370  -0.00154327  1
  I  I100  1  0.82881660  0.16915332  0.33137871  1
  I  I101  1  0.83475808  0.16793301  0.66985770  1
  I  I102  1  0.83670853  0.50070066  -0.00134422  1
  I  I103  1  0.83622984  0.50090719  0.33401007  1
  I  I104  1  0.83675171  0.50083960  0.66734486  1
  I  I105  1  0.83144773  0.83131432  -0.00303778  1
  I  I106  1  0.83017367  0.82955245  0.33565193  1
  I  I107  1  0.82723889  0.83048540  0.66810375  1
  I  I108  1  -0.00452137  0.16910428  0.16772856  1
  I  I109  1  0.00010577  0.16403280  0.49785276  1
  I  I110  1  -0.00197733  0.16527879  0.83584807  1
  I  I111  1  -0.00438197  0.49848165  0.16655381  1
  I  I112  1  -0.00196183  0.50332278  0.50171717  1
  I  I113  1  -0.00198716  0.50125927  0.83256733  1
  I  I114  1  -0.00039997  0.83308789  0.16649006  1
  I  I115  1  -0.00498666  0.83407540  0.50661292  1
  I  I116  1  -0.00371540  0.83336279  0.82973007  1
  I  I117  1  0.33342028  0.16518108  0.16651703  1
  I  I118  1  0.33650753  0.16480776  0.50241530  1
  I  I119  1  0.33068357  0.16996273  0.82978620  1
  I  I120  1  0.33331215  0.50182803  0.16727880  1
  I  I121  1  0.33024209  0.49894462  0.50680999  1
  I  I122  1  0.32981217  0.49716317  0.82750418  1
  I  I123  1  0.33818589  0.83361633  0.15863666  1
  I  I124  1  0.33333163  0.83304924  0.50006669  1
  I  I125  1  0.33606564  0.83395704  0.83780896  1
  I  I126  1  0.67049603  0.17060033  0.15986448  1
  I  I127  1  0.66525386  0.16730763  0.50208767  1
  I  I128  1  0.67011164  0.16900872  0.83518209  1
  I  I129  1  0.67160363  0.49650010  0.16624025  1
  I  I130  1  0.67043602  0.50290887  0.50119820  1
  I  I131  1  0.67047181  0.49758096  0.83212320  1
  I  I132  1  0.66502193  0.83295517  0.16452959  1
  I  I133  1  0.67005131  0.82727271  0.50183123  1
  I  I134  1  0.66888000  0.83332562  0.83340835  1
