# generated using pymatgen
data_Cs27Sn14Pb13I81
_symmetry_space_group_name_H-M   'P 1'
_cell_length_a   18.96262426
_cell_length_b   18.96476293
_cell_length_c   18.95687016
_cell_angle_alpha   90.00015834
_cell_angle_beta   89.99875512
_cell_angle_gamma   90.00020885
_symmetry_Int_Tables_number   1
_chemical_formula_structural   Cs27Sn14Pb13I81
_chemical_formula_sum   'Cs27 Sn14 Pb13 I81'
_cell_volume   6817.30137097
_cell_formula_units_Z   1
loop_
 _symmetry_equiv_pos_site_id
 _symmetry_equiv_pos_as_xyz
  1  'x, y, z'
loop_
 _atom_site_type_symbol
 _atom_site_label
 _atom_site_symmetry_multiplicity
 _atom_site_fract_x
 _atom_site_fract_y
 _atom_site_fract_z
 _atom_site_occupancy
  Cs  Cs0  1  0.00072342  -0.00070906  0.00007375  1
  Cs  Cs1  1  -0.00035801  0.00046184  0.33413854  1
  Cs  Cs2  1  0.00121386  0.00016583  0.66478717  1
  Cs  Cs3  1  0.00185554  0.33279313  0.00146237  1
  Cs  Cs4  1  0.00097178  0.33313787  0.33536737  1
  Cs  Cs5  1  -0.00958269  0.32945502  0.66167272  1
  Cs  Cs6  1  0.00098777  0.66720260  0.00061981  1
  Cs  Cs7  1  0.00190975  0.66567570  0.33117385  1
  Cs  Cs8  1  -0.00055242  0.66964836  0.66784766  1
  Cs  Cs9  1  0.33395097  0.00069275  0.00045949  1
  Cs  Cs10  1  0.33654552  0.00006931  0.33495555  1
  Cs  Cs11  1  0.33189994  -0.00132189  0.66508600  1
  Cs  Cs12  1  0.33208217  0.33115275  -0.00079949  1
  Cs  Cs13  1  0.33142899  0.33841649  0.33501759  1
  Cs  Cs14  1  0.33746617  0.33607499  0.66573790  1
  Cs  Cs15  1  0.33016386  0.66777620  0.00002447  1
  Cs  Cs16  1  0.33173333  0.66254403  0.33431541  1
  Cs  Cs17  1  0.33490022  0.66731087  0.66555954  1
  Cs  Cs18  1  0.66436133  0.00071432  0.00185166  1
  Cs  Cs19  1  0.66413308  -0.00118262  0.33189953  1
  Cs  Cs20  1  0.66654041  0.00020255  0.66576120  1
  Cs  Cs21  1  0.66485175  0.33176003  -0.00505243  1
  Cs  Cs22  1  0.66740692  0.33530745  0.33443587  1
  Cs  Cs23  1  0.67068144  0.33963023  0.67091211  1
  Cs  Cs24  1  0.66796392  0.66819964  0.00168865  1
  Cs  Cs25  1  0.66633511  0.66775709  0.33220190  1
  Cs  Cs26  1  0.66530180  0.66351489  0.66616864  1
  Sn  Sn27  1  0.16680538  0.83361212  0.83422655  1
  Sn  Sn28  1  0.16608462  0.16547738  0.16628618  1
  Sn  Sn29  1  0.83231736  0.49980883  0.16630953  1
  Sn  Sn30  1  0.83377491  0.16648007  0.16648517  1
  Sn  Sn31  1  0.16652686  0.16676547  0.83350169  1
  Sn  Sn32  1  0.50000425  0.83356393  0.83274283  1
  Sn  Sn33  1  0.50072472  0.49996006  0.16602661  1
  Sn  Sn34  1  0.16605696  0.83440960  0.16619272  1
  Sn  Sn35  1  0.50085946  0.83412344  0.50075940  1
  Sn  Sn36  1  0.50033996  0.16650391  0.50031713  1
  Sn  Sn37  1  0.83314541  0.83357380  0.83340477  1
  Sn  Sn38  1  0.16617559  0.49963347  0.83292887  1
  Sn  Sn39  1  0.83245845  0.83347944  0.49974572  1
  Sn  Sn40  1  0.83414452  0.83368762  0.16666767  1
  Pb  Pb41  1  0.83101742  0.16441395  0.49762925  1
  Pb  Pb42  1  0.16613267  0.49980214  0.16542264  1
  Pb  Pb43  1  0.83529883  0.16435409  0.83539159  1
  Pb  Pb44  1  0.49951455  0.83206327  0.16685674  1
  Pb  Pb45  1  0.50025373  0.50053690  0.49822616  1
  Pb  Pb46  1  0.49960464  0.16911557  0.16823333  1
  Pb  Pb47  1  0.49825285  0.50244506  0.83564507  1
  Pb  Pb48  1  0.49793641  0.16460817  0.83112757  1
  Pb  Pb49  1  0.83343800  0.50282512  0.49757581  1
  Pb  Pb50  1  0.16675476  0.83322656  0.49971557  1
  Pb  Pb51  1  0.16860485  0.16662061  0.49987120  1
  Pb  Pb52  1  0.16628660  0.49985643  0.50395925  1
  Pb  Pb53  1  0.83549115  0.50212720  0.83566948  1
  I  I54  1  0.15966690  -0.00083448  0.15899686  1
  I  I55  1  0.16585445  -0.00031457  0.50317254  1
  I  I56  1  0.16682315  -0.00144223  0.83793223  1
  I  I57  1  0.16462176  0.33065352  0.16246254  1
  I  I58  1  0.17039676  0.33304614  0.49706807  1
  I  I59  1  0.16840602  0.33253698  0.84041355  1
  I  I60  1  0.16414893  0.66946125  0.16273743  1
  I  I61  1  0.16937129  0.66714342  0.49745037  1
  I  I62  1  0.16662625  0.66878611  0.83821589  1
  I  I63  1  0.50146714  -0.00010574  0.16579966  1
  I  I64  1  0.50261598  -0.00195215  0.50163274  1
  I  I65  1  0.49801907  -0.00414399  0.83403019  1
  I  I66  1  0.50272541  0.33655743  0.16908384  1
  I  I67  1  0.49638918  0.33098191  0.49588693  1
  I  I68  1  0.49727901  0.33336364  0.83234092  1
  I  I69  1  0.50297813  0.66454837  0.16762126  1
  I  I70  1  0.50343586  0.67023966  0.50301187  1
  I  I71  1  0.49768852  0.67103889  0.82804712  1
  I  I72  1  0.83829430  -0.00140637  0.16679742  1
  I  I73  1  0.83215705  -0.00407720  0.49791399  1
  I  I74  1  0.83534697  -0.00444750  0.83565793  1
  I  I75  1  0.83435910  0.33300159  0.16690872  1
  I  I76  1  0.83217767  0.33308020  0.49856418  1
  I  I77  1  0.83517992  0.33319467  0.83487474  1
  I  I78  1  0.83359381  0.66837191  0.16667176  1
  I  I79  1  0.82721705  0.67147953  0.49868115  1
  I  I80  1  0.83586442  0.67100612  0.83577410  1
  I  I81  1  0.16404670  0.16477473  0.00063475  1
  I  I82  1  0.16377609  0.16142277  0.32966338  1
  I  I83  1  0.16923305  0.16378983  0.66991408  1
  I  I84  1  0.16676947  0.50262664  -0.00232971  1
  I  I85  1  0.16775397  0.50099211  0.33292943  1
  I  I86  1  0.16912625  0.50392388  0.67201097  1
  I  I87  1  0.16440844  0.83332543  -0.00045224  1
  I  I88  1  0.16372926  0.83730054  0.32985034  1
  I  I89  1  0.16445143  0.83367897  0.67015501  1
  I  I90  1  0.50078332  0.16598400  0.00001499  1
  I  I91  1  0.49890251  0.15835825  0.33583471  1
  I  I92  1  0.49715659  0.16326540  0.66338457  1
  I  I93  1  0.50403259  0.50165722  0.00342675  1
  I  I94  1  0.50201179  0.50319062  0.33010378  1
  I  I95  1  0.49697811  0.49936726  0.66700967  1
  I  I96  1  0.50076804  0.83081231  -0.00241449  1
  I  I97  1  0.50311836  0.83507181  0.33570542  1
  I  I98  1  0.50143593  0.83640207  0.66698476  1
  I  I99  1  0.83388248  0.16396667  0.00395892  1
  I  I100  1  0.83965934  0.16449468  0.32916912  1
  I  I101  1  0.83516756  0.16465053  0.66670945  1
  I  I102  1  0.83047047  0.50365618  0.00399458  1
  I  I103  1  0.83098536  0.50264984  0.32892316  1
  I  I104  1  0.83508745  0.50131317  0.66705093  1
  I  I105  1  0.83455434  0.83254915  0.00079543  1
  I  I106  1  0.83266431  0.83316636  0.33199730  1
  I  I107  1  0.83423600  0.83338294  0.66731950  1
  I  I108  1  0.00029782  0.16676020  0.16326317  1
  I  I109  1  -0.00028238  0.16554403  0.50117919  1
  I  I110  1  0.00381017  0.16391398  0.83504114  1
  I  I111  1  -0.00269116  0.50207664  0.16490602  1
  I  I112  1  -0.00028669  0.50169568  0.49602921  1
  I  I113  1  0.00349985  0.50393979  0.83764648  1
  I  I114  1  -0.00072629  0.83134717  0.16418943  1
  I  I115  1  -0.00292341  0.83247738  0.50124267  1
  I  I116  1  0.00053946  0.83263188  0.83463476  1
  I  I117  1  0.33008066  0.16280428  0.16380264  1
  I  I118  1  0.33634278  0.15859213  0.49799787  1
  I  I119  1  0.32950921  0.16364640  0.84054586  1
  I  I120  1  0.33478069  0.50147830  0.16578325  1
  I  I121  1  0.33354564  0.50268686  0.49509497  1
  I  I122  1  0.33016874  0.50304979  0.83758427  1
  I  I123  1  0.33040703  0.83549434  0.16309434  1
  I  I124  1  0.33622083  0.83623372  0.50280945  1
  I  I125  1  0.33217554  0.83310095  0.83372252  1
  I  I126  1  0.66941874  0.16263375  0.16929080  1
  I  I127  1  0.66342662  0.16207517  0.49687036  1
  I  I128  1  0.66675365  0.16438926  0.83491209  1
  I  I129  1  0.66788723  0.50269095  0.16754507  1
  I  I130  1  0.66679199  0.49892599  0.50117469  1
  I  I131  1  0.66690463  0.50198227  0.83317749  1
  I  I132  1  0.66957884  0.83482428  0.16445473  1
  I  I133  1  0.66677780  0.83696687  0.50144410  1
  I  I134  1  0.66717787  0.83297283  0.83418549  1
