# generated using pymatgen
data_Cs27Sn13Pb14I81
_symmetry_space_group_name_H-M   'P 1'
_cell_length_a   19.00169818
_cell_length_b   18.98809252
_cell_length_c   18.98667488
_cell_angle_alpha   89.99712010
_cell_angle_beta   90.00009043
_cell_angle_gamma   90.00090614
_symmetry_Int_Tables_number   1
_chemical_formula_structural   Cs27Sn13Pb14I81
_chemical_formula_sum   'Cs27 Sn13 Pb14 I81'
_cell_volume   6850.50627079
_cell_formula_units_Z   1
loop_
 _symmetry_equiv_pos_site_id
 _symmetry_equiv_pos_as_xyz
  1  'x, y, z'
loop_
 _atom_site_type_symbol
 _atom_site_label
 _atom_site_symmetry_multiplicity
 _atom_site_fract_x
 _atom_site_fract_y
 _atom_site_fract_z
 _atom_site_occupancy
  Cs  Cs0  1  0.00065507  0.00506316  -0.00116086  1
  Cs  Cs1  1  0.00160411  -0.00047255  0.33571971  1
  Cs  Cs2  1  0.00366999  -0.00396895  0.66476615  1
  Cs  Cs3  1  -0.00887361  0.32474246  -0.00749480  1
  Cs  Cs4  1  0.00053704  0.33500241  0.33166002  1
  Cs  Cs5  1  -0.00164265  0.33519209  0.67119859  1
  Cs  Cs6  1  0.00131784  0.66589458  0.00140196  1
  Cs  Cs7  1  -0.00041891  0.66542593  0.33331762  1
  Cs  Cs8  1  0.00125816  0.66830481  0.66674231  1
  Cs  Cs9  1  0.33181682  0.00544048  0.00107722  1
  Cs  Cs10  1  0.33449425  0.00107472  0.33359248  1
  Cs  Cs11  1  0.33049645  -0.00158581  0.66497605  1
  Cs  Cs12  1  0.33325465  0.32747703  -0.00737434  1
  Cs  Cs13  1  0.33213857  0.33592266  0.33496825  1
  Cs  Cs14  1  0.33458596  0.33611720  0.66641924  1
  Cs  Cs15  1  0.33403110  0.66589274  0.00360923  1
  Cs  Cs16  1  0.33414050  0.66333966  0.33067059  1
  Cs  Cs17  1  0.33166994  0.66558163  0.66897965  1
  Cs  Cs18  1  0.66681152  -0.00128685  -0.00057468  1
  Cs  Cs19  1  0.66409613  -0.00076799  0.33387447  1
  Cs  Cs20  1  0.66627635  -0.00095985  0.66554998  1
  Cs  Cs21  1  0.67531394  0.32524268  -0.00959376  1
  Cs  Cs22  1  0.66860534  0.33504764  0.33284518  1
  Cs  Cs23  1  0.66744778  0.33429852  0.67129384  1
  Cs  Cs24  1  0.66622868  0.66947087  0.00142078  1
  Cs  Cs25  1  0.66606616  0.66582220  0.33203766  1
  Cs  Cs26  1  0.66747613  0.66651480  0.66680619  1
  Sn  Sn27  1  0.49982099  0.83268718  0.50001314  1
  Sn  Sn28  1  0.49964076  0.83293900  0.16651643  1
  Sn  Sn29  1  0.83278619  0.83304101  0.83396912  1
  Sn  Sn30  1  0.16752830  0.49994861  0.16666897  1
  Sn  Sn31  1  0.16696580  0.83288584  0.16710599  1
  Sn  Sn32  1  0.16736599  0.49947892  0.49915759  1
  Sn  Sn33  1  0.50015151  0.16723590  0.49943322  1
  Sn  Sn34  1  0.83343292  0.83334659  0.16629999  1
  Sn  Sn35  1  0.83332654  0.16670216  0.49932074  1
  Sn  Sn36  1  0.50020842  0.83306969  0.83366526  1
  Sn  Sn37  1  0.49945173  0.50014660  0.49911976  1
  Sn  Sn38  1  0.49956304  0.49973753  0.16661125  1
  Sn  Sn39  1  0.16666322  0.16802815  0.49941804  1
  Pb  Pb40  1  0.50002438  0.50226868  0.83417754  1
  Pb  Pb41  1  0.83323469  0.49785680  0.49994953  1
  Pb  Pb42  1  0.16706176  0.83304940  0.83671734  1
  Pb  Pb43  1  0.83325033  0.16315932  0.83019575  1
  Pb  Pb44  1  0.16685261  0.16795048  0.16856527  1
  Pb  Pb45  1  0.50003262  0.16789122  0.16844032  1
  Pb  Pb46  1  0.16682877  0.16662926  0.82985487  1
  Pb  Pb47  1  0.49984718  0.16365256  0.83025897  1
  Pb  Pb48  1  0.16678653  0.50021332  0.83438022  1
  Pb  Pb49  1  0.83318055  0.16386607  0.16909359  1
  Pb  Pb50  1  0.16913354  0.83240223  0.49776878  1
  Pb  Pb51  1  0.83325708  0.50329726  0.83351077  1
  Pb  Pb52  1  0.83110979  0.83464799  0.49976051  1
  Pb  Pb53  1  0.83306076  0.50167435  0.16656879  1
  I  I54  1  0.16744722  -0.00278966  0.16774445  1
  I  I55  1  0.16757550  0.00188157  0.49905915  1
  I  I56  1  0.16693480  -0.00045642  0.83233988  1
  I  I57  1  0.17403324  0.33733224  0.17165710  1
  I  I58  1  0.17211019  0.33390185  0.49384476  1
  I  I59  1  0.16627559  0.33334595  0.83797100  1
  I  I60  1  0.16732713  0.66701225  0.17322643  1
  I  I61  1  0.17134554  0.66359975  0.49841097  1
  I  I62  1  0.16507335  0.66697344  0.82535462  1
  I  I63  1  0.50005187  -0.00351491  0.16792564  1
  I  I64  1  0.50062366  -0.00044844  0.50019317  1
  I  I65  1  0.50433458  -0.00468968  0.83483990  1
  I  I66  1  0.49290716  0.33737407  0.17466057  1
  I  I67  1  0.49888893  0.33394738  0.49405342  1
  I  I68  1  0.49959796  0.33330185  0.83339305  1
  I  I69  1  0.49983952  0.66823296  0.17198192  1
  I  I70  1  0.49588287  0.66671966  0.49944020  1
  I  I71  1  0.50442647  0.67057695  0.82771591  1
  I  I72  1  0.83196073  -0.00486350  0.16308650  1
  I  I73  1  0.83378127  0.00266363  0.49969271  1
  I  I74  1  0.82752302  -0.00416469  0.83853126  1
  I  I75  1  0.83341893  0.33328260  0.16804020  1
  I  I76  1  0.82818088  0.32980466  0.49932244  1
  I  I77  1  0.83409102  0.33267120  0.83308324  1
  I  I78  1  0.83230541  0.67054251  0.16503451  1
  I  I79  1  0.83351645  0.66686402  0.50105980  1
  I  I80  1  0.82813615  0.67147929  0.83512477  1
  I  I81  1  0.16607142  0.16594391  0.00016552  1
  I  I82  1  0.16788211  0.16613091  0.33709352  1
  I  I83  1  0.16776944  0.17076936  0.66107053  1
  I  I84  1  0.17279729  0.50899147  0.00434921  1
  I  I85  1  0.17128008  0.50049506  0.33383619  1
  I  I86  1  0.17146860  0.49533403  0.66312040  1
  I  I87  1  0.17121213  0.82656662  0.00478479  1
  I  I88  1  0.16543409  0.83342170  0.32988537  1
  I  I89  1  0.16595740  0.83438001  0.66646322  1
  I  I90  1  0.50023898  0.16662411  -0.00019802  1
  I  I91  1  0.49956511  0.15946419  0.33739670  1
  I  I92  1  0.49979126  0.16729614  0.66143229  1
  I  I93  1  0.49411083  0.50863573  0.00395648  1
  I  I94  1  0.49624401  0.50588537  0.33422732  1
  I  I95  1  0.49584007  0.50018876  0.66322271  1
  I  I96  1  0.50140607  0.82742852  0.00144267  1
  I  I97  1  0.50051615  0.83404694  0.33308370  1
  I  I98  1  0.50573033  0.83479891  0.66590365  1
  I  I99  1  0.83379175  0.16873581  -0.00036715  1
  I  I100  1  0.83242306  0.16350879  0.33715779  1
  I  I101  1  0.83237581  0.16426340  0.66246951  1
  I  I102  1  0.83358557  0.49743500  0.00029856  1
  I  I103  1  0.83290398  0.50312507  0.33338016  1
  I  I104  1  0.83349709  0.50224154  0.66634714  1
  I  I105  1  0.82679382  0.83221203  0.00090364  1
  I  I106  1  0.83206202  0.83520264  0.33045611  1
  I  I107  1  0.82756024  0.83600975  0.66885586  1
  I  I108  1  0.00009233  0.16508546  0.17124181  1
  I  I109  1  0.00079063  0.16959391  0.49885893  1
  I  I110  1  -0.00021360  0.16372414  0.83133922  1
  I  I111  1  0.00337798  0.50652965  0.17392489  1
  I  I112  1  0.00348578  0.49595758  0.49539863  1
  I  I113  1  0.00016408  0.50290674  0.83115193  1
  I  I114  1  0.00019905  0.82962789  0.16292601  1
  I  I115  1  0.00021455  0.83492159  0.50045380  1
  I  I116  1  -0.00281152  0.83423289  0.83668699  1
  I  I117  1  0.33344031  0.15840802  0.16943074  1
  I  I118  1  0.33384111  0.16600093  0.49949382  1
  I  I119  1  0.33358015  0.16325363  0.83254468  1
  I  I120  1  0.33386367  0.51186409  0.17399201  1
  I  I121  1  0.33425023  0.49589741  0.49636643  1
  I  I122  1  0.33356282  0.50354660  0.83139301  1
  I  I123  1  0.33446511  0.82947940  0.16810597  1
  I  I124  1  0.33737281  0.83887169  0.50134510  1
  I  I125  1  0.33663826  0.83299676  0.83127741  1
  I  I126  1  0.66652659  0.16613481  0.17194575  1
  I  I127  1  0.66543526  0.16381024  0.49938112  1
  I  I128  1  0.66656099  0.16855151  0.83025466  1
  I  I129  1  0.66296853  0.50679648  0.17437348  1
  I  I130  1  0.66287956  0.50073751  0.49558712  1
  I  I131  1  0.66627740  0.49854144  0.83139564  1
  I  I132  1  0.66522622  0.83020806  0.16683016  1
  I  I133  1  0.66269008  0.83344348  0.49579212  1
  I  I134  1  0.66560021  0.83352936  0.83771263  1
