# generated using pymatgen
data_Cs27Sn13Pb14I81
_symmetry_space_group_name_H-M   'P 1'
_cell_length_a   18.97315172
_cell_length_b   18.98277265
_cell_length_c   18.97403796
_cell_angle_alpha   89.99971609
_cell_angle_beta   89.99922449
_cell_angle_gamma   90.00014886
_symmetry_Int_Tables_number   1
_chemical_formula_structural   Cs27Sn13Pb14I81
_chemical_formula_sum   'Cs27 Sn13 Pb14 I81'
_cell_volume   6833.74691782
_cell_formula_units_Z   1
loop_
 _symmetry_equiv_pos_site_id
 _symmetry_equiv_pos_as_xyz
  1  'x, y, z'
loop_
 _atom_site_type_symbol
 _atom_site_label
 _atom_site_symmetry_multiplicity
 _atom_site_fract_x
 _atom_site_fract_y
 _atom_site_fract_z
 _atom_site_occupancy
  Cs  Cs0  1  -0.00201218  -0.00368248  0.00439533  1
  Cs  Cs1  1  0.00166886  -0.00290159  0.33239307  1
  Cs  Cs2  1  0.00143958  0.00244820  0.66345448  1
  Cs  Cs3  1  -0.00095870  0.33693171  -0.00131813  1
  Cs  Cs4  1  -0.00167571  0.33373257  0.33368342  1
  Cs  Cs5  1  -0.00392194  0.33395459  0.66756880  1
  Cs  Cs6  1  -0.00291203  0.66575412  0.00083537  1
  Cs  Cs7  1  0.00077888  0.66934773  0.33161654  1
  Cs  Cs8  1  0.00303743  0.66243737  0.66702928  1
  Cs  Cs9  1  0.33251797  0.00292272  0.00135043  1
  Cs  Cs10  1  0.33114581  0.00249402  0.33261165  1
  Cs  Cs11  1  0.33374976  0.00021459  0.66644968  1
  Cs  Cs12  1  0.33552232  0.33194301  -0.00088809  1
  Cs  Cs13  1  0.33539053  0.33235140  0.33061485  1
  Cs  Cs14  1  0.33128357  0.33033823  0.67011770  1
  Cs  Cs15  1  0.33323216  0.66450827  -0.00220845  1
  Cs  Cs16  1  0.33561833  0.66521845  0.33491442  1
  Cs  Cs17  1  0.33331308  0.66906189  0.66631470  1
  Cs  Cs18  1  0.66922141  -0.00512511  -0.00210407  1
  Cs  Cs19  1  0.66782772  0.00018933  0.33308855  1
  Cs  Cs20  1  0.66571860  0.00012485  0.67019000  1
  Cs  Cs21  1  0.66344739  0.33223719  0.00281969  1
  Cs  Cs22  1  0.66699478  0.33710794  0.33226976  1
  Cs  Cs23  1  0.67460511  0.33181579  0.66523501  1
  Cs  Cs24  1  0.66761260  0.67366429  -0.00082695  1
  Cs  Cs25  1  0.66202059  0.66336272  0.33565981  1
  Cs  Cs26  1  0.66377337  0.66842220  0.66520385  1
  Sn  Sn27  1  0.83376484  0.83334555  0.50043680  1
  Sn  Sn28  1  0.16731372  0.16707771  0.50051740  1
  Sn  Sn29  1  0.16688317  0.16563462  0.83284651  1
  Sn  Sn30  1  0.49962793  0.16694893  0.50060453  1
  Sn  Sn31  1  0.16692814  0.49949083  0.49908707  1
  Sn  Sn32  1  0.16656708  0.83440696  0.83292985  1
  Sn  Sn33  1  0.16593673  0.83341233  0.50075206  1
  Sn  Sn34  1  0.49952442  0.16770659  0.83227599  1
  Sn  Sn35  1  0.83363303  0.16720884  0.16663508  1
  Sn  Sn36  1  0.83385481  0.49931092  0.16671984  1
  Sn  Sn37  1  0.50030302  0.49916749  0.83276999  1
  Sn  Sn38  1  0.49933562  0.83355481  0.16692052  1
  Sn  Sn39  1  0.16636554  0.49971207  0.16732555  1
  Pb  Pb40  1  0.49763097  0.49713081  0.50250083  1
  Pb  Pb41  1  0.16773902  0.49956820  0.83307662  1
  Pb  Pb42  1  0.83373905  0.16517956  0.49822366  1
  Pb  Pb43  1  0.16830910  0.83105048  0.16683762  1
  Pb  Pb44  1  0.50200159  0.16503050  0.16637492  1
  Pb  Pb45  1  0.16488246  0.16881331  0.16645276  1
  Pb  Pb46  1  0.83375227  0.16659980  0.83564078  1
  Pb  Pb47  1  0.83662727  0.83338718  0.83022803  1
  Pb  Pb48  1  0.83146737  0.83263789  0.16877896  1
  Pb  Pb49  1  0.49998235  0.50171889  0.16486663  1
  Pb  Pb50  1  0.49772054  0.83418680  0.83477465  1
  Pb  Pb51  1  0.83005433  0.50005007  0.83568952  1
  Pb  Pb52  1  0.83556864  0.50229596  0.49810773  1
  Pb  Pb53  1  0.49916238  0.83564023  0.49863902  1
  I  I54  1  0.16566229  0.00008950  0.16838651  1
  I  I55  1  0.16667111  0.00026408  0.50446986  1
  I  I56  1  0.17260295  0.00086451  0.82597998  1
  I  I57  1  0.16613744  0.33664735  0.17006210  1
  I  I58  1  0.17161485  0.33253564  0.49987658  1
  I  I59  1  0.16960993  0.33039562  0.83079458  1
  I  I60  1  0.16178101  0.66324550  0.16937927  1
  I  I61  1  0.16159390  0.66714714  0.50006238  1
  I  I62  1  0.16903249  0.66859785  0.83028181  1
  I  I63  1  0.50127083  -0.00237817  0.16563694  1
  I  I64  1  0.49491176  0.00341534  0.50476442  1
  I  I65  1  0.49761829  0.00328604  0.83094731  1
  I  I66  1  0.49954158  0.33325319  0.16739244  1
  I  I67  1  0.49500007  0.32923068  0.49915154  1
  I  I68  1  0.49225026  0.33173454  0.83251884  1
  I  I69  1  0.50109302  0.66922218  0.16546936  1
  I  I70  1  0.49969365  0.66657458  0.49991253  1
  I  I71  1  0.49771191  0.66513657  0.83728336  1
  I  I72  1  0.83126761  0.00167436  0.16777726  1
  I  I73  1  0.83962282  -0.00246817  0.49573643  1
  I  I74  1  0.82829399  -0.00000931  0.83797849  1
  I  I75  1  0.83650229  0.33392058  0.16768370  1
  I  I76  1  0.83384911  0.33342434  0.49945078  1
  I  I77  1  0.83833247  0.33325109  0.83109092  1
  I  I78  1  0.83674509  0.66395322  0.16762082  1
  I  I79  1  0.83837763  0.67009697  0.49716525  1
  I  I80  1  0.83316618  0.66680679  0.83690102  1
  I  I81  1  0.17062933  0.16369255  -0.00299394  1
  I  I82  1  0.16970870  0.16391703  0.33647493  1
  I  I83  1  0.17052894  0.16698959  0.66595230  1
  I  I84  1  0.16459033  0.50057360  0.00213203  1
  I  I85  1  0.16358466  0.50063898  0.33404335  1
  I  I86  1  0.16942711  0.50118543  0.66385703  1
  I  I87  1  0.17043716  0.83687761  -0.00245096  1
  I  I88  1  0.16427775  0.83603159  0.33651384  1
  I  I89  1  0.16415934  0.83179000  0.66555483  1
  I  I90  1  0.49563981  0.16912204  -0.00304172  1
  I  I91  1  0.49542291  0.16338048  0.33582678  1
  I  I92  1  0.49509710  0.16870508  0.66702640  1
  I  I93  1  0.49630225  0.49383777  -0.00272202  1
  I  I94  1  0.50097602  0.49993879  0.33353869  1
  I  I95  1  0.49645762  0.50088530  0.67012586  1
  I  I96  1  0.49963277  0.83419802  0.00241849  1
  I  I97  1  0.49879279  0.83391647  0.33103676  1
  I  I98  1  0.50195615  0.83147433  0.66662450  1
  I  I99  1  0.83308048  0.16967802  0.00348628  1
  I  I100  1  0.83299155  0.16951712  0.33052871  1
  I  I101  1  0.83276522  0.16483474  0.66652727  1
  I  I102  1  0.84170224  0.49746328  0.00391215  1
  I  I103  1  0.83383018  0.49642896  0.33007385  1
  I  I104  1  0.83448305  0.50095210  0.66637766  1
  I  I105  1  0.83306919  0.83341471  0.00016847  1
  I  I106  1  0.84103018  0.83463139  0.33620267  1
  I  I107  1  0.83322436  0.83509552  0.66239945  1
  I  I108  1  -0.00274061  0.16709151  0.16745847  1
  I  I109  1  0.00367426  0.16785255  0.50323270  1
  I  I110  1  0.00368963  0.16317477  0.82888311  1
  I  I111  1  0.00057640  0.49715142  0.16991885  1
  I  I112  1  0.00417678  0.49533047  0.50014887  1
  I  I113  1  0.00020078  0.50011848  0.83278575  1
  I  I114  1  0.00020574  0.83415685  0.16521224  1
  I  I115  1  0.00229224  0.83593434  0.50159332  1
  I  I116  1  0.00484828  0.83865282  0.83425869  1
  I  I117  1  0.33318717  0.16704234  0.16689527  1
  I  I118  1  0.33184962  0.16410297  0.50271697  1
  I  I119  1  0.33282605  0.16665035  0.83019899  1
  I  I120  1  0.33077297  0.50237873  0.16947240  1
  I  I121  1  0.32922049  0.50584432  0.49323989  1
  I  I122  1  0.33539027  0.49840117  0.83636410  1
  I  I123  1  0.33565922  0.83259925  0.16806207  1
  I  I124  1  0.32972212  0.83173029  0.50246869  1
  I  I125  1  0.32987313  0.83387958  0.82699640  1
  I  I126  1  0.66957933  0.17213348  0.16808844  1
  I  I127  1  0.66416886  0.16338595  0.50303248  1
  I  I128  1  0.66341067  0.17091604  0.82982756  1
  I  I129  1  0.66909701  0.49751346  0.16453238  1
  I  I130  1  0.66648455  0.50107070  0.49871727  1
  I  I131  1  0.66213523  0.49362438  0.83517323  1
  I  I132  1  0.66397442  0.83247931  0.16739773  1
  I  I133  1  0.66836343  0.83541795  0.49542060  1
  I  I134  1  0.66649558  0.83314269  0.83405172  1
