# generated using pymatgen
data_Cs27Sn14Pb13I81
_symmetry_space_group_name_H-M   'P 1'
_cell_length_a   19.01174984
_cell_length_b   19.02305670
_cell_length_c   19.02274702
_cell_angle_alpha   90.00176707
_cell_angle_beta   89.99746892
_cell_angle_gamma   89.99958397
_symmetry_Int_Tables_number   1
_chemical_formula_structural   Cs27Sn14Pb13I81
_chemical_formula_sum   'Cs27 Sn14 Pb13 I81'
_cell_volume   6879.79702125
_cell_formula_units_Z   1
loop_
 _symmetry_equiv_pos_site_id
 _symmetry_equiv_pos_as_xyz
  1  'x, y, z'
loop_
 _atom_site_type_symbol
 _atom_site_label
 _atom_site_symmetry_multiplicity
 _atom_site_fract_x
 _atom_site_fract_y
 _atom_site_fract_z
 _atom_site_occupancy
  Cs  Cs0  1  0.00092727  0.00373610  0.00391466  1
  Cs  Cs1  1  0.00329303  0.00264273  0.33125429  1
  Cs  Cs2  1  0.00080375  -0.00408949  0.66614990  1
  Cs  Cs3  1  -0.00866572  0.34451475  -0.00088455  1
  Cs  Cs4  1  0.00149625  0.33510541  0.33224265  1
  Cs  Cs5  1  -0.00520881  0.33393272  0.66718990  1
  Cs  Cs6  1  0.00072964  0.64933738  -0.00069999  1
  Cs  Cs7  1  -0.00148225  0.66272566  0.33605733  1
  Cs  Cs8  1  0.00058900  0.66995857  0.66537099  1
  Cs  Cs9  1  0.33405073  0.00352471  0.00121401  1
  Cs  Cs10  1  0.32902449  0.00194548  0.32732178  1
  Cs  Cs11  1  0.33049894  -0.00158323  0.66988097  1
  Cs  Cs12  1  0.33334311  0.33018350  0.00226912  1
  Cs  Cs13  1  0.33348760  0.33303668  0.33355051  1
  Cs  Cs14  1  0.33781354  0.33068496  0.66439394  1
  Cs  Cs15  1  0.33441769  0.66238451  -0.00114019  1
  Cs  Cs16  1  0.33388851  0.66633143  0.33325675  1
  Cs  Cs17  1  0.33206176  0.67064413  0.66779298  1
  Cs  Cs18  1  0.66558388  -0.00363035  0.00172812  1
  Cs  Cs19  1  0.67287962  -0.00347949  0.33183516  1
  Cs  Cs20  1  0.66842676  -0.00226359  0.66681365  1
  Cs  Cs21  1  0.66965340  0.33444452  -0.00320237  1
  Cs  Cs22  1  0.66463780  0.32899017  0.34178930  1
  Cs  Cs23  1  0.66636126  0.33093771  0.66356845  1
  Cs  Cs24  1  0.66521066  0.67094762  0.00246750  1
  Cs  Cs25  1  0.66746234  0.67192156  0.33428646  1
  Cs  Cs26  1  0.66599156  0.66934409  0.66479402  1
  Sn  Sn27  1  0.50030741  0.83359248  0.83248768  1
  Sn  Sn28  1  0.16679887  0.16769675  0.50046086  1
  Sn  Sn29  1  0.50020416  0.49844924  0.16607899  1
  Sn  Sn30  1  0.49994361  0.83399917  0.50039588  1
  Sn  Sn31  1  0.83352418  0.83349754  0.83356519  1
  Sn  Sn32  1  0.83387182  0.50082582  0.50022067  1
  Sn  Sn33  1  0.49990972  0.16779599  0.16592966  1
  Sn  Sn34  1  0.16647374  0.49891668  0.50070340  1
  Sn  Sn35  1  0.16699258  0.16665373  0.16572998  1
  Sn  Sn36  1  0.83277430  0.83274620  0.50082501  1
  Sn  Sn37  1  0.16637324  0.83288830  0.16582310  1
  Sn  Sn38  1  0.16673377  0.16694820  0.83375224  1
  Sn  Sn39  1  0.49937388  0.16663449  0.83409594  1
  Sn  Sn40  1  0.49979366  0.49979111  0.83388471  1
  Pb  Pb41  1  0.83284587  0.16692235  0.16646200  1
  Pb  Pb42  1  0.83622603  0.16585732  0.50009825  1
  Pb  Pb43  1  0.16872294  0.49903485  0.16852138  1
  Pb  Pb44  1  0.83280194  0.16414169  0.83334271  1
  Pb  Pb45  1  0.82935530  0.49987432  0.16962056  1
  Pb  Pb46  1  0.16644791  0.83354429  0.49843593  1
  Pb  Pb47  1  0.16933733  0.49692380  0.83055266  1
  Pb  Pb48  1  0.49991452  0.50198385  0.50013956  1
  Pb  Pb49  1  0.83012224  0.50273073  0.83075443  1
  Pb  Pb50  1  0.49840556  0.83385763  0.16616456  1
  Pb  Pb51  1  0.16646477  0.83502453  0.83621384  1
  Pb  Pb52  1  0.49789096  0.16354412  0.49980261  1
  Pb  Pb53  1  0.83678920  0.83314454  0.16610646  1
  I  I54  1  0.17347462  0.00202496  0.17082483  1
  I  I55  1  0.16823385  0.00259627  0.50086189  1
  I  I56  1  0.17352326  0.00296074  0.82650655  1
  I  I57  1  0.17056812  0.32991301  0.16645170  1
  I  I58  1  0.16137234  0.33285263  0.49669274  1
  I  I59  1  0.17300749  0.32905012  0.83964957  1
  I  I60  1  0.16910859  0.66816882  0.17061362  1
  I  I61  1  0.16648301  0.66485949  0.49609177  1
  I  I62  1  0.16756949  0.66647706  0.83348275  1
  I  I63  1  0.49617367  0.00275425  0.16381799  1
  I  I64  1  0.50540004  -0.00395209  0.50442084  1
  I  I65  1  0.49966260  0.00016786  0.83316333  1
  I  I66  1  0.49213143  0.33221153  0.15891473  1
  I  I67  1  0.50343099  0.33302659  0.50232094  1
  I  I68  1  0.49278179  0.33269077  0.83837207  1
  I  I69  1  0.49731683  0.66505622  0.16422737  1
  I  I70  1  0.49795215  0.66962989  0.50356846  1
  I  I71  1  0.50579424  0.66714212  0.83328067  1
  I  I72  1  0.82815862  -0.00041583  0.17077636  1
  I  I73  1  0.82881694  -0.00341726  0.50429804  1
  I  I74  1  0.82643315  -0.00343225  0.82372449  1
  I  I75  1  0.84033141  0.33368794  0.16853270  1
  I  I76  1  0.83488365  0.33584247  0.49810155  1
  I  I77  1  0.83366527  0.33360172  0.83220911  1
  I  I78  1  0.83427744  0.66669268  0.16452265  1
  I  I79  1  0.83641475  0.66750988  0.50422784  1
  I  I80  1  0.82786643  0.67034083  0.83148143  1
  I  I81  1  0.17410781  0.15681851  0.00017020  1
  I  I82  1  0.17093771  0.16541818  0.33274116  1
  I  I83  1  0.17248995  0.17136269  0.66707543  1
  I  I84  1  0.16458053  0.50182243  -0.00023059  1
  I  I85  1  0.16575169  0.49475771  0.33622200  1
  I  I86  1  0.16521638  0.49609125  0.66292299  1
  I  I87  1  0.16931126  0.84191833  0.00334035  1
  I  I88  1  0.16888946  0.84067412  0.33119273  1
  I  I89  1  0.16720273  0.83452171  0.66697630  1
  I  I90  1  0.48997004  0.16422963  -0.00063738  1
  I  I91  1  0.49489094  0.17170575  0.33069164  1
  I  I92  1  0.49534222  0.16984392  0.66954284  1
  I  I93  1  0.49785641  0.50322633  -0.00062194  1
  I  I94  1  0.49874952  0.49595916  0.33134243  1
  I  I95  1  0.49980839  0.49672840  0.66923261  1
  I  I96  1  0.50429732  0.83334776  -0.00316029  1
  I  I97  1  0.50336573  0.83141674  0.33547798  1
  I  I98  1  0.50316203  0.83242240  0.66756149  1
  I  I99  1  0.83961203  0.16348676  -0.00027179  1
  I  I100  1  0.83129086  0.16328096  0.33361275  1
  I  I101  1  0.83300937  0.16987714  0.66658285  1
  I  I102  1  0.83675849  0.50117566  -0.00020459  1
  I  I103  1  0.83645209  0.50890560  0.33722719  1
  I  I104  1  0.83640436  0.50152984  0.66334651  1
  I  I105  1  0.82517442  0.83705085  -0.00303686  1
  I  I106  1  0.82747041  0.82918849  0.33626770  1
  I  I107  1  0.82857584  0.82955535  0.66598262  1
  I  I108  1  0.00372965  0.15894482  0.16813897  1
  I  I109  1  0.00444251  0.16454923  0.49899722  1
  I  I110  1  0.00313190  0.16263607  0.83286319  1
  I  I111  1  -0.00013997  0.50044154  0.16568109  1
  I  I112  1  0.00022806  0.50320778  0.49872906  1
  I  I113  1  -0.00008476  0.50001352  0.83528325  1
  I  I114  1  0.00413315  0.84438945  0.16923302  1
  I  I115  1  -0.00244441  0.83229892  0.50443891  1
  I  I116  1  -0.00243949  0.83708945  0.82644164  1
  I  I117  1  0.33315322  0.16580094  0.16651775  1
  I  I118  1  0.33022634  0.17255175  0.49938544  1
  I  I119  1  0.33425954  0.16332297  0.83335017  1
  I  I120  1  0.33632581  0.49958929  0.16569215  1
  I  I121  1  0.33133850  0.49672794  0.49888852  1
  I  I122  1  0.33696308  0.50818634  0.83432247  1
  I  I123  1  0.33097675  0.83598339  0.16947962  1
  I  I124  1  0.33550108  0.83219224  0.50468897  1
  I  I125  1  0.33660018  0.83136112  0.82779296  1
  I  I126  1  0.66261950  0.17065911  0.16044567  1
  I  I127  1  0.66660115  0.17034271  0.49960130  1
  I  I128  1  0.66268591  0.16914652  0.83905543  1
  I  I129  1  0.66159364  0.49449641  0.16298867  1
  I  I130  1  0.66857609  0.50445985  0.49951153  1
  I  I131  1  0.66241408  0.49237874  0.83508297  1
  I  I132  1  0.66683409  0.83358255  0.16837524  1
  I  I133  1  0.66667613  0.82634147  0.50261322  1
  I  I134  1  0.66491279  0.83570190  0.82853568  1
