# generated using pymatgen
data_Cs27Sn13Pb14I81
_symmetry_space_group_name_H-M   'P 1'
_cell_length_a   18.97753956
_cell_length_b   18.97371424
_cell_length_c   18.97756712
_cell_angle_alpha   90.00022039
_cell_angle_beta   89.99989938
_cell_angle_gamma   90.00062476
_symmetry_Int_Tables_number   1
_chemical_formula_structural   Cs27Sn13Pb14I81
_chemical_formula_sum   'Cs27 Sn13 Pb14 I81'
_cell_volume   6833.33633164
_cell_formula_units_Z   1
loop_
 _symmetry_equiv_pos_site_id
 _symmetry_equiv_pos_as_xyz
  1  'x, y, z'
loop_
 _atom_site_type_symbol
 _atom_site_label
 _atom_site_symmetry_multiplicity
 _atom_site_fract_x
 _atom_site_fract_y
 _atom_site_fract_z
 _atom_site_occupancy
  Cs  Cs0  1  0.00029406  0.00693448  0.00122773  1
  Cs  Cs1  1  0.00004925  -0.00131077  0.33337344  1
  Cs  Cs2  1  0.00010411  -0.00228082  0.66500840  1
  Cs  Cs3  1  -0.00492593  0.32381022  0.00189459  1
  Cs  Cs4  1  -0.00307040  0.33399742  0.33342617  1
  Cs  Cs5  1  -0.00207856  0.33797955  0.66543079  1
  Cs  Cs6  1  0.00272842  0.66775674  -0.00200145  1
  Cs  Cs7  1  0.00174223  0.66892563  0.33593834  1
  Cs  Cs8  1  0.00058881  0.66489330  0.66568565  1
  Cs  Cs9  1  0.33348523  0.00187404  -0.00219033  1
  Cs  Cs10  1  0.33369682  0.00006068  0.33458892  1
  Cs  Cs11  1  0.33523103  0.00331511  0.66530463  1
  Cs  Cs12  1  0.33089670  0.33364549  -0.00075333  1
  Cs  Cs13  1  0.33484858  0.33234114  0.33398212  1
  Cs  Cs14  1  0.33598969  0.33420040  0.66747847  1
  Cs  Cs15  1  0.33457198  0.66616657  0.00066970  1
  Cs  Cs16  1  0.33252627  0.66666961  0.33162974  1
  Cs  Cs17  1  0.33080256  0.66450175  0.66696188  1
  Cs  Cs18  1  0.66535646  -0.00205707  -0.00946458  1
  Cs  Cs19  1  0.66689521  -0.00017310  0.33614147  1
  Cs  Cs20  1  0.66452552  0.00146255  0.66893116  1
  Cs  Cs21  1  0.67764889  0.33486111  0.00547883  1
  Cs  Cs22  1  0.66637292  0.33386178  0.32919050  1
  Cs  Cs23  1  0.66362964  0.33260387  0.66856094  1
  Cs  Cs24  1  0.66411991  0.66652159  -0.00042471  1
  Cs  Cs25  1  0.66516043  0.66620732  0.33013292  1
  Cs  Cs26  1  0.66866413  0.66658307  0.66944846  1
  Sn  Sn27  1  0.16674707  0.83301626  0.83335455  1
  Sn  Sn28  1  0.16680272  0.83406735  0.50009052  1
  Sn  Sn29  1  0.16601746  0.83283230  0.16641795  1
  Sn  Sn30  1  0.83423564  0.16600786  0.49995925  1
  Sn  Sn31  1  0.16650674  0.50028011  0.16568756  1
  Sn  Sn32  1  0.49988850  0.50101316  0.50043349  1
  Sn  Sn33  1  0.16722026  0.50057809  0.83470631  1
  Sn  Sn34  1  0.83324442  0.83393193  0.49928127  1
  Sn  Sn35  1  0.49943810  0.49997259  0.83302382  1
  Sn  Sn36  1  0.49987114  0.16621994  0.16635039  1
  Sn  Sn37  1  0.49995509  0.83218026  0.50001782  1
  Sn  Sn38  1  0.83380774  0.83334471  0.16708160  1
  Sn  Sn39  1  0.16576167  0.16625041  0.49993568  1
  Pb  Pb40  1  0.83342744  0.16642848  0.82997334  1
  Pb  Pb41  1  0.49738093  0.83143542  0.83060640  1
  Pb  Pb42  1  0.49803653  0.49845703  0.16629812  1
  Pb  Pb43  1  0.83401656  0.50020095  0.83351229  1
  Pb  Pb44  1  0.16663401  0.16711072  0.83041891  1
  Pb  Pb45  1  0.83609288  0.83330033  0.83319009  1
  Pb  Pb46  1  0.16814497  0.50006944  0.49997156  1
  Pb  Pb47  1  0.16772159  0.16623574  0.16895284  1
  Pb  Pb48  1  0.83096702  0.16338490  0.16893291  1
  Pb  Pb49  1  0.83012609  0.50050994  0.49992700  1
  Pb  Pb50  1  0.50031072  0.16667645  0.49910108  1
  Pb  Pb51  1  0.49977255  0.83494117  0.16827711  1
  Pb  Pb52  1  0.49992164  0.17007216  0.83663840  1
  Pb  Pb53  1  0.83680681  0.50303418  0.16680931  1
  I  I54  1  0.16432498  -0.00355177  0.16557081  1
  I  I55  1  0.16871088  -0.00220292  0.49948353  1
  I  I56  1  0.16564358  -0.00321521  0.83531896  1
  I  I57  1  0.17108091  0.33567824  0.16426696  1
  I  I58  1  0.16474496  0.33109009  0.49938294  1
  I  I59  1  0.17136770  0.33684626  0.83579851  1
  I  I60  1  0.16492407  0.66806214  0.16914685  1
  I  I61  1  0.16476149  0.66986780  0.49978150  1
  I  I62  1  0.16997079  0.66714660  0.83150756  1
  I  I63  1  0.49708671  0.00226897  0.17226520  1
  I  I64  1  0.49879055  -0.00280474  0.49695338  1
  I  I65  1  0.49894495  -0.00004355  0.83236299  1
  I  I66  1  0.49690342  0.33098738  0.17121329  1
  I  I67  1  0.49812800  0.33565890  0.50222307  1
  I  I68  1  0.49072419  0.33775133  0.82314971  1
  I  I69  1  0.50148209  0.66680795  0.16665127  1
  I  I70  1  0.49844364  0.66757957  0.50174877  1
  I  I71  1  0.49739343  0.66346152  0.83241704  1
  I  I72  1  0.84169306  -0.00418170  0.17042801  1
  I  I73  1  0.83305069  -0.00163613  0.49583404  1
  I  I74  1  0.83441068  -0.00045992  0.83542151  1
  I  I75  1  0.83309913  0.33302268  0.16790858  1
  I  I76  1  0.83808031  0.33056987  0.50077663  1
  I  I77  1  0.83526551  0.33337766  0.83171997  1
  I  I78  1  0.83315052  0.67096626  0.17503483  1
  I  I79  1  0.83716371  0.67050441  0.49717409  1
  I  I80  1  0.83183265  0.66698205  0.82996538  1
  I  I81  1  0.16913294  0.16449831  0.00014688  1
  I  I82  1  0.16509451  0.16261240  0.33691194  1
  I  I83  1  0.16496303  0.16191914  0.66227075  1
  I  I84  1  0.17381129  0.50954999  -0.00036369  1
  I  I85  1  0.16881516  0.50365443  0.33133583  1
  I  I86  1  0.16938810  0.50326778  0.66892952  1
  I  I87  1  0.16273142  0.82764092  0.00065355  1
  I  I88  1  0.16617623  0.83268825  0.33394140  1
  I  I89  1  0.16685059  0.83271750  0.66551992  1
  I  I90  1  0.49709534  0.16525271  0.00387599  1
  I  I91  1  0.49860385  0.16871726  0.33187623  1
  I  I92  1  0.50020244  0.16568256  0.66661206  1
  I  I93  1  0.49575641  0.49817931  -0.00269726  1
  I  I94  1  0.49813419  0.50216929  0.33573918  1
  I  I95  1  0.49338612  0.50326615  0.66613466  1
  I  I96  1  0.50077328  0.83348352  -0.00016239  1
  I  I97  1  0.49536816  0.82847289  0.33690628  1
  I  I98  1  0.50066741  0.83355477  0.66215293  1
  I  I99  1  0.83166858  0.16641753  0.00045231  1
  I  I100  1  0.83700421  0.16417388  0.33686762  1
  I  I101  1  0.83605937  0.15925518  0.66162016  1
  I  I102  1  0.82731670  0.50182419  0.00028620  1
  I  I103  1  0.83292720  0.49798895  0.33347884  1
  I  I104  1  0.83798080  0.50168195  0.66637858  1
  I  I105  1  0.83753703  0.83203269  0.00307389  1
  I  I106  1  0.83862353  0.83624889  0.33480930  1
  I  I107  1  0.83389117  0.83695818  0.66295593  1
  I  I108  1  -0.00018106  0.16915246  0.16638567  1
  I  I109  1  0.00054705  0.15847679  0.49911127  1
  I  I110  1  0.00038091  0.16903730  0.83664181  1
  I  I111  1  0.00495524  0.50026718  0.16231224  1
  I  I112  1  0.00011084  0.50101459  0.50059088  1
  I  I113  1  0.00412984  0.50512236  0.83510908  1
  I  I114  1  0.00156179  0.82934728  0.17259742  1
  I  I115  1  0.00100517  0.83802753  0.49927772  1
  I  I116  1  0.00442399  0.82623815  0.82782311  1
  I  I117  1  0.33513446  0.16500656  0.17193365  1
  I  I118  1  0.33114986  0.16266623  0.49817567  1
  I  I119  1  0.33323190  0.16427540  0.82972694  1
  I  I120  1  0.33008119  0.50690758  0.16669942  1
  I  I121  1  0.33595408  0.50334566  0.50049969  1
  I  I122  1  0.33227654  0.50452091  0.83222162  1
  I  I123  1  0.32989661  0.83070673  0.16880507  1
  I  I124  1  0.33217853  0.83379106  0.49940518  1
  I  I125  1  0.32914515  0.83115175  0.83416276  1
  I  I126  1  0.66380048  0.16815489  0.17122097  1
  I  I127  1  0.66902379  0.16282343  0.49781387  1
  I  I128  1  0.66638889  0.16739520  0.83073911  1
  I  I129  1  0.66667840  0.49939933  0.16670256  1
  I  I130  1  0.66211938  0.50301348  0.50535445  1
  I  I131  1  0.66351116  0.49903182  0.82722294  1
  I  I132  1  0.66908574  0.83597212  0.17376897  1
  I  I133  1  0.66710135  0.83383750  0.49439997  1
  I  I134  1  0.66646675  0.83197077  0.83348595  1
