# generated using pymatgen
data_Cs27Sn13Pb14I81
_symmetry_space_group_name_H-M   'P 1'
_cell_length_a   18.98159509
_cell_length_b   18.97977638
_cell_length_c   18.96827935
_cell_angle_alpha   90.00261892
_cell_angle_beta   89.99802407
_cell_angle_gamma   90.00091571
_symmetry_Int_Tables_number   1
_chemical_formula_structural   Cs27Sn13Pb14I81
_chemical_formula_sum   'Cs27 Sn13 Pb14 I81'
_cell_volume   6833.63427311
_cell_formula_units_Z   1
loop_
 _symmetry_equiv_pos_site_id
 _symmetry_equiv_pos_as_xyz
  1  'x, y, z'
loop_
 _atom_site_type_symbol
 _atom_site_label
 _atom_site_symmetry_multiplicity
 _atom_site_fract_x
 _atom_site_fract_y
 _atom_site_fract_z
 _atom_site_occupancy
  Cs  Cs0  1  0.00129164  -0.00683131  -0.00834930  1
  Cs  Cs1  1  0.00049754  0.00203135  0.33456358  1
  Cs  Cs2  1  -0.00081574  0.00651270  0.67287765  1
  Cs  Cs3  1  -0.00335697  0.33421147  -0.00091022  1
  Cs  Cs4  1  0.00282411  0.33253051  0.33328781  1
  Cs  Cs5  1  0.00883330  0.32558402  0.67166783  1
  Cs  Cs6  1  -0.00928502  0.67417062  -0.00606304  1
  Cs  Cs7  1  -0.00280625  0.66580622  0.33313718  1
  Cs  Cs8  1  0.00386521  0.66653453  0.66913787  1
  Cs  Cs9  1  0.33294203  -0.00138257  0.00208359  1
  Cs  Cs10  1  0.33530766  -0.00088972  0.33193511  1
  Cs  Cs11  1  0.33573143  -0.00030715  0.66678819  1
  Cs  Cs12  1  0.33507609  0.33294762  0.00307263  1
  Cs  Cs13  1  0.33254399  0.33398113  0.33158236  1
  Cs  Cs14  1  0.32969451  0.33710837  0.66817385  1
  Cs  Cs15  1  0.33111671  0.66803490  -0.00119832  1
  Cs  Cs16  1  0.33351613  0.66685355  0.33389288  1
  Cs  Cs17  1  0.33318206  0.66381331  0.66619258  1
  Cs  Cs18  1  0.66563655  -0.00076090  0.00011907  1
  Cs  Cs19  1  0.66476570  0.00027887  0.33433794  1
  Cs  Cs20  1  0.66579445  0.00051503  0.66484522  1
  Cs  Cs21  1  0.66693310  0.33623535  0.00066214  1
  Cs  Cs22  1  0.66623103  0.33329492  0.33251612  1
  Cs  Cs23  1  0.66613155  0.33312241  0.66837743  1
  Cs  Cs24  1  0.67563304  0.66419039  0.00006190  1
  Cs  Cs25  1  0.66763181  0.66645026  0.33433840  1
  Cs  Cs26  1  0.66442565  0.66690764  0.66369227  1
  Sn  Sn27  1  0.50015073  0.83355585  0.83279764  1
  Sn  Sn28  1  0.16691151  0.50019984  0.16652906  1
  Sn  Sn29  1  0.83342424  0.16614162  0.16667000  1
  Sn  Sn30  1  0.49986830  0.16728375  0.50021060  1
  Sn  Sn31  1  0.50068591  0.49977870  0.49899981  1
  Sn  Sn32  1  0.83322484  0.49972831  0.50028846  1
  Sn  Sn33  1  0.50002492  0.16737983  0.16659431  1
  Sn  Sn34  1  0.49930219  0.49968114  0.16745772  1
  Sn  Sn35  1  0.49997555  0.83315474  0.50057217  1
  Sn  Sn36  1  0.83362801  0.83293249  0.49983564  1
  Sn  Sn37  1  0.16648408  0.16704724  0.16672641  1
  Sn  Sn38  1  0.49991761  0.16611832  0.83352516  1
  Sn  Sn39  1  0.16646167  0.83360747  0.49969619  1
  Pb  Pb40  1  0.83165703  0.16716696  0.49874604  1
  Pb  Pb41  1  0.16670589  0.50012958  0.83733580  1
  Pb  Pb42  1  0.83328149  0.49967270  0.82921190  1
  Pb  Pb43  1  0.50003663  0.50023656  0.83363400  1
  Pb  Pb44  1  0.16943761  0.83340231  0.83035600  1
  Pb  Pb45  1  0.16658241  0.83290853  0.16833527  1
  Pb  Pb46  1  0.16655858  0.50160500  0.49839325  1
  Pb  Pb47  1  0.50018251  0.83248307  0.16648989  1
  Pb  Pb48  1  0.16963583  0.16679590  0.83666218  1
  Pb  Pb49  1  0.83335537  0.83612223  0.16909849  1
  Pb  Pb50  1  0.83345143  0.49829007  0.16857859  1
  Pb  Pb51  1  0.16937349  0.16464735  0.49811338  1
  Pb  Pb52  1  0.83060420  0.16670421  0.83621125  1
  Pb  Pb53  1  0.83028249  0.83338791  0.82981327  1
  I  I54  1  0.17009953  0.00313427  0.16934339  1
  I  I55  1  0.16774248  -0.00325179  0.49640498  1
  I  I56  1  0.16642440  0.00010614  0.83579591  1
  I  I57  1  0.16976941  0.33270113  0.16919920  1
  I  I58  1  0.16645091  0.33323593  0.50029683  1
  I  I59  1  0.16952789  0.33317061  0.82804857  1
  I  I60  1  0.17500534  0.66340133  0.17027041  1
  I  I61  1  0.17243352  0.66950421  0.49686067  1
  I  I62  1  0.17044856  0.66698942  0.83499722  1
  I  I63  1  0.49910439  0.00322240  0.16953682  1
  I  I64  1  0.50007135  -0.00005749  0.49948936  1
  I  I65  1  0.50006281  0.00056174  0.82972251  1
  I  I66  1  0.49943821  0.33220212  0.16985195  1
  I  I67  1  0.50523622  0.33348267  0.49819189  1
  I  I68  1  0.50023754  0.33030046  0.83177047  1
  I  I69  1  0.49478352  0.66319207  0.17105453  1
  I  I70  1  0.50051835  0.66689765  0.49993153  1
  I  I71  1  0.49918646  0.66943359  0.82798835  1
  I  I72  1  0.83005927  0.00418338  0.17008507  1
  I  I73  1  0.83046350  -0.00255050  0.49706307  1
  I  I74  1  0.83367027  -0.00000912  0.83205644  1
  I  I75  1  0.83104335  0.33038208  0.17036155  1
  I  I76  1  0.82610203  0.33605199  0.49639197  1
  I  I77  1  0.82965250  0.33300848  0.83161028  1
  I  I78  1  0.83252427  0.66647066  0.16618881  1
  I  I79  1  0.82653219  0.66700626  0.49801523  1
  I  I80  1  0.83027227  0.66679963  0.83830434  1
  I  I81  1  0.16983060  0.17001533  0.00487396  1
  I  I82  1  0.17021220  0.16952447  0.32992163  1
  I  I83  1  0.16724321  0.16528472  0.66668125  1
  I  I84  1  0.17653919  0.49487081  0.00562377  1
  I  I85  1  0.16973852  0.49583163  0.33042365  1
  I  I86  1  0.16740226  0.50185871  0.66640696  1
  I  I87  1  0.16906963  0.83374011  -0.00019395  1
  I  I88  1  0.17216197  0.83410019  0.33664107  1
  I  I89  1  0.16568857  0.83236782  0.66206407  1
  I  I90  1  0.49964842  0.16608736  0.00134390  1
  I  I91  1  0.50014937  0.16617016  0.33303539  1
  I  I92  1  0.50139735  0.16477641  0.66565184  1
  I  I93  1  0.49547375  0.49585047  0.00345654  1
  I  I94  1  0.49995917  0.49724225  0.33399013  1
  I  I95  1  0.50420737  0.49830870  0.66318124  1
  I  I96  1  0.49850381  0.83821264  -0.00257933  1
  I  I97  1  0.50026364  0.83602409  0.33691462  1
  I  I98  1  0.50035005  0.83722080  0.66451709  1
  I  I99  1  0.83064549  0.16852511  0.00454243  1
  I  I100  1  0.82917902  0.16611847  0.33060797  1
  I  I101  1  0.83122047  0.16604121  0.66660253  1
  I  I102  1  0.83213045  0.49890112  0.00033159  1
  I  I103  1  0.82971766  0.50427895  0.33650138  1
  I  I104  1  0.82342840  0.50455660  0.66103798  1
  I  I105  1  0.83226629  0.83364667  -0.00036617  1
  I  I106  1  0.82783355  0.82986570  0.33745017  1
  I  I107  1  0.83378270  0.83051792  0.66170819  1
  I  I108  1  0.00052442  0.17144558  0.17096614  1
  I  I109  1  0.00017135  0.16563402  0.49646925  1
  I  I110  1  0.00018148  0.16670991  0.83360080  1
  I  I111  1  0.00246768  0.49404293  0.17026382  1
  I  I112  1  -0.00253690  0.50659804  0.49652603  1
  I  I113  1  -0.00002605  0.50027982  0.83343487  1
  I  I114  1  -0.00001583  0.83334932  0.17047258  1
  I  I115  1  -0.00056368  0.82733217  0.49465732  1
  I  I116  1  -0.00018143  0.83303270  0.83317312  1
  I  I117  1  0.33498886  0.17053283  0.16711367  1
  I  I118  1  0.33816827  0.16663654  0.49754754  1
  I  I119  1  0.33798997  0.16254006  0.83394382  1
  I  I120  1  0.33502188  0.49131423  0.17337598  1
  I  I121  1  0.33675825  0.50081721  0.49797708  1
  I  I122  1  0.33388366  0.50043138  0.82810202  1
  I  I123  1  0.33369781  0.83748018  0.16995411  1
  I  I124  1  0.33524607  0.83385725  0.50277167  1
  I  I125  1  0.33752228  0.83751688  0.82800190  1
  I  I126  1  0.66456383  0.16977858  0.16737810  1
  I  I127  1  0.66263588  0.16227048  0.49689176  1
  I  I128  1  0.66200959  0.16273789  0.83425499  1
  I  I129  1  0.66360683  0.49557452  0.16894634  1
  I  I130  1  0.66440594  0.50479824  0.49403732  1
  I  I131  1  0.66614229  0.49994292  0.83893990  1
  I  I132  1  0.66638549  0.83404659  0.16886161  1
  I  I133  1  0.66511119  0.83283079  0.50321926  1
  I  I134  1  0.66239140  0.83785597  0.82821254  1
