# generated using pymatgen
data_Cs27Sn14Pb13I81
_symmetry_space_group_name_H-M   'P 1'
_cell_length_a   18.97860377
_cell_length_b   18.98303233
_cell_length_c   18.96687634
_cell_angle_alpha   90.00221118
_cell_angle_beta   90.00031443
_cell_angle_gamma   90.00151818
_symmetry_Int_Tables_number   1
_chemical_formula_structural   Cs27Sn14Pb13I81
_chemical_formula_sum   'Cs27 Sn14 Pb13 I81'
_cell_volume   6833.22401478
_cell_formula_units_Z   1
loop_
 _symmetry_equiv_pos_site_id
 _symmetry_equiv_pos_as_xyz
  1  'x, y, z'
loop_
 _atom_site_type_symbol
 _atom_site_label
 _atom_site_symmetry_multiplicity
 _atom_site_fract_x
 _atom_site_fract_y
 _atom_site_fract_z
 _atom_site_occupancy
  Cs  Cs0  1  -0.00009241  0.00029156  0.00099260  1
  Cs  Cs1  1  -0.00338387  -0.00210427  0.33019755  1
  Cs  Cs2  1  0.00082648  -0.00017563  0.66720148  1
  Cs  Cs3  1  -0.00069773  0.33164849  -0.00415365  1
  Cs  Cs4  1  0.00145311  0.33597429  0.33396580  1
  Cs  Cs5  1  0.00184968  0.33161633  0.66827202  1
  Cs  Cs6  1  0.00101254  0.66713639  -0.00136880  1
  Cs  Cs7  1  0.00185190  0.66595158  0.33084355  1
  Cs  Cs8  1  -0.00168699  0.66833745  0.66747875  1
  Cs  Cs9  1  0.33554924  -0.00130607  0.00120750  1
  Cs  Cs10  1  0.33494146  -0.00073471  0.33228398  1
  Cs  Cs11  1  0.33243660  0.00099822  0.66727239  1
  Cs  Cs12  1  0.33388267  0.33333051  0.00427836  1
  Cs  Cs13  1  0.33019963  0.33760605  0.33149382  1
  Cs  Cs14  1  0.32850149  0.32779896  0.66459622  1
  Cs  Cs15  1  0.33901799  0.66536151  0.00564165  1
  Cs  Cs16  1  0.32843480  0.66266095  0.32785899  1
  Cs  Cs17  1  0.33419364  0.66970348  0.66684927  1
  Cs  Cs18  1  0.66539791  0.00116800  0.00747852  1
  Cs  Cs19  1  0.66859630  0.00259885  0.33202894  1
  Cs  Cs20  1  0.66675748  -0.00015422  0.66521928  1
  Cs  Cs21  1  0.66482094  0.33494046  0.00099118  1
  Cs  Cs22  1  0.66738448  0.33110861  0.33382529  1
  Cs  Cs23  1  0.66824912  0.33370954  0.66651491  1
  Cs  Cs24  1  0.65646106  0.66379333  -0.00387486  1
  Cs  Cs25  1  0.67003214  0.66661155  0.33804192  1
  Cs  Cs26  1  0.66730380  0.66648434  0.66681803  1
  Sn  Sn27  1  0.50127842  0.16649374  0.83242645  1
  Sn  Sn28  1  0.83300088  0.16664130  0.50086752  1
  Sn  Sn29  1  0.16620388  0.16642394  0.16702424  1
  Sn  Sn30  1  0.16635173  0.83329558  0.50056839  1
  Sn  Sn31  1  0.50067303  0.16688715  0.50088047  1
  Sn  Sn32  1  0.16697158  0.50128736  0.83287464  1
  Sn  Sn33  1  0.50001171  0.83331563  0.50033885  1
  Sn  Sn34  1  0.83356097  0.83350582  0.50076049  1
  Sn  Sn35  1  0.83354731  0.83421713  0.83292331  1
  Sn  Sn36  1  0.16624956  0.83213415  0.83267087  1
  Sn  Sn37  1  0.83214781  0.16549568  0.83260680  1
  Sn  Sn38  1  0.50034348  0.49971353  0.50058653  1
  Sn  Sn39  1  0.83299636  0.49987252  0.49931070  1
  Sn  Sn40  1  0.83322156  0.50028835  0.16678525  1
  Pb  Pb41  1  0.49725225  0.49721321  0.83032753  1
  Pb  Pb42  1  0.16632835  0.16417699  0.49812965  1
  Pb  Pb43  1  0.83317634  0.83075600  0.16580542  1
  Pb  Pb44  1  0.49804501  0.16675024  0.16745045  1
  Pb  Pb45  1  0.16628371  0.50247611  0.50173568  1
  Pb  Pb46  1  0.83471926  0.16846670  0.16661873  1
  Pb  Pb47  1  0.50278941  0.49985023  0.16973133  1
  Pb  Pb48  1  0.16663807  0.16559266  0.83477716  1
  Pb  Pb49  1  0.83416636  0.50025122  0.83264386  1
  Pb  Pb50  1  0.16643055  0.83492977  0.16596479  1
  Pb  Pb51  1  0.50035154  0.83320359  0.17023590  1
  Pb  Pb52  1  0.50037529  0.83539659  0.83149325  1
  Pb  Pb53  1  0.16436704  0.49830593  0.16384385  1
  I  I54  1  0.16526864  0.00250279  0.16513424  1
  I  I55  1  0.16662086  -0.00371296  0.50675982  1
  I  I56  1  0.16524391  -0.00294503  0.82988284  1
  I  I57  1  0.16646724  0.33078287  0.16575744  1
  I  I58  1  0.16685100  0.33332310  0.50060052  1
  I  I59  1  0.16566730  0.33448284  0.83541380  1
  I  I60  1  0.16600287  0.66657441  0.16865181  1
  I  I61  1  0.16639339  0.67051923  0.50123293  1
  I  I62  1  0.15905472  0.66819684  0.82853080  1
  I  I63  1  0.49940453  0.00029397  0.16847215  1
  I  I64  1  0.50196835  0.00029851  0.50384381  1
  I  I65  1  0.49792724  0.00321316  0.82645522  1
  I  I66  1  0.49839170  0.33327640  0.16819603  1
  I  I67  1  0.50756572  0.33271186  0.50349211  1
  I  I68  1  0.50488404  0.32944945  0.82760957  1
  I  I69  1  0.49851978  0.66630733  0.16537419  1
  I  I70  1  0.50413097  0.66695644  0.49931775  1
  I  I71  1  0.50211275  0.66670768  0.83231335  1
  I  I72  1  0.83478235  0.00007364  0.16923819  1
  I  I73  1  0.83140509  -0.00010086  0.50421891  1
  I  I74  1  0.83685348  -0.00000383  0.82489224  1
  I  I75  1  0.83519994  0.33603692  0.17176021  1
  I  I76  1  0.82676664  0.33290828  0.49980776  1
  I  I77  1  0.83277648  0.33074246  0.83025314  1
  I  I78  1  0.83552073  0.66323551  0.17343179  1
  I  I79  1  0.83056018  0.66724214  0.50000572  1
  I  I80  1  0.83756398  0.66947138  0.82933505  1
  I  I81  1  0.16544928  0.16637080  0.00206400  1
  I  I82  1  0.16626788  0.16564831  0.33095399  1
  I  I83  1  0.16708846  0.16856841  0.66656760  1
  I  I84  1  0.16352650  0.50543914  -0.00385207  1
  I  I85  1  0.16878696  0.50036530  0.33359767  1
  I  I86  1  0.16368148  0.49912703  0.66932770  1
  I  I87  1  0.16005336  0.83197502  -0.00376819  1
  I  I88  1  0.16641207  0.83554159  0.33655080  1
  I  I89  1  0.16514452  0.83094140  0.66647746  1
  I  I90  1  0.50309934  0.16598435  -0.00295597  1
  I  I91  1  0.50420538  0.16545558  0.33748648  1
  I  I92  1  0.50282527  0.16650051  0.66517288  1
  I  I93  1  0.50050801  0.49814703  -0.00033040  1
  I  I94  1  0.49931286  0.49740746  0.33823191  1
  I  I95  1  0.50869591  0.50293043  0.66245968  1
  I  I96  1  0.49935620  0.83568777  -0.00045597  1
  I  I97  1  0.50062556  0.83740553  0.33940313  1
  I  I98  1  0.50025947  0.83156034  0.66281498  1
  I  I99  1  0.83165639  0.16391930  -0.00332031  1
  I  I100  1  0.83016599  0.16379492  0.33688882  1
  I  I101  1  0.83077483  0.16815786  0.66576272  1
  I  I102  1  0.83875855  0.49826929  0.00144687  1
  I  I103  1  0.83030270  0.49941254  0.33611226  1
  I  I104  1  0.83035624  0.50036756  0.66326204  1
  I  I105  1  0.84075267  0.83781826  -0.00387703  1
  I  I106  1  0.83326547  0.83632792  0.33715988  1
  I  I107  1  0.83448155  0.83213191  0.66524958  1
  I  I108  1  0.00214639  0.16720398  0.16595457  1
  I  I109  1  -0.00344345  0.16761038  0.50360511  1
  I  I110  1  -0.00284591  0.16681026  0.82993158  1
  I  I111  1  -0.00296870  0.49911235  0.17583463  1
  I  I112  1  -0.00327256  0.49916549  0.49770051  1
  I  I113  1  0.00202486  0.49839453  0.83104342  1
  I  I114  1  -0.00020706  0.83390980  0.17255646  1
  I  I115  1  -0.00109318  0.83363985  0.50385327  1
  I  I116  1  -0.00058868  0.83541576  0.82479025  1
  I  I117  1  0.33046463  0.16674761  0.16559306  1
  I  I118  1  0.33621837  0.16651593  0.50334591  1
  I  I119  1  0.33557864  0.16746054  0.82916510  1
  I  I120  1  0.33330350  0.49867807  0.16755028  1
  I  I121  1  0.33586772  0.49876691  0.50333695  1
  I  I122  1  0.32974813  0.50494823  0.83164962  1
  I  I123  1  0.33319280  0.83420707  0.16675756  1
  I  I124  1  0.33339391  0.83475207  0.50449327  1
  I  I125  1  0.33083489  0.83247347  0.82814229  1
  I  I126  1  0.66674848  0.16781583  0.16647048  1
  I  I127  1  0.66738233  0.16315314  0.50272579  1
  I  I128  1  0.66794388  0.16213766  0.82875771  1
  I  I129  1  0.67049790  0.49810602  0.16660570  1
  I  I130  1  0.66767366  0.50360467  0.49670990  1
  I  I131  1  0.66646671  0.50219344  0.83626428  1
  I  I132  1  0.66701669  0.83492645  0.16557599  1
  I  I133  1  0.66757496  0.83266468  0.50335248  1
  I  I134  1  0.66984937  0.83448899  0.82848514  1
