# generated using pymatgen
data_Cs27Sn14Pb13I81
_symmetry_space_group_name_H-M   'P 1'
_cell_length_a   18.97676386
_cell_length_b   18.97236916
_cell_length_c   18.97635497
_cell_angle_alpha   90.00235599
_cell_angle_beta   90.00149930
_cell_angle_gamma   90.00054941
_symmetry_Int_Tables_number   1
_chemical_formula_structural   Cs27Sn14Pb13I81
_chemical_formula_sum   'Cs27 Sn14 Pb13 I81'
_cell_volume   6832.13619204
_cell_formula_units_Z   1
loop_
 _symmetry_equiv_pos_site_id
 _symmetry_equiv_pos_as_xyz
  1  'x, y, z'
loop_
 _atom_site_type_symbol
 _atom_site_label
 _atom_site_symmetry_multiplicity
 _atom_site_fract_x
 _atom_site_fract_y
 _atom_site_fract_z
 _atom_site_occupancy
  Cs  Cs0  1  0.00017570  -0.00084626  -0.00044034  1
  Cs  Cs1  1  -0.00254015  0.00042567  0.33649825  1
  Cs  Cs2  1  0.00018703  0.00109203  0.66498095  1
  Cs  Cs3  1  0.00027129  0.33256380  -0.00271002  1
  Cs  Cs4  1  0.00688298  0.33204348  0.33608419  1
  Cs  Cs5  1  0.00049330  0.33362189  0.66735400  1
  Cs  Cs6  1  0.00229488  0.66745521  0.00110861  1
  Cs  Cs7  1  0.00206405  0.66755503  0.33020044  1
  Cs  Cs8  1  -0.00624532  0.66771990  0.66873589  1
  Cs  Cs9  1  0.33371489  -0.00052507  -0.00478088  1
  Cs  Cs10  1  0.33145182  0.00109038  0.33618369  1
  Cs  Cs11  1  0.33642357  -0.00181958  0.66877764  1
  Cs  Cs12  1  0.33544300  0.33331540  -0.00103497  1
  Cs  Cs13  1  0.32659190  0.33487899  0.33763080  1
  Cs  Cs14  1  0.33026239  0.33193379  0.66581934  1
  Cs  Cs15  1  0.32991565  0.66675935  0.00110702  1
  Cs  Cs16  1  0.33553830  0.66284550  0.33101538  1
  Cs  Cs17  1  0.34123757  0.67086910  0.66783729  1
  Cs  Cs18  1  0.66580696  0.00390988  0.00186506  1
  Cs  Cs19  1  0.66872867  0.00027605  0.33187442  1
  Cs  Cs20  1  0.66571750  -0.00043463  0.66578893  1
  Cs  Cs21  1  0.66410907  0.33285704  0.00213784  1
  Cs  Cs22  1  0.66581647  0.33165831  0.32966908  1
  Cs  Cs23  1  0.66890575  0.33689193  0.66694047  1
  Cs  Cs24  1  0.66804224  0.66351955  0.00330714  1
  Cs  Cs25  1  0.66480596  0.66769877  0.33274030  1
  Cs  Cs26  1  0.66737643  0.66476792  0.66265393  1
  Sn  Sn27  1  0.83303484  0.83423154  0.83358266  1
  Sn  Sn28  1  0.16658704  0.16625740  0.16542894  1
  Sn  Sn29  1  0.16613352  0.83274461  0.50005184  1
  Sn  Sn30  1  0.83265986  0.83263986  0.16651625  1
  Sn  Sn31  1  0.16758552  0.49985835  0.83316788  1
  Sn  Sn32  1  0.50038796  0.83325825  0.16633511  1
  Sn  Sn33  1  0.83221534  0.16635052  0.50087907  1
  Sn  Sn34  1  0.83326676  0.50029815  0.16692839  1
  Sn  Sn35  1  0.50057310  0.50065999  0.16586658  1
  Sn  Sn36  1  0.83417663  0.83399252  0.49997105  1
  Sn  Sn37  1  0.50132456  0.16689625  0.50011956  1
  Sn  Sn38  1  0.83369910  0.16585482  0.83270937  1
  Sn  Sn39  1  0.49918054  0.49992617  0.83386059  1
  Sn  Sn40  1  0.16594963  0.16711364  0.83428489  1
  Pb  Pb41  1  0.49737755  0.16691798  0.16854105  1
  Pb  Pb42  1  0.83494936  0.16658049  0.16671647  1
  Pb  Pb43  1  0.50322220  0.83095057  0.83592840  1
  Pb  Pb44  1  0.50040739  0.16856149  0.83143674  1
  Pb  Pb45  1  0.16600583  0.16518952  0.50123213  1
  Pb  Pb46  1  0.50012202  0.49753889  0.49950048  1
  Pb  Pb47  1  0.16681432  0.49808321  0.16485059  1
  Pb  Pb48  1  0.16654680  0.83536682  0.16824230  1
  Pb  Pb49  1  0.50077658  0.83497586  0.49770210  1
  Pb  Pb50  1  0.16651411  0.50363714  0.50356765  1
  Pb  Pb51  1  0.83348828  0.49984865  0.49674158  1
  Pb  Pb52  1  0.83322937  0.49967245  0.83525286  1
  Pb  Pb53  1  0.16470590  0.83350963  0.83128044  1
  I  I54  1  0.16616276  0.00308118  0.16094237  1
  I  I55  1  0.16425531  -0.00240185  0.50053230  1
  I  I56  1  0.16372488  0.00284348  0.83559269  1
  I  I57  1  0.16565448  0.33019576  0.16704800  1
  I  I58  1  0.16670791  0.33323987  0.49737888  1
  I  I59  1  0.16384088  0.33222318  0.83704815  1
  I  I60  1  0.16626991  0.66671329  0.16661907  1
  I  I61  1  0.15919357  0.67117845  0.49834997  1
  I  I62  1  0.16866119  0.66430902  0.83217688  1
  I  I63  1  0.50508880  -0.00234049  0.16974939  1
  I  I64  1  0.50099044  0.00276579  0.49860887  1
  I  I65  1  0.49700332  -0.00009035  0.83401801  1
  I  I66  1  0.50464348  0.33629504  0.16363709  1
  I  I67  1  0.50542125  0.32962552  0.49794648  1
  I  I68  1  0.50143605  0.33636820  0.84024716  1
  I  I69  1  0.50419284  0.66629157  0.16437426  1
  I  I70  1  0.49971250  0.66673596  0.50161095  1
  I  I71  1  0.49434863  0.66305313  0.83393016  1
  I  I72  1  0.83029825  -0.00291267  0.16714678  1
  I  I73  1  0.83378475  -0.00042034  0.49814196  1
  I  I74  1  0.83938623  0.00046026  0.83461911  1
  I  I75  1  0.82946627  0.33547697  0.16516220  1
  I  I76  1  0.82993282  0.33000044  0.50426011  1
  I  I77  1  0.83498824  0.33053536  0.82990069  1
  I  I78  1  0.83009188  0.66793135  0.16621481  1
  I  I79  1  0.83710890  0.67016061  0.50363431  1
  I  I80  1  0.83343766  0.66919503  0.83082829  1
  I  I81  1  0.16090877  0.16924782  -0.00150262  1
  I  I82  1  0.16664960  0.16523078  0.33217609  1
  I  I83  1  0.16492987  0.16996912  0.66972364  1
  I  I84  1  0.16703038  0.49873032  -0.00304124  1
  I  I85  1  0.16707648  0.49711140  0.33323337  1
  I  I86  1  0.17090484  0.49085073  0.67130643  1
  I  I87  1  0.16544899  0.83277697  -0.00025072  1
  I  I88  1  0.16043166  0.83792778  0.33592837  1
  I  I89  1  0.16077100  0.83590891  0.66357263  1
  I  I90  1  0.50171385  0.16559111  0.00000380  1
  I  I91  1  0.50521600  0.16679019  0.33615858  1
  I  I92  1  0.49927619  0.16689655  0.66368116  1
  I  I93  1  0.50069450  0.50235592  0.00082271  1
  I  I94  1  0.50487299  0.50349071  0.32984261  1
  I  I95  1  0.49571087  0.49790216  0.66942753  1
  I  I96  1  0.50444662  0.83353559  0.00385747  1
  I  I97  1  0.50526476  0.82761347  0.32994186  1
  I  I98  1  0.49982726  0.83235558  0.66678891  1
  I  I99  1  0.83673389  0.16382088  -0.00255152  1
  I  I100  1  0.83177848  0.16334845  0.33573423  1
  I  I101  1  0.83540635  0.15950969  0.66699788  1
  I  I102  1  0.83227443  0.50389664  0.00302271  1
  I  I103  1  0.82652833  0.50355177  0.32877765  1
  I  I104  1  0.83291439  0.50258968  0.66685657  1
  I  I105  1  0.82943642  0.83354971  0.00040885  1
  I  I106  1  0.83338716  0.83427119  0.33334874  1
  I  I107  1  0.83932798  0.83799840  0.66641917  1
  I  I108  1  0.00255878  0.16678144  0.16747219  1
  I  I109  1  -0.00290868  0.16350835  0.50031768  1
  I  I110  1  -0.00041917  0.16921538  0.83146512  1
  I  I111  1  -0.00239499  0.50425033  0.16534831  1
  I  I112  1  -0.00007061  0.49444517  0.49917542  1
  I  I113  1  0.00183121  0.49825485  0.83490890  1
  I  I114  1  -0.00340427  0.83003420  0.16558035  1
  I  I115  1  -0.00241071  0.84006314  0.49783036  1
  I  I116  1  -0.00358192  0.83206850  0.83801078  1
  I  I117  1  0.32992441  0.16632460  0.16308561  1
  I  I118  1  0.33471610  0.16524821  0.49814781  1
  I  I119  1  0.33077993  0.16937116  0.83523570  1
  I  I120  1  0.33617087  0.50376145  0.16461099  1
  I  I121  1  0.33327722  0.49851765  0.49481683  1
  I  I122  1  0.33325770  0.49410997  0.83925152  1
  I  I123  1  0.33578975  0.82968595  0.16980604  1
  I  I124  1  0.33162143  0.83657980  0.49869859  1
  I  I125  1  0.33354794  0.83544297  0.83230991  1
  I  I126  1  0.66671255  0.16716484  0.16534227  1
  I  I127  1  0.66866068  0.16078450  0.50415869  1
  I  I128  1  0.66981257  0.16391727  0.83112847  1
  I  I129  1  0.66627711  0.50304349  0.16065827  1
  I  I130  1  0.66683105  0.50314161  0.50576931  1
  I  I131  1  0.66462780  0.49990149  0.83627931  1
  I  I132  1  0.66817241  0.82966602  0.16901889  1
  I  I133  1  0.67017745  0.83587701  0.50132515  1
  I  I134  1  0.67127210  0.83846717  0.82780431  1
