# generated using pymatgen
data_Cs27Sn13Pb14I81
_symmetry_space_group_name_H-M   'P 1'
_cell_length_a   18.98672131
_cell_length_b   18.97217302
_cell_length_c   18.97232527
_cell_angle_alpha   90.00183288
_cell_angle_beta   90.00038409
_cell_angle_gamma   90.00041135
_symmetry_Int_Tables_number   1
_chemical_formula_structural   Cs27Sn13Pb14I81
_chemical_formula_sum   'Cs27 Sn13 Pb14 I81'
_cell_volume   6834.19889537
_cell_formula_units_Z   1
loop_
 _symmetry_equiv_pos_site_id
 _symmetry_equiv_pos_as_xyz
  1  'x, y, z'
loop_
 _atom_site_type_symbol
 _atom_site_label
 _atom_site_symmetry_multiplicity
 _atom_site_fract_x
 _atom_site_fract_y
 _atom_site_fract_z
 _atom_site_occupancy
  Cs  Cs0  1  0.00165503  0.00612744  0.00458558  1
  Cs  Cs1  1  0.00081722  -0.00916454  0.32887004  1
  Cs  Cs2  1  -0.00037357  0.00465620  0.66744376  1
  Cs  Cs3  1  0.00040744  0.33181240  -0.00203342  1
  Cs  Cs4  1  -0.00069637  0.33459996  0.33817005  1
  Cs  Cs5  1  -0.00022766  0.33162399  0.66663590  1
  Cs  Cs6  1  0.00067545  0.66507877  -0.00056166  1
  Cs  Cs7  1  0.00139609  0.67334073  0.33395971  1
  Cs  Cs8  1  0.00023033  0.66603226  0.66683083  1
  Cs  Cs9  1  0.33118534  0.00102530  0.00155188  1
  Cs  Cs10  1  0.33184609  0.00361278  0.33097808  1
  Cs  Cs11  1  0.33836007  -0.00270747  0.66698974  1
  Cs  Cs12  1  0.33295980  0.33364051  -0.00026026  1
  Cs  Cs13  1  0.33738908  0.33189712  0.33727156  1
  Cs  Cs14  1  0.33286205  0.33382711  0.66387408  1
  Cs  Cs15  1  0.33559064  0.66600293  -0.00156275  1
  Cs  Cs16  1  0.32946331  0.66615856  0.33711472  1
  Cs  Cs17  1  0.33322858  0.66891937  0.66415147  1
  Cs  Cs18  1  0.66745422  0.00180873  0.00174404  1
  Cs  Cs19  1  0.66788737  0.00186628  0.33263062  1
  Cs  Cs20  1  0.66333180  -0.00516847  0.66586629  1
  Cs  Cs21  1  0.66699744  0.33487108  -0.00026593  1
  Cs  Cs22  1  0.66424066  0.33165094  0.33440512  1
  Cs  Cs23  1  0.66852632  0.33332995  0.66629507  1
  Cs  Cs24  1  0.66424696  0.66491538  -0.00164859  1
  Cs  Cs25  1  0.66914229  0.66733103  0.33145470  1
  Cs  Cs26  1  0.66612773  0.67010019  0.66905380  1
  Sn  Sn27  1  0.16672862  0.49977272  0.16626342  1
  Sn  Sn28  1  0.50011354  0.16782078  0.83344271  1
  Sn  Sn29  1  0.49970914  0.50113050  0.16603323  1
  Sn  Sn30  1  0.83364856  0.49988060  0.16671799  1
  Sn  Sn31  1  0.49994748  0.83218911  0.16668683  1
  Sn  Sn32  1  0.83483796  0.83287275  0.83372454  1
  Sn  Sn33  1  0.83350308  0.50052091  0.83332758  1
  Sn  Sn34  1  0.49983264  0.49892073  0.83357623  1
  Sn  Sn35  1  0.16532762  0.83277953  0.83347039  1
  Sn  Sn36  1  0.16579259  0.16653420  0.49997532  1
  Sn  Sn37  1  0.83324518  0.49963893  0.50014606  1
  Sn  Sn38  1  0.83430411  0.16694802  0.50002818  1
  Sn  Sn39  1  0.16668458  0.50061668  0.83375484  1
  Pb  Pb40  1  0.16649739  0.16964461  0.16934570  1
  Pb  Pb41  1  0.50052196  0.16681711  0.50231529  1
  Pb  Pb42  1  0.50000035  0.83306143  0.49606596  1
  Pb  Pb43  1  0.83352512  0.16917638  0.16948674  1
  Pb  Pb44  1  0.16862219  0.83078319  0.16411346  1
  Pb  Pb45  1  0.16654234  0.83618579  0.50270973  1
  Pb  Pb46  1  0.50003151  0.16744419  0.16436446  1
  Pb  Pb47  1  0.49988919  0.83272589  0.83476964  1
  Pb  Pb48  1  0.83173338  0.83091920  0.16373400  1
  Pb  Pb49  1  0.83338142  0.83322034  0.50225311  1
  Pb  Pb50  1  0.16442228  0.49897395  0.50031408  1
  Pb  Pb51  1  0.16854644  0.16701373  0.83190440  1
  Pb  Pb52  1  0.83156378  0.16673301  0.83175975  1
  Pb  Pb53  1  0.50266249  0.50045063  0.49998277  1
  I  I54  1  0.16950899  -0.00027241  0.16578909  1
  I  I55  1  0.16018925  0.00399536  0.50222426  1
  I  I56  1  0.16458362  -0.00252661  0.83031300  1
  I  I57  1  0.16901847  0.33821720  0.15878962  1
  I  I58  1  0.16420598  0.33120807  0.50245853  1
  I  I59  1  0.16427320  0.33697956  0.83580744  1
  I  I60  1  0.16404071  0.66232130  0.16592912  1
  I  I61  1  0.16574463  0.66661615  0.49845845  1
  I  I62  1  0.16780544  0.66468984  0.83635019  1
  I  I63  1  0.50017384  -0.00245605  0.16408701  1
  I  I64  1  0.50248230  0.00020612  0.50301779  1
  I  I65  1  0.50019530  0.00159070  0.83361482  1
  I  I66  1  0.50056639  0.33742728  0.16472975  1
  I  I67  1  0.49885567  0.33363192  0.49667639  1
  I  I68  1  0.50049993  0.33604522  0.83815157  1
  I  I69  1  0.50117970  0.66403620  0.15893366  1
  I  I70  1  0.50128018  0.66631710  0.50666984  1
  I  I71  1  0.50100871  0.66324890  0.83594801  1
  I  I72  1  0.83019928  -0.00037046  0.16654375  1
  I  I73  1  0.83591245  0.00289481  0.50358615  1
  I  I74  1  0.83478338  -0.00259719  0.83034136  1
  I  I75  1  0.82991196  0.33830312  0.16033526  1
  I  I76  1  0.83674261  0.33474190  0.50239563  1
  I  I77  1  0.83500500  0.33705851  0.83490434  1
  I  I78  1  0.83494627  0.66208068  0.17138301  1
  I  I79  1  0.83239437  0.66325082  0.49864364  1
  I  I80  1  0.83116096  0.66422630  0.83126372  1
  I  I81  1  0.16869750  0.16523750  -0.00018497  1
  I  I82  1  0.16380574  0.16913794  0.33716067  1
  I  I83  1  0.16274998  0.16998328  0.66425849  1
  I  I84  1  0.16357876  0.50280594  -0.00111971  1
  I  I85  1  0.16782197  0.49701222  0.33057877  1
  I  I86  1  0.16692275  0.50179155  0.67011083  1
  I  I87  1  0.16343359  0.83197375  -0.00393763  1
  I  I88  1  0.16855771  0.83278119  0.33296071  1
  I  I89  1  0.16513195  0.82506914  0.67095662  1
  I  I90  1  0.49988126  0.16952964  -0.00355171  1
  I  I91  1  0.49991420  0.16669195  0.33332122  1
  I  I92  1  0.50001924  0.17281885  0.67027003  1
  I  I93  1  0.50401708  0.49970099  -0.00072602  1
  I  I94  1  0.49953828  0.50368080  0.32975470  1
  I  I95  1  0.49970571  0.49589774  0.67022123  1
  I  I96  1  0.50056227  0.82981805  0.00222761  1
  I  I97  1  0.50078219  0.82548985  0.32822392  1
  I  I98  1  0.50034610  0.83418135  0.66719617  1
  I  I99  1  0.83140892  0.16707762  -0.00019583  1
  I  I100  1  0.83489156  0.17291475  0.33764435  1
  I  I101  1  0.83610697  0.17405558  0.66398451  1
  I  I102  1  0.83221455  0.50479496  -0.00073196  1
  I  I103  1  0.83207058  0.49393922  0.33291360  1
  I  I104  1  0.83341351  0.49929521  0.66792476  1
  I  I105  1  0.83558607  0.82727967  -0.00427870  1
  I  I106  1  0.83100095  0.83268828  0.33298840  1
  I  I107  1  0.83437879  0.82668172  0.67046732  1
  I  I108  1  -0.00000064  0.16834846  0.16251297  1
  I  I109  1  -0.00090874  0.17351873  0.50331566  1
  I  I110  1  -0.00002143  0.16873702  0.83250724  1
  I  I111  1  -0.00026645  0.49774404  0.16292194  1
  I  I112  1  -0.00361515  0.49720827  0.50113928  1
  I  I113  1  -0.00033492  0.50426817  0.83551089  1
  I  I114  1  0.00009977  0.83225079  0.16801174  1
  I  I115  1  -0.00010770  0.83125168  0.49747535  1
  I  I116  1  -0.00020639  0.82372119  0.83217350  1
  I  I117  1  0.33336751  0.16867918  0.16942276  1
  I  I118  1  0.33097484  0.16750384  0.50154619  1
  I  I119  1  0.33627722  0.17085534  0.83095459  1
  I  I120  1  0.33369010  0.50330021  0.15833714  1
  I  I121  1  0.33311778  0.49725441  0.49997652  1
  I  I122  1  0.33326328  0.49962660  0.84011055  1
  I  I123  1  0.33632768  0.82722221  0.16291431  1
  I  I124  1  0.33313607  0.83489674  0.50457400  1
  I  I125  1  0.33109973  0.83035184  0.83451087  1
  I  I126  1  0.66665738  0.16851583  0.16856567  1
  I  I127  1  0.66979457  0.17216466  0.50115644  1
  I  I128  1  0.66380555  0.17128309  0.83161939  1
  I  I129  1  0.66661895  0.50337188  0.16347327  1
  I  I130  1  0.67090130  0.49324319  0.50075817  1
  I  I131  1  0.66708966  0.49979419  0.83538152  1
  I  I132  1  0.66394162  0.82679677  0.16322708  1
  I  I133  1  0.66694579  0.83527371  0.50460952  1
  I  I134  1  0.66880725  0.82966143  0.83369977  1
