# generated using pymatgen
data_Cs27Sn13Pb14I81
_symmetry_space_group_name_H-M   'P 1'
_cell_length_a   18.99002607
_cell_length_b   18.99531016
_cell_length_c   18.99051692
_cell_angle_alpha   89.99899269
_cell_angle_beta   89.99813856
_cell_angle_gamma   90.00043815
_symmetry_Int_Tables_number   1
_chemical_formula_structural   Cs27Sn13Pb14I81
_chemical_formula_sum   'Cs27 Sn13 Pb14 I81'
_cell_volume   6850.28651296
_cell_formula_units_Z   1
loop_
 _symmetry_equiv_pos_site_id
 _symmetry_equiv_pos_as_xyz
  1  'x, y, z'
loop_
 _atom_site_type_symbol
 _atom_site_label
 _atom_site_symmetry_multiplicity
 _atom_site_fract_x
 _atom_site_fract_y
 _atom_site_fract_z
 _atom_site_occupancy
  Cs  Cs0  1  -0.00171966  -0.00006593  0.00135367  1
  Cs  Cs1  1  -0.00152219  0.00034512  0.33322787  1
  Cs  Cs2  1  -0.00164910  -0.00058573  0.66494618  1
  Cs  Cs3  1  0.00107322  0.33501133  0.00182978  1
  Cs  Cs4  1  -0.00133765  0.33259946  0.32840056  1
  Cs  Cs5  1  0.00343357  0.34268969  0.66808109  1
  Cs  Cs6  1  0.00042827  0.66523214  0.00125329  1
  Cs  Cs7  1  0.00244467  0.66595605  0.33178622  1
  Cs  Cs8  1  0.00106742  0.66120523  0.66601005  1
  Cs  Cs9  1  0.33515852  0.00117161  -0.00128320  1
  Cs  Cs10  1  0.33226660  0.00244216  0.33712338  1
  Cs  Cs11  1  0.33237362  0.00319324  0.66561569  1
  Cs  Cs12  1  0.33314364  0.32938210  -0.00149662  1
  Cs  Cs13  1  0.34416042  0.33399173  0.33862090  1
  Cs  Cs14  1  0.32785120  0.32461144  0.66212512  1
  Cs  Cs15  1  0.33471389  0.66786452  -0.00007988  1
  Cs  Cs16  1  0.33354363  0.66380233  0.33528675  1
  Cs  Cs17  1  0.33329246  0.66892090  0.66678738  1
  Cs  Cs18  1  0.66721388  -0.00184471  -0.00020168  1
  Cs  Cs19  1  0.66930753  -0.00155779  0.33213544  1
  Cs  Cs20  1  0.66805689  -0.00155900  0.66821525  1
  Cs  Cs21  1  0.66632103  0.33134277  0.00022772  1
  Cs  Cs22  1  0.66090815  0.33574113  0.33578736  1
  Cs  Cs23  1  0.66793150  0.33627486  0.66250178  1
  Cs  Cs24  1  0.66367530  0.67000800  -0.00111929  1
  Cs  Cs25  1  0.66260643  0.66670178  0.33222395  1
  Cs  Cs26  1  0.66650605  0.66709833  0.66891342  1
  Sn  Sn27  1  0.50107177  0.83349039  0.50079056  1
  Sn  Sn28  1  0.16620614  0.16670409  0.16682482  1
  Sn  Sn29  1  0.16617511  0.83347386  0.83409604  1
  Sn  Sn30  1  0.83324817  0.49939466  0.16639959  1
  Sn  Sn31  1  0.49967808  0.49983427  0.83316695  1
  Sn  Sn32  1  0.16659334  0.49961294  0.16652214  1
  Sn  Sn33  1  0.16660853  0.83361296  0.16595793  1
  Sn  Sn34  1  0.83385781  0.16632829  0.50022246  1
  Sn  Sn35  1  0.83364330  0.16650974  0.83304356  1
  Sn  Sn36  1  0.49997733  0.83276081  0.83244214  1
  Sn  Sn37  1  0.83371476  0.16762208  0.16666519  1
  Sn  Sn38  1  0.83267229  0.83359785  0.50081231  1
  Sn  Sn39  1  0.83391242  0.83375454  0.83260530  1
  Pb  Pb40  1  0.50040486  0.16647775  0.16666449  1
  Pb  Pb41  1  0.49986378  0.50006697  0.16434916  1
  Pb  Pb42  1  0.50244406  0.16622933  0.83317018  1
  Pb  Pb43  1  0.16668753  0.49982976  0.49719665  1
  Pb  Pb44  1  0.83186701  0.50033673  0.83558205  1
  Pb  Pb45  1  0.16923366  0.50203848  0.83541300  1
  Pb  Pb46  1  0.83489270  0.83328454  0.16678520  1
  Pb  Pb47  1  0.50300819  0.16370743  0.50029861  1
  Pb  Pb48  1  0.16609173  0.83330247  0.50036646  1
  Pb  Pb49  1  0.50006463  0.50261617  0.50343365  1
  Pb  Pb50  1  0.83339957  0.50059238  0.49727876  1
  Pb  Pb51  1  0.16378345  0.16436356  0.83521381  1
  Pb  Pb52  1  0.16347018  0.16667736  0.49736804  1
  Pb  Pb53  1  0.49684671  0.83356114  0.16684456  1
  I  I54  1  0.16159270  0.00003562  0.16278330  1
  I  I55  1  0.16920788  -0.00023793  0.49593703  1
  I  I56  1  0.17155831  -0.00397439  0.83965929  1
  I  I57  1  0.15899209  0.33305367  0.16667529  1
  I  I58  1  0.16509674  0.33306940  0.50067983  1
  I  I59  1  0.16757440  0.33320655  0.83496172  1
  I  I60  1  0.16175002  0.66683955  0.16259546  1
  I  I61  1  0.16391903  0.66714997  0.49618424  1
  I  I62  1  0.16132957  0.67061666  0.83936311  1
  I  I63  1  0.50097843  -0.00027839  0.16361775  1
  I  I64  1  0.50043692  -0.00410588  0.50732651  1
  I  I65  1  0.49833561  -0.00386028  0.83007037  1
  I  I66  1  0.49650422  0.33338304  0.16390921  1
  I  I67  1  0.50071591  0.33325104  0.49957354  1
  I  I68  1  0.50311361  0.33571711  0.83838634  1
  I  I69  1  0.50150943  0.66696879  0.16841594  1
  I  I70  1  0.50763070  0.67068354  0.50029202  1
  I  I71  1  0.50293448  0.66914585  0.83114623  1
  I  I72  1  0.83762082  0.00254075  0.16675916  1
  I  I73  1  0.82951309  -0.00061368  0.49781896  1
  I  I74  1  0.83140963  -0.00119369  0.83602988  1
  I  I75  1  0.84171547  0.33211094  0.16535963  1
  I  I76  1  0.83487696  0.33021735  0.50216504  1
  I  I77  1  0.83030251  0.33058744  0.83233037  1
  I  I78  1  0.83830226  0.66479871  0.16608777  1
  I  I79  1  0.82977666  0.67027586  0.50411791  1
  I  I80  1  0.83459720  0.67022108  0.83062602  1
  I  I81  1  0.15972780  0.16825209  0.00351401  1
  I  I82  1  0.15994642  0.16198552  0.32871122  1
  I  I83  1  0.16689819  0.16425273  0.66674141  1
  I  I84  1  0.16185019  0.49871977  0.00359276  1
  I  I85  1  0.16168728  0.50523642  0.32807986  1
  I  I86  1  0.16687318  0.50261890  0.66723255  1
  I  I87  1  0.16570582  0.83319598  -0.00016500  1
  I  I88  1  0.16553454  0.83306218  0.33030074  1
  I  I89  1  0.16694581  0.83331039  0.66997416  1
  I  I90  1  0.50361831  0.16351984  -0.00025024  1
  I  I91  1  0.50138243  0.16482083  0.33355462  1
  I  I92  1  0.50023652  0.16958013  0.66677854  1
  I  I93  1  0.50112876  0.50985817  -0.00289769  1
  I  I94  1  0.49936824  0.50116210  0.33343963  1
  I  I95  1  0.50364396  0.50418437  0.67090548  1
  I  I96  1  0.50329017  0.83000947  -0.00337560  1
  I  I97  1  0.50546942  0.83484736  0.33630186  1
  I  I98  1  0.49980723  0.82866748  0.66795369  1
  I  I99  1  0.83667304  0.16548135  0.00032327  1
  I  I100  1  0.83817704  0.16464436  0.33287521  1
  I  I101  1  0.83025895  0.15859125  0.66687375  1
  I  I102  1  0.83732926  0.49640683  0.00332037  1
  I  I103  1  0.83786207  0.49697678  0.32921572  1
  I  I104  1  0.83130890  0.49705356  0.66681846  1
  I  I105  1  0.83073291  0.83606359  -0.00278381  1
  I  I106  1  0.83017308  0.83629310  0.33573544  1
  I  I107  1  0.83390754  0.84141948  0.66770217  1
  I  I108  1  -0.00112111  0.16688551  0.16665347  1
  I  I109  1  -0.00461010  0.15674453  0.50092082  1
  I  I110  1  -0.00440698  0.16057309  0.83250798  1
  I  I111  1  0.00002677  0.49941427  0.16535783  1
  I  I112  1  -0.00038930  0.50394013  0.50381098  1
  I  I113  1  0.00008971  0.50100117  0.83295954  1
  I  I114  1  0.00282852  0.83321042  0.16284538  1
  I  I115  1  -0.00338689  0.83817533  0.50218095  1
  I  I116  1  -0.00082686  0.83885424  0.83443626  1
  I  I117  1  0.32984215  0.16627741  0.16489060  1
  I  I118  1  0.33330387  0.16594467  0.49735857  1
  I  I119  1  0.33308472  0.16569817  0.83708408  1
  I  I120  1  0.33005617  0.50130055  0.16503299  1
  I  I121  1  0.33364574  0.50331046  0.49597422  1
  I  I122  1  0.33675196  0.50842175  0.83701192  1
  I  I123  1  0.32863425  0.83270226  0.16237207  1
  I  I124  1  0.33586966  0.83103119  0.50244762  1
  I  I125  1  0.33351773  0.82730153  0.83469124  1
  I  I126  1  0.67098886  0.17113480  0.16656776  1
  I  I127  1  0.67118552  0.16501629  0.49630037  1
  I  I128  1  0.67090608  0.15996270  0.83763079  1
  I  I129  1  0.66955611  0.49451327  0.16610514  1
  I  I130  1  0.66682313  0.49761472  0.49542899  1
  I  I131  1  0.66440222  0.50750936  0.83697357  1
  I  I132  1  0.66675858  0.83320195  0.16433078  1
  I  I133  1  0.66772493  0.83731057  0.50774516  1
  I  I134  1  0.66724650  0.83337362  0.82925069  1
