# generated using pymatgen
data_Cs27Sn14Pb13I81
_symmetry_space_group_name_H-M   'P 1'
_cell_length_a   18.96890108
_cell_length_b   18.97904727
_cell_length_c   18.97905397
_cell_angle_alpha   89.99922227
_cell_angle_beta   89.99926320
_cell_angle_gamma   89.99675463
_symmetry_Int_Tables_number   1
_chemical_formula_structural   Cs27Sn14Pb13I81
_chemical_formula_sum   'Cs27 Sn14 Pb13 I81'
_cell_volume   6832.68090677
_cell_formula_units_Z   1
loop_
 _symmetry_equiv_pos_site_id
 _symmetry_equiv_pos_as_xyz
  1  'x, y, z'
loop_
 _atom_site_type_symbol
 _atom_site_label
 _atom_site_symmetry_multiplicity
 _atom_site_fract_x
 _atom_site_fract_y
 _atom_site_fract_z
 _atom_site_occupancy
  Cs  Cs0  1  0.00352884  -0.00122095  0.00108326  1
  Cs  Cs1  1  -0.00205839  0.00209705  0.33572926  1
  Cs  Cs2  1  -0.00392805  0.00168182  0.66209877  1
  Cs  Cs3  1  -0.00022250  0.33480761  0.00286805  1
  Cs  Cs4  1  0.00131269  0.33294237  0.33218565  1
  Cs  Cs5  1  -0.00359529  0.32794925  0.66478743  1
  Cs  Cs6  1  0.00113853  0.66624999  -0.00187522  1
  Cs  Cs7  1  -0.00126451  0.66516477  0.33107080  1
  Cs  Cs8  1  -0.00287449  0.67027419  0.67333762  1
  Cs  Cs9  1  0.33396666  0.00068173  -0.00042040  1
  Cs  Cs10  1  0.33504913  -0.00082555  0.33366171  1
  Cs  Cs11  1  0.33233957  -0.00323014  0.66708346  1
  Cs  Cs12  1  0.33371644  0.33193621  -0.00005199  1
  Cs  Cs13  1  0.33149227  0.33824351  0.33841840  1
  Cs  Cs14  1  0.33418657  0.33437157  0.66303441  1
  Cs  Cs15  1  0.33114347  0.66684209  -0.00266483  1
  Cs  Cs16  1  0.33346616  0.66390198  0.33629876  1
  Cs  Cs17  1  0.33481014  0.66877101  0.66701185  1
  Cs  Cs18  1  0.66397678  0.00338145  0.00438084  1
  Cs  Cs19  1  0.66608380  -0.00319283  0.33056848  1
  Cs  Cs20  1  0.67144797  0.00398504  0.66559326  1
  Cs  Cs21  1  0.66623246  0.33160446  -0.00059252  1
  Cs  Cs22  1  0.66654838  0.33742861  0.33192406  1
  Cs  Cs23  1  0.66809917  0.33219604  0.66922283  1
  Cs  Cs24  1  0.66882502  0.66668841  0.00151772  1
  Cs  Cs25  1  0.66798349  0.66591321  0.33231550  1
  Cs  Cs26  1  0.66497775  0.66503449  0.66655269  1
  Sn  Sn27  1  0.83367338  0.50026870  0.49963821  1
  Sn  Sn28  1  0.16688425  0.83400983  0.16693121  1
  Sn  Sn29  1  0.16703877  0.83312435  0.50002900  1
  Sn  Sn30  1  0.49979149  0.16559277  0.49995658  1
  Sn  Sn31  1  0.49951984  0.83439510  0.50087635  1
  Sn  Sn32  1  0.49980064  0.83299897  0.83283754  1
  Sn  Sn33  1  0.83260340  0.49925058  0.16731053  1
  Sn  Sn34  1  0.83379201  0.16722178  0.16662857  1
  Sn  Sn35  1  0.16684467  0.16658151  0.83362654  1
  Sn  Sn36  1  0.50028760  0.50018526  0.16558650  1
  Sn  Sn37  1  0.16749670  0.49956366  0.83307756  1
  Sn  Sn38  1  0.49904111  0.50066580  0.83441301  1
  Sn  Sn39  1  0.16627366  0.16601198  0.16633560  1
  Sn  Sn40  1  0.16744759  0.83378260  0.83308390  1
  Pb  Pb41  1  0.83291742  0.50000037  0.83403068  1
  Pb  Pb42  1  0.83271581  0.83127783  0.50001388  1
  Pb  Pb43  1  0.50138868  0.50079979  0.50073942  1
  Pb  Pb44  1  0.83596196  0.83325352  0.16657159  1
  Pb  Pb45  1  0.49785303  0.16642369  0.83158852  1
  Pb  Pb46  1  0.83621826  0.16650008  0.83624774  1
  Pb  Pb47  1  0.49903439  0.16900855  0.16865085  1
  Pb  Pb48  1  0.16666748  0.49978137  0.16513088  1
  Pb  Pb49  1  0.83241355  0.83374825  0.83352323  1
  Pb  Pb50  1  0.49758804  0.83101959  0.16645069  1
  Pb  Pb51  1  0.83073914  0.16870926  0.49724061  1
  Pb  Pb52  1  0.16407165  0.50272156  0.50340211  1
  Pb  Pb53  1  0.16814333  0.16464017  0.49968025  1
  I  I54  1  0.16168091  0.00020491  0.16158035  1
  I  I55  1  0.16790620  -0.00354463  0.50435628  1
  I  I56  1  0.17068184  -0.00100795  0.83546051  1
  I  I57  1  0.16560777  0.33094573  0.16135757  1
  I  I58  1  0.16828470  0.33347279  0.49989167  1
  I  I59  1  0.17010581  0.33341207  0.83984529  1
  I  I60  1  0.16727807  0.66902687  0.16543385  1
  I  I61  1  0.17401976  0.67068456  0.49792087  1
  I  I62  1  0.16985121  0.66739697  0.83390605  1
  I  I63  1  0.50318054  -0.00006166  0.16488205  1
  I  I64  1  0.49545059  -0.00162777  0.50459262  1
  I  I65  1  0.49464313  -0.00306168  0.83111732  1
  I  I66  1  0.49957632  0.33690172  0.16271759  1
  I  I67  1  0.50169890  0.33205708  0.49917344  1
  I  I68  1  0.49601184  0.33612576  0.83506338  1
  I  I69  1  0.50449728  0.66311987  0.16759791  1
  I  I70  1  0.49671285  0.66947528  0.50122604  1
  I  I71  1  0.49166130  0.66670816  0.83105445  1
  I  I72  1  0.83599977  0.00292033  0.16578616  1
  I  I73  1  0.83479056  0.00010437  0.49895365  1
  I  I74  1  0.83269914  0.00025448  0.83415730  1
  I  I75  1  0.83649082  0.33407784  0.17050344  1
  I  I76  1  0.83137627  0.33648984  0.49885621  1
  I  I77  1  0.83337557  0.33343022  0.83019452  1
  I  I78  1  0.83048022  0.66346987  0.17023494  1
  I  I79  1  0.83164521  0.66355016  0.49265309  1
  I  I80  1  0.83928438  0.66652095  0.83577450  1
  I  I81  1  0.16359736  0.16209302  0.00013052  1
  I  I82  1  0.16381215  0.16232442  0.33035311  1
  I  I83  1  0.16983586  0.16677205  0.66931049  1
  I  I84  1  0.16586729  0.50497578  -0.00289394  1
  I  I85  1  0.16908034  0.50042835  0.33347848  1
  I  I86  1  0.17276982  0.49915649  0.67132289  1
  I  I87  1  0.16935842  0.83365438  -0.00094693  1
  I  I88  1  0.17021074  0.83789279  0.33335953  1
  I  I89  1  0.17119493  0.83191167  0.66757419  1
  I  I90  1  0.50223613  0.16505990  0.00012514  1
  I  I91  1  0.49831664  0.16170585  0.33624881  1
  I  I92  1  0.49749469  0.16812439  0.66381698  1
  I  I93  1  0.50177901  0.50467551  -0.00080222  1
  I  I94  1  0.50271210  0.49942975  0.33148136  1
  I  I95  1  0.49722273  0.50125862  0.66952747  1
  I  I96  1  0.49510363  0.83026917  -0.00289265  1
  I  I97  1  0.49535810  0.83521477  0.33586522  1
  I  I98  1  0.49058824  0.82975128  0.66710230  1
  I  I99  1  0.83291979  0.17458702  0.00414770  1
  I  I100  1  0.84157287  0.16926519  0.32967734  1
  I  I101  1  0.83416923  0.16856022  0.66637351  1
  I  I102  1  0.83250934  0.49602417  0.00309023  1
  I  I103  1  0.82736561  0.49750730  0.33171035  1
  I  I104  1  0.83331262  0.50202915  0.66478933  1
  I  I105  1  0.83379313  0.82984401  0.00028400  1
  I  I106  1  0.83389987  0.83355530  0.33322685  1
  I  I107  1  0.83884561  0.83025840  0.66659607  1
  I  I108  1  0.00097742  0.16937714  0.16291479  1
  I  I109  1  0.00004316  0.16616141  0.50229190  1
  I  I110  1  0.00489746  0.16685834  0.83295808  1
  I  I111  1  -0.00213823  0.49929061  0.16894463  1
  I  I112  1  -0.00313647  0.50033533  0.49284074  1
  I  I113  1  0.00303220  0.50226697  0.83370835  1
  I  I114  1  0.00452348  0.83163628  0.16536338  1
  I  I115  1  0.00314343  0.83153902  0.50154105  1
  I  I116  1  0.00409993  0.83115475  0.83314964  1
  I  I117  1  0.33005287  0.16331169  0.16271435  1
  I  I118  1  0.33594588  0.16717791  0.49762822  1
  I  I119  1  0.32965212  0.16623488  0.84092814  1
  I  I120  1  0.33545156  0.50025641  0.16444047  1
  I  I121  1  0.33325361  0.49793136  0.49642876  1
  I  I122  1  0.33360782  0.50173812  0.83938763  1
  I  I123  1  0.32944439  0.83827096  0.16555568  1
  I  I124  1  0.33329442  0.83601095  0.50124915  1
  I  I125  1  0.33222044  0.83157068  0.83254581  1
  I  I126  1  0.66868034  0.17024563  0.16950802  1
  I  I127  1  0.66304251  0.15986685  0.49998623  1
  I  I128  1  0.66635831  0.16731186  0.83303939  1
  I  I129  1  0.66693888  0.49503826  0.16517154  1
  I  I130  1  0.66905362  0.50147739  0.49927193  1
  I  I131  1  0.66332820  0.50562323  0.83358179  1
  I  I132  1  0.66632786  0.83514498  0.16684514  1
  I  I133  1  0.66298651  0.83549058  0.50522654  1
  I  I134  1  0.66241117  0.82608904  0.82769008  1
