# generated using pymatgen
data_Cs27Sn14Pb13I81
_symmetry_space_group_name_H-M   'P 1'
_cell_length_a   18.97943355
_cell_length_b   18.96905249
_cell_length_c   18.97937551
_cell_angle_alpha   90.00096641
_cell_angle_beta   90.00165582
_cell_angle_gamma   90.00077592
_symmetry_Int_Tables_number   1
_chemical_formula_structural   Cs27Sn14Pb13I81
_chemical_formula_sum   'Cs27 Sn14 Pb13 I81'
_cell_volume   6832.99028021
_cell_formula_units_Z   1
loop_
 _symmetry_equiv_pos_site_id
 _symmetry_equiv_pos_as_xyz
  1  'x, y, z'
loop_
 _atom_site_type_symbol
 _atom_site_label
 _atom_site_symmetry_multiplicity
 _atom_site_fract_x
 _atom_site_fract_y
 _atom_site_fract_z
 _atom_site_occupancy
  Cs  Cs0  1  0.00310042  -0.00091208  -0.00201344  1
  Cs  Cs1  1  0.00098647  -0.00182273  0.33097585  1
  Cs  Cs2  1  0.00035493  0.00150842  0.66842722  1
  Cs  Cs3  1  -0.00321471  0.33706056  -0.00383611  1
  Cs  Cs4  1  -0.00304622  0.33508175  0.33662804  1
  Cs  Cs5  1  0.00008372  0.33289038  0.66433255  1
  Cs  Cs6  1  0.00082772  0.66589278  0.00088781  1
  Cs  Cs7  1  -0.00152257  0.66597571  0.33035294  1
  Cs  Cs8  1  0.00190222  0.66549884  0.66780328  1
  Cs  Cs9  1  0.33544035  0.00310302  0.00536340  1
  Cs  Cs10  1  0.33109391  0.00510649  0.32819776  1
  Cs  Cs11  1  0.32767633  -0.00214195  0.66607813  1
  Cs  Cs12  1  0.33892645  0.32855219  0.00215424  1
  Cs  Cs13  1  0.33313897  0.33117572  0.33264535  1
  Cs  Cs14  1  0.33365071  0.33533049  0.66700931  1
  Cs  Cs15  1  0.33273799  0.66746183  -0.00108874  1
  Cs  Cs16  1  0.33398299  0.66591179  0.33414302  1
  Cs  Cs17  1  0.33362064  0.66563378  0.66733802  1
  Cs  Cs18  1  0.66281337  0.00430380  -0.00242449  1
  Cs  Cs19  1  0.66778060  0.00062163  0.33723150  1
  Cs  Cs20  1  0.66939007  -0.00175632  0.66357861  1
  Cs  Cs21  1  0.66464124  0.32924066  0.00001636  1
  Cs  Cs22  1  0.66892971  0.33190042  0.33314326  1
  Cs  Cs23  1  0.66598509  0.33361967  0.66701986  1
  Cs  Cs24  1  0.66718564  0.66616930  0.00048654  1
  Cs  Cs25  1  0.66769318  0.66998004  0.33421636  1
  Cs  Cs26  1  0.66321543  0.66832678  0.66514414  1
  Sn  Sn27  1  0.83362000  0.49993727  0.50091665  1
  Sn  Sn28  1  0.16631964  0.50044625  0.83347644  1
  Sn  Sn29  1  0.16651204  0.83232757  0.50016257  1
  Sn  Sn30  1  0.16601813  0.50095681  0.49997279  1
  Sn  Sn31  1  0.16761549  0.50002842  0.16642996  1
  Sn  Sn32  1  0.50042497  0.16681569  0.50050327  1
  Sn  Sn33  1  0.49975054  0.83302548  0.83391446  1
  Sn  Sn34  1  0.83352227  0.50110559  0.83217147  1
  Sn  Sn35  1  0.83392149  0.16649385  0.16720627  1
  Sn  Sn36  1  0.83265245  0.16728224  0.49914468  1
  Sn  Sn37  1  0.83345037  0.83225192  0.83336402  1
  Sn  Sn38  1  0.50023548  0.83238898  0.16630009  1
  Sn  Sn39  1  0.16674121  0.83241436  0.83280679  1
  Sn  Sn40  1  0.49959543  0.50085051  0.16683764  1
  Pb  Pb41  1  0.49724531  0.83529383  0.49984949  1
  Pb  Pb42  1  0.16587278  0.16699097  0.50003480  1
  Pb  Pb43  1  0.16358073  0.17010542  0.16655201  1
  Pb  Pb44  1  0.83573349  0.83298131  0.50184824  1
  Pb  Pb45  1  0.50013933  0.50167386  0.83527928  1
  Pb  Pb46  1  0.50188539  0.16661562  0.16859417  1
  Pb  Pb47  1  0.83343549  0.16715761  0.83259374  1
  Pb  Pb48  1  0.16681827  0.16721927  0.83353224  1
  Pb  Pb49  1  0.50009727  0.49861486  0.49789180  1
  Pb  Pb50  1  0.49985837  0.16351763  0.83025368  1
  Pb  Pb51  1  0.83095637  0.83574656  0.16372682  1
  Pb  Pb52  1  0.83317991  0.49900948  0.16643097  1
  Pb  Pb53  1  0.16841754  0.83134891  0.16634266  1
  I  I54  1  0.16824780  -0.00015026  0.16717040  1
  I  I55  1  0.16729452  -0.00274970  0.50591244  1
  I  I56  1  0.16499055  -0.00389564  0.82742188  1
  I  I57  1  0.17434983  0.33845516  0.16738142  1
  I  I58  1  0.16548372  0.33694380  0.50097265  1
  I  I59  1  0.16009764  0.33773334  0.83139377  1
  I  I60  1  0.16654024  0.66304714  0.16681320  1
  I  I61  1  0.16227220  0.66520210  0.50132992  1
  I  I62  1  0.16569015  0.66641577  0.83217778  1
  I  I63  1  0.50111515  -0.00254991  0.16246980  1
  I  I64  1  0.50631686  0.00288432  0.49907783  1
  I  I65  1  0.50003908  -0.00489365  0.84094808  1
  I  I66  1  0.49643348  0.33585125  0.16801498  1
  I  I67  1  0.49991464  0.33076957  0.49689210  1
  I  I68  1  0.50032322  0.33352858  0.83551990  1
  I  I69  1  0.49676991  0.66655449  0.16368539  1
  I  I70  1  0.50233275  0.66680283  0.50032283  1
  I  I71  1  0.49981293  0.66996753  0.83359601  1
  I  I72  1  0.83098626  0.00335806  0.17333300  1
  I  I73  1  0.83048645  0.00231816  0.49793231  1
  I  I74  1  0.83390828  -0.00298251  0.83377836  1
  I  I75  1  0.83165103  0.33121094  0.16667904  1
  I  I76  1  0.83585172  0.33438117  0.50170837  1
  I  I77  1  0.83934111  0.33677368  0.83275345  1
  I  I78  1  0.83382085  0.66669225  0.16903988  1
  I  I79  1  0.83580807  0.66356794  0.50186314  1
  I  I80  1  0.83463570  0.66594351  0.82846722  1
  I  I81  1  0.16519344  0.16529368  0.00023681  1
  I  I82  1  0.16914733  0.16493365  0.33341976  1
  I  I83  1  0.16522693  0.16919105  0.66648494  1
  I  I84  1  0.16474096  0.50452342  -0.00107856  1
  I  I85  1  0.16599059  0.50353867  0.33428557  1
  I  I86  1  0.16141047  0.50388978  0.66668109  1
  I  I87  1  0.16422465  0.82898961  -0.00326023  1
  I  I88  1  0.16838732  0.82956911  0.33566524  1
  I  I89  1  0.16922532  0.82654694  0.66774375  1
  I  I90  1  0.50202696  0.16801810  0.00017308  1
  I  I91  1  0.50231326  0.16463434  0.33613643  1
  I  I92  1  0.50747601  0.16757736  0.66274456  1
  I  I93  1  0.49673058  0.50074343  0.00323565  1
  I  I94  1  0.49620815  0.50543855  0.33000505  1
  I  I95  1  0.49811639  0.49969781  0.66662685  1
  I  I96  1  0.49832725  0.82947801  -0.00063084  1
  I  I97  1  0.49820290  0.83093187  0.33091846  1
  I  I98  1  0.50130752  0.83546175  0.66947834  1
  I  I99  1  0.83276935  0.16753058  0.00187348  1
  I  I100  1  0.82941103  0.17346515  0.33495664  1
  I  I101  1  0.82993895  0.16805868  0.66355158  1
  I  I102  1  0.83704789  0.50218025  -0.00273598  1
  I  I103  1  0.83686282  0.49626861  0.33589782  1
  I  I104  1  0.84094022  0.49720409  0.66647974  1
  I  I105  1  0.83935834  0.82784246  -0.00429286  1
  I  I106  1  0.83304077  0.83146148  0.33337494  1
  I  I107  1  0.82845637  0.83460473  0.67003507  1
  I  I108  1  -0.00392827  0.16723601  0.17426099  1
  I  I109  1  -0.00313431  0.16909295  0.49684488  1
  I  I110  1  -0.00017734  0.16138096  0.83218640  1
  I  I111  1  0.00254665  0.49768900  0.16666995  1
  I  I112  1  0.00021122  0.49727212  0.49891777  1
  I  I113  1  0.00028977  0.50690717  0.83532672  1
  I  I114  1  0.00002454  0.83368750  0.16631998  1
  I  I115  1  0.00358391  0.83402864  0.50518343  1
  I  I116  1  0.00054949  0.83012161  0.82821289  1
  I  I117  1  0.33346625  0.16539044  0.16835091  1
  I  I118  1  0.33520023  0.16575961  0.49976982  1
  I  I119  1  0.33352529  0.16790718  0.83159974  1
  I  I120  1  0.33266771  0.50385806  0.16694254  1
  I  I121  1  0.33020697  0.50197609  0.50302662  1
  I  I122  1  0.33022421  0.50423600  0.82984530  1
  I  I123  1  0.33630846  0.83290004  0.16157404  1
  I  I124  1  0.32966009  0.82819328  0.50616509  1
  I  I125  1  0.33239487  0.82903921  0.83224405  1
  I  I126  1  0.66943113  0.16981697  0.16863985  1
  I  I127  1  0.66829772  0.17126086  0.49607673  1
  I  I128  1  0.66676483  0.16715780  0.83565610  1
  I  I129  1  0.66442648  0.50167863  0.16647415  1
  I  I130  1  0.66965873  0.49684616  0.50309951  1
  I  I131  1  0.66959535  0.50378112  0.83019066  1
  I  I132  1  0.66306016  0.82635660  0.16243166  1
  I  I133  1  0.66671355  0.83196783  0.50135237  1
  I  I134  1  0.66686201  0.82989190  0.83802860  1
