# generated using pymatgen
data_Cs27Sn14Pb13I81
_symmetry_space_group_name_H-M   'P 1'
_cell_length_a   18.97568735
_cell_length_b   18.97535104
_cell_length_c   18.97597082
_cell_angle_alpha   90.00071354
_cell_angle_beta   90.00062299
_cell_angle_gamma   90.00017821
_symmetry_Int_Tables_number   1
_chemical_formula_structural   Cs27Sn14Pb13I81
_chemical_formula_sum   'Cs27 Sn14 Pb13 I81'
_cell_volume   6832.68404766
_cell_formula_units_Z   1
loop_
 _symmetry_equiv_pos_site_id
 _symmetry_equiv_pos_as_xyz
  1  'x, y, z'
loop_
 _atom_site_type_symbol
 _atom_site_label
 _atom_site_symmetry_multiplicity
 _atom_site_fract_x
 _atom_site_fract_y
 _atom_site_fract_z
 _atom_site_occupancy
  Cs  Cs0  1  -0.00221584  -0.00328636  -0.00418881  1
  Cs  Cs1  1  -0.00054970  0.00027607  0.33453283  1
  Cs  Cs2  1  0.00225718  0.00096328  0.66851728  1
  Cs  Cs3  1  -0.00161859  0.33632031  0.00409230  1
  Cs  Cs4  1  0.00423304  0.33271440  0.32964981  1
  Cs  Cs5  1  -0.00085085  0.33187405  0.66569140  1
  Cs  Cs6  1  0.00005562  0.66694221  0.00025934  1
  Cs  Cs7  1  0.00001452  0.66626005  0.33377371  1
  Cs  Cs8  1  -0.00067923  0.66750785  0.66537961  1
  Cs  Cs9  1  0.33593456  -0.00113882  -0.00328070  1
  Cs  Cs10  1  0.33856934  -0.00082767  0.33258092  1
  Cs  Cs11  1  0.32904861  0.00375642  0.66962162  1
  Cs  Cs12  1  0.33137022  0.33735550  0.00503950  1
  Cs  Cs13  1  0.32532727  0.33107869  0.32866050  1
  Cs  Cs14  1  0.33661754  0.33211640  0.66583860  1
  Cs  Cs15  1  0.33275354  0.66532898  0.00046325  1
  Cs  Cs16  1  0.33274791  0.66923359  0.33249581  1
  Cs  Cs17  1  0.33429524  0.66416654  0.66677727  1
  Cs  Cs18  1  0.66711783  0.00021348  0.00097390  1
  Cs  Cs19  1  0.66172581  -0.00059834  0.33161048  1
  Cs  Cs20  1  0.66741218  0.00172357  0.66651704  1
  Cs  Cs21  1  0.66805963  0.33322718  -0.00188134  1
  Cs  Cs22  1  0.66794396  0.33122530  0.33372573  1
  Cs  Cs23  1  0.66537648  0.33348720  0.66750808  1
  Cs  Cs24  1  0.66787897  0.66593682  -0.00129741  1
  Cs  Cs25  1  0.66547103  0.66872625  0.34045497  1
  Cs  Cs26  1  0.66564133  0.66434691  0.66107591  1
  Sn  Sn27  1  0.50124402  0.83363224  0.83304057  1
  Sn  Sn28  1  0.83384743  0.83223957  0.16637163  1
  Sn  Sn29  1  0.50090404  0.16600589  0.83280371  1
  Sn  Sn30  1  0.83217277  0.83285463  0.83351796  1
  Sn  Sn31  1  0.16647268  0.83274190  0.49933063  1
  Sn  Sn32  1  0.50084509  0.16686504  0.50061782  1
  Sn  Sn33  1  0.83185474  0.50132139  0.16636227  1
  Sn  Sn34  1  0.16569412  0.49985502  0.83214530  1
  Sn  Sn35  1  0.83267347  0.16673009  0.83257108  1
  Sn  Sn36  1  0.16586317  0.83339395  0.16734013  1
  Sn  Sn37  1  0.83264147  0.16662417  0.50056581  1
  Sn  Sn38  1  0.83408069  0.50034914  0.83344796  1
  Sn  Sn39  1  0.16636039  0.50073920  0.50123949  1
  Sn  Sn40  1  0.50172791  0.50021829  0.16698406  1
  Pb  Pb41  1  0.16642775  0.16234713  0.16620325  1
  Pb  Pb42  1  0.16670800  0.16647401  0.50007171  1
  Pb  Pb43  1  0.16652309  0.16977496  0.83366534  1
  Pb  Pb44  1  0.83482458  0.83550576  0.50010099  1
  Pb  Pb45  1  0.83344783  0.16622176  0.16614377  1
  Pb  Pb46  1  0.50082571  0.83143163  0.16455963  1
  Pb  Pb47  1  0.49743742  0.83549935  0.50299147  1
  Pb  Pb48  1  0.83501328  0.49788267  0.49971606  1
  Pb  Pb49  1  0.50023780  0.16903432  0.16582250  1
  Pb  Pb50  1  0.50060904  0.49965617  0.83432358  1
  Pb  Pb51  1  0.49737319  0.49743722  0.49714146  1
  Pb  Pb52  1  0.16574284  0.50186920  0.16666734  1
  Pb  Pb53  1  0.16646473  0.83136302  0.83328980  1
  I  I54  1  0.16056028  -0.00561762  0.17276388  1
  I  I55  1  0.16618522  -0.00266326  0.49521287  1
  I  I56  1  0.16493960  -0.00018912  0.83335753  1
  I  I57  1  0.16699225  0.33384142  0.16763758  1
  I  I58  1  0.16656850  0.33585154  0.50405963  1
  I  I59  1  0.16347441  0.33785093  0.82763736  1
  I  I60  1  0.16504012  0.66945046  0.16732148  1
  I  I61  1  0.16532091  0.66658705  0.50010548  1
  I  I62  1  0.16327463  0.66358499  0.83290868  1
  I  I63  1  0.49871619  -0.00013335  0.16813811  1
  I  I64  1  0.50219819  0.00335857  0.49989290  1
  I  I65  1  0.50636198  0.00036364  0.83125086  1
  I  I66  1  0.50495412  0.33690803  0.16377566  1
  I  I67  1  0.50243113  0.32984122  0.50821597  1
  I  I68  1  0.50287118  0.33064920  0.83058188  1
  I  I69  1  0.50019136  0.66374284  0.16291559  1
  I  I70  1  0.49982017  0.66664226  0.50095434  1
  I  I71  1  0.50169841  0.66875067  0.83700164  1
  I  I72  1  0.83874015  -0.00330552  0.16303049  1
  I  I73  1  0.83288019  0.00333278  0.50415526  1
  I  I74  1  0.82946369  -0.00036914  0.83425453  1
  I  I75  1  0.83014039  0.33627788  0.16304473  1
  I  I76  1  0.83209093  0.33007822  0.50462872  1
  I  I77  1  0.83341248  0.33354865  0.83363929  1
  I  I78  1  0.83444898  0.66663308  0.15753147  1
  I  I79  1  0.83407631  0.66668315  0.50226612  1
  I  I80  1  0.83430159  0.66669667  0.83936226  1
  I  I81  1  0.16754259  0.16885252  -0.00039051  1
  I  I82  1  0.16597575  0.17342685  0.33354176  1
  I  I83  1  0.16618865  0.16201835  0.66686187  1
  I  I84  1  0.16599463  0.50067495  -0.00213024  1
  I  I85  1  0.16737804  0.50089409  0.33533218  1
  I  I86  1  0.16142228  0.50615499  0.66709389  1
  I  I87  1  0.16521652  0.83100849  0.00196107  1
  I  I88  1  0.16117182  0.82692567  0.33314491  1
  I  I89  1  0.16679196  0.83125590  0.66467406  1
  I  I90  1  0.50516565  0.16342629  -0.00367651  1
  I  I91  1  0.50348675  0.16845099  0.33596986  1
  I  I92  1  0.50395568  0.16370067  0.66782995  1
  I  I93  1  0.49807726  0.49835318  0.00212479  1
  I  I94  1  0.50542419  0.49987623  0.32959755  1
  I  I95  1  0.50049434  0.50141892  0.66654966  1
  I  I96  1  0.49841289  0.83978520  -0.00334611  1
  I  I97  1  0.50083497  0.83455674  0.33344492  1
  I  I98  1  0.50533084  0.83276548  0.67085178  1
  I  I99  1  0.82878640  0.16692996  -0.00360822  1
  I  I100  1  0.83037759  0.16700875  0.33595797  1
  I  I101  1  0.82994667  0.16692474  0.66830584  1
  I  I102  1  0.83611203  0.49799625  -0.00111758  1
  I  I103  1  0.83162241  0.50309811  0.33039123  1
  I  I104  1  0.83625881  0.50225350  0.66977822  1
  I  I105  1  0.83645561  0.83491903  -0.00083814  1
  I  I106  1  0.83708573  0.82973673  0.33062465  1
  I  I107  1  0.83167510  0.83095152  0.67002326  1
  I  I108  1  -0.00041344  0.17358404  0.16814418  1
  I  I109  1  -0.00264814  0.16643056  0.50503645  1
  I  I110  1  -0.00371403  0.16308461  0.82890511  1
  I  I111  1  -0.00296801  0.50132987  0.16462625  1
  I  I112  1  0.00292302  0.50099245  0.49950660  1
  I  I113  1  -0.00162612  0.50024248  0.83608348  1
  I  I114  1  -0.00126382  0.82720344  0.16387557  1
  I  I115  1  0.00275461  0.83209155  0.50092020  1
  I  I116  1  -0.00308176  0.83584956  0.83452103  1
  I  I117  1  0.33356272  0.17001387  0.16762434  1
  I  I118  1  0.33597859  0.16675601  0.50521831  1
  I  I119  1  0.33657025  0.16205050  0.82873695  1
  I  I120  1  0.33456023  0.49981819  0.16547830  1
  I  I121  1  0.32953743  0.50199052  0.50537619  1
  I  I122  1  0.33138922  0.50097339  0.83246207  1
  I  I123  1  0.33126149  0.83086937  0.16896782  1
  I  I124  1  0.32961122  0.83102188  0.49448691  1
  I  I125  1  0.33538224  0.83705810  0.83335130  1
  I  I126  1  0.66688592  0.16291777  0.16840699  1
  I  I127  1  0.66703155  0.16715196  0.50482276  1
  I  I128  1  0.66769319  0.16811125  0.82909002  1
  I  I129  1  0.66868911  0.50422870  0.15914742  1
  I  I130  1  0.66670125  0.50027614  0.50183445  1
  I  I131  1  0.66994528  0.49948069  0.83697049  1
  I  I132  1  0.66998520  0.83185783  0.16302491  1
  I  I133  1  0.66662022  0.83301084  0.49727065  1
  I  I134  1  0.66833920  0.83284750  0.83988791  1
