# generated using pymatgen
data_Cs27Sn14Pb13I81
_symmetry_space_group_name_H-M   'P 1'
_cell_length_a   18.96912473
_cell_length_b   18.97944137
_cell_length_c   18.97912535
_cell_angle_alpha   89.99930908
_cell_angle_beta   90.00027300
_cell_angle_gamma   90.00004724
_symmetry_Int_Tables_number   1
_chemical_formula_structural   Cs27Sn14Pb13I81
_chemical_formula_sum   'Cs27 Sn14 Pb13 I81'
_cell_volume   6832.92905727
_cell_formula_units_Z   1
loop_
 _symmetry_equiv_pos_site_id
 _symmetry_equiv_pos_as_xyz
  1  'x, y, z'
loop_
 _atom_site_type_symbol
 _atom_site_label
 _atom_site_symmetry_multiplicity
 _atom_site_fract_x
 _atom_site_fract_y
 _atom_site_fract_z
 _atom_site_occupancy
  Cs  Cs0  1  0.00485026  -0.00274521  -0.00527301  1
  Cs  Cs1  1  0.00072133  -0.00022317  0.33357457  1
  Cs  Cs2  1  0.00208705  -0.00094781  0.67009042  1
  Cs  Cs3  1  0.00130075  0.34191966  0.00099716  1
  Cs  Cs4  1  -0.00775320  0.33304402  0.33160575  1
  Cs  Cs5  1  -0.00082618  0.33531580  0.66781207  1
  Cs  Cs6  1  0.00483048  0.65988381  -0.00338841  1
  Cs  Cs7  1  0.00110747  0.66614938  0.33185391  1
  Cs  Cs8  1  -0.00576910  0.66608532  0.67036668  1
  Cs  Cs9  1  0.33073696  0.00052427  -0.00011541  1
  Cs  Cs10  1  0.33257740  0.00086617  0.33407824  1
  Cs  Cs11  1  0.33294745  0.00126294  0.66518215  1
  Cs  Cs12  1  0.33253804  0.33382980  -0.00222281  1
  Cs  Cs13  1  0.33421830  0.33096103  0.33463739  1
  Cs  Cs14  1  0.33303034  0.33346468  0.66655096  1
  Cs  Cs15  1  0.33326594  0.66603329  0.00382613  1
  Cs  Cs16  1  0.33312075  0.66739759  0.33435456  1
  Cs  Cs17  1  0.33799538  0.66486681  0.66137483  1
  Cs  Cs18  1  0.66665793  0.00078608  0.00075928  1
  Cs  Cs19  1  0.66781731  0.00246371  0.33168975  1
  Cs  Cs20  1  0.66682154  -0.00026716  0.66750213  1
  Cs  Cs21  1  0.66719560  0.33035119  0.00325213  1
  Cs  Cs22  1  0.67525941  0.32492843  0.33100502  1
  Cs  Cs23  1  0.66847021  0.33204395  0.66528254  1
  Cs  Cs24  1  0.66478503  0.66790416  -0.00162180  1
  Cs  Cs25  1  0.66564147  0.66864476  0.33330397  1
  Cs  Cs26  1  0.66517976  0.66731808  0.66767203  1
  Sn  Sn27  1  0.83326771  0.83319429  0.16666022  1
  Sn  Sn28  1  0.50015963  0.50020695  0.16771245  1
  Sn  Sn29  1  0.83292236  0.83343223  0.49920210  1
  Sn  Sn30  1  0.50079532  0.16659223  0.83310817  1
  Sn  Sn31  1  0.16668972  0.16670143  0.16730747  1
  Sn  Sn32  1  0.83289787  0.16659300  0.83352076  1
  Sn  Sn33  1  0.50005098  0.49983710  0.83325455  1
  Sn  Sn34  1  0.49979596  0.83355059  0.83345678  1
  Sn  Sn35  1  0.16704398  0.50006563  0.49974632  1
  Sn  Sn36  1  0.49996887  0.49999885  0.49900653  1
  Sn  Sn37  1  0.16646114  0.83287298  0.50002529  1
  Sn  Sn38  1  0.50022980  0.83323239  0.49955931  1
  Sn  Sn39  1  0.50059579  0.83293793  0.16710330  1
  Sn  Sn40  1  0.16664339  0.16698552  0.49899557  1
  Pb  Pb41  1  0.83627559  0.16381743  0.16407007  1
  Pb  Pb42  1  0.16662911  0.16688795  0.83319960  1
  Pb  Pb43  1  0.16683459  0.83437746  0.16849708  1
  Pb  Pb44  1  0.16963403  0.83279019  0.83057266  1
  Pb  Pb45  1  0.49872520  0.16678584  0.50176615  1
  Pb  Pb46  1  0.83030640  0.49761056  0.83340017  1
  Pb  Pb47  1  0.83636557  0.16387599  0.50188035  1
  Pb  Pb48  1  0.83053530  0.50304385  0.16671967  1
  Pb  Pb49  1  0.16914312  0.49782988  0.16954208  1
  Pb  Pb50  1  0.83136987  0.83450744  0.83382623  1
  Pb  Pb51  1  0.16927905  0.50032598  0.83056243  1
  Pb  Pb52  1  0.49859104  0.16633164  0.16447677  1
  Pb  Pb53  1  0.83253588  0.50252539  0.49983643  1
  I  I54  1  0.16969898  0.00222387  0.17269087  1
  I  I55  1  0.16796520  -0.00063635  0.49678018  1
  I  I56  1  0.17016496  0.00002306  0.83045134  1
  I  I57  1  0.16935956  0.33010137  0.17124027  1
  I  I58  1  0.17458197  0.33360859  0.49797292  1
  I  I59  1  0.16983745  0.33329930  0.83045037  1
  I  I60  1  0.16526620  0.66651806  0.16713632  1
  I  I61  1  0.17020038  0.66718625  0.50106149  1
  I  I62  1  0.16554273  0.66665539  0.83448861  1
  I  I63  1  0.50185670  -0.00331610  0.16741116  1
  I  I64  1  0.49866543  -0.00331869  0.50040764  1
  I  I65  1  0.50346924  -0.00061887  0.83236370  1
  I  I66  1  0.49582726  0.33591049  0.16616823  1
  I  I67  1  0.49371990  0.33624086  0.50149163  1
  I  I68  1  0.50267807  0.33369093  0.83257432  1
  I  I69  1  0.50256358  0.66769181  0.16268818  1
  I  I70  1  0.49540725  0.66766591  0.50435294  1
  I  I71  1  0.49861503  0.66700119  0.83195194  1
  I  I72  1  0.82457620  -0.00363954  0.17165472  1
  I  I73  1  0.83037152  -0.00411654  0.49724532  1
  I  I74  1  0.82633598  0.00227308  0.83227293  1
  I  I75  1  0.83257760  0.33306212  0.16563422  1
  I  I76  1  0.83307582  0.33310384  0.50174248  1
  I  I77  1  0.82804998  0.32968700  0.83204949  1
  I  I78  1  0.83206450  0.67112405  0.17126617  1
  I  I79  1  0.83661287  0.67082872  0.49799320  1
  I  I80  1  0.83280578  0.66681125  0.83230564  1
  I  I81  1  0.16853542  0.16426057  0.00220133  1
  I  I82  1  0.16930501  0.16505622  0.33481613  1
  I  I83  1  0.16797465  0.16550951  0.66360190  1
  I  I84  1  0.16794518  0.49660790  0.00032376  1
  I  I85  1  0.17417445  0.50357818  0.33749115  1
  I  I86  1  0.17319159  0.49734630  0.66226180  1
  I  I87  1  0.16685409  0.83825804  0.00014976  1
  I  I88  1  0.17218631  0.83210857  0.33709033  1
  I  I89  1  0.16597401  0.83782763  0.66171666  1
  I  I90  1  0.50033430  0.16604983  -0.00360259  1
  I  I91  1  0.49929722  0.16660641  0.33331811  1
  I  I92  1  0.50023782  0.16554512  0.66990892  1
  I  I93  1  0.50157132  0.50332108  -0.00006376  1
  I  I94  1  0.49417231  0.50981837  0.33420337  1
  I  I95  1  0.49554614  0.50327155  0.66611551  1
  I  I96  1  0.50535535  0.83126409  0.00036368  1
  I  I97  1  0.49957369  0.82663280  0.33411319  1
  I  I98  1  0.49924173  0.83134674  0.66579213  1
  I  I99  1  0.82840584  0.16348497  -0.00320035  1
  I  I100  1  0.83273968  0.16740723  0.33324326  1
  I  I101  1  0.82927139  0.16388681  0.66939691  1
  I  I102  1  0.83259828  0.50196558  0.00005494  1
  I  I103  1  0.83103421  0.49637541  0.33340318  1
  I  I104  1  0.83203310  0.50222805  0.66651277  1
  I  I105  1  0.82617397  0.83651220  0.00268800  1
  I  I106  1  0.82750041  0.83406056  0.33419116  1
  I  I107  1  0.83319197  0.83475077  0.66389760  1
  I  I108  1  0.00365698  0.16427175  0.17079225  1
  I  I109  1  0.00445751  0.16713838  0.49883988  1
  I  I110  1  -0.00229663  0.16296717  0.83182562  1
  I  I111  1  0.00018589  0.49999250  0.16731374  1
  I  I112  1  0.00293449  0.50029986  0.50016232  1
  I  I113  1  -0.00003666  0.49731033  0.83203551  1
  I  I114  1  -0.00238403  0.83822339  0.17277369  1
  I  I115  1  0.00025563  0.83492467  0.49460548  1
  I  I116  1  -0.00011322  0.83815287  0.83261790  1
  I  I117  1  0.33096109  0.16384203  0.16925774  1
  I  I118  1  0.33058677  0.16161013  0.49964127  1
  I  I119  1  0.33638368  0.16648844  0.83273823  1
  I  I120  1  0.33745414  0.50733710  0.16382594  1
  I  I121  1  0.33462103  0.50482271  0.50101067  1
  I  I122  1  0.33801514  0.49700476  0.83500316  1
  I  I123  1  0.33685952  0.83091886  0.16660377  1
  I  I124  1  0.33434810  0.83306322  0.50094245  1
  I  I125  1  0.33849542  0.83708692  0.83473269  1
  I  I126  1  0.66672447  0.16854410  0.16675600  1
  I  I127  1  0.66689315  0.16690493  0.50010566  1
  I  I128  1  0.66473360  0.16605829  0.83297625  1
  I  I129  1  0.66184423  0.50006503  0.16919317  1
  I  I130  1  0.66259064  0.50585992  0.50203198  1
  I  I131  1  0.66160385  0.50407576  0.82889899  1
  I  I132  1  0.66472689  0.83071701  0.17161096  1
  I  I133  1  0.66503675  0.82831497  0.50066879  1
  I  I134  1  0.66259706  0.83109107  0.82804200  1
