# generated using pymatgen
data_Cs27Sn13Pb14I81
_symmetry_space_group_name_H-M   'P 1'
_cell_length_a   18.97908164
_cell_length_b   18.97749444
_cell_length_c   18.97523449
_cell_angle_alpha   89.99956233
_cell_angle_beta   89.99884560
_cell_angle_gamma   90.00317651
_symmetry_Int_Tables_number   1
_chemical_formula_structural   Cs27Sn13Pb14I81
_chemical_formula_sum   'Cs27 Sn13 Pb14 I81'
_cell_volume   6834.41297155
_cell_formula_units_Z   1
loop_
 _symmetry_equiv_pos_site_id
 _symmetry_equiv_pos_as_xyz
  1  'x, y, z'
loop_
 _atom_site_type_symbol
 _atom_site_label
 _atom_site_symmetry_multiplicity
 _atom_site_fract_x
 _atom_site_fract_y
 _atom_site_fract_z
 _atom_site_occupancy
  Cs  Cs0  1  0.00055519  0.00312816  -0.00404049  1
  Cs  Cs1  1  0.00087765  -0.00073805  0.33567010  1
  Cs  Cs2  1  -0.00166075  0.00421513  0.66762560  1
  Cs  Cs3  1  0.00694989  0.33335561  0.00334606  1
  Cs  Cs4  1  0.00237002  0.33233751  0.32980827  1
  Cs  Cs5  1  -0.00234329  0.32576579  0.66767363  1
  Cs  Cs6  1  0.00151950  0.66278059  0.00232632  1
  Cs  Cs7  1  -0.00108654  0.66696930  0.33355495  1
  Cs  Cs8  1  -0.00039562  0.66787982  0.66463126  1
  Cs  Cs9  1  0.33407995  0.00146352  0.00242024  1
  Cs  Cs10  1  0.33347733  0.00449395  0.32938490  1
  Cs  Cs11  1  0.33038022  -0.00410607  0.66780850  1
  Cs  Cs12  1  0.32795762  0.33509128  0.00265440  1
  Cs  Cs13  1  0.33575861  0.32440966  0.33335843  1
  Cs  Cs14  1  0.33598463  0.33370842  0.66350393  1
  Cs  Cs15  1  0.33262215  0.66508236  -0.00274551  1
  Cs  Cs16  1  0.33239212  0.66878137  0.33781886  1
  Cs  Cs17  1  0.33337615  0.66780029  0.66622269  1
  Cs  Cs18  1  0.66551981  -0.00043044  0.00155660  1
  Cs  Cs19  1  0.66525206  0.00074195  0.32765918  1
  Cs  Cs20  1  0.66988931  -0.00096554  0.66877866  1
  Cs  Cs21  1  0.66775592  0.33565515  -0.00247792  1
  Cs  Cs22  1  0.66354227  0.33209244  0.33563539  1
  Cs  Cs23  1  0.66657792  0.33388932  0.66682587  1
  Cs  Cs24  1  0.66694797  0.66630648  0.00103462  1
  Cs  Cs25  1  0.66908331  0.66728635  0.33233262  1
  Cs  Cs26  1  0.66625325  0.66577563  0.66677609  1
  Sn  Sn27  1  0.49995792  0.16672704  0.83309262  1
  Sn  Sn28  1  0.50013598  0.50054482  0.16635627  1
  Sn  Sn29  1  0.83436927  0.50059027  0.50082959  1
  Sn  Sn30  1  0.83311943  0.50089224  0.83262008  1
  Sn  Sn31  1  0.83313778  0.16677903  0.16656130  1
  Sn  Sn32  1  0.50052649  0.83333501  0.50031565  1
  Sn  Sn33  1  0.50060825  0.50000672  0.83422409  1
  Sn  Sn34  1  0.83268894  0.83208916  0.83285023  1
  Sn  Sn35  1  0.16639783  0.83258119  0.49899948  1
  Sn  Sn36  1  0.50090417  0.83335193  0.83263413  1
  Sn  Sn37  1  0.16658924  0.83272811  0.16705952  1
  Sn  Sn38  1  0.16556538  0.50044485  0.50030301  1
  Sn  Sn39  1  0.83304348  0.83256169  0.50061728  1
  Pb  Pb40  1  0.16436879  0.16399178  0.16675300  1
  Pb  Pb41  1  0.50037363  0.50169644  0.50043373  1
  Pb  Pb42  1  0.83520537  0.83455017  0.16620288  1
  Pb  Pb43  1  0.16997774  0.16691202  0.83320473  1
  Pb  Pb44  1  0.83197422  0.49839006  0.16686936  1
  Pb  Pb45  1  0.16621229  0.50007715  0.83053129  1
  Pb  Pb46  1  0.16666061  0.16644407  0.50015875  1
  Pb  Pb47  1  0.16932135  0.50194951  0.16973386  1
  Pb  Pb48  1  0.50034512  0.16288067  0.50261326  1
  Pb  Pb49  1  0.49825357  0.83164332  0.16618010  1
  Pb  Pb50  1  0.83179995  0.16702910  0.83507604  1
  Pb  Pb51  1  0.50167344  0.16933140  0.16413347  1
  Pb  Pb52  1  0.83313001  0.16669714  0.49802745  1
  Pb  Pb53  1  0.16613443  0.83313090  0.83279103  1
  I  I54  1  0.16861465  -0.00386052  0.17388018  1
  I  I55  1  0.16649069  -0.00413265  0.49688621  1
  I  I56  1  0.16568661  -0.00044373  0.83137934  1
  I  I57  1  0.16713803  0.33353537  0.16764061  1
  I  I58  1  0.16219656  0.33673418  0.50164195  1
  I  I59  1  0.16557636  0.33372799  0.83204448  1
  I  I60  1  0.16519088  0.66969711  0.16870295  1
  I  I61  1  0.16610392  0.66800627  0.49663456  1
  I  I62  1  0.17223462  0.66676606  0.83588512  1
  I  I63  1  0.49909135  -0.00012122  0.16639721  1
  I  I64  1  0.49982814  -0.00555054  0.50374528  1
  I  I65  1  0.50385491  -0.00169902  0.82810324  1
  I  I66  1  0.50054673  0.33713926  0.16306438  1
  I  I67  1  0.49921800  0.33351130  0.50000003  1
  I  I68  1  0.50448724  0.33481855  0.83783383  1
  I  I69  1  0.50144185  0.66405310  0.16061366  1
  I  I70  1  0.49908952  0.66988056  0.50518064  1
  I  I71  1  0.50371760  0.66694517  0.83312224  1
  I  I72  1  0.83321287  0.00209789  0.16631637  1
  I  I73  1  0.83449146  -0.00385272  0.50416703  1
  I  I74  1  0.82999082  -0.00314052  0.83002432  1
  I  I75  1  0.83124051  0.33092364  0.16604306  1
  I  I76  1  0.83743225  0.33696742  0.50380217  1
  I  I77  1  0.82814979  0.33663296  0.82921626  1
  I  I78  1  0.83333680  0.66660289  0.16660486  1
  I  I79  1  0.83392056  0.66750761  0.50318604  1
  I  I80  1  0.82475379  0.66692671  0.82974822  1
  I  I81  1  0.16554549  0.16418472  0.00019379  1
  I  I82  1  0.16762486  0.16814266  0.33335944  1
  I  I83  1  0.16514934  0.16361491  0.66657207  1
  I  I84  1  0.16499989  0.50100898  0.00013289  1
  I  I85  1  0.16121218  0.50396877  0.33744439  1
  I  I86  1  0.16864765  0.50914202  0.66280428  1
  I  I87  1  0.16736451  0.83503295  0.00207016  1
  I  I88  1  0.16643232  0.82929552  0.33541529  1
  I  I89  1  0.16833042  0.82919441  0.66326778  1
  I  I90  1  0.50211424  0.15998334  -0.00359330  1
  I  I91  1  0.50023246  0.16770280  0.33314077  1
  I  I92  1  0.50216845  0.17347436  0.67049028  1
  I  I93  1  0.50595218  0.50257944  -0.00227413  1
  I  I94  1  0.50052474  0.50300577  0.33184938  1
  I  I95  1  0.50070602  0.49880976  0.66975109  1
  I  I96  1  0.50317566  0.83456598  -0.00357305  1
  I  I97  1  0.50243402  0.82949852  0.33607340  1
  I  I98  1  0.49825323  0.83112478  0.66731345  1
  I  I99  1  0.83139693  0.16513147  0.00234379  1
  I  I100  1  0.83273689  0.16602255  0.33050967  1
  I  I101  1  0.83255673  0.16627109  0.66689207  1
  I  I102  1  0.82900638  0.50381287  -0.00315598  1
  I  I103  1  0.83475186  0.50413273  0.33653621  1
  I  I104  1  0.83037486  0.50397838  0.66687785  1
  I  I105  1  0.82918217  0.83081127  -0.00338604  1
  I  I106  1  0.83118115  0.83025266  0.33660558  1
  I  I107  1  0.83372181  0.83051558  0.66639678  1
  I  I108  1  -0.00310030  0.16839490  0.16515161  1
  I  I109  1  -0.00023372  0.16235899  0.50050669  1
  I  I110  1  -0.00042769  0.16563786  0.83479935  1
  I  I111  1  0.00013081  0.49871702  0.16400937  1
  I  I112  1  -0.00119683  0.50919434  0.50416136  1
  I  I113  1  -0.00371924  0.50634135  0.83186506  1
  I  I114  1  0.00282736  0.83359193  0.17157037  1
  I  I115  1  -0.00060621  0.82914931  0.49947477  1
  I  I116  1  -0.00361284  0.82900073  0.83099372  1
  I  I117  1  0.33344366  0.16687950  0.16561240  1
  I  I118  1  0.33361344  0.16844662  0.50004307  1
  I  I119  1  0.33837115  0.16520441  0.83385083  1
  I  I120  1  0.33696274  0.50084309  0.15961997  1
  I  I121  1  0.33158763  0.50574551  0.50034699  1
  I  I122  1  0.33675160  0.50102474  0.83579163  1
  I  I123  1  0.33055886  0.83230288  0.17152936  1
  I  I124  1  0.33336433  0.82877150  0.50134555  1
  I  I125  1  0.33659223  0.83290793  0.83003279  1
  I  I126  1  0.66904119  0.16394910  0.16736538  1
  I  I127  1  0.66669821  0.16823657  0.49829007  1
  I  I128  1  0.66386855  0.16598703  0.83428787  1
  I  I129  1  0.66407129  0.50095595  0.16645647  1
  I  I130  1  0.66943825  0.50410206  0.50074841  1
  I  I131  1  0.66641988  0.50088252  0.83110292  1
  I  I132  1  0.66669657  0.83427059  0.16946433  1
  I  I133  1  0.66730216  0.82914771  0.50515357  1
  I  I134  1  0.66623268  0.83289863  0.82618843  1
