# generated using pymatgen
data_Cs27Sn13Pb14I81
_symmetry_space_group_name_H-M   'P 1'
_cell_length_a   18.97273499
_cell_length_b   18.97657628
_cell_length_c   18.98275499
_cell_angle_alpha   89.99687067
_cell_angle_beta   89.99948580
_cell_angle_gamma   90.00008902
_symmetry_Int_Tables_number   1
_chemical_formula_structural   Cs27Sn13Pb14I81
_chemical_formula_sum   'Cs27 Sn13 Pb14 I81'
_cell_volume   6834.50464000
_cell_formula_units_Z   1
loop_
 _symmetry_equiv_pos_site_id
 _symmetry_equiv_pos_as_xyz
  1  'x, y, z'
loop_
 _atom_site_type_symbol
 _atom_site_label
 _atom_site_symmetry_multiplicity
 _atom_site_fract_x
 _atom_site_fract_y
 _atom_site_fract_z
 _atom_site_occupancy
  Cs  Cs0  1  -0.00025574  -0.00064781  0.00104621  1
  Cs  Cs1  1  -0.00045129  0.00004494  0.33340974  1
  Cs  Cs2  1  -0.00175439  -0.00206698  0.66567805  1
  Cs  Cs3  1  0.00506148  0.33059571  0.00534393  1
  Cs  Cs4  1  0.00233268  0.33830929  0.33392113  1
  Cs  Cs5  1  -0.00117028  0.33626550  0.66181948  1
  Cs  Cs6  1  -0.00010379  0.67005639  -0.00122821  1
  Cs  Cs7  1  -0.00081411  0.66349757  0.33600277  1
  Cs  Cs8  1  0.00165974  0.66737512  0.66477462  1
  Cs  Cs9  1  0.32641087  0.00279098  -0.00086514  1
  Cs  Cs10  1  0.33527391  -0.00124163  0.33466398  1
  Cs  Cs11  1  0.33463081  0.00263626  0.66600512  1
  Cs  Cs12  1  0.32792049  0.33752265  -0.00492779  1
  Cs  Cs13  1  0.32737722  0.33412862  0.33197178  1
  Cs  Cs14  1  0.33889082  0.33563024  0.67341754  1
  Cs  Cs15  1  0.33745003  0.65978909  -0.00287368  1
  Cs  Cs16  1  0.33787520  0.66710970  0.33161250  1
  Cs  Cs17  1  0.33018527  0.66365692  0.66891745  1
  Cs  Cs18  1  0.66893613  -0.00100444  0.00171201  1
  Cs  Cs19  1  0.66476264  -0.00027214  0.33305246  1
  Cs  Cs20  1  0.66689944  0.00062564  0.66556492  1
  Cs  Cs21  1  0.66545449  0.33488635  -0.00066897  1
  Cs  Cs22  1  0.66812237  0.33339307  0.33301130  1
  Cs  Cs23  1  0.66423035  0.33219718  0.66757384  1
  Cs  Cs24  1  0.66488108  0.66614383  0.00116023  1
  Cs  Cs25  1  0.66326826  0.66515463  0.33039792  1
  Cs  Cs26  1  0.66799980  0.66772308  0.66709505  1
  Sn  Sn27  1  0.83363640  0.49989040  0.83356974  1
  Sn  Sn28  1  0.83355252  0.83384836  0.49951339  1
  Sn  Sn29  1  0.83391260  0.83391920  0.16719178  1
  Sn  Sn30  1  0.50052736  0.83414634  0.83328693  1
  Sn  Sn31  1  0.83397295  0.16591099  0.49971104  1
  Sn  Sn32  1  0.16601927  0.83327926  0.16762927  1
  Sn  Sn33  1  0.83336201  0.16688579  0.83339514  1
  Sn  Sn34  1  0.16596976  0.83437484  0.49888196  1
  Sn  Sn35  1  0.50020200  0.16664581  0.16648350  1
  Sn  Sn36  1  0.83228546  0.83340808  0.83329818  1
  Sn  Sn37  1  0.50039941  0.49997127  0.49968931  1
  Sn  Sn38  1  0.83233936  0.16587543  0.16697772  1
  Sn  Sn39  1  0.16599950  0.16573866  0.50028290  1
  Pb  Pb40  1  0.50019869  0.49670101  0.16849118  1
  Pb  Pb41  1  0.49993089  0.83207506  0.50175317  1
  Pb  Pb42  1  0.50015643  0.16832706  0.49833972  1
  Pb  Pb43  1  0.16366154  0.16655858  0.83018379  1
  Pb  Pb44  1  0.83180068  0.50010451  0.50158839  1
  Pb  Pb45  1  0.16601836  0.16480580  0.16879122  1
  Pb  Pb46  1  0.50213168  0.16461759  0.83586806  1
  Pb  Pb47  1  0.49974413  0.83503422  0.16441709  1
  Pb  Pb48  1  0.50238202  0.50207425  0.83175546  1
  Pb  Pb49  1  0.16641037  0.50382972  0.16680429  1
  Pb  Pb50  1  0.83340705  0.50004288  0.16417869  1
  Pb  Pb51  1  0.16912741  0.50030449  0.50005036  1
  Pb  Pb52  1  0.16338377  0.49990387  0.83321254  1
  Pb  Pb53  1  0.16626520  0.83338491  0.83305951  1
  I  I54  1  0.16403905  -0.00322932  0.16800677  1
  I  I55  1  0.16214469  -0.00098042  0.49678119  1
  I  I56  1  0.16591442  -0.00015624  0.83513550  1
  I  I57  1  0.16619734  0.33292796  0.16848160  1
  I  I58  1  0.16096726  0.33025977  0.49930080  1
  I  I59  1  0.16651522  0.33298862  0.83181541  1
  I  I60  1  0.15978558  0.67216221  0.17313544  1
  I  I61  1  0.16195524  0.67034860  0.49749754  1
  I  I62  1  0.16454995  0.66714985  0.83128347  1
  I  I63  1  0.50428668  0.00262239  0.16855843  1
  I  I64  1  0.50009861  0.00003502  0.50049285  1
  I  I65  1  0.50709907  -0.00316781  0.83108024  1
  I  I66  1  0.50892821  0.32889812  0.16752284  1
  I  I67  1  0.50183656  0.33573898  0.50001705  1
  I  I68  1  0.50201156  0.33320760  0.83260466  1
  I  I69  1  0.49984860  0.66689086  0.16614155  1
  I  I70  1  0.50138001  0.66457340  0.50143496  1
  I  I71  1  0.50642368  0.66998606  0.83391013  1
  I  I72  1  0.83337747  -0.00040509  0.16300552  1
  I  I73  1  0.83594289  -0.00034143  0.50388287  1
  I  I74  1  0.82984086  -0.00057664  0.83298076  1
  I  I75  1  0.82920152  0.32963306  0.16702911  1
  I  I76  1  0.83606619  0.32997969  0.50025479  1
  I  I77  1  0.83373047  0.33219442  0.83178684  1
  I  I78  1  0.83708827  0.67049643  0.16693573  1
  I  I79  1  0.83630449  0.67013395  0.50101798  1
  I  I80  1  0.82971100  0.66845816  0.83266734  1
  I  I81  1  0.16624390  0.16527538  0.00022186  1
  I  I82  1  0.16122355  0.16467693  0.33660257  1
  I  I83  1  0.16234153  0.15913197  0.66210164  1
  I  I84  1  0.16800390  0.50053439  0.00001390  1
  I  I85  1  0.16561547  0.49768371  0.33369842  1
  I  I86  1  0.16700726  0.50303382  0.66633642  1
  I  I87  1  0.16187336  0.83413755  0.00264430  1
  I  I88  1  0.15894055  0.83713904  0.33417679  1
  I  I89  1  0.16271894  0.83596307  0.66335745  1
  I  I90  1  0.50678601  0.16459747  0.00350438  1
  I  I91  1  0.50735456  0.16551660  0.33077318  1
  I  I92  1  0.50034654  0.16743678  0.66673405  1
  I  I93  1  0.50073068  0.50102780  -0.00025579  1
  I  I94  1  0.50210033  0.50317432  0.33615989  1
  I  I95  1  0.50061926  0.49880576  0.66416320  1
  I  I96  1  0.50654605  0.83354654  -0.00308222  1
  I  I97  1  0.50226506  0.83210380  0.33324636  1
  I  I98  1  0.50633000  0.83308607  0.66936816  1
  I  I99  1  0.82795658  0.16313683  0.00019842  1
  I  I100  1  0.83229295  0.15959953  0.33355957  1
  I  I101  1  0.83760734  0.16345579  0.66632342  1
  I  I102  1  0.83132274  0.50169194  -0.00382665  1
  I  I103  1  0.83219561  0.50016063  0.33340905  1
  I  I104  1  0.83167856  0.50093615  0.66946452  1
  I  I105  1  0.83372092  0.83577197  0.00003646  1
  I  I106  1  0.83764489  0.84023353  0.33356583  1
  I  I107  1  0.83323813  0.83560649  0.66650417  1
  I  I108  1  -0.00367650  0.16417872  0.16339050  1
  I  I109  1  -0.00192915  0.16298576  0.49933982  1
  I  I110  1  -0.00520459  0.16206022  0.83929281  1
  I  I111  1  -0.00036166  0.49487686  0.16687797  1
  I  I112  1  -0.00007827  0.50004363  0.50201499  1
  I  I113  1  -0.00488060  0.50447194  0.83083955  1
  I  I114  1  -0.00210714  0.83908203  0.16446438  1
  I  I115  1  -0.00159551  0.83622422  0.50192764  1
  I  I116  1  -0.00399184  0.83372907  0.83342300  1
  I  I117  1  0.33508880  0.16378299  0.17044130  1
  I  I118  1  0.33064057  0.16228762  0.49638954  1
  I  I119  1  0.33337629  0.16469708  0.83353064  1
  I  I120  1  0.33341342  0.49980867  0.16728555  1
  I  I121  1  0.33647870  0.50057390  0.50053011  1
  I  I122  1  0.33371638  0.50270795  0.83194393  1
  I  I123  1  0.33070402  0.83589214  0.17115591  1
  I  I124  1  0.33025375  0.83641596  0.49698639  1
  I  I125  1  0.33574898  0.83249617  0.83283239  1
  I  I126  1  0.66948071  0.16061648  0.16894600  1
  I  I127  1  0.67038216  0.16315945  0.50183847  1
  I  I128  1  0.67106452  0.16730636  0.82769438  1
  I  I129  1  0.66688878  0.50475271  0.16737196  1
  I  I130  1  0.66444551  0.50025238  0.50155164  1
  I  I131  1  0.67027378  0.49872974  0.83189738  1
  I  I132  1  0.67011358  0.83557513  0.16870993  1
  I  I133  1  0.67019888  0.83675456  0.49874686  1
  I  I134  1  0.66973661  0.83328809  0.83282370  1
