# generated using pymatgen
data_Cs27Sn13Pb14I81
_symmetry_space_group_name_H-M   'P 1'
_cell_length_a   18.99305087
_cell_length_b   18.99906628
_cell_length_c   18.98421513
_cell_angle_alpha   90.00323420
_cell_angle_beta   90.00022410
_cell_angle_gamma   89.99944727
_symmetry_Int_Tables_number   1
_chemical_formula_structural   Cs27Sn13Pb14I81
_chemical_formula_sum   'Cs27 Sn13 Pb14 I81'
_cell_volume   6850.45842958
_cell_formula_units_Z   1
loop_
 _symmetry_equiv_pos_site_id
 _symmetry_equiv_pos_as_xyz
  1  'x, y, z'
loop_
 _atom_site_type_symbol
 _atom_site_label
 _atom_site_symmetry_multiplicity
 _atom_site_fract_x
 _atom_site_fract_y
 _atom_site_fract_z
 _atom_site_occupancy
  Cs  Cs0  1  -0.00681034  -0.00161134  0.00220846  1
  Cs  Cs1  1  0.00056146  0.00497466  0.33187083  1
  Cs  Cs2  1  -0.00117722  -0.00006362  0.66574928  1
  Cs  Cs3  1  0.00203621  0.32891162  0.00628532  1
  Cs  Cs4  1  0.00671622  0.33736326  0.32800244  1
  Cs  Cs5  1  0.00150627  0.33848140  0.66426535  1
  Cs  Cs6  1  -0.00086043  0.67197477  -0.00274573  1
  Cs  Cs7  1  -0.00424392  0.65600039  0.33619434  1
  Cs  Cs8  1  -0.00015096  0.66292314  0.66721653  1
  Cs  Cs9  1  0.33465779  -0.00246613  -0.00071299  1
  Cs  Cs10  1  0.33356368  -0.00151461  0.33512325  1
  Cs  Cs11  1  0.33338057  -0.00223446  0.66553442  1
  Cs  Cs12  1  0.33439320  0.33489355  -0.00073245  1
  Cs  Cs13  1  0.32900226  0.33239938  0.32806549  1
  Cs  Cs14  1  0.33526353  0.33193269  0.66965804  1
  Cs  Cs15  1  0.33409771  0.66761555  -0.00129439  1
  Cs  Cs16  1  0.33335835  0.67027018  0.33174876  1
  Cs  Cs17  1  0.33416646  0.66951613  0.66793114  1
  Cs  Cs18  1  0.67278236  0.00144267  -0.00035451  1
  Cs  Cs19  1  0.66543576  0.00007857  0.33623876  1
  Cs  Cs20  1  0.66781500  0.00300900  0.66448299  1
  Cs  Cs21  1  0.66582230  0.32957812  0.00125698  1
  Cs  Cs22  1  0.66617115  0.33586882  0.33519775  1
  Cs  Cs23  1  0.66565999  0.33122186  0.66642747  1
  Cs  Cs24  1  0.66696814  0.66815512  0.00269451  1
  Cs  Cs25  1  0.66794791  0.66329146  0.33221835  1
  Cs  Cs26  1  0.66590745  0.66615609  0.66577297  1
  Sn  Sn27  1  0.49938277  0.49911323  0.50066291  1
  Sn  Sn28  1  0.83331087  0.16653250  0.49994241  1
  Sn  Sn29  1  0.49998369  0.16554713  0.16749307  1
  Sn  Sn30  1  0.50015342  0.16765591  0.49906838  1
  Sn  Sn31  1  0.16660388  0.16603521  0.83308726  1
  Sn  Sn32  1  0.49951261  0.83451192  0.16571696  1
  Sn  Sn33  1  0.50006360  0.83302260  0.83398626  1
  Sn  Sn34  1  0.83277355  0.49976712  0.83375746  1
  Sn  Sn35  1  0.50045969  0.50082018  0.83261853  1
  Sn  Sn36  1  0.16728998  0.83385346  0.83390355  1
  Sn  Sn37  1  0.16677224  0.50001228  0.83341467  1
  Sn  Sn38  1  0.83341377  0.83391358  0.50003851  1
  Sn  Sn39  1  0.16706154  0.83324255  0.16628603  1
  Pb  Pb40  1  0.83124572  0.49914141  0.50163292  1
  Pb  Pb41  1  0.83073846  0.16673365  0.16966080  1
  Pb  Pb42  1  0.83329488  0.83333638  0.16947534  1
  Pb  Pb43  1  0.83618279  0.16927912  0.83101921  1
  Pb  Pb44  1  0.16707209  0.16665738  0.50172221  1
  Pb  Pb45  1  0.83328026  0.49993014  0.16341925  1
  Pb  Pb46  1  0.16690877  0.50319204  0.16366428  1
  Pb  Pb47  1  0.17018388  0.50011182  0.50202913  1
  Pb  Pb48  1  0.16926942  0.16400088  0.16403186  1
  Pb  Pb49  1  0.49992712  0.50036048  0.16630235  1
  Pb  Pb50  1  0.50125401  0.83332478  0.50002713  1
  Pb  Pb51  1  0.16386360  0.83330276  0.49980439  1
  Pb  Pb52  1  0.83302434  0.83195952  0.83150483  1
  Pb  Pb53  1  0.49887512  0.16615294  0.83321121  1
  I  I54  1  0.16894701  -0.00354159  0.15967168  1
  I  I55  1  0.17090926  -0.00010049  0.50520424  1
  I  I56  1  0.17344926  -0.00141385  0.83569401  1
  I  I57  1  0.16706660  0.33323012  0.16536403  1
  I  I58  1  0.16199315  0.33338961  0.50311257  1
  I  I59  1  0.16807614  0.33417793  0.82959676  1
  I  I60  1  0.17506826  0.67093001  0.16133655  1
  I  I61  1  0.16571773  0.66678011  0.50231135  1
  I  I62  1  0.16789608  0.66694269  0.83702108  1
  I  I63  1  0.49566072  -0.00086518  0.16709917  1
  I  I64  1  0.50264372  0.00235381  0.49991869  1
  I  I65  1  0.49404303  -0.00284935  0.83324660  1
  I  I66  1  0.50177950  0.33081304  0.16716602  1
  I  I67  1  0.50667602  0.33284126  0.50209923  1
  I  I68  1  0.49847099  0.33584802  0.83210077  1
  I  I69  1  0.49609209  0.66987969  0.16551524  1
  I  I70  1  0.50207840  0.66465707  0.50266241  1
  I  I71  1  0.49538387  0.66653621  0.83223221  1
  I  I72  1  0.83491420  -0.00004553  0.16298109  1
  I  I73  1  0.82600076  0.00070025  0.50205202  1
  I  I74  1  0.83357706  0.00020252  0.83317563  1
  I  I75  1  0.83129498  0.33314672  0.16809293  1
  I  I76  1  0.82856165  0.33061609  0.50372016  1
  I  I77  1  0.83007411  0.33700682  0.82973140  1
  I  I78  1  0.83043743  0.66698074  0.17134661  1
  I  I79  1  0.83224719  0.66820149  0.50136007  1
  I  I80  1  0.83697459  0.66412682  0.82891660  1
  I  I81  1  0.16926790  0.17121809  -0.00389469  1
  I  I82  1  0.16491182  0.16442638  0.33298205  1
  I  I83  1  0.17000464  0.16428233  0.67012850  1
  I  I84  1  0.17156237  0.49699384  -0.00491180  1
  I  I85  1  0.16645306  0.50114751  0.33301168  1
  I  I86  1  0.16410042  0.50376967  0.67100421  1
  I  I87  1  0.17161559  0.83185324  -0.00178460  1
  I  I88  1  0.17330527  0.83535753  0.33019126  1
  I  I89  1  0.17136212  0.83228726  0.67044580  1
  I  I90  1  0.49627901  0.16635416  0.00190360  1
  I  I91  1  0.50416216  0.16592035  0.33402342  1
  I  I92  1  0.50245913  0.16783065  0.66425936  1
  I  I93  1  0.49865031  0.50073822  -0.00372329  1
  I  I94  1  0.50312029  0.49972201  0.33604419  1
  I  I95  1  0.49970715  0.50000366  0.66825149  1
  I  I96  1  0.49593432  0.83233274  -0.00095805  1
  I  I97  1  0.49640081  0.83405292  0.33080202  1
  I  I98  1  0.49617403  0.83175238  0.66951901  1
  I  I99  1  0.83265569  0.16840593  -0.00015460  1
  I  I100  1  0.83155790  0.16163035  0.33770117  1
  I  I101  1  0.82444828  0.16249735  0.66360596  1
  I  I102  1  0.82967619  0.50233643  -0.00511877  1
  I  I103  1  0.83062984  0.50166696  0.33381239  1
  I  I104  1  0.83591249  0.50090945  0.66969499  1
  I  I105  1  0.83309569  0.83087564  -0.00004672  1
  I  I106  1  0.83120280  0.83704295  0.33707785  1
  I  I107  1  0.83183590  0.83659457  0.66397600  1
  I  I108  1  0.00033097  0.16579625  0.16690951  1
  I  I109  1  -0.00270154  0.16094524  0.50476975  1
  I  I110  1  0.00402583  0.16474728  0.83146925  1
  I  I111  1  0.00032725  0.50134356  0.16718327  1
  I  I112  1  -0.00004751  0.50062132  0.50219739  1
  I  I113  1  0.00079502  0.50136428  0.83285602  1
  I  I114  1  0.00295942  0.83284663  0.15964997  1
  I  I115  1  -0.00374852  0.83975364  0.50203876  1
  I  I116  1  0.00309296  0.83196330  0.83633433  1
  I  I117  1  0.33700675  0.16538350  0.17411884  1
  I  I118  1  0.33695931  0.17063275  0.49782804  1
  I  I119  1  0.33103539  0.17067122  0.83138739  1
  I  I120  1  0.33355919  0.49724185  0.16577456  1
  I  I121  1  0.33816491  0.49491718  0.50645087  1
  I  I122  1  0.33381748  0.50121049  0.82894731  1
  I  I123  1  0.33450679  0.83658708  0.16217647  1
  I  I124  1  0.33342878  0.83338251  0.50090136  1
  I  I125  1  0.33364843  0.82850232  0.83571667  1
  I  I126  1  0.66249544  0.15975285  0.16463636  1
  I  I127  1  0.66531474  0.16611458  0.49793560  1
  I  I128  1  0.66666650  0.16709307  0.83508653  1
  I  I129  1  0.66611093  0.50335678  0.16384599  1
  I  I130  1  0.66343585  0.49930370  0.50732154  1
  I  I131  1  0.66505580  0.50545884  0.82839757  1
  I  I132  1  0.66318181  0.83647860  0.16189057  1
  I  I133  1  0.66874347  0.83430975  0.50152020  1
  I  I134  1  0.66344263  0.82799463  0.83630002  1
