# generated using pymatgen
data_Cs27Sn14Pb13I81
_symmetry_space_group_name_H-M   'P 1'
_cell_length_a   18.96977612
_cell_length_b   18.97506486
_cell_length_c   18.98046210
_cell_angle_alpha   90.00194878
_cell_angle_beta   90.00172550
_cell_angle_gamma   89.99939924
_symmetry_Int_Tables_number   1
_chemical_formula_structural   Cs27Sn14Pb13I81
_chemical_formula_sum   'Cs27 Sn14 Pb13 I81'
_cell_volume   6832.06918038
_cell_formula_units_Z   1
loop_
 _symmetry_equiv_pos_site_id
 _symmetry_equiv_pos_as_xyz
  1  'x, y, z'
loop_
 _atom_site_type_symbol
 _atom_site_label
 _atom_site_symmetry_multiplicity
 _atom_site_fract_x
 _atom_site_fract_y
 _atom_site_fract_z
 _atom_site_occupancy
  Cs  Cs0  1  0.00395251  -0.00009842  0.00172031  1
  Cs  Cs1  1  0.00115056  0.00195676  0.33557195  1
  Cs  Cs2  1  -0.00413534  0.00130624  0.66200684  1
  Cs  Cs3  1  -0.00209856  0.33847790  -0.00517500  1
  Cs  Cs4  1  -0.00289963  0.33300162  0.33939154  1
  Cs  Cs5  1  0.01191032  0.33267926  0.66487176  1
  Cs  Cs6  1  -0.00369224  0.66255788  0.00093324  1
  Cs  Cs7  1  -0.00118573  0.66714408  0.32873107  1
  Cs  Cs8  1  -0.00238215  0.66727201  0.67101144  1
  Cs  Cs9  1  0.33269072  -0.00047994  0.00202336  1
  Cs  Cs10  1  0.33261036  -0.00219629  0.32774241  1
  Cs  Cs11  1  0.33620313  -0.00299762  0.66873256  1
  Cs  Cs12  1  0.33313332  0.32926034  -0.00049259  1
  Cs  Cs13  1  0.33163837  0.33402234  0.33474360  1
  Cs  Cs14  1  0.32688275  0.33683634  0.66544645  1
  Cs  Cs15  1  0.33454450  0.66956700  0.00119672  1
  Cs  Cs16  1  0.33320982  0.66716975  0.33451337  1
  Cs  Cs17  1  0.33502073  0.66644175  0.66490693  1
  Cs  Cs18  1  0.66495704  0.00184227  -0.00103494  1
  Cs  Cs19  1  0.66740592  0.00143592  0.33412231  1
  Cs  Cs20  1  0.66814591  -0.00023349  0.66675848  1
  Cs  Cs21  1  0.66718842  0.33214655  0.00184065  1
  Cs  Cs22  1  0.66714162  0.33483379  0.33212108  1
  Cs  Cs23  1  0.66391715  0.32978931  0.66512622  1
  Cs  Cs24  1  0.66789957  0.66565105  0.00066729  1
  Cs  Cs25  1  0.66630353  0.66449383  0.33244868  1
  Cs  Cs26  1  0.66595925  0.66928678  0.66736308  1
  Sn  Sn27  1  0.49878110  0.50053367  0.16587904  1
  Sn  Sn28  1  0.49957501  0.83429891  0.49989668  1
  Sn  Sn29  1  0.83303392  0.50021110  0.50095678  1
  Sn  Sn30  1  0.83322375  0.16572557  0.16571120  1
  Sn  Sn31  1  0.83296155  0.16669794  0.83401053  1
  Sn  Sn32  1  0.50046479  0.16677123  0.83233997  1
  Sn  Sn33  1  0.16723296  0.83318789  0.50104587  1
  Sn  Sn34  1  0.50112120  0.83257967  0.16655137  1
  Sn  Sn35  1  0.16792240  0.49974222  0.16654441  1
  Sn  Sn36  1  0.83234835  0.83469269  0.16653016  1
  Sn  Sn37  1  0.49960208  0.83331957  0.83341721  1
  Sn  Sn38  1  0.50020653  0.49988523  0.83411195  1
  Sn  Sn39  1  0.49983187  0.16588399  0.50060952  1
  Sn  Sn40  1  0.16709458  0.83341484  0.83232733  1
  Pb  Pb41  1  0.17025915  0.16370719  0.49995188  1
  Pb  Pb42  1  0.83289918  0.83190806  0.49786183  1
  Pb  Pb43  1  0.16945982  0.50278504  0.83528430  1
  Pb  Pb44  1  0.50104831  0.16677663  0.16659102  1
  Pb  Pb45  1  0.16718242  0.16404773  0.83337215  1
  Pb  Pb46  1  0.83134475  0.16846435  0.50045017  1
  Pb  Pb47  1  0.83270461  0.49966708  0.16754734  1
  Pb  Pb48  1  0.16314423  0.16991929  0.16646033  1
  Pb  Pb49  1  0.16683353  0.83216077  0.16646236  1
  Pb  Pb50  1  0.83309719  0.83521195  0.83554820  1
  Pb  Pb51  1  0.50086164  0.50027200  0.50000303  1
  Pb  Pb52  1  0.83084883  0.49707840  0.83053964  1
  Pb  Pb53  1  0.16430469  0.50301408  0.49810185  1
  I  I54  1  0.16823918  -0.00020326  0.16699364  1
  I  I55  1  0.16581139  -0.00433900  0.50211987  1
  I  I56  1  0.17356867  -0.00388884  0.83183970  1
  I  I57  1  0.17439769  0.33761486  0.16683212  1
  I  I58  1  0.16627813  0.33350703  0.49820379  1
  I  I59  1  0.16678716  0.33353164  0.83509505  1
  I  I60  1  0.16605643  0.66452046  0.16696640  1
  I  I61  1  0.17540715  0.67051778  0.50256268  1
  I  I62  1  0.17220180  0.67059256  0.83005228  1
  I  I63  1  0.50230843  -0.00297756  0.16522357  1
  I  I64  1  0.49822306  -0.00132331  0.50274967  1
  I  I65  1  0.50017606  -0.00069797  0.83276774  1
  I  I66  1  0.49900351  0.33592276  0.16427088  1
  I  I67  1  0.50484843  0.33121098  0.50218803  1
  I  I68  1  0.50646453  0.33293990  0.83415053  1
  I  I69  1  0.50250298  0.66775728  0.16444290  1
  I  I70  1  0.49798027  0.66982220  0.50155546  1
  I  I71  1  0.49548032  0.66769571  0.83370122  1
  I  I72  1  0.82642431  -0.00062971  0.16448009  1
  I  I73  1  0.83497625  -0.00002766  0.50001539  1
  I  I74  1  0.82626186  0.00296948  0.83391381  1
  I  I75  1  0.83233395  0.33098215  0.16467943  1
  I  I76  1  0.82909321  0.33579540  0.49534928  1
  I  I77  1  0.82626288  0.32944407  0.84156148  1
  I  I78  1  0.83208350  0.66878265  0.16924921  1
  I  I79  1  0.83007116  0.66453029  0.49586339  1
  I  I80  1  0.83305056  0.66665487  0.83448914  1
  I  I81  1  0.17188714  0.16242855  -0.00005188  1
  I  I82  1  0.16677305  0.16375941  0.33326904  1
  I  I83  1  0.16067879  0.17028386  0.66665979  1
  I  I84  1  0.16587049  0.50359059  0.00305449  1
  I  I85  1  0.17362856  0.50344364  0.33034613  1
  I  I86  1  0.16624248  0.49895530  0.66683830  1
  I  I87  1  0.17097323  0.83276392  -0.00227284  1
  I  I88  1  0.17040048  0.83134856  0.33534583  1
  I  I89  1  0.17598835  0.83263516  0.66677678  1
  I  I90  1  0.50238917  0.16459562  -0.00278366  1
  I  I91  1  0.50225257  0.16352996  0.33541955  1
  I  I92  1  0.50712031  0.16296556  0.66787199  1
  I  I93  1  0.49775232  0.50372697  0.00037983  1
  I  I94  1  0.49917862  0.50340524  0.33064986  1
  I  I95  1  0.50387956  0.50249789  0.66924302  1
  I  I96  1  0.49956250  0.83293704  -0.00024639  1
  I  I97  1  0.49980814  0.83305862  0.33312829  1
  I  I98  1  0.49554948  0.83323623  0.66704451  1
  I  I99  1  0.82562468  0.16358956  -0.00004095  1
  I  I100  1  0.83129668  0.16491512  0.33103095  1
  I  I101  1  0.82874704  0.16730875  0.66939629  1
  I  I102  1  0.83524156  0.50111986  -0.00028716  1
  I  I103  1  0.83030177  0.49884730  0.33488556  1
  I  I104  1  0.83004329  0.50134646  0.66357227  1
  I  I105  1  0.82919205  0.83282897  0.00352900  1
  I  I106  1  0.82941906  0.83761900  0.32984446  1
  I  I107  1  0.83171132  0.83343354  0.66674752  1
  I  I108  1  -0.00495746  0.16025366  0.16174511  1
  I  I109  1  -0.00001043  0.16699761  0.49945790  1
  I  I110  1  -0.00275597  0.16500124  0.83883524  1
  I  I111  1  0.00146738  0.50163361  0.16998298  1
  I  I112  1  -0.00315308  0.49996200  0.49598494  1
  I  I113  1  0.00005065  0.50046988  0.83473151  1
  I  I114  1  -0.00229611  0.83430044  0.16706186  1
  I  I115  1  0.00231279  0.82977231  0.50268940  1
  I  I116  1  0.00231577  0.83523606  0.83034971  1
  I  I117  1  0.33346542  0.16423649  0.16657754  1
  I  I118  1  0.33834632  0.16791603  0.50628852  1
  I  I119  1  0.33729292  0.16842395  0.82931433  1
  I  I120  1  0.33554249  0.50740464  0.16429312  1
  I  I121  1  0.33338718  0.49790781  0.50065340  1
  I  I122  1  0.33783488  0.49509342  0.83320160  1
  I  I123  1  0.33666433  0.83091498  0.16685748  1
  I  I124  1  0.33538092  0.83621522  0.49833520  1
  I  I125  1  0.33586420  0.83513196  0.83509909  1
  I  I126  1  0.66891881  0.16743508  0.16579150  1
  I  I127  1  0.66339937  0.15995847  0.50170418  1
  I  I128  1  0.66486070  0.16397418  0.83381897  1
  I  I129  1  0.66370084  0.50190803  0.16456165  1
  I  I130  1  0.66820000  0.50189910  0.49596277  1
  I  I131  1  0.66258370  0.50619395  0.84034225  1
  I  I132  1  0.66475689  0.83043101  0.16693129  1
  I  I133  1  0.66313970  0.83547674  0.50251389  1
  I  I134  1  0.66302192  0.83185261  0.83085234  1
