# generated using pymatgen
data_Cs27Sn14Pb13I81
_symmetry_space_group_name_H-M   'P 1'
_cell_length_a   18.97028459
_cell_length_b   18.97363020
_cell_length_c   18.98411306
_cell_angle_alpha   89.99974167
_cell_angle_beta   89.99812303
_cell_angle_gamma   89.99579301
_symmetry_Int_Tables_number   1
_chemical_formula_structural   Cs27Sn14Pb13I81
_chemical_formula_sum   'Cs27 Sn14 Pb13 I81'
_cell_volume   6833.04983466
_cell_formula_units_Z   1
loop_
 _symmetry_equiv_pos_site_id
 _symmetry_equiv_pos_as_xyz
  1  'x, y, z'
loop_
 _atom_site_type_symbol
 _atom_site_label
 _atom_site_symmetry_multiplicity
 _atom_site_fract_x
 _atom_site_fract_y
 _atom_site_fract_z
 _atom_site_occupancy
  Cs  Cs0  1  -0.00062525  0.00146751  0.00260777  1
  Cs  Cs1  1  0.00116062  0.00163691  0.33118635  1
  Cs  Cs2  1  0.00240483  -0.00083312  0.66554218  1
  Cs  Cs3  1  -0.00005403  0.32908886  0.00311308  1
  Cs  Cs4  1  -0.00218498  0.32754973  0.33235166  1
  Cs  Cs5  1  -0.00100706  0.33487955  0.66566866  1
  Cs  Cs6  1  -0.00113426  0.66766906  0.00016159  1
  Cs  Cs7  1  0.00146110  0.66988710  0.33036467  1
  Cs  Cs8  1  0.00221377  0.66638891  0.66757174  1
  Cs  Cs9  1  0.33589894  0.00060292  -0.00069724  1
  Cs  Cs10  1  0.33512270  0.00002583  0.33602922  1
  Cs  Cs11  1  0.33346347  0.00140518  0.66532417  1
  Cs  Cs12  1  0.33378244  0.33681804  0.00063773  1
  Cs  Cs13  1  0.33409515  0.33504669  0.33251486  1
  Cs  Cs14  1  0.33221133  0.33140298  0.66698301  1
  Cs  Cs15  1  0.33314304  0.66413881  0.00221233  1
  Cs  Cs16  1  0.33216853  0.66454874  0.33141007  1
  Cs  Cs17  1  0.33030179  0.66649263  0.66586048  1
  Cs  Cs18  1  0.66504040  -0.00148358  0.00068285  1
  Cs  Cs19  1  0.66459431  -0.00118532  0.33310952  1
  Cs  Cs20  1  0.66431856  -0.00025801  0.66644296  1
  Cs  Cs21  1  0.66648373  0.33338797  -0.01023218  1
  Cs  Cs22  1  0.66811032  0.33505904  0.33774509  1
  Cs  Cs23  1  0.67432280  0.34102319  0.67171596  1
  Cs  Cs24  1  0.66846657  0.66872429  0.00249017  1
  Cs  Cs25  1  0.66609643  0.66577061  0.33217360  1
  Cs  Cs26  1  0.66800516  0.66456101  0.66511277  1
  Sn  Sn27  1  0.83252011  0.83277778  0.16692292  1
  Sn  Sn28  1  0.16672076  0.49895485  0.50015437  1
  Sn  Sn29  1  0.50027342  0.16629934  0.16742759  1
  Sn  Sn30  1  0.50049480  0.83391891  0.16700258  1
  Sn  Sn31  1  0.16685355  0.83357101  0.83358355  1
  Sn  Sn32  1  0.16746131  0.16754639  0.50068866  1
  Sn  Sn33  1  0.16654989  0.49988680  0.83282339  1
  Sn  Sn34  1  0.83265361  0.83359878  0.49984729  1
  Sn  Sn35  1  0.83325000  0.83351029  0.83312635  1
  Sn  Sn36  1  0.83314964  0.50023610  0.16669640  1
  Sn  Sn37  1  0.16682096  0.16653473  0.83265890  1
  Sn  Sn38  1  0.49990359  0.83317186  0.83305780  1
  Sn  Sn39  1  0.50063400  0.83368253  0.49998136  1
  Sn  Sn40  1  0.49988389  0.16653317  0.49977434  1
  Pb  Pb41  1  0.83619470  0.50282821  0.49805895  1
  Pb  Pb42  1  0.82986268  0.16624588  0.16671207  1
  Pb  Pb43  1  0.49809070  0.49975013  0.50010953  1
  Pb  Pb44  1  0.16714046  0.83351356  0.16379990  1
  Pb  Pb45  1  0.16426997  0.49984900  0.16690965  1
  Pb  Pb46  1  0.49831127  0.16504967  0.83259256  1
  Pb  Pb47  1  0.83280962  0.16442343  0.50016892  1
  Pb  Pb48  1  0.16948851  0.16652865  0.16716821  1
  Pb  Pb49  1  0.50253220  0.49968914  0.16673960  1
  Pb  Pb50  1  0.16703189  0.83369091  0.50155791  1
  Pb  Pb51  1  0.49769367  0.50295800  0.83315842  1
  Pb  Pb52  1  0.83609490  0.16407152  0.83312347  1
  Pb  Pb53  1  0.83598669  0.50241872  0.83521422  1
  I  I54  1  0.16076692  -0.00010828  0.16635699  1
  I  I55  1  0.16773257  0.00243438  0.50458361  1
  I  I56  1  0.16652368  -0.00056467  0.82920765  1
  I  I57  1  0.16601435  0.33319981  0.16126106  1
  I  I58  1  0.17222198  0.33231994  0.50828238  1
  I  I59  1  0.16755639  0.33309725  0.82889112  1
  I  I60  1  0.17107221  0.66682358  0.16746355  1
  I  I61  1  0.16580795  0.66509166  0.50488859  1
  I  I62  1  0.16648461  0.66737805  0.82903748  1
  I  I63  1  0.50485299  -0.00197393  0.16678134  1
  I  I64  1  0.49689743  -0.00122927  0.49916801  1
  I  I65  1  0.49762208  -0.00388442  0.83380234  1
  I  I66  1  0.49876259  0.33015649  0.17252354  1
  I  I67  1  0.49556025  0.32981661  0.49321432  1
  I  I68  1  0.49787272  0.33318003  0.83500631  1
  I  I69  1  0.50141492  0.67027391  0.16665425  1
  I  I70  1  0.50221006  0.67034328  0.49936317  1
  I  I71  1  0.49805534  0.67196860  0.83414845  1
  I  I72  1  0.83219313  -0.00379895  0.16572572  1
  I  I73  1  0.83540916  -0.00428573  0.49747392  1
  I  I74  1  0.83546521  -0.00488844  0.83698498  1
  I  I75  1  0.83533582  0.33571971  0.16713269  1
  I  I76  1  0.83141106  0.33356029  0.49741784  1
  I  I77  1  0.83392581  0.33361585  0.83592719  1
  I  I78  1  0.82855532  0.66948795  0.16594555  1
  I  I79  1  0.82876074  0.67115885  0.50289310  1
  I  I80  1  0.83541221  0.67111345  0.83153956  1
  I  I81  1  0.16692237  0.16607249  -0.00299020  1
  I  I82  1  0.16790222  0.17117094  0.33678851  1
  I  I83  1  0.17282785  0.16592896  0.66638428  1
  I  I84  1  0.16605425  0.50124151  -0.00310990  1
  I  I85  1  0.16626203  0.49587252  0.33635562  1
  I  I86  1  0.16668618  0.50082549  0.66725525  1
  I  I87  1  0.16653181  0.83283582  -0.00480701  1
  I  I88  1  0.16552768  0.83272065  0.33341934  1
  I  I89  1  0.16628051  0.83310746  0.66987460  1
  I  I90  1  0.49907547  0.16096909  0.00200173  1
  I  I91  1  0.49348030  0.15671402  0.33424809  1
  I  I92  1  0.49518823  0.15925874  0.66356227  1
  I  I93  1  0.49638965  0.49938483  0.00000815  1
  I  I94  1  0.49605205  0.50525171  0.33340003  1
  I  I95  1  0.50257516  0.50115005  0.66663057  1
  I  I96  1  0.50173126  0.83711481  0.00021040  1
  I  I97  1  0.50715324  0.83758668  0.33345677  1
  I  I98  1  0.50174168  0.83713905  0.66637332  1
  I  I99  1  0.83452332  0.16459517  0.00003487  1
  I  I100  1  0.84022379  0.16409993  0.33339474  1
  I  I101  1  0.82889355  0.16419550  0.66662278  1
  I  I102  1  0.83480406  0.50746949  0.00282563  1
  I  I103  1  0.83511622  0.50771072  0.33046867  1
  I  I104  1  0.83256185  0.50146936  0.66669458  1
  I  I105  1  0.83172552  0.82940419  0.00007724  1
  I  I106  1  0.82691387  0.82949534  0.33300904  1
  I  I107  1  0.83147821  0.83530909  0.66691266  1
  I  I108  1  -0.00017915  0.16604456  0.16635691  1
  I  I109  1  0.00314003  0.16871426  0.50481830  1
  I  I110  1  0.00467327  0.16411066  0.82767040  1
  I  I111  1  -0.00324279  0.50967116  0.16610805  1
  I  I112  1  0.00403043  0.49586337  0.50498061  1
  I  I113  1  0.00405148  0.50346299  0.82937697  1
  I  I114  1  -0.00311394  0.82887781  0.16698064  1
  I  I115  1  -0.00225249  0.83243263  0.50023369  1
  I  I116  1  0.00019627  0.83283632  0.83289103  1
  I  I117  1  0.33708791  0.15836941  0.16749590  1
  I  I118  1  0.33330199  0.16287741  0.50012845  1
  I  I119  1  0.32995298  0.16285480  0.83220527  1
  I  I120  1  0.33336138  0.50135853  0.16594716  1
  I  I121  1  0.32986545  0.50255852  0.50358285  1
  I  I122  1  0.32918612  0.50306886  0.83094066  1
  I  I123  1  0.33698758  0.83731946  0.16735928  1
  I  I124  1  0.33623640  0.83413261  0.49988801  1
  I  I125  1  0.33327613  0.83354417  0.83289087  1
  I  I126  1  0.66216710  0.16272199  0.17339978  1
  I  I127  1  0.66305734  0.16180318  0.49387691  1
  I  I128  1  0.66641639  0.16509478  0.83402641  1
  I  I129  1  0.67006096  0.50508877  0.16748873  1
  I  I130  1  0.66701640  0.49783204  0.49850839  1
  I  I131  1  0.66707330  0.50012088  0.83460911  1
  I  I132  1  0.66640554  0.83332971  0.16216009  1
  I  I133  1  0.66572761  0.83860712  0.50390592  1
  I  I134  1  0.66645928  0.83414947  0.83425088  1
