# generated using pymatgen
data_Cs27Sn14Pb13I81
_symmetry_space_group_name_H-M   'P 1'
_cell_length_a   18.97632922
_cell_length_b   18.96402294
_cell_length_c   18.99025933
_cell_angle_alpha   90.00014228
_cell_angle_beta   89.99938137
_cell_angle_gamma   89.99969584
_symmetry_Int_Tables_number   1
_chemical_formula_structural   Cs27Sn14Pb13I81
_chemical_formula_sum   'Cs27 Sn14 Pb13 I81'
_cell_volume   6833.97795802
_cell_formula_units_Z   1
loop_
 _symmetry_equiv_pos_site_id
 _symmetry_equiv_pos_as_xyz
  1  'x, y, z'
loop_
 _atom_site_type_symbol
 _atom_site_label
 _atom_site_symmetry_multiplicity
 _atom_site_fract_x
 _atom_site_fract_y
 _atom_site_fract_z
 _atom_site_occupancy
  Cs  Cs0  1  0.00012047  -0.00043079  -0.00115427  1
  Cs  Cs1  1  -0.00085907  -0.00013554  0.33580414  1
  Cs  Cs2  1  0.00169685  -0.00101572  0.66587017  1
  Cs  Cs3  1  -0.00246039  0.33230302  -0.00131373  1
  Cs  Cs4  1  -0.00263151  0.33482267  0.33377205  1
  Cs  Cs5  1  -0.00052305  0.33373533  0.66785710  1
  Cs  Cs6  1  -0.00062288  0.66995198  0.00642591  1
  Cs  Cs7  1  0.00446746  0.66469217  0.32804628  1
  Cs  Cs8  1  0.00132964  0.66738717  0.66597523  1
  Cs  Cs9  1  0.33246261  0.00314004  0.00216449  1
  Cs  Cs10  1  0.33398227  0.00092889  0.33430481  1
  Cs  Cs11  1  0.32960669  0.00028633  0.66502385  1
  Cs  Cs12  1  0.33478677  0.33159952  -0.00335420  1
  Cs  Cs13  1  0.33671985  0.33187956  0.33417188  1
  Cs  Cs14  1  0.33282152  0.33388116  0.66843416  1
  Cs  Cs15  1  0.33321470  0.66796280  -0.00079072  1
  Cs  Cs16  1  0.32967616  0.66822994  0.33163811  1
  Cs  Cs17  1  0.33433134  0.66572993  0.66919381  1
  Cs  Cs18  1  0.66700618  -0.00166323  -0.00032875  1
  Cs  Cs19  1  0.66629544  -0.00315055  0.33703055  1
  Cs  Cs20  1  0.66889056  -0.00564286  0.66385447  1
  Cs  Cs21  1  0.66724333  0.33320644  0.00178101  1
  Cs  Cs22  1  0.66611415  0.33271844  0.33229254  1
  Cs  Cs23  1  0.66743760  0.33361174  0.66580737  1
  Cs  Cs24  1  0.66670149  0.67029438  -0.00421078  1
  Cs  Cs25  1  0.66586389  0.66651486  0.33450596  1
  Cs  Cs26  1  0.66441303  0.67126254  0.66947443  1
  Sn  Sn27  1  0.83193554  0.49897922  0.16655331  1
  Sn  Sn28  1  0.50083069  0.49919458  0.16724386  1
  Sn  Sn29  1  0.50057760  0.16717833  0.16686420  1
  Sn  Sn30  1  0.83227581  0.16724195  0.83370901  1
  Sn  Sn31  1  0.16676535  0.83394937  0.50083914  1
  Sn  Sn32  1  0.83335463  0.49936385  0.83357333  1
  Sn  Sn33  1  0.83303069  0.16689399  0.16616175  1
  Sn  Sn34  1  0.16714850  0.16657171  0.49924635  1
  Sn  Sn35  1  0.50126161  0.16671320  0.83287556  1
  Sn  Sn36  1  0.16635584  0.16716460  0.16770733  1
  Sn  Sn37  1  0.16676536  0.83342054  0.83289404  1
  Sn  Sn38  1  0.83235158  0.49976690  0.49988781  1
  Sn  Sn39  1  0.50092957  0.49908104  0.49934881  1
  Sn  Sn40  1  0.49950321  0.16736400  0.50026736  1
  Pb  Pb41  1  0.83295459  0.83343546  0.16685560  1
  Pb  Pb42  1  0.16626562  0.16578262  0.83309562  1
  Pb  Pb43  1  0.50016429  0.83295496  0.16674929  1
  Pb  Pb44  1  0.16678541  0.83632760  0.16702716  1
  Pb  Pb45  1  0.83605690  0.82944933  0.49976777  1
  Pb  Pb46  1  0.16748677  0.49936048  0.49995907  1
  Pb  Pb47  1  0.49780657  0.83286232  0.49988929  1
  Pb  Pb48  1  0.83311428  0.16800515  0.49996004  1
  Pb  Pb49  1  0.16733424  0.49693556  0.16656180  1
  Pb  Pb50  1  0.49755876  0.83672348  0.83332748  1
  Pb  Pb51  1  0.16378082  0.50257282  0.83361365  1
  Pb  Pb52  1  0.50197156  0.49808265  0.83351924  1
  Pb  Pb53  1  0.83518666  0.83379681  0.83331133  1
  I  I54  1  0.16733433  0.00474497  0.16728987  1
  I  I55  1  0.17199869  0.00183035  0.49984410  1
  I  I56  1  0.16506411  -0.00186660  0.83158218  1
  I  I57  1  0.16621508  0.32878255  0.17304122  1
  I  I58  1  0.16799958  0.33007686  0.49548373  1
  I  I59  1  0.16770939  0.33300745  0.83259147  1
  I  I60  1  0.16570297  0.66660427  0.16691007  1
  I  I61  1  0.16512541  0.66896538  0.50524296  1
  I  I62  1  0.16590415  0.67052135  0.82532078  1
  I  I63  1  0.49961289  0.00444189  0.16717511  1
  I  I64  1  0.49772235  0.00355060  0.49869100  1
  I  I65  1  0.50680121  0.00535533  0.83414590  1
  I  I66  1  0.50071393  0.33198004  0.16817555  1
  I  I67  1  0.49725182  0.33221074  0.49868343  1
  I  I68  1  0.49910859  0.32958830  0.83340979  1
  I  I69  1  0.50493813  0.66253954  0.17181002  1
  I  I70  1  0.50312354  0.66289820  0.49512159  1
  I  I71  1  0.50049030  0.66648320  0.83344563  1
  I  I72  1  0.83347327  0.00426656  0.16095490  1
  I  I73  1  0.83137402  0.00012095  0.50032360  1
  I  I74  1  0.83084686  0.00368633  0.83892732  1
  I  I75  1  0.83332195  0.33281582  0.16567786  1
  I  I76  1  0.83537440  0.33617423  0.50005549  1
  I  I77  1  0.83122347  0.33259229  0.83476205  1
  I  I78  1  0.82977478  0.66254333  0.16576641  1
  I  I79  1  0.82782334  0.66112137  0.50040826  1
  I  I80  1  0.83546330  0.66342014  0.83411834  1
  I  I81  1  0.16893028  0.16539276  0.00240607  1
  I  I82  1  0.16936210  0.16108907  0.33374425  1
  I  I83  1  0.16965019  0.16457227  0.66400739  1
  I  I84  1  0.16768848  0.50047883  0.00017284  1
  I  I85  1  0.16069051  0.50553965  0.33337661  1
  I  I86  1  0.16590325  0.49525003  0.66654014  1
  I  I87  1  0.16527635  0.83464703  -0.00224229  1
  I  I88  1  0.16694288  0.83506378  0.33625648  1
  I  I89  1  0.16589621  0.84112024  0.66558775  1
  I  I90  1  0.49863522  0.17005885  0.00096520  1
  I  I91  1  0.49829967  0.17027038  0.33323928  1
  I  I92  1  0.49818537  0.17094872  0.66584366  1
  I  I93  1  0.50299500  0.49517882  0.00299839  1
  I  I94  1  0.50801052  0.49131373  0.33335573  1
  I  I95  1  0.50304438  0.49552674  0.66393648  1
  I  I96  1  0.49613678  0.83276335  -0.00011619  1
  I  I97  1  0.49656244  0.83784013  0.33348221  1
  I  I98  1  0.50093322  0.83271789  0.66658422  1
  I  I99  1  0.83222923  0.17365109  0.00054611  1
  I  I100  1  0.83293943  0.17074971  0.33054944  1
  I  I101  1  0.83167008  0.17134778  0.66905290  1
  I  I102  1  0.83075091  0.49510090  0.00078183  1
  I  I103  1  0.83054630  0.49534018  0.33262221  1
  I  I104  1  0.83127953  0.49518022  0.66671096  1
  I  I105  1  0.83813257  0.82958220  -0.00005312  1
  I  I106  1  0.83693053  0.83559255  0.33345861  1
  I  I107  1  0.83319936  0.83421144  0.66653548  1
  I  I108  1  -0.00076636  0.16990682  0.16584650  1
  I  I109  1  0.00229459  0.16442771  0.49741647  1
  I  I110  1  -0.00285966  0.16901799  0.83673389  1
  I  I111  1  -0.00332561  0.49673547  0.16742304  1
  I  I112  1  -0.00275600  0.49997750  0.49947898  1
  I  I113  1  -0.00480389  0.49164396  0.83272010  1
  I  I114  1  0.00013267  0.83235874  0.16680959  1
  I  I115  1  0.00385942  0.84072794  0.50406264  1
  I  I116  1  0.00286312  0.83625340  0.82830033  1
  I  I117  1  0.33430400  0.16919514  0.16644138  1
  I  I118  1  0.33408963  0.16804088  0.49726475  1
  I  I119  1  0.33574281  0.16439896  0.83609203  1
  I  I120  1  0.33708932  0.49634543  0.17310401  1
  I  I121  1  0.33686580  0.49878149  0.49444182  1
  I  I122  1  0.33375712  0.49948636  0.83272294  1
  I  I123  1  0.33317092  0.83229419  0.16593612  1
  I  I124  1  0.32991270  0.83416430  0.50389712  1
  I  I125  1  0.32984332  0.83483098  0.82861893  1
  I  I126  1  0.66649546  0.17133411  0.16552313  1
  I  I127  1  0.66374146  0.16975800  0.49804904  1
  I  I128  1  0.66699361  0.17110099  0.83681621  1
  I  I129  1  0.66713927  0.49092985  0.16828043  1
  I  I130  1  0.66617339  0.49259114  0.49866305  1
  I  I131  1  0.67019219  0.49808882  0.83314187  1
  I  I132  1  0.66661900  0.83883624  0.16605293  1
  I  I133  1  0.66655806  0.83651864  0.49980803  1
  I  I134  1  0.66672352  0.83199846  0.83396833  1
