# generated using pymatgen
data_Cs27Sn13Pb14I81
_symmetry_space_group_name_H-M   'P 1'
_cell_length_a   18.97087397
_cell_length_b   18.97656828
_cell_length_c   18.98022935
_cell_angle_alpha   89.99941175
_cell_angle_beta   90.00213434
_cell_angle_gamma   89.99908476
_symmetry_Int_Tables_number   1
_chemical_formula_structural   Cs27Sn13Pb14I81
_chemical_formula_sum   'Cs27 Sn13 Pb14 I81'
_cell_volume   6832.92213971
_cell_formula_units_Z   1
loop_
 _symmetry_equiv_pos_site_id
 _symmetry_equiv_pos_as_xyz
  1  'x, y, z'
loop_
 _atom_site_type_symbol
 _atom_site_label
 _atom_site_symmetry_multiplicity
 _atom_site_fract_x
 _atom_site_fract_y
 _atom_site_fract_z
 _atom_site_occupancy
  Cs  Cs0  1  0.00136893  0.00027821  0.00095669  1
  Cs  Cs1  1  -0.00350623  -0.00354456  0.32835711  1
  Cs  Cs2  1  -0.00191733  0.00036947  0.66859987  1
  Cs  Cs3  1  -0.00077914  0.33305730  -0.00023031  1
  Cs  Cs4  1  0.00152734  0.33330593  0.33442100  1
  Cs  Cs5  1  0.00194811  0.33311469  0.66604999  1
  Cs  Cs6  1  0.00110871  0.66566808  0.00156160  1
  Cs  Cs7  1  -0.00005409  0.67061726  0.33151357  1
  Cs  Cs8  1  0.00135432  0.66685323  0.66663161  1
  Cs  Cs9  1  0.33465492  0.00003136  -0.00282007  1
  Cs  Cs10  1  0.33656808  -0.00161845  0.33278405  1
  Cs  Cs11  1  0.33445797  0.00384332  0.66916723  1
  Cs  Cs12  1  0.33726862  0.33187885  0.00132106  1
  Cs  Cs13  1  0.33423671  0.33205481  0.33548008  1
  Cs  Cs14  1  0.32859084  0.32331376  0.66337396  1
  Cs  Cs15  1  0.33263693  0.66815973  -0.00069572  1
  Cs  Cs16  1  0.33208086  0.66845947  0.33511476  1
  Cs  Cs17  1  0.33293390  0.66748514  0.66532874  1
  Cs  Cs18  1  0.66386467  0.00139809  -0.00385575  1
  Cs  Cs19  1  0.66731064  0.00010267  0.33488720  1
  Cs  Cs20  1  0.66799837  -0.00124044  0.66671788  1
  Cs  Cs21  1  0.66282499  0.34321153  0.00288255  1
  Cs  Cs22  1  0.66415885  0.33265493  0.33202974  1
  Cs  Cs23  1  0.66856690  0.33594475  0.66589864  1
  Cs  Cs24  1  0.66428652  0.65525103  -0.00208627  1
  Cs  Cs25  1  0.66746092  0.66724179  0.33444417  1
  Cs  Cs26  1  0.66536321  0.66688252  0.66655398  1
  Sn  Sn27  1  0.83356258  0.16750421  0.49981087  1
  Sn  Sn28  1  0.16628833  0.16747218  0.16678757  1
  Sn  Sn29  1  0.83344569  0.16642091  0.83391194  1
  Sn  Sn30  1  0.16655284  0.49914118  0.16601333  1
  Sn  Sn31  1  0.83363077  0.16673753  0.16621550  1
  Sn  Sn32  1  0.83297905  0.49953887  0.49979784  1
  Sn  Sn33  1  0.16674304  0.50029226  0.83389929  1
  Sn  Sn34  1  0.83393941  0.83331634  0.83381118  1
  Sn  Sn35  1  0.50051251  0.83306376  0.16695292  1
  Sn  Sn36  1  0.49911916  0.83267540  0.49930737  1
  Sn  Sn37  1  0.50028821  0.50051921  0.50023728  1
  Sn  Sn38  1  0.16720914  0.83366909  0.50082721  1
  Sn  Sn39  1  0.16569376  0.83267952  0.83233324  1
  Pb  Pb40  1  0.50022108  0.16472978  0.16669871  1
  Pb  Pb41  1  0.83314044  0.83328131  0.50151208  1
  Pb  Pb42  1  0.50348311  0.16717594  0.83334667  1
  Pb  Pb43  1  0.49722630  0.50222086  0.16911649  1
  Pb  Pb44  1  0.16795267  0.83359649  0.16611340  1
  Pb  Pb45  1  0.16483842  0.16646804  0.83538939  1
  Pb  Pb46  1  0.83044323  0.83504600  0.16324856  1
  Pb  Pb47  1  0.50244739  0.16632341  0.50009448  1
  Pb  Pb48  1  0.83537650  0.49789485  0.16921650  1
  Pb  Pb49  1  0.16668063  0.50151083  0.49999281  1
  Pb  Pb50  1  0.49991319  0.83311964  0.83279295  1
  Pb  Pb51  1  0.49624960  0.49987375  0.83000186  1
  Pb  Pb52  1  0.83532549  0.49991383  0.83143577  1
  Pb  Pb53  1  0.16404475  0.16323139  0.49746570  1
  I  I54  1  0.16315625  0.00225162  0.16759872  1
  I  I55  1  0.17158773  -0.00448270  0.50516289  1
  I  I56  1  0.16463373  -0.00284881  0.83096621  1
  I  I57  1  0.16205126  0.33346800  0.16198082  1
  I  I58  1  0.16884078  0.33311693  0.50214936  1
  I  I59  1  0.16500639  0.33563591  0.83456724  1
  I  I60  1  0.16918684  0.66478562  0.16619893  1
  I  I61  1  0.16536563  0.66947212  0.49907669  1
  I  I62  1  0.16055795  0.66776778  0.83510831  1
  I  I63  1  0.49755638  -0.00315778  0.17342764  1
  I  I64  1  0.49744314  -0.00330742  0.49651140  1
  I  I65  1  0.49594879  -0.00030775  0.83180423  1
  I  I66  1  0.50122875  0.33363675  0.16784212  1
  I  I67  1  0.50214576  0.33608348  0.50052517  1
  I  I68  1  0.49983252  0.33375330  0.83246991  1
  I  I69  1  0.49796741  0.66993499  0.16875213  1
  I  I70  1  0.50238234  0.66752377  0.49620718  1
  I  I71  1  0.50547769  0.66666265  0.83548570  1
  I  I72  1  0.84068355  0.00337494  0.17265713  1
  I  I73  1  0.83419989  0.00239529  0.49898867  1
  I  I74  1  0.83890603  0.00005771  0.83064420  1
  I  I75  1  0.83450095  0.32951661  0.16188693  1
  I  I76  1  0.82861951  0.33306966  0.50205753  1
  I  I77  1  0.83532792  0.33059867  0.83357754  1
  I  I78  1  0.83475869  0.66658389  0.16773632  1
  I  I79  1  0.83277343  0.66464490  0.50265441  1
  I  I80  1  0.83569437  0.66906111  0.82993471  1
  I  I81  1  0.16050049  0.16522230  0.00312423  1
  I  I82  1  0.16116412  0.17164454  0.32986256  1
  I  I83  1  0.16536489  0.16909179  0.66662570  1
  I  I84  1  0.16452917  0.50319510  -0.00019744  1
  I  I85  1  0.16648248  0.49777914  0.33125914  1
  I  I86  1  0.16578787  0.50409227  0.66872595  1
  I  I87  1  0.16441880  0.83263905  -0.00273033  1
  I  I88  1  0.16882784  0.83272593  0.33537432  1
  I  I89  1  0.16774347  0.82720117  0.66715326  1
  I  I90  1  0.50083033  0.16258077  0.00024856  1
  I  I91  1  0.50225995  0.16690528  0.33348269  1
  I  I92  1  0.49959168  0.16411583  0.66636055  1
  I  I93  1  0.50165693  0.50154181  0.00009252  1
  I  I94  1  0.50210405  0.50234781  0.33686962  1
  I  I95  1  0.50382086  0.50833663  0.66230312  1
  I  I96  1  0.49884140  0.83637087  0.00208465  1
  I  I97  1  0.49378950  0.83067015  0.33495121  1
  I  I98  1  0.49922398  0.82930248  0.66346262  1
  I  I99  1  0.83881720  0.15948677  0.00002495  1
  I  I100  1  0.83719560  0.17074624  0.33331778  1
  I  I101  1  0.83227401  0.16562898  0.66672120  1
  I  I102  1  0.83270550  0.49972124  0.00001678  1
  I  I103  1  0.83227807  0.49618332  0.33717392  1
  I  I104  1  0.83239414  0.49521757  0.66351337  1
  I  I105  1  0.83968835  0.83888177  -0.00435258  1
  I  I106  1  0.83588766  0.83444163  0.33327461  1
  I  I107  1  0.83379529  0.83888173  0.66929679  1
  I  I108  1  -0.00051813  0.16885473  0.16713273  1
  I  I109  1  -0.00389963  0.17191523  0.50272021  1
  I  I110  1  -0.00330284  0.16468499  0.83090455  1
  I  I111  1  0.00337508  0.50053080  0.16583643  1
  I  I112  1  -0.00218117  0.49706430  0.50065367  1
  I  I113  1  0.00316919  0.50202537  0.83388040  1
  I  I114  1  -0.00007565  0.83245044  0.16953409  1
  I  I115  1  0.00213312  0.83284474  0.50229408  1
  I  I116  1  0.00088757  0.83392153  0.82733815  1
  I  I117  1  0.33036830  0.16916391  0.16654779  1
  I  I118  1  0.33294488  0.16918044  0.49826226  1
  I  I119  1  0.33278533  0.16561458  0.83485056  1
  I  I120  1  0.32934893  0.49388421  0.16469353  1
  I  I121  1  0.33542874  0.50502363  0.49937962  1
  I  I122  1  0.32845122  0.50838284  0.83632218  1
  I  I123  1  0.33564534  0.83482369  0.16786328  1
  I  I124  1  0.33349614  0.82681528  0.50076926  1
  I  I125  1  0.33012651  0.82897198  0.83259417  1
  I  I126  1  0.67010035  0.16315587  0.16750823  1
  I  I127  1  0.67084468  0.16518067  0.49785473  1
  I  I128  1  0.67219548  0.15846892  0.83406343  1
  I  I129  1  0.66657844  0.49951097  0.16566476  1
  I  I130  1  0.66691204  0.50215677  0.50029428  1
  I  I131  1  0.66675852  0.50027314  0.83388868  1
  I  I132  1  0.66323551  0.83598372  0.17437191  1
  I  I133  1  0.66430536  0.83279214  0.49784304  1
  I  I134  1  0.66945756  0.83989071  0.83220389  1
