# generated using pymatgen
data_Cs27Sn14Pb13I81
_symmetry_space_group_name_H-M   'P 1'
_cell_length_a   18.97438882
_cell_length_b   18.97960991
_cell_length_c   18.97243226
_cell_angle_alpha   89.99996226
_cell_angle_beta   89.99878560
_cell_angle_gamma   90.00089131
_symmetry_Int_Tables_number   1
_chemical_formula_structural   Cs27Sn14Pb13I81
_chemical_formula_sum   'Cs27 Sn14 Pb13 I81'
_cell_volume   6832.47558738
_cell_formula_units_Z   1
loop_
 _symmetry_equiv_pos_site_id
 _symmetry_equiv_pos_as_xyz
  1  'x, y, z'
loop_
 _atom_site_type_symbol
 _atom_site_label
 _atom_site_symmetry_multiplicity
 _atom_site_fract_x
 _atom_site_fract_y
 _atom_site_fract_z
 _atom_site_occupancy
  Cs  Cs0  1  -0.00117148  0.00180084  0.00072560  1
  Cs  Cs1  1  -0.00047510  -0.00277652  0.33185058  1
  Cs  Cs2  1  -0.00110558  -0.00131868  0.66802623  1
  Cs  Cs3  1  0.00055576  0.33273140  -0.00089751  1
  Cs  Cs4  1  0.00509548  0.33468429  0.33038256  1
  Cs  Cs5  1  -0.00480378  0.33298355  0.67168659  1
  Cs  Cs6  1  -0.00165117  0.66580225  0.00295129  1
  Cs  Cs7  1  0.00084568  0.66773825  0.33309102  1
  Cs  Cs8  1  -0.00031777  0.66793055  0.66020876  1
  Cs  Cs9  1  0.33503665  0.00032227  -0.00174689  1
  Cs  Cs10  1  0.33520400  0.00131162  0.33272398  1
  Cs  Cs11  1  0.33271911  -0.00334356  0.67208385  1
  Cs  Cs12  1  0.33238040  0.33249062  0.00105648  1
  Cs  Cs13  1  0.33261959  0.33339601  0.33374111  1
  Cs  Cs14  1  0.33289331  0.33273837  0.66059168  1
  Cs  Cs15  1  0.33649540  0.66660117  -0.00202574  1
  Cs  Cs16  1  0.33213494  0.66581811  0.33219201  1
  Cs  Cs17  1  0.33312319  0.67121470  0.67331098  1
  Cs  Cs18  1  0.66545752  -0.00188119  0.00140599  1
  Cs  Cs19  1  0.66489155  0.00048684  0.33322316  1
  Cs  Cs20  1  0.66722956  0.00383842  0.66152829  1
  Cs  Cs21  1  0.66697125  0.33483530  -0.00135161  1
  Cs  Cs22  1  0.66152302  0.33260321  0.33977755  1
  Cs  Cs23  1  0.67347796  0.33771967  0.65935589  1
  Cs  Cs24  1  0.66479571  0.66759868  -0.00171699  1
  Cs  Cs25  1  0.66617560  0.66690625  0.33403437  1
  Cs  Cs26  1  0.66799567  0.65821804  0.67075914  1
  Sn  Sn27  1  0.16701713  0.83355420  0.16648154  1
  Sn  Sn28  1  0.16614570  0.50003301  0.16646895  1
  Sn  Sn29  1  0.50036159  0.16742580  0.83366356  1
  Sn  Sn30  1  0.16675440  0.16639698  0.16720663  1
  Sn  Sn31  1  0.83337359  0.83360726  0.83388735  1
  Sn  Sn32  1  0.16682040  0.49997686  0.83345332  1
  Sn  Sn33  1  0.83360088  0.49986899  0.16680867  1
  Sn  Sn34  1  0.49998505  0.16606693  0.16557183  1
  Sn  Sn35  1  0.83305612  0.16705959  0.16672435  1
  Sn  Sn36  1  0.49994035  0.83401946  0.16759726  1
  Sn  Sn37  1  0.16640821  0.16669705  0.49946464  1
  Sn  Sn38  1  0.16688314  0.49933445  0.50012353  1
  Sn  Sn39  1  0.50001208  0.83294334  0.49946143  1
  Sn  Sn40  1  0.83308144  0.83327348  0.16598481  1
  Pb  Pb41  1  0.16438657  0.83138006  0.83617364  1
  Pb  Pb42  1  0.83079271  0.83323000  0.49948335  1
  Pb  Pb43  1  0.83085478  0.16496470  0.83557128  1
  Pb  Pb44  1  0.16843042  0.83367288  0.49796837  1
  Pb  Pb45  1  0.49799972  0.49667039  0.83335310  1
  Pb  Pb46  1  0.83609920  0.49995949  0.49689737  1
  Pb  Pb47  1  0.83557683  0.50196418  0.83578905  1
  Pb  Pb48  1  0.50233336  0.83498427  0.83356437  1
  Pb  Pb49  1  0.49774553  0.16511638  0.49975391  1
  Pb  Pb50  1  0.83657548  0.16657135  0.49710275  1
  Pb  Pb51  1  0.16803923  0.16836709  0.83353295  1
  Pb  Pb52  1  0.50002495  0.49976898  0.16663754  1
  Pb  Pb53  1  0.49720579  0.50292530  0.49998960  1
  I  I54  1  0.16473113  0.00045255  0.17155100  1
  I  I55  1  0.16841857  0.00260168  0.49328411  1
  I  I56  1  0.16716962  -0.00008069  0.83281352  1
  I  I57  1  0.16443993  0.33338727  0.16705384  1
  I  I58  1  0.16846822  0.33342542  0.49259987  1
  I  I59  1  0.16721600  0.33623767  0.83970793  1
  I  I60  1  0.16379018  0.66635512  0.16717791  1
  I  I61  1  0.16768205  0.66406592  0.49768323  1
  I  I62  1  0.16716852  0.66339467  0.83334386  1
  I  I63  1  0.49916031  -0.00006374  0.16682704  1
  I  I64  1  0.49729688  -0.00257674  0.49624196  1
  I  I65  1  0.49760668  0.00260555  0.83712349  1
  I  I66  1  0.49906237  0.32989931  0.16295420  1
  I  I67  1  0.49988117  0.33321141  0.49914483  1
  I  I68  1  0.49879486  0.32904390  0.84344205  1
  I  I69  1  0.49929398  0.66988582  0.17029825  1
  I  I70  1  0.49850374  0.67065224  0.49114291  1
  I  I71  1  0.49970206  0.66678014  0.83344486  1
  I  I72  1  0.83617626  -0.00029701  0.16331665  1
  I  I73  1  0.83647187  -0.00011649  0.49806172  1
  I  I74  1  0.83446927  -0.00286162  0.84126890  1
  I  I75  1  0.83823122  0.33291944  0.16706460  1
  I  I76  1  0.82904314  0.33323239  0.49978908  1
  I  I77  1  0.83338613  0.33340726  0.83516264  1
  I  I78  1  0.83727994  0.66730453  0.16362712  1
  I  I79  1  0.83596921  0.66670898  0.49678142  1
  I  I80  1  0.83199443  0.66972695  0.84142770  1
  I  I81  1  0.16506043  0.16722248  0.00389672  1
  I  I82  1  0.16868464  0.17147618  0.33064635  1
  I  I83  1  0.17073042  0.17142280  0.66409058  1
  I  I84  1  0.16289284  0.49976419  0.00206728  1
  I  I85  1  0.16300961  0.49943019  0.33168351  1
  I  I86  1  0.16955966  0.49474648  0.66612354  1
  I  I87  1  0.17166218  0.83469495  0.00494156  1
  I  I88  1  0.16198218  0.82952722  0.32906872  1
  I  I89  1  0.16742671  0.83288540  0.66676183  1
  I  I90  1  0.49692720  0.16047756  0.00302854  1
  I  I91  1  0.50148742  0.16417540  0.32972806  1
  I  I92  1  0.49537066  0.16313855  0.66868543  1
  I  I93  1  0.49641582  0.50453414  0.00034258  1
  I  I94  1  0.49815549  0.49617508  0.33300126  1
  I  I95  1  0.49736695  0.50114761  0.66665505  1
  I  I96  1  0.49814082  0.83544038  0.00361356  1
  I  I97  1  0.50120458  0.83921304  0.33027871  1
  I  I98  1  0.49905831  0.83568117  0.66458862  1
  I  I99  1  0.83982684  0.16803213  0.00458749  1
  I  I100  1  0.82792077  0.16279370  0.32813471  1
  I  I101  1  0.83286575  0.16381741  0.66671759  1
  I  I102  1  0.84060188  0.49806668  0.00420867  1
  I  I103  1  0.83939592  0.50362430  0.32847629  1
  I  I104  1  0.83483188  0.50295156  0.66672545  1
  I  I105  1  0.83182797  0.83313142  0.00339392  1
  I  I106  1  0.83593786  0.83347044  0.32902303  1
  I  I107  1  0.83237327  0.83329475  0.66924265  1
  I  I108  1  0.00061317  0.16448797  0.17124595  1
  I  I109  1  0.00464803  0.16968310  0.49430098  1
  I  I110  1  -0.00013665  0.16681323  0.83352260  1
  I  I111  1  0.00148206  0.50058720  0.16700395  1
  I  I112  1  0.00437405  0.49805665  0.50056379  1
  I  I113  1  0.00363865  0.49836944  0.83311307  1
  I  I114  1  0.00008657  0.83498219  0.16269062  1
  I  I115  1  0.00017352  0.83267670  0.49921680  1
  I  I116  1  -0.00314870  0.83405796  0.84050966  1
  I  I117  1  0.33279037  0.16435704  0.16682254  1
  I  I118  1  0.33002688  0.17078982  0.49230040  1
  I  I119  1  0.33577157  0.16534158  0.84091320  1
  I  I120  1  0.32964320  0.50016547  0.16749597  1
  I  I121  1  0.32895504  0.49539890  0.49391067  1
  I  I122  1  0.32955269  0.50208761  0.83844168  1
  I  I123  1  0.33328107  0.83544744  0.17152019  1
  I  I124  1  0.33603318  0.83350321  0.49297249  1
  I  I125  1  0.33337454  0.83266841  0.83395490  1
  I  I126  1  0.66642342  0.16267974  0.16125618  1
  I  I127  1  0.66650314  0.16473875  0.49925832  1
  I  I128  1  0.66310550  0.16423417  0.84087803  1
  I  I129  1  0.66973593  0.50117123  0.16513758  1
  I  I130  1  0.66675287  0.50067906  0.49896444  1
  I  I131  1  0.66706028  0.50124102  0.83563234  1
  I  I132  1  0.66674396  0.83608231  0.16669170  1
  I  I133  1  0.66317382  0.83620899  0.49197301  1
  I  I134  1  0.66961488  0.83357071  0.84197901  1
