# generated using pymatgen
data_Cs27Sn14Pb13I81
_symmetry_space_group_name_H-M   'P 1'
_cell_length_a   18.96928990
_cell_length_b   18.97482251
_cell_length_c   18.98081959
_cell_angle_alpha   90.00007025
_cell_angle_beta   89.99947376
_cell_angle_gamma   89.99711063
_symmetry_Int_Tables_number   1
_chemical_formula_structural   Cs27Sn14Pb13I81
_chemical_formula_sum   'Cs27 Sn14 Pb13 I81'
_cell_volume   6831.93548419
_cell_formula_units_Z   1
loop_
 _symmetry_equiv_pos_site_id
 _symmetry_equiv_pos_as_xyz
  1  'x, y, z'
loop_
 _atom_site_type_symbol
 _atom_site_label
 _atom_site_symmetry_multiplicity
 _atom_site_fract_x
 _atom_site_fract_y
 _atom_site_fract_z
 _atom_site_occupancy
  Cs  Cs0  1  -0.00815200  0.00034273  0.00795879  1
  Cs  Cs1  1  -0.00074022  -0.00171050  0.32417495  1
  Cs  Cs2  1  0.00171297  -0.00017591  0.66766643  1
  Cs  Cs3  1  -0.00000489  0.33442418  -0.00009327  1
  Cs  Cs4  1  -0.00190811  0.33448886  0.33124492  1
  Cs  Cs5  1  0.00117983  0.33488913  0.66843133  1
  Cs  Cs6  1  -0.00059745  0.66432955  0.00194524  1
  Cs  Cs7  1  0.00019402  0.66663873  0.33349994  1
  Cs  Cs8  1  0.00303226  0.66528896  0.66513554  1
  Cs  Cs9  1  0.33349917  0.00296356  0.00237786  1
  Cs  Cs10  1  0.33426693  -0.00078069  0.33206307  1
  Cs  Cs11  1  0.33286782  0.00005266  0.66646617  1
  Cs  Cs12  1  0.33403721  0.33259995  -0.00032488  1
  Cs  Cs13  1  0.33583562  0.33192552  0.33255833  1
  Cs  Cs14  1  0.33162915  0.33026134  0.66811981  1
  Cs  Cs15  1  0.33552403  0.66502394  -0.00236172  1
  Cs  Cs16  1  0.33315224  0.66903390  0.33249172  1
  Cs  Cs17  1  0.33049544  0.66852594  0.66907508  1
  Cs  Cs18  1  0.67241620  -0.00093375  -0.00192102  1
  Cs  Cs19  1  0.66433245  0.00123385  0.33357047  1
  Cs  Cs20  1  0.66992832  0.00062506  0.66909054  1
  Cs  Cs21  1  0.66577293  0.33455229  0.00061163  1
  Cs  Cs22  1  0.66495185  0.33396643  0.34405667  1
  Cs  Cs23  1  0.66837011  0.33134947  0.65536134  1
  Cs  Cs24  1  0.66412207  0.66685431  -0.00317055  1
  Cs  Cs25  1  0.66519199  0.66492586  0.33494805  1
  Cs  Cs26  1  0.66490147  0.66808283  0.66834558  1
  Sn  Sn27  1  0.49976244  0.83398488  0.16673478  1
  Sn  Sn28  1  0.16689221  0.49970497  0.49982729  1
  Sn  Sn29  1  0.16638714  0.50004204  0.16651029  1
  Sn  Sn30  1  0.16645738  0.83400169  0.83361471  1
  Sn  Sn31  1  0.83354079  0.49997079  0.16605272  1
  Sn  Sn32  1  0.83377775  0.49980358  0.83371025  1
  Sn  Sn33  1  0.16652911  0.16620651  0.50016611  1
  Sn  Sn34  1  0.16617177  0.49999546  0.83356531  1
  Sn  Sn35  1  0.16684334  0.16599664  0.83327224  1
  Sn  Sn36  1  0.49971216  0.16688547  0.83396722  1
  Sn  Sn37  1  0.83383713  0.83354162  0.50014520  1
  Sn  Sn38  1  0.16652723  0.83394218  0.50033999  1
  Sn  Sn39  1  0.49985582  0.83349577  0.49965126  1
  Sn  Sn40  1  0.50008226  0.16601160  0.16570385  1
  Pb  Pb41  1  0.83559732  0.50183759  0.50028709  1
  Pb  Pb42  1  0.16798120  0.16904978  0.16636066  1
  Pb  Pb43  1  0.83706302  0.16365082  0.50000104  1
  Pb  Pb44  1  0.49797598  0.83565509  0.83333441  1
  Pb  Pb45  1  0.82975972  0.16969547  0.16682735  1
  Pb  Pb46  1  0.50037222  0.49987985  0.16665546  1
  Pb  Pb47  1  0.83030370  0.83078521  0.16868513  1
  Pb  Pb48  1  0.49684365  0.50282405  0.50039322  1
  Pb  Pb49  1  0.83394378  0.16922092  0.83326416  1
  Pb  Pb50  1  0.16824265  0.83122282  0.16636453  1
  Pb  Pb51  1  0.50000272  0.49712372  0.83298376  1
  Pb  Pb52  1  0.83631863  0.83089684  0.83147597  1
  Pb  Pb53  1  0.49787173  0.16423598  0.50038365  1
  I  I54  1  0.16711397  0.00001894  0.16719302  1
  I  I55  1  0.16788603  -0.00096351  0.50824015  1
  I  I56  1  0.17350627  0.00024377  0.82322223  1
  I  I57  1  0.16604148  0.33716682  0.16713122  1
  I  I58  1  0.16712803  0.33368176  0.50333353  1
  I  I59  1  0.16717502  0.33365315  0.83015595  1
  I  I60  1  0.16597361  0.66311048  0.16712663  1
  I  I61  1  0.16696319  0.66716717  0.50273029  1
  I  I62  1  0.16323602  0.66621410  0.82972630  1
  I  I63  1  0.49695873  -0.00018737  0.16813883  1
  I  I64  1  0.49611655  -0.00360407  0.49816816  1
  I  I65  1  0.49254278  0.00330880  0.83381189  1
  I  I66  1  0.49803363  0.33073720  0.16135349  1
  I  I67  1  0.49922407  0.33293697  0.49863057  1
  I  I68  1  0.49241772  0.32944452  0.84083232  1
  I  I69  1  0.49892312  0.66914631  0.17242963  1
  I  I70  1  0.49780813  0.67099387  0.49328271  1
  I  I71  1  0.49857951  0.66684661  0.83400479  1
  I  I72  1  0.83470509  -0.00022045  0.16795432  1
  I  I73  1  0.83445824  -0.00428897  0.50062793  1
  I  I74  1  0.83413484  -0.00015217  0.83177601  1
  I  I75  1  0.83799688  0.33752896  0.16313465  1
  I  I76  1  0.83337787  0.33353447  0.49964972  1
  I  I77  1  0.84018515  0.33718460  0.83663457  1
  I  I78  1  0.83706730  0.66317109  0.16345851  1
  I  I79  1  0.83583615  0.66962497  0.49971787  1
  I  I80  1  0.83908527  0.66302175  0.83673733  1
  I  I81  1  0.17012215  0.16773144  -0.00305221  1
  I  I82  1  0.16850046  0.16624920  0.33595306  1
  I  I83  1  0.17257874  0.17045647  0.66728066  1
  I  I84  1  0.16321358  0.50012696  -0.00085070  1
  I  I85  1  0.16352783  0.50110136  0.33369210  1
  I  I86  1  0.16346378  0.50064046  0.66706371  1
  I  I87  1  0.17015669  0.83218224  -0.00278427  1
  I  I88  1  0.16591262  0.83264173  0.33649860  1
  I  I89  1  0.16892671  0.82886130  0.66558017  1
  I  I90  1  0.49230907  0.16215974  -0.00019078  1
  I  I91  1  0.49811078  0.16509531  0.33136333  1
  I  I92  1  0.49622523  0.16685025  0.66914482  1
  I  I93  1  0.49520431  0.50453967  -0.00005973  1
  I  I94  1  0.49986745  0.49542642  0.33338591  1
  I  I95  1  0.50164752  0.50005802  0.66669234  1
  I  I96  1  0.49684680  0.83417961  0.00225208  1
  I  I97  1  0.49679896  0.83821374  0.33390766  1
  I  I98  1  0.49986652  0.83337668  0.66392644  1
  I  I99  1  0.83766067  0.16407492  0.00003751  1
  I  I100  1  0.83348029  0.17004356  0.33343299  1
  I  I101  1  0.82705756  0.16979003  0.66660372  1
  I  I102  1  0.84288045  0.50004962  -0.00023991  1
  I  I103  1  0.83786753  0.50180073  0.33116253  1
  I  I104  1  0.83849768  0.50103077  0.66914924  1
  I  I105  1  0.83325608  0.83375728  -0.00000175  1
  I  I106  1  0.84032010  0.83055386  0.33654917  1
  I  I107  1  0.82860923  0.83065527  0.66348866  1
  I  I108  1  0.00000650  0.16563483  0.16672478  1
  I  I109  1  0.00528065  0.16671028  0.50770856  1
  I  I110  1  0.00395049  0.16619351  0.82748274  1
  I  I111  1  0.00146570  0.50057824  0.16615322  1
  I  I112  1  0.00412794  0.50286567  0.50051075  1
  I  I113  1  0.00247729  0.49837767  0.83347241  1
  I  I114  1  -0.00000781  0.83392620  0.16767355  1
  I  I115  1  0.00190584  0.83159212  0.50570206  1
  I  I116  1  0.00473073  0.83702232  0.82720441  1
  I  I117  1  0.33584931  0.16548016  0.16598319  1
  I  I118  1  0.32963091  0.16574116  0.50146675  1
  I  I119  1  0.33148972  0.16929200  0.83296295  1
  I  I120  1  0.33044317  0.50039167  0.16628952  1
  I  I121  1  0.32825348  0.50190402  0.50020212  1
  I  I122  1  0.32944213  0.50211646  0.83369415  1
  I  I123  1  0.33597802  0.83413326  0.17294719  1
  I  I124  1  0.33187987  0.83253762  0.49960823  1
  I  I125  1  0.32962621  0.82711735  0.82713687  1
  I  I126  1  0.66187607  0.16312075  0.16015389  1
  I  I127  1  0.66652167  0.16636616  0.50004535  1
  I  I128  1  0.66386947  0.16694991  0.83840785  1
  I  I129  1  0.66949158  0.50122798  0.16055331  1
  I  I130  1  0.66682975  0.50113460  0.49909043  1
  I  I131  1  0.66955767  0.50028351  0.84037843  1
  I  I132  1  0.66249858  0.83504393  0.17196096  1
  I  I133  1  0.66607442  0.83227783  0.49414680  1
  I  I134  1  0.66670293  0.83257479  0.83155191  1
