# generated using pymatgen
data_Cs27Sn13Pb14I81
_symmetry_space_group_name_H-M   'P 1'
_cell_length_a   18.97692091
_cell_length_b   18.97657717
_cell_length_c   18.97661118
_cell_angle_alpha   89.99984740
_cell_angle_beta   90.00018800
_cell_angle_gamma   90.00061721
_symmetry_Int_Tables_number   1
_chemical_formula_structural   Cs27Sn13Pb14I81
_chemical_formula_sum   'Cs27 Sn13 Pb14 I81'
_cell_volume   6833.80036770
_cell_formula_units_Z   1
loop_
 _symmetry_equiv_pos_site_id
 _symmetry_equiv_pos_as_xyz
  1  'x, y, z'
loop_
 _atom_site_type_symbol
 _atom_site_label
 _atom_site_symmetry_multiplicity
 _atom_site_fract_x
 _atom_site_fract_y
 _atom_site_fract_z
 _atom_site_occupancy
  Cs  Cs0  1  -0.00220461  -0.00145551  0.00014124  1
  Cs  Cs1  1  0.00098420  0.00121505  0.33506449  1
  Cs  Cs2  1  -0.00093516  0.00168296  0.66550155  1
  Cs  Cs3  1  0.00035529  0.33438882  0.00186063  1
  Cs  Cs4  1  0.00117653  0.33257864  0.33174493  1
  Cs  Cs5  1  0.00194192  0.33138352  0.66633845  1
  Cs  Cs6  1  0.00126569  0.66898111  -0.00343178  1
  Cs  Cs7  1  -0.00229549  0.66735846  0.33651544  1
  Cs  Cs8  1  -0.00052877  0.66931805  0.66854058  1
  Cs  Cs9  1  0.33731192  -0.00171383  0.00313473  1
  Cs  Cs10  1  0.33343987  -0.00702708  0.33242371  1
  Cs  Cs11  1  0.33317288  0.00369349  0.66541477  1
  Cs  Cs12  1  0.33358575  0.33270207  0.00003284  1
  Cs  Cs13  1  0.32964745  0.33414169  0.33524247  1
  Cs  Cs14  1  0.33173515  0.33101996  0.66607812  1
  Cs  Cs15  1  0.33087943  0.66967255  -0.00074913  1
  Cs  Cs16  1  0.34094438  0.67274073  0.33215230  1
  Cs  Cs17  1  0.33248664  0.66762982  0.66874453  1
  Cs  Cs18  1  0.66712770  0.00063166  -0.00074296  1
  Cs  Cs19  1  0.66470179  -0.00160400  0.33000806  1
  Cs  Cs20  1  0.66823648  -0.00027495  0.66921503  1
  Cs  Cs21  1  0.66568225  0.33288906  0.00407232  1
  Cs  Cs22  1  0.66663432  0.34127169  0.32577799  1
  Cs  Cs23  1  0.66545371  0.33337605  0.66770341  1
  Cs  Cs24  1  0.66759869  0.66683804  -0.00109655  1
  Cs  Cs25  1  0.66019278  0.65901318  0.33984114  1
  Cs  Cs26  1  0.66714522  0.66608635  0.66446762  1
  Sn  Sn27  1  0.83407259  0.16714616  0.83296466  1
  Sn  Sn28  1  0.16660019  0.49977017  0.49907112  1
  Sn  Sn29  1  0.16656697  0.49996109  0.16784421  1
  Sn  Sn30  1  0.83316901  0.83287261  0.16673289  1
  Sn  Sn31  1  0.83249828  0.83340705  0.83402710  1
  Sn  Sn32  1  0.16655778  0.16704972  0.16664593  1
  Sn  Sn33  1  0.50080240  0.83254362  0.83306758  1
  Sn  Sn34  1  0.16661616  0.16723219  0.49969851  1
  Sn  Sn35  1  0.83264621  0.49949619  0.83322734  1
  Sn  Sn36  1  0.50065738  0.16702697  0.49954036  1
  Sn  Sn37  1  0.16600361  0.16658014  0.83391001  1
  Sn  Sn38  1  0.83250263  0.16703129  0.50005580  1
  Sn  Sn39  1  0.50067472  0.50053785  0.83329034  1
  Pb  Pb40  1  0.16666852  0.83313982  0.50000854  1
  Pb  Pb41  1  0.50322096  0.83313018  0.16423474  1
  Pb  Pb42  1  0.16655641  0.49801112  0.83324260  1
  Pb  Pb43  1  0.83314326  0.83538123  0.50021159  1
  Pb  Pb44  1  0.50028598  0.83563491  0.50285537  1
  Pb  Pb45  1  0.16453305  0.83297286  0.16671584  1
  Pb  Pb46  1  0.83543352  0.49738934  0.50227039  1
  Pb  Pb47  1  0.50046521  0.16676685  0.83228763  1
  Pb  Pb48  1  0.16656644  0.83659740  0.83324075  1
  Pb  Pb49  1  0.49756461  0.49784029  0.50234976  1
  Pb  Pb50  1  0.83561800  0.50253620  0.16447254  1
  Pb  Pb51  1  0.49713869  0.49997317  0.16398009  1
  Pb  Pb52  1  0.83502966  0.16542375  0.16668897  1
  Pb  Pb53  1  0.49714484  0.16684439  0.17003097  1
  I  I54  1  0.16527733  0.00317974  0.16729139  1
  I  I55  1  0.16617472  0.00423973  0.50036799  1
  I  I56  1  0.16307773  0.00492484  0.83173886  1
  I  I57  1  0.16505492  0.33214442  0.16713795  1
  I  I58  1  0.16651178  0.33132260  0.50027589  1
  I  I59  1  0.16346586  0.32987657  0.83220965  1
  I  I60  1  0.16506796  0.66352541  0.16964655  1
  I  I61  1  0.16598856  0.66316633  0.49659498  1
  I  I62  1  0.16463202  0.66652475  0.83327249  1
  I  I63  1  0.49698074  0.00004817  0.16442570  1
  I  I64  1  0.49570851  0.00395576  0.50324885  1
  I  I65  1  0.50283131  -0.00202987  0.83139689  1
  I  I66  1  0.50352790  0.33329073  0.16218599  1
  I  I67  1  0.50010776  0.32987287  0.50533091  1
  I  I68  1  0.50192477  0.33546135  0.83113493  1
  I  I69  1  0.49617934  0.66663455  0.16845668  1
  I  I70  1  0.49767021  0.66636947  0.49956524  1
  I  I71  1  0.50715653  0.66665790  0.83319589  1
  I  I72  1  0.83638907  -0.00227877  0.15964030  1
  I  I73  1  0.83800543  0.00418953  0.50670498  1
  I  I74  1  0.83366270  0.00056608  0.83299674  1
  I  I75  1  0.83333203  0.33350592  0.16536860  1
  I  I76  1  0.83352418  0.32899246  0.50631240  1
  I  I77  1  0.83421950  0.33248641  0.82814626  1
  I  I78  1  0.83738333  0.67007435  0.15850685  1
  I  I79  1  0.83663651  0.66629221  0.50159176  1
  I  I80  1  0.82994856  0.66686136  0.83813307  1
  I  I81  1  0.16133684  0.17069728  -0.00046118  1
  I  I82  1  0.16571326  0.17109835  0.33416225  1
  I  I83  1  0.16596383  0.17002302  0.66621411  1
  I  I84  1  0.16645501  0.49449277  0.00182670  1
  I  I85  1  0.16504839  0.48943647  0.33366156  1
  I  I86  1  0.16697295  0.49377142  0.66464962  1
  I  I87  1  0.16810070  0.83368784  -0.00026380  1
  I  I88  1  0.16345532  0.83882088  0.33325487  1
  I  I89  1  0.16438209  0.83318498  0.66697757  1
  I  I90  1  0.49854039  0.16594164  -0.00002059  1
  I  I91  1  0.50134570  0.16670205  0.33807239  1
  I  I92  1  0.49429463  0.16648994  0.66451013  1
  I  I93  1  0.50180179  0.50156534  -0.00429515  1
  I  I94  1  0.50098463  0.49866597  0.33356778  1
  I  I95  1  0.50157266  0.50290801  0.67034037  1
  I  I96  1  0.50050548  0.83219954  -0.00407182  1
  I  I97  1  0.50017467  0.83525929  0.33338603  1
  I  I98  1  0.50710087  0.83008438  0.67086978  1
  I  I99  1  0.83822158  0.16729064  -0.00340260  1
  I  I100  1  0.83602826  0.16312353  0.33610865  1
  I  I101  1  0.83880355  0.16471418  0.66792555  1
  I  I102  1  0.83263046  0.49445749  -0.00411615  1
  I  I103  1  0.83332040  0.50057113  0.33342746  1
  I  I104  1  0.83277178  0.50433236  0.67074304  1
  I  I105  1  0.83106307  0.83652773  -0.00247345  1
  I  I106  1  0.83798327  0.83771318  0.33082579  1
  I  I107  1  0.83014548  0.83282469  0.67045387  1
  I  I108  1  0.00333916  0.16931292  0.16967796  1
  I  I109  1  0.00072157  0.16925656  0.50222714  1
  I  I110  1  -0.00064974  0.16678066  0.82863951  1
  I  I111  1  0.00344427  0.49456094  0.16745356  1
  I  I112  1  0.00343143  0.49296536  0.49922640  1
  I  I113  1  -0.00257911  0.50185823  0.83341576  1
  I  I114  1  -0.00292385  0.83443966  0.15736744  1
  I  I115  1  -0.00022266  0.83620052  0.50340514  1
  I  I116  1  -0.00342430  0.83109404  0.83655656  1
  I  I117  1  0.32848691  0.16974797  0.16314836  1
  I  I118  1  0.33176243  0.17049099  0.50250251  1
  I  I119  1  0.33084069  0.16749953  0.83138663  1
  I  I120  1  0.32903303  0.49452076  0.16773462  1
  I  I121  1  0.32959737  0.49195922  0.50000484  1
  I  I122  1  0.33535526  0.50281389  0.83306751  1
  I  I123  1  0.33342207  0.83429910  0.16521263  1
  I  I124  1  0.33346877  0.83691536  0.50208970  1
  I  I125  1  0.33609416  0.82948858  0.83202980  1
  I  I126  1  0.66681423  0.16449004  0.16619483  1
  I  I127  1  0.66757508  0.16357242  0.50954713  1
  I  I128  1  0.66982358  0.16590779  0.82796923  1
  I  I129  1  0.66686335  0.50085906  0.16720725  1
  I  I130  1  0.66668260  0.49793916  0.49977373  1
  I  I131  1  0.66762378  0.49826380  0.83265904  1
  I  I132  1  0.67087385  0.83694194  0.16256456  1
  I  I133  1  0.66684096  0.83647943  0.49843957  1
  I  I134  1  0.66807572  0.83606899  0.83708653  1
