# generated using pymatgen
data_Cs27Sn14Pb13I81
_symmetry_space_group_name_H-M   'P 1'
_cell_length_a   18.97288266
_cell_length_b   18.98628281
_cell_length_c   18.96737983
_cell_angle_alpha   90.00047085
_cell_angle_beta   90.00058271
_cell_angle_gamma   89.99983381
_symmetry_Int_Tables_number   1
_chemical_formula_structural   Cs27Sn14Pb13I81
_chemical_formula_sum   'Cs27 Sn14 Pb13 I81'
_cell_volume   6832.51521630
_cell_formula_units_Z   1
loop_
 _symmetry_equiv_pos_site_id
 _symmetry_equiv_pos_as_xyz
  1  'x, y, z'
loop_
 _atom_site_type_symbol
 _atom_site_label
 _atom_site_symmetry_multiplicity
 _atom_site_fract_x
 _atom_site_fract_y
 _atom_site_fract_z
 _atom_site_occupancy
  Cs  Cs0  1  0.01198785  -0.00026143  0.00145734  1
  Cs  Cs1  1  -0.00192302  -0.00064779  0.33417962  1
  Cs  Cs2  1  -0.00231174  0.00021732  0.66377609  1
  Cs  Cs3  1  0.00642661  0.34127390  0.00577904  1
  Cs  Cs4  1  -0.00234447  0.33391970  0.33190783  1
  Cs  Cs5  1  0.00040332  0.33366859  0.66523715  1
  Cs  Cs6  1  0.00569244  0.65902348  -0.00827722  1
  Cs  Cs7  1  0.00065058  0.66816153  0.33367096  1
  Cs  Cs8  1  -0.00288934  0.66530001  0.66904459  1
  Cs  Cs9  1  0.32763116  -0.00143243  -0.00073741  1
  Cs  Cs10  1  0.33321238  -0.00100394  0.33333258  1
  Cs  Cs11  1  0.33421175  0.00056035  0.66818208  1
  Cs  Cs12  1  0.33363015  0.33334180  -0.00244538  1
  Cs  Cs13  1  0.33629378  0.33466569  0.33504498  1
  Cs  Cs14  1  0.33393238  0.33207207  0.66671877  1
  Cs  Cs15  1  0.32743585  0.66750654  0.00074007  1
  Cs  Cs16  1  0.33489954  0.66689260  0.33450651  1
  Cs  Cs17  1  0.33820147  0.66921137  0.66518690  1
  Cs  Cs18  1  0.66572495  0.00072727  0.00026240  1
  Cs  Cs19  1  0.66877881  -0.00019362  0.33171369  1
  Cs  Cs20  1  0.66748634  0.00093109  0.66883562  1
  Cs  Cs21  1  0.66582880  0.33376164  0.00084756  1
  Cs  Cs22  1  0.66669832  0.33302150  0.33182127  1
  Cs  Cs23  1  0.66549263  0.33098151  0.66640781  1
  Cs  Cs24  1  0.66860802  0.66646840  -0.00235416  1
  Cs  Cs25  1  0.66484399  0.66892676  0.33406205  1
  Cs  Cs26  1  0.66593591  0.66984024  0.66873978  1
  Sn  Sn27  1  0.83383015  0.83330681  0.49937872  1
  Sn  Sn28  1  0.16582535  0.83329846  0.49987710  1
  Sn  Sn29  1  0.50031762  0.16632439  0.49999580  1
  Sn  Sn30  1  0.83320061  0.83328024  0.16639405  1
  Sn  Sn31  1  0.16582512  0.50004923  0.49995435  1
  Sn  Sn32  1  0.83322337  0.16679027  0.50048920  1
  Sn  Sn33  1  0.16633792  0.16671220  0.49984025  1
  Sn  Sn34  1  0.83362282  0.49995675  0.49983598  1
  Sn  Sn35  1  0.83343037  0.16672060  0.83377956  1
  Sn  Sn36  1  0.50039050  0.50019986  0.16557951  1
  Sn  Sn37  1  0.50101371  0.16727525  0.83351784  1
  Sn  Sn38  1  0.50021654  0.16635004  0.16635388  1
  Sn  Sn39  1  0.50100455  0.83340230  0.16662829  1
  Sn  Sn40  1  0.50043620  0.49941309  0.83410095  1
  Pb  Pb41  1  0.50045978  0.49819089  0.50019466  1
  Pb  Pb42  1  0.50053538  0.83615302  0.49841067  1
  Pb  Pb43  1  0.16623600  0.16688205  0.83114337  1
  Pb  Pb44  1  0.16933360  0.16691871  0.16944531  1
  Pb  Pb45  1  0.83200983  0.16499131  0.16601016  1
  Pb  Pb46  1  0.16956782  0.49976724  0.83018653  1
  Pb  Pb47  1  0.16924446  0.50000453  0.16936665  1
  Pb  Pb48  1  0.83343665  0.83604461  0.83391445  1
  Pb  Pb49  1  0.16636765  0.83327503  0.82979978  1
  Pb  Pb50  1  0.83126605  0.50266510  0.16866131  1
  Pb  Pb51  1  0.83119736  0.49713950  0.83108938  1
  Pb  Pb52  1  0.16593393  0.83307139  0.16876635  1
  Pb  Pb53  1  0.50012096  0.83380810  0.83664720  1
  I  I54  1  0.17004487  -0.00003613  0.16891472  1
  I  I55  1  0.16481542  0.00042951  0.49950658  1
  I  I56  1  0.17014608  0.00035980  0.83181971  1
  I  I57  1  0.16739290  0.33338451  0.17046384  1
  I  I58  1  0.16547624  0.33271894  0.50025490  1
  I  I59  1  0.16622617  0.33325004  0.82946307  1
  I  I60  1  0.17136905  0.66667823  0.17123070  1
  I  I61  1  0.16066528  0.66678846  0.49903788  1
  I  I62  1  0.16914627  0.66635591  0.83108924  1
  I  I63  1  0.50405994  0.00055876  0.16948833  1
  I  I64  1  0.49952776  0.00440082  0.50065485  1
  I  I65  1  0.50340106  0.00364982  0.83141602  1
  I  I66  1  0.49894751  0.33263909  0.16777272  1
  I  I67  1  0.50000894  0.32998102  0.49608066  1
  I  I68  1  0.50314119  0.33177377  0.83679389  1
  I  I69  1  0.50380730  0.66670422  0.16446190  1
  I  I70  1  0.49898616  0.66678177  0.49983508  1
  I  I71  1  0.49900039  0.66392549  0.83531825  1
  I  I72  1  0.82499437  -0.00285966  0.17530720  1
  I  I73  1  0.83519095  0.00052855  0.49985598  1
  I  I74  1  0.82389596  0.00392421  0.82430910  1
  I  I75  1  0.83067449  0.33334752  0.16931682  1
  I  I76  1  0.83496321  0.33235018  0.50424781  1
  I  I77  1  0.82919485  0.32924924  0.82554993  1
  I  I78  1  0.82545905  0.67051927  0.17514309  1
  I  I79  1  0.83959757  0.66712521  0.49493770  1
  I  I80  1  0.83096488  0.66646563  0.83110832  1
  I  I81  1  0.16656370  0.16557305  -0.00002080  1
  I  I82  1  0.16600456  0.16603142  0.33833942  1
  I  I83  1  0.17227354  0.16632218  0.66214722  1
  I  I84  1  0.16556181  0.50036666  -0.00012733  1
  I  I85  1  0.16614759  0.49929796  0.33783317  1
  I  I86  1  0.16524374  0.49888278  0.66191038  1
  I  I87  1  0.16727266  0.83424302  0.00025881  1
  I  I88  1  0.16639517  0.83455091  0.33734824  1
  I  I89  1  0.16149378  0.83475459  0.66113439  1
  I  I90  1  0.50641705  0.16765511  -0.00020206  1
  I  I91  1  0.49927585  0.16723268  0.33368307  1
  I  I92  1  0.49988517  0.17185666  0.66621994  1
  I  I93  1  0.50131556  0.49399627  0.00049279  1
  I  I94  1  0.49929945  0.49857382  0.33123570  1
  I  I95  1  0.49910929  0.49374560  0.66860856  1
  I  I96  1  0.50677037  0.83808407  0.00471276  1
  I  I97  1  0.50048925  0.83259967  0.33043256  1
  I  I98  1  0.49907209  0.83262594  0.66660124  1
  I  I99  1  0.82428722  0.16380099  -0.00273948  1
  I  I100  1  0.83243473  0.16767350  0.33686872  1
  I  I101  1  0.82792625  0.16487573  0.66419387  1
  I  I102  1  0.83317450  0.50023830  -0.00006246  1
  I  I103  1  0.83412633  0.49397547  0.33734398  1
  I  I104  1  0.83457651  0.50462020  0.66244423  1
  I  I105  1  0.82442067  0.83601559  0.00320320  1
  I  I106  1  0.83234852  0.83615072  0.33525790  1
  I  I107  1  0.83779633  0.83222101  0.66309531  1
  I  I108  1  -0.00005366  0.16352884  0.16669602  1
  I  I109  1  -0.00089459  0.16604900  0.50523366  1
  I  I110  1  -0.00320311  0.16353568  0.82531474  1
  I  I111  1  -0.00019210  0.50124230  0.16607797  1
  I  I112  1  -0.00041473  0.49532015  0.49970387  1
  I  I113  1  -0.00011605  0.49933067  0.83417472  1
  I  I114  1  -0.00327666  0.83637840  0.17207990  1
  I  I115  1  -0.00107790  0.83832092  0.49431364  1
  I  I116  1  -0.00032617  0.83571894  0.83837509  1
  I  I117  1  0.33845688  0.16379839  0.16668954  1
  I  I118  1  0.33388266  0.16723240  0.49892672  1
  I  I119  1  0.33685832  0.17011812  0.83219281  1
  I  I120  1  0.33792384  0.50144275  0.16622600  1
  I  I121  1  0.33135622  0.49950980  0.49948033  1
  I  I122  1  0.33759625  0.49230663  0.83515951  1
  I  I123  1  0.33638033  0.83417404  0.16829309  1
  I  I124  1  0.33113913  0.83306937  0.49847952  1
  I  I125  1  0.33364438  0.83569794  0.83230244  1
  I  I126  1  0.66305459  0.16823852  0.17272437  1
  I  I127  1  0.66680609  0.16721394  0.50033268  1
  I  I128  1  0.66528092  0.16938982  0.82643631  1
  I  I129  1  0.66285380  0.49678122  0.16741368  1
  I  I130  1  0.66919208  0.49978757  0.49938777  1
  I  I131  1  0.66314411  0.49739025  0.83407958  1
  I  I132  1  0.66597014  0.83397548  0.17482725  1
  I  I133  1  0.66972283  0.83279825  0.49779222  1
  I  I134  1  0.66659008  0.83176734  0.82669315  1
