# generated using pymatgen
data_Cs27Sn14Pb13I81
_symmetry_space_group_name_H-M   'P 1'
_cell_length_a   18.95827813
_cell_length_b   18.96277738
_cell_length_c   18.96226168
_cell_angle_alpha   89.99981819
_cell_angle_beta   89.99949559
_cell_angle_gamma   90.00078872
_symmetry_Int_Tables_number   1
_chemical_formula_structural   Cs27Sn14Pb13I81
_chemical_formula_sum   'Cs27 Sn14 Pb13 I81'
_cell_volume   6816.96356036
_cell_formula_units_Z   1
loop_
 _symmetry_equiv_pos_site_id
 _symmetry_equiv_pos_as_xyz
  1  'x, y, z'
loop_
 _atom_site_type_symbol
 _atom_site_label
 _atom_site_symmetry_multiplicity
 _atom_site_fract_x
 _atom_site_fract_y
 _atom_site_fract_z
 _atom_site_occupancy
  Cs  Cs0  1  -0.00070968  0.00055664  -0.00079313  1
  Cs  Cs1  1  0.00259494  0.00109093  0.33647762  1
  Cs  Cs2  1  0.00056679  0.00077169  0.66780323  1
  Cs  Cs3  1  0.00090053  0.33361331  -0.00159286  1
  Cs  Cs4  1  -0.00093195  0.32792306  0.34293817  1
  Cs  Cs5  1  0.00098336  0.33199313  0.66419533  1
  Cs  Cs6  1  -0.00076032  0.66595522  0.00020536  1
  Cs  Cs7  1  0.00577340  0.66935397  0.33006479  1
  Cs  Cs8  1  -0.00145472  0.66676985  0.66933658  1
  Cs  Cs9  1  0.33529896  0.00277722  -0.00182380  1
  Cs  Cs10  1  0.33162349  -0.00157214  0.33519500  1
  Cs  Cs11  1  0.33507763  0.00017678  0.66734301  1
  Cs  Cs12  1  0.33251934  0.33269287  0.00002563  1
  Cs  Cs13  1  0.33362696  0.33531392  0.33684862  1
  Cs  Cs14  1  0.33176248  0.33703455  0.66359905  1
  Cs  Cs15  1  0.33234476  0.66440609  0.00221631  1
  Cs  Cs16  1  0.32990128  0.66726876  0.33171266  1
  Cs  Cs17  1  0.33375765  0.66308328  0.66556837  1
  Cs  Cs18  1  0.66475913  0.00080235  0.00050655  1
  Cs  Cs19  1  0.66655539  0.00019310  0.33162776  1
  Cs  Cs20  1  0.66379763  -0.00343458  0.66881440  1
  Cs  Cs21  1  0.66634140  0.33327944  0.00197149  1
  Cs  Cs22  1  0.66805909  0.33303703  0.33351273  1
  Cs  Cs23  1  0.66765626  0.33771410  0.66450280  1
  Cs  Cs24  1  0.66746533  0.66727243  0.00026393  1
  Cs  Cs25  1  0.66563255  0.66674179  0.33199304  1
  Cs  Cs26  1  0.66634771  0.66751688  0.66636796  1
  Sn  Sn27  1  0.50063797  0.16586098  0.49996256  1
  Sn  Sn28  1  0.83346077  0.16661172  0.83367440  1
  Sn  Sn29  1  0.83291542  0.50044663  0.16610763  1
  Sn  Sn30  1  0.16621579  0.83396799  0.83371189  1
  Sn  Sn31  1  0.50088441  0.50006450  0.83442407  1
  Sn  Sn32  1  0.50089944  0.50082607  0.16563120  1
  Sn  Sn33  1  0.83270062  0.83288823  0.16679243  1
  Sn  Sn34  1  0.16602482  0.16567797  0.83435869  1
  Sn  Sn35  1  0.16650485  0.16671063  0.16614455  1
  Sn  Sn36  1  0.83394843  0.83354494  0.83358916  1
  Sn  Sn37  1  0.50088649  0.83414410  0.49895604  1
  Sn  Sn38  1  0.83232869  0.49990716  0.83420358  1
  Sn  Sn39  1  0.50059416  0.83287773  0.16723387  1
  Sn  Sn40  1  0.83269693  0.83317717  0.49970972  1
  Pb  Pb41  1  0.16577859  0.49727386  0.16671160  1
  Pb  Pb42  1  0.50000829  0.83143273  0.83370126  1
  Pb  Pb43  1  0.49821234  0.16678961  0.16848250  1
  Pb  Pb44  1  0.16665727  0.83518407  0.16432462  1
  Pb  Pb45  1  0.16600710  0.49977480  0.83342729  1
  Pb  Pb46  1  0.16686144  0.83326638  0.50293606  1
  Pb  Pb47  1  0.83508993  0.16664813  0.16503057  1
  Pb  Pb48  1  0.16611922  0.50037313  0.49973489  1
  Pb  Pb49  1  0.16894649  0.16634766  0.50094148  1
  Pb  Pb50  1  0.50025909  0.50108270  0.49908076  1
  Pb  Pb51  1  0.83347241  0.50290623  0.49936828  1
  Pb  Pb52  1  0.83098369  0.16391743  0.50290878  1
  Pb  Pb53  1  0.49998015  0.16950697  0.83152174  1
  I  I54  1  0.16682723  0.00279017  0.16343781  1
  I  I55  1  0.16584233  -0.00019134  0.49869620  1
  I  I56  1  0.15916799  0.00020193  0.83623531  1
  I  I57  1  0.16785281  0.32971062  0.15886062  1
  I  I58  1  0.16930796  0.33278050  0.50166019  1
  I  I59  1  0.16418994  0.33029009  0.83632833  1
  I  I60  1  0.16736841  0.66683014  0.16554425  1
  I  I61  1  0.16997835  0.66745794  0.50182602  1
  I  I62  1  0.16330312  0.66928128  0.83223710  1
  I  I63  1  0.50358470  -0.00302899  0.16855855  1
  I  I64  1  0.50313293  -0.00182610  0.49601977  1
  I  I65  1  0.50161987  -0.00011410  0.83462256  1
  I  I66  1  0.50305741  0.33634748  0.16413838  1
  I  I67  1  0.49715769  0.33154578  0.50155389  1
  I  I68  1  0.50355585  0.33726405  0.83731822  1
  I  I69  1  0.50312813  0.66721350  0.16817092  1
  I  I70  1  0.50448912  0.67007923  0.50014835  1
  I  I71  1  0.50340764  0.66364343  0.83214586  1
  I  I72  1  0.82989936  -0.00336925  0.16512494  1
  I  I73  1  0.83175132  -0.00426287  0.49906305  1
  I  I74  1  0.83836789  -0.00103472  0.83291452  1
  I  I75  1  0.82946211  0.33627387  0.16057856  1
  I  I76  1  0.83262928  0.33313047  0.50026071  1
  I  I77  1  0.83318870  0.33398366  0.83820442  1
  I  I78  1  0.82952322  0.66758235  0.16184956  1
  I  I79  1  0.82568688  0.67102143  0.50595249  1
  I  I80  1  0.83361535  0.66741017  0.83310459  1
  I  I81  1  0.16446856  0.16302506  -0.00171417  1
  I  I82  1  0.16793477  0.16765346  0.33116496  1
  I  I83  1  0.16321494  0.16329957  0.67030623  1
  I  I84  1  0.16856540  0.50106891  -0.00009056  1
  I  I85  1  0.16802779  0.49809061  0.33259775  1
  I  I86  1  0.16884021  0.49830252  0.66741853  1
  I  I87  1  0.16249781  0.83528235  -0.00362975  1
  I  I88  1  0.16440666  0.83518504  0.33303286  1
  I  I89  1  0.16301847  0.83911742  0.67101729  1
  I  I90  1  0.50016839  0.16458694  -0.00013536  1
  I  I91  1  0.49801321  0.16649698  0.33619896  1
  I  I92  1  0.49910970  0.16046358  0.66395328  1
  I  I93  1  0.50362747  0.50501350  0.00062715  1
  I  I94  1  0.50426598  0.50027028  0.32978193  1
  I  I95  1  0.50303775  0.49990360  0.66914500  1
  I  I96  1  0.50283281  0.83111951  0.00272086  1
  I  I97  1  0.50695065  0.83218799  0.33265408  1
  I  I98  1  0.50254352  0.83533215  0.66470360  1
  I  I99  1  0.83399011  0.16244713  -0.00350264  1
  I  I100  1  0.83536191  0.16756071  0.33345036  1
  I  I101  1  0.83961312  0.16811214  0.67124141  1
  I  I102  1  0.82923939  0.50493533  -0.00082097  1
  I  I103  1  0.82811709  0.50338614  0.32951771  1
  I  I104  1  0.82978694  0.50076494  0.67009919  1
  I  I105  1  0.83336410  0.83239789  -0.00031542  1
  I  I106  1  0.82804590  0.82877878  0.33230605  1
  I  I107  1  0.83304020  0.83376966  0.66776013  1
  I  I108  1  0.00286393  0.16606346  0.16389268  1
  I  I109  1  -0.00028630  0.16622882  0.49853254  1
  I  I110  1  -0.00046795  0.16707473  0.83676337  1
  I  I111  1  -0.00391088  0.50579180  0.16025824  1
  I  I112  1  -0.00084922  0.50037123  0.50110511  1
  I  I113  1  -0.00378069  0.50118146  0.83767458  1
  I  I114  1  -0.00338688  0.82965586  0.16823649  1
  I  I115  1  -0.00335235  0.83204651  0.49788560  1
  I  I116  1  -0.00212417  0.83197114  0.83296027  1
  I  I117  1  0.33048298  0.16594136  0.15977950  1
  I  I118  1  0.33671591  0.16071517  0.50166895  1
  I  I119  1  0.33070917  0.16272780  0.83508107  1
  I  I120  1  0.33651097  0.50355590  0.16322312  1
  I  I121  1  0.33404120  0.50091696  0.50194195  1
  I  I122  1  0.33600586  0.50062356  0.83607489  1
  I  I123  1  0.33631380  0.83006206  0.17000944  1
  I  I124  1  0.33675577  0.83627955  0.49690181  1
  I  I125  1  0.33127087  0.83694052  0.83327964  1
  I  I126  1  0.66675835  0.16645707  0.16594255  1
  I  I127  1  0.66341746  0.16501328  0.50038924  1
  I  I128  1  0.66955720  0.16311778  0.83177302  1
  I  I129  1  0.66672263  0.50365563  0.16176669  1
  I  I130  1  0.66669467  0.49689049  0.50252769  1
  I  I131  1  0.66793485  0.50045375  0.83630718  1
  I  I132  1  0.66722545  0.83056024  0.16527983  1
  I  I133  1  0.66666010  0.83704844  0.50238392  1
  I  I134  1  0.66977461  0.83555127  0.83276675  1
