# generated using pymatgen
data_Cs27Sn14Pb13I81
_symmetry_space_group_name_H-M   'P 1'
_cell_length_a   18.97638679
_cell_length_b   18.96443174
_cell_length_c   18.98586233
_cell_angle_alpha   90.00039919
_cell_angle_beta   89.99989040
_cell_angle_gamma   90.00048293
_symmetry_Int_Tables_number   1
_chemical_formula_structural   Cs27Sn14Pb13I81
_chemical_formula_sum   'Cs27 Sn14 Pb13 I81'
_cell_volume   6832.56363355
_cell_formula_units_Z   1
loop_
 _symmetry_equiv_pos_site_id
 _symmetry_equiv_pos_as_xyz
  1  'x, y, z'
loop_
 _atom_site_type_symbol
 _atom_site_label
 _atom_site_symmetry_multiplicity
 _atom_site_fract_x
 _atom_site_fract_y
 _atom_site_fract_z
 _atom_site_occupancy
  Cs  Cs0  1  -0.00554035  -0.00031604  0.00044060  1
  Cs  Cs1  1  -0.00780264  0.00218507  0.33603528  1
  Cs  Cs2  1  -0.00257835  0.00338735  0.66461261  1
  Cs  Cs3  1  0.00133604  0.33439295  -0.00192285  1
  Cs  Cs4  1  0.00117057  0.33292856  0.33704922  1
  Cs  Cs5  1  0.00120320  0.33238321  0.66635300  1
  Cs  Cs6  1  0.00414580  0.66608199  0.00344774  1
  Cs  Cs7  1  0.00303806  0.66606104  0.32929405  1
  Cs  Cs8  1  0.00282475  0.66460835  0.66733156  1
  Cs  Cs9  1  0.33482417  0.00234795  0.00143692  1
  Cs  Cs10  1  0.33613183  0.00109602  0.32998508  1
  Cs  Cs11  1  0.33138633  0.00112797  0.66728887  1
  Cs  Cs12  1  0.33363762  0.33247580  -0.00130620  1
  Cs  Cs13  1  0.33505493  0.33247170  0.33488066  1
  Cs  Cs14  1  0.33410748  0.33263180  0.66722691  1
  Cs  Cs15  1  0.32989757  0.66833610  0.00017453  1
  Cs  Cs16  1  0.33108116  0.66793771  0.33227070  1
  Cs  Cs17  1  0.33318622  0.66625151  0.66732300  1
  Cs  Cs18  1  0.67475271  -0.00517806  0.00709013  1
  Cs  Cs19  1  0.67230955  -0.00783220  0.32540045  1
  Cs  Cs20  1  0.67274509  -0.01105086  0.66710544  1
  Cs  Cs21  1  0.66511179  0.33269902  0.00121875  1
  Cs  Cs22  1  0.66375026  0.33410495  0.33068512  1
  Cs  Cs23  1  0.66285227  0.33605128  0.66796294  1
  Cs  Cs24  1  0.66663453  0.66756817  -0.00260091  1
  Cs  Cs25  1  0.66681040  0.66700751  0.33720090  1
  Cs  Cs26  1  0.66527421  0.66807102  0.66549895  1
  Sn  Sn27  1  0.83339507  0.49948407  0.50009720  1
  Sn  Sn28  1  0.49976146  0.49933772  0.50004516  1
  Sn  Sn29  1  0.50046787  0.49993831  0.16644182  1
  Sn  Sn30  1  0.49983906  0.49947329  0.83352658  1
  Sn  Sn31  1  0.16649549  0.16699965  0.16593571  1
  Sn  Sn32  1  0.16693511  0.50064328  0.50089208  1
  Sn  Sn33  1  0.16684542  0.49975767  0.83246847  1
  Sn  Sn34  1  0.16722003  0.83296575  0.50060780  1
  Sn  Sn35  1  0.16702242  0.83374992  0.83241640  1
  Sn  Sn36  1  0.16737019  0.16659190  0.83431170  1
  Sn  Sn37  1  0.83235862  0.49941147  0.16661660  1
  Sn  Sn38  1  0.83322477  0.49952478  0.83334151  1
  Sn  Sn39  1  0.50045228  0.16655426  0.50110214  1
  Sn  Sn40  1  0.50011280  0.16669298  0.83232859  1
  Pb  Pb41  1  0.83585224  0.16958455  0.16667789  1
  Pb  Pb42  1  0.49889946  0.16837610  0.16616242  1
  Pb  Pb43  1  0.49965501  0.83014651  0.16650840  1
  Pb  Pb44  1  0.49772760  0.83361525  0.50013752  1
  Pb  Pb45  1  0.83654373  0.83016857  0.83321824  1
  Pb  Pb46  1  0.83648640  0.83036094  0.50015299  1
  Pb  Pb47  1  0.83367160  0.82985681  0.16665319  1
  Pb  Pb48  1  0.83230961  0.16870550  0.83299193  1
  Pb  Pb49  1  0.16666167  0.83676156  0.16690670  1
  Pb  Pb50  1  0.16815491  0.16668083  0.50053686  1
  Pb  Pb51  1  0.16697907  0.49839207  0.16688921  1
  Pb  Pb52  1  0.82896417  0.16904479  0.50033909  1
  Pb  Pb53  1  0.49797462  0.83403847  0.83340631  1
  I  I54  1  0.16982539  0.00438769  0.16260595  1
  I  I55  1  0.17011568  -0.00216806  0.50336551  1
  I  I56  1  0.17326012  0.00082204  0.83318223  1
  I  I57  1  0.16683606  0.33104771  0.16192147  1
  I  I58  1  0.16465719  0.33667350  0.50239087  1
  I  I59  1  0.16683459  0.33459448  0.83347560  1
  I  I60  1  0.16614879  0.66638791  0.16462702  1
  I  I61  1  0.16806111  0.66417591  0.50700806  1
  I  I62  1  0.16625723  0.66482570  0.82902131  1
  I  I63  1  0.49703057  0.00049709  0.16751221  1
  I  I64  1  0.49419386  0.00333100  0.50584910  1
  I  I65  1  0.49209628  0.00382733  0.82739677  1
  I  I66  1  0.50282810  0.33709980  0.16695229  1
  I  I67  1  0.49677252  0.33585390  0.50071678  1
  I  I68  1  0.49475825  0.33528236  0.83257659  1
  I  I69  1  0.50194395  0.66103187  0.16695105  1
  I  I70  1  0.50227433  0.66259860  0.50078723  1
  I  I71  1  0.49989463  0.66270481  0.83246814  1
  I  I72  1  0.83433962  0.00012060  0.16690938  1
  I  I73  1  0.83433698  -0.00012537  0.49928936  1
  I  I74  1  0.83322310  -0.00018102  0.83399334  1
  I  I75  1  0.82923529  0.33790637  0.16622549  1
  I  I76  1  0.84125700  0.33817225  0.50048524  1
  I  I77  1  0.83907414  0.33783884  0.83296558  1
  I  I78  1  0.83195270  0.66131499  0.16654540  1
  I  I79  1  0.82718966  0.66141862  0.50067122  1
  I  I80  1  0.83147698  0.66120401  0.83287295  1
  I  I81  1  0.17260112  0.16907529  -0.00244463  1
  I  I82  1  0.16887893  0.16941709  0.33199935  1
  I  I83  1  0.16866025  0.16804250  0.66978048  1
  I  I84  1  0.16636962  0.50200819  -0.00309138  1
  I  I85  1  0.16652655  0.50240366  0.33622510  1
  I  I86  1  0.16625663  0.49891950  0.66747706  1
  I  I87  1  0.16706525  0.82776568  -0.00326772  1
  I  I88  1  0.16735212  0.82644975  0.33643173  1
  I  I89  1  0.16767355  0.83158576  0.66730764  1
  I  I90  1  0.49476964  0.17389717  -0.00333236  1
  I  I91  1  0.49529017  0.17425502  0.33568973  1
  I  I92  1  0.49117407  0.17862347  0.66755100  1
  I  I93  1  0.50187902  0.49633033  -0.00125294  1
  I  I94  1  0.50174337  0.49625998  0.33438610  1
  I  I95  1  0.50085173  0.49677516  0.66687635  1
  I  I96  1  0.49579372  0.83191691  -0.00024844  1
  I  I97  1  0.49567502  0.83333136  0.33353136  1
  I  I98  1  0.50086512  0.82797353  0.66675643  1
  I  I99  1  0.83064440  0.17063288  -0.00018273  1
  I  I100  1  0.83652423  0.17087018  0.33353613  1
  I  I101  1  0.84065746  0.16992890  0.66665192  1
  I  I102  1  0.83172979  0.49955385  -0.00068892  1
  I  I103  1  0.83131371  0.49979870  0.33388847  1
  I  I104  1  0.83256498  0.49985697  0.66678527  1
  I  I105  1  0.83576024  0.83076807  -0.00022237  1
  I  I106  1  0.83625095  0.83125261  0.33354668  1
  I  I107  1  0.83124926  0.83086449  0.66668371  1
  I  I108  1  0.00392015  0.16925642  0.16036744  1
  I  I109  1  -0.00002058  0.16734860  0.49923136  1
  I  I110  1  0.00325995  0.16835126  0.83719736  1
  I  I111  1  -0.00212003  0.49842459  0.16647043  1
  I  I112  1  0.00082257  0.50459908  0.50207194  1
  I  I113  1  0.00127876  0.50032140  0.83129876  1
  I  I114  1  0.00045410  0.82962313  0.16620453  1
  I  I115  1  0.00454192  0.82865053  0.50450846  1
  I  I116  1  0.00486234  0.83360890  0.82935497  1
  I  I117  1  0.33088249  0.17083555  0.16490847  1
  I  I118  1  0.33587574  0.17453891  0.50091935  1
  I  I119  1  0.33255151  0.17284884  0.83337624  1
  I  I120  1  0.33585873  0.49782226  0.16697398  1
  I  I121  1  0.33330685  0.50012422  0.50201907  1
  I  I122  1  0.33283349  0.49976247  0.83126279  1
  I  I123  1  0.33273287  0.82904662  0.16718325  1
  I  I124  1  0.32979476  0.82521919  0.50432643  1
  I  I125  1  0.32959688  0.82672713  0.82946666  1
  I  I126  1  0.66660405  0.16665265  0.16660438  1
  I  I127  1  0.66117487  0.17544623  0.50603944  1
  I  I128  1  0.66273443  0.17534339  0.82891034  1
  I  I129  1  0.66624624  0.49885074  0.16667445  1
  I  I130  1  0.66593852  0.49490970  0.50167539  1
  I  I131  1  0.66573332  0.49507215  0.83177617  1
  I  I132  1  0.66677924  0.83726022  0.16661226  1
  I  I133  1  0.66677793  0.83265121  0.49901956  1
  I  I134  1  0.66685802  0.83281781  0.83421140  1
