# generated using pymatgen
data_Cs27Sn14Pb13I81
_symmetry_space_group_name_H-M   'P 1'
_cell_length_a   18.98246850
_cell_length_b   18.97265358
_cell_length_c   18.97275445
_cell_angle_alpha   90.00072898
_cell_angle_beta   89.99831303
_cell_angle_gamma   89.99899449
_symmetry_Int_Tables_number   1
_chemical_formula_structural   Cs27Sn14Pb13I81
_chemical_formula_sum   'Cs27 Sn14 Pb13 I81'
_cell_volume   6832.99574956
_cell_formula_units_Z   1
loop_
 _symmetry_equiv_pos_site_id
 _symmetry_equiv_pos_as_xyz
  1  'x, y, z'
loop_
 _atom_site_type_symbol
 _atom_site_label
 _atom_site_symmetry_multiplicity
 _atom_site_fract_x
 _atom_site_fract_y
 _atom_site_fract_z
 _atom_site_occupancy
  Cs  Cs0  1  0.00000272  0.00137319  0.00203419  1
  Cs  Cs1  1  0.00023483  0.00031153  0.33252195  1
  Cs  Cs2  1  0.00456184  0.00675017  0.66701283  1
  Cs  Cs3  1  0.00002056  0.33297564  -0.00277657  1
  Cs  Cs4  1  0.00039319  0.33544090  0.33194927  1
  Cs  Cs5  1  -0.00168014  0.32621212  0.67661927  1
  Cs  Cs6  1  -0.00061479  0.66611858  -0.00148379  1
  Cs  Cs7  1  -0.00186289  0.66553211  0.33351100  1
  Cs  Cs8  1  -0.00193806  0.66668091  0.66861584  1
  Cs  Cs9  1  0.33511830  -0.00040214  -0.00154264  1
  Cs  Cs10  1  0.33261592  -0.00111403  0.34060327  1
  Cs  Cs11  1  0.32616611  -0.00871815  0.65869477  1
  Cs  Cs12  1  0.33575655  0.33377029  0.00278798  1
  Cs  Cs13  1  0.33385478  0.33572451  0.33076725  1
  Cs  Cs14  1  0.33497090  0.33222654  0.66783445  1
  Cs  Cs15  1  0.33436612  0.66814242  -0.00250336  1
  Cs  Cs16  1  0.33214354  0.66262996  0.33368322  1
  Cs  Cs17  1  0.33108532  0.67329023  0.66838905  1
  Cs  Cs18  1  0.66556632  -0.00417978  0.00204668  1
  Cs  Cs19  1  0.66635479  -0.00188270  0.33491056  1
  Cs  Cs20  1  0.66692081  0.00129124  0.66261843  1
  Cs  Cs21  1  0.66426072  0.33384568  -0.00081323  1
  Cs  Cs22  1  0.66586996  0.33467304  0.33364175  1
  Cs  Cs23  1  0.66745024  0.33173152  0.66793787  1
  Cs  Cs24  1  0.66714220  0.66988895  -0.00003735  1
  Cs  Cs25  1  0.66960736  0.66633474  0.33305818  1
  Cs  Cs26  1  0.66866876  0.66617837  0.66686683  1
  Sn  Sn27  1  0.83359740  0.83278032  0.50121634  1
  Sn  Sn28  1  0.49958319  0.16666617  0.83365542  1
  Sn  Sn29  1  0.50001904  0.49953441  0.83343850  1
  Sn  Sn30  1  0.83339362  0.83362287  0.83201185  1
  Sn  Sn31  1  0.83327443  0.49919892  0.16696477  1
  Sn  Sn32  1  0.16590914  0.49956924  0.49999338  1
  Sn  Sn33  1  0.83399972  0.50011605  0.49979061  1
  Sn  Sn34  1  0.50007334  0.16725998  0.16610065  1
  Sn  Sn35  1  0.16723646  0.16679138  0.16672796  1
  Sn  Sn36  1  0.16645460  0.50003471  0.16697039  1
  Sn  Sn37  1  0.49999520  0.50000975  0.50025295  1
  Sn  Sn38  1  0.83275173  0.16780421  0.16684878  1
  Sn  Sn39  1  0.50032704  0.49965318  0.16654224  1
  Sn  Sn40  1  0.16710679  0.83293129  0.16666316  1
  Pb  Pb41  1  0.50232254  0.83032704  0.49979582  1
  Pb  Pb42  1  0.49730189  0.83338509  0.16686504  1
  Pb  Pb43  1  0.50169384  0.83401670  0.83323715  1
  Pb  Pb44  1  0.16661180  0.16993724  0.49766053  1
  Pb  Pb45  1  0.83120605  0.50090584  0.83352135  1
  Pb  Pb46  1  0.49986672  0.16881152  0.49976461  1
  Pb  Pb47  1  0.83073863  0.16408958  0.83624502  1
  Pb  Pb48  1  0.83500264  0.83304669  0.16719605  1
  Pb  Pb49  1  0.16381379  0.83066137  0.49778164  1
  Pb  Pb50  1  0.17003794  0.16669975  0.83574847  1
  Pb  Pb51  1  0.16936842  0.49992259  0.83340911  1
  Pb  Pb52  1  0.83339447  0.16757288  0.49774462  1
  Pb  Pb53  1  0.16397747  0.83332249  0.83558905  1
  I  I54  1  0.16448865  0.00086947  0.16388125  1
  I  I55  1  0.16571437  -0.00015745  0.49784540  1
  I  I56  1  0.16870820  0.00007301  0.83643968  1
  I  I57  1  0.16729622  0.33422353  0.17082256  1
  I  I58  1  0.16495326  0.33821551  0.49252927  1
  I  I59  1  0.16196883  0.33342764  0.83419636  1
  I  I60  1  0.16572827  0.66481702  0.17050046  1
  I  I61  1  0.17005889  0.66260385  0.49220165  1
  I  I62  1  0.17014426  0.66644775  0.83784005  1
  I  I63  1  0.50143481  0.00353282  0.16015775  1
  I  I64  1  0.50194878  -0.00002412  0.49954444  1
  I  I65  1  0.50288977  0.00328738  0.84341283  1
  I  I66  1  0.49691110  0.33478331  0.16645931  1
  I  I67  1  0.50346764  0.33775682  0.49819774  1
  I  I68  1  0.50129702  0.33444346  0.83581588  1
  I  I69  1  0.50111621  0.66270836  0.16641319  1
  I  I70  1  0.49756807  0.66151290  0.49821304  1
  I  I71  1  0.50102324  0.66354700  0.83498655  1
  I  I72  1  0.83354954  0.00250898  0.16575289  1
  I  I73  1  0.83262721  -0.00255574  0.50121558  1
  I  I74  1  0.83106212  -0.00342145  0.82952475  1
  I  I75  1  0.83629927  0.33480910  0.17165805  1
  I  I76  1  0.83198885  0.33739169  0.49586345  1
  I  I77  1  0.83423198  0.33304473  0.83126464  1
  I  I78  1  0.83285149  0.66339413  0.16754182  1
  I  I79  1  0.83218185  0.66468480  0.49655871  1
  I  I80  1  0.83019249  0.66874459  0.83570412  1
  I  I81  1  0.16340949  0.17095214  0.00477536  1
  I  I82  1  0.16967333  0.16468468  0.32856839  1
  I  I83  1  0.16715466  0.16748957  0.66665972  1
  I  I84  1  0.16579547  0.49932106  0.00407130  1
  I  I85  1  0.17053469  0.50000150  0.33158699  1
  I  I86  1  0.16650407  0.50209832  0.66344173  1
  I  I87  1  0.16407060  0.82965090  0.00398057  1
  I  I88  1  0.16415374  0.83538254  0.32977370  1
  I  I89  1  0.16834972  0.83138286  0.66624634  1
  I  I90  1  0.49980077  0.17561464  0.00184912  1
  I  I91  1  0.49977774  0.17090395  0.32947805  1
  I  I92  1  0.50293634  0.17321770  0.66943413  1
  I  I93  1  0.50001426  0.49618014  0.00144609  1
  I  I94  1  0.49991407  0.49690058  0.33231280  1
  I  I95  1  0.50147306  0.49596795  0.66635211  1
  I  I96  1  0.50333136  0.82769193  0.00020776  1
  I  I97  1  0.50349966  0.83461765  0.33318281  1
  I  I98  1  0.49827015  0.83305125  0.66654082  1
  I  I99  1  0.83635950  0.17152440  0.00450736  1
  I  I100  1  0.83051921  0.16588162  0.32902434  1
  I  I101  1  0.83133072  0.16871478  0.66688348  1
  I  I102  1  0.83394620  0.49853036  0.00347983  1
  I  I103  1  0.82950819  0.50253947  0.33244825  1
  I  I104  1  0.83265417  0.50402743  0.66374279  1
  I  I105  1  0.83431613  0.83334916  -0.00128729  1
  I  I106  1  0.83467716  0.83054704  0.33550738  1
  I  I107  1  0.83136627  0.82437217  0.66566358  1
  I  I108  1  0.00002777  0.16912806  0.16881453  1
  I  I109  1  -0.00009062  0.16833165  0.49752631  1
  I  I110  1  -0.00012386  0.16516565  0.83477885  1
  I  I111  1  -0.00005522  0.49822545  0.17358409  1
  I  I112  1  -0.00057422  0.50575179  0.48862219  1
  I  I113  1  -0.00013287  0.50255358  0.83435671  1
  I  I114  1  0.00271777  0.83266565  0.16668979  1
  I  I115  1  -0.00375211  0.82559010  0.50181251  1
  I  I116  1  -0.00380400  0.83063249  0.83047940  1
  I  I117  1  0.33369937  0.17110662  0.16231896  1
  I  I118  1  0.33333092  0.16791517  0.49775765  1
  I  I119  1  0.33781398  0.17285841  0.84085881  1
  I  I120  1  0.33358347  0.49794021  0.16929843  1
  I  I121  1  0.33355955  0.49755952  0.49452006  1
  I  I122  1  0.33761289  0.49664370  0.83528806  1
  I  I123  1  0.32946424  0.83140940  0.16616456  1
  I  I124  1  0.33284447  0.83296165  0.49921513  1
  I  I125  1  0.33330506  0.83276915  0.83517139  1
  I  I126  1  0.66620007  0.17391722  0.16332584  1
  I  I127  1  0.66667178  0.16805297  0.49649627  1
  I  I128  1  0.66322762  0.17201797  0.84033003  1
  I  I129  1  0.66654481  0.49420894  0.16926030  1
  I  I130  1  0.66686204  0.50395586  0.49581454  1
  I  I131  1  0.66316995  0.49738165  0.83466058  1
  I  I132  1  0.66686630  0.83327212  0.16638302  1
  I  I133  1  0.67035380  0.82754969  0.50086903  1
  I  I134  1  0.66954006  0.83167332  0.83250082  1
