# generated using pymatgen
data_Cs27Sn13Pb14I81
_symmetry_space_group_name_H-M   'P 1'
_cell_length_a   18.97911465
_cell_length_b   18.97619794
_cell_length_c   18.97611798
_cell_angle_alpha   90.00165001
_cell_angle_beta   89.99926118
_cell_angle_gamma   90.00085880
_symmetry_Int_Tables_number   1
_chemical_formula_structural   Cs27Sn13Pb14I81
_chemical_formula_sum   'Cs27 Sn13 Pb14 I81'
_cell_volume   6834.27613989
_cell_formula_units_Z   1
loop_
 _symmetry_equiv_pos_site_id
 _symmetry_equiv_pos_as_xyz
  1  'x, y, z'
loop_
 _atom_site_type_symbol
 _atom_site_label
 _atom_site_symmetry_multiplicity
 _atom_site_fract_x
 _atom_site_fract_y
 _atom_site_fract_z
 _atom_site_occupancy
  Cs  Cs0  1  -0.00527598  -0.00063809  0.00564007  1
  Cs  Cs1  1  -0.00157485  -0.00007922  0.32962173  1
  Cs  Cs2  1  0.00549687  -0.00029785  0.66546017  1
  Cs  Cs3  1  -0.00749342  0.33968435  -0.00741024  1
  Cs  Cs4  1  -0.00388998  0.33050253  0.33350073  1
  Cs  Cs5  1  0.00362280  0.33517009  0.67363563  1
  Cs  Cs6  1  0.00450536  0.66176175  0.00465219  1
  Cs  Cs7  1  -0.00602249  0.66766485  0.32904368  1
  Cs  Cs8  1  -0.00259554  0.66564275  0.66650488  1
  Cs  Cs9  1  0.33507018  -0.00131104  0.00051630  1
  Cs  Cs10  1  0.33301998  0.00106838  0.33410063  1
  Cs  Cs11  1  0.33369632  0.00003303  0.66589594  1
  Cs  Cs12  1  0.33106753  0.33646404  -0.00000725  1
  Cs  Cs13  1  0.33427506  0.33227433  0.33477881  1
  Cs  Cs14  1  0.33112684  0.33151520  0.66556432  1
  Cs  Cs15  1  0.33193715  0.66580018  0.00203303  1
  Cs  Cs16  1  0.33415846  0.66566441  0.33277913  1
  Cs  Cs17  1  0.33508860  0.66827380  0.66605438  1
  Cs  Cs18  1  0.66677981  0.00282656  -0.00100136  1
  Cs  Cs19  1  0.66700067  0.00089634  0.33417376  1
  Cs  Cs20  1  0.66460399  -0.00174890  0.66702485  1
  Cs  Cs21  1  0.67439928  0.33085680  0.00079011  1
  Cs  Cs22  1  0.66658405  0.33361024  0.33221763  1
  Cs  Cs23  1  0.66710810  0.33386544  0.66734816  1
  Cs  Cs24  1  0.66364793  0.66488944  -0.00085113  1
  Cs  Cs25  1  0.66987074  0.66388549  0.33530295  1
  Cs  Cs26  1  0.66637267  0.66846420  0.66498107  1
  Sn  Sn27  1  0.16666471  0.83364807  0.83300054  1
  Sn  Sn28  1  0.49919505  0.50011755  0.50091251  1
  Sn  Sn29  1  0.16728973  0.50116429  0.49951421  1
  Sn  Sn30  1  0.83264690  0.16639215  0.50082529  1
  Sn  Sn31  1  0.49864853  0.16601579  0.16726679  1
  Sn  Sn32  1  0.49984541  0.83404066  0.16711086  1
  Sn  Sn33  1  0.16731367  0.83210037  0.50020748  1
  Sn  Sn34  1  0.50091027  0.16657608  0.49944140  1
  Sn  Sn35  1  0.49966703  0.83263519  0.83342839  1
  Sn  Sn36  1  0.49936597  0.83320860  0.49952865  1
  Sn  Sn37  1  0.16751484  0.16719431  0.16604819  1
  Sn  Sn38  1  0.83365192  0.83336825  0.83329441  1
  Sn  Sn39  1  0.49977020  0.50045484  0.83249438  1
  Pb  Pb40  1  0.83333112  0.50011982  0.16672810  1
  Pb  Pb41  1  0.16697695  0.16647229  0.49888157  1
  Pb  Pb42  1  0.83342141  0.49764629  0.50023199  1
  Pb  Pb43  1  0.83279544  0.16659457  0.16850977  1
  Pb  Pb44  1  0.50005052  0.49950187  0.16680903  1
  Pb  Pb45  1  0.83337565  0.16417447  0.83038799  1
  Pb  Pb46  1  0.49975240  0.16697622  0.83352010  1
  Pb  Pb47  1  0.16691780  0.49701395  0.16968363  1
  Pb  Pb48  1  0.16915422  0.50257326  0.83110380  1
  Pb  Pb49  1  0.82997821  0.83326230  0.16388372  1
  Pb  Pb50  1  0.83363683  0.83497071  0.50152511  1
  Pb  Pb51  1  0.16869835  0.83459894  0.16715558  1
  Pb  Pb52  1  0.83043669  0.50292911  0.83285820  1
  Pb  Pb53  1  0.16679154  0.16414438  0.83670824  1
  I  I54  1  0.17012976  0.00242479  0.16979645  1
  I  I55  1  0.17045125  -0.00297249  0.50321265  1
  I  I56  1  0.17170819  -0.00454533  0.82478287  1
  I  I57  1  0.17600429  0.32920268  0.17037099  1
  I  I58  1  0.17101471  0.33545612  0.49706577  1
  I  I59  1  0.16830222  0.33375832  0.83182867  1
  I  I60  1  0.16795030  0.66672366  0.16470583  1
  I  I61  1  0.17594194  0.66785071  0.50415302  1
  I  I62  1  0.16593141  0.67094416  0.83273549  1
  I  I63  1  0.49663840  -0.00025970  0.16966025  1
  I  I64  1  0.49985388  -0.00086591  0.50012169  1
  I  I65  1  0.49999298  -0.00364001  0.83081816  1
  I  I66  1  0.49668632  0.33000723  0.17126249  1
  I  I67  1  0.49966215  0.33328328  0.49980942  1
  I  I68  1  0.49929599  0.33624770  0.82898010  1
  I  I69  1  0.50022743  0.66972559  0.16785601  1
  I  I70  1  0.49571971  0.66765102  0.50087463  1
  I  I71  1  0.50066865  0.66861611  0.83020500  1
  I  I72  1  0.83483018  -0.00009325  0.16646280  1
  I  I73  1  0.82788246  0.00269715  0.50084529  1
  I  I74  1  0.82809833  -0.00380423  0.83314647  1
  I  I75  1  0.83045095  0.33276400  0.16735182  1
  I  I76  1  0.82811832  0.32975319  0.49774171  1
  I  I77  1  0.83181427  0.33357123  0.83405222  1
  I  I78  1  0.83188353  0.66725455  0.16881348  1
  I  I79  1  0.83072939  0.66681601  0.50125155  1
  I  I80  1  0.83348377  0.67081918  0.83005180  1
  I  I81  1  0.17597823  0.16366899  0.00436353  1
  I  I82  1  0.16947600  0.16403296  0.33129071  1
  I  I83  1  0.16660940  0.16760484  0.66650534  1
  I  I84  1  0.16803881  0.50068358  -0.00020740  1
  I  I85  1  0.17551559  0.50694656  0.33790668  1
  I  I86  1  0.16938064  0.49912309  0.66299345  1
  I  I87  1  0.16886048  0.83651313  -0.00263205  1
  I  I88  1  0.17234771  0.83193940  0.33667492  1
  I  I89  1  0.17189194  0.83166992  0.66590127  1
  I  I90  1  0.49612709  0.16203374  0.00304862  1
  I  I91  1  0.50002296  0.16310942  0.33451369  1
  I  I92  1  0.50335724  0.16380645  0.66330532  1
  I  I93  1  0.50035033  0.50512149  -0.00280340  1
  I  I94  1  0.49667094  0.50214931  0.33696341  1
  I  I95  1  0.49744039  0.50365707  0.66531676  1
  I  I96  1  0.50014960  0.83368571  -0.00084285  1
  I  I97  1  0.49477352  0.83454972  0.33469489  1
  I  I98  1  0.49993949  0.83335967  0.66623890  1
  I  I99  1  0.83221734  0.16593825  -0.00005879  1
  I  I100  1  0.83100596  0.16481245  0.33647029  1
  I  I101  1  0.82546889  0.16629186  0.66262462  1
  I  I102  1  0.83101665  0.49872192  -0.00061057  1
  I  I103  1  0.83059722  0.50061076  0.33407308  1
  I  I104  1  0.83392823  0.49850175  0.66652432  1
  I  I105  1  0.83357985  0.83475789  -0.00422311  1
  I  I106  1  0.83377866  0.83495735  0.33339956  1
  I  I107  1  0.82730409  0.83500446  0.66935442  1
  I  I108  1  0.00244090  0.16475575  0.17050608  1
  I  I109  1  -0.00163283  0.16510860  0.49761360  1
  I  I110  1  0.00011145  0.16463466  0.83206974  1
  I  I111  1  0.00055643  0.49857588  0.16855206  1
  I  I112  1  0.00325455  0.50350956  0.49878038  1
  I  I113  1  0.00023054  0.50051959  0.83209128  1
  I  I114  1  0.00018092  0.83609043  0.16687872  1
  I  I115  1  0.00324531  0.83168045  0.50520425  1
  I  I116  1  0.00089883  0.83674485  0.82593773  1
  I  I117  1  0.33542399  0.16195157  0.17389435  1
  I  I118  1  0.33659480  0.16609832  0.49776665  1
  I  I119  1  0.33356133  0.16355233  0.82828070  1
  I  I120  1  0.33368829  0.50139881  0.16476075  1
  I  I121  1  0.33514972  0.49884836  0.50350687  1
  I  I122  1  0.33714735  0.50596654  0.83139121  1
  I  I123  1  0.33708944  0.83582280  0.16319875  1
  I  I124  1  0.33492707  0.83547755  0.50436518  1
  I  I125  1  0.33468923  0.83035723  0.83194805  1
  I  I126  1  0.66297354  0.16267041  0.16888917  1
  I  I127  1  0.66372883  0.16570860  0.49477854  1
  I  I128  1  0.66623392  0.16425792  0.83694998  1
  I  I129  1  0.66579847  0.49843882  0.16848272  1
  I  I130  1  0.66282882  0.50309784  0.50282805  1
  I  I131  1  0.66220245  0.50568610  0.82707176  1
  I  I132  1  0.66135834  0.83981864  0.16849820  1
  I  I133  1  0.66303508  0.83171104  0.50086487  1
  I  I134  1  0.66460369  0.83024638  0.83273802  1
