# generated using pymatgen
data_Cs27Sn14Pb13I81
_symmetry_space_group_name_H-M   'P 1'
_cell_length_a   18.96951103
_cell_length_b   18.96934973
_cell_length_c   18.98803376
_cell_angle_alpha   89.99980913
_cell_angle_beta   90.00035410
_cell_angle_gamma   90.00350003
_symmetry_Int_Tables_number   1
_chemical_formula_structural   Cs27Sn14Pb13I81
_chemical_formula_sum   'Cs27 Sn14 Pb13 I81'
_cell_volume   6832.64055021
_cell_formula_units_Z   1
loop_
 _symmetry_equiv_pos_site_id
 _symmetry_equiv_pos_as_xyz
  1  'x, y, z'
loop_
 _atom_site_type_symbol
 _atom_site_label
 _atom_site_symmetry_multiplicity
 _atom_site_fract_x
 _atom_site_fract_y
 _atom_site_fract_z
 _atom_site_occupancy
  Cs  Cs0  1  0.00431930  -0.00274143  0.00264286  1
  Cs  Cs1  1  0.00318754  0.00001344  0.33181749  1
  Cs  Cs2  1  0.00779584  0.00656973  0.66592685  1
  Cs  Cs3  1  -0.00233530  0.33404312  0.00080343  1
  Cs  Cs4  1  -0.00189696  0.33179922  0.33335937  1
  Cs  Cs5  1  -0.00905255  0.32581951  0.66572891  1
  Cs  Cs6  1  -0.00205795  0.66849185  0.00352005  1
  Cs  Cs7  1  -0.00193494  0.66843094  0.32811200  1
  Cs  Cs8  1  -0.00084536  0.66662211  0.66838905  1
  Cs  Cs9  1  0.33277337  0.00378953  -0.00226169  1
  Cs  Cs10  1  0.33365205  -0.00001442  0.33452678  1
  Cs  Cs11  1  0.32596682  0.00156484  0.66721136  1
  Cs  Cs12  1  0.33407421  0.33388567  0.00258852  1
  Cs  Cs13  1  0.33353217  0.33608784  0.33076379  1
  Cs  Cs14  1  0.33311445  0.33777551  0.66648764  1
  Cs  Cs15  1  0.33360833  0.66397124  -0.00150748  1
  Cs  Cs16  1  0.33465085  0.66389589  0.33458218  1
  Cs  Cs17  1  0.33578346  0.66518591  0.66662396  1
  Cs  Cs18  1  0.66421385  0.00153001  -0.00091946  1
  Cs  Cs19  1  0.66448177  -0.00135264  0.33342841  1
  Cs  Cs20  1  0.66613360  -0.00440438  0.66657824  1
  Cs  Cs21  1  0.66829929  0.32916922  -0.00179362  1
  Cs  Cs22  1  0.66754268  0.33265546  0.33408565  1
  Cs  Cs23  1  0.67490428  0.33070258  0.66707611  1
  Cs  Cs24  1  0.66813134  0.66792030  -0.00156478  1
  Cs  Cs25  1  0.66649951  0.66817898  0.33442687  1
  Cs  Cs26  1  0.66427641  0.66918183  0.66681390  1
  Sn  Sn27  1  0.83402730  0.16646172  0.16677139  1
  Sn  Sn28  1  0.16688268  0.49995081  0.83316074  1
  Sn  Sn29  1  0.49985835  0.50076733  0.16649748  1
  Sn  Sn30  1  0.49966439  0.83251373  0.16642876  1
  Sn  Sn31  1  0.16726522  0.49934878  0.16672195  1
  Sn  Sn32  1  0.16600328  0.16763110  0.16682289  1
  Sn  Sn33  1  0.49986591  0.49955158  0.50022846  1
  Sn  Sn34  1  0.83299219  0.83346668  0.83214539  1
  Sn  Sn35  1  0.50027427  0.83268751  0.83320927  1
  Sn  Sn36  1  0.50020852  0.83355634  0.50029071  1
  Sn  Sn37  1  0.83325755  0.83327331  0.50097774  1
  Sn  Sn38  1  0.49983030  0.16695590  0.50062662  1
  Sn  Sn39  1  0.49975903  0.50038749  0.83331997  1
  Sn  Sn40  1  0.16662131  0.50016444  0.50009625  1
  Pb  Pb41  1  0.16984733  0.83274178  0.16668766  1
  Pb  Pb42  1  0.83122676  0.16352930  0.49818144  1
  Pb  Pb43  1  0.16690395  0.17026537  0.83574462  1
  Pb  Pb44  1  0.16692182  0.83081535  0.49999236  1
  Pb  Pb45  1  0.83293181  0.50212185  0.83330674  1
  Pb  Pb46  1  0.49994617  0.16698553  0.83016491  1
  Pb  Pb47  1  0.83306509  0.50235409  0.49994229  1
  Pb  Pb48  1  0.83275455  0.49822637  0.16669830  1
  Pb  Pb49  1  0.16896133  0.16969792  0.49789991  1
  Pb  Pb50  1  0.83330975  0.16292061  0.83558148  1
  Pb  Pb51  1  0.83070617  0.83533652  0.16665171  1
  Pb  Pb52  1  0.49953567  0.16710995  0.16820998  1
  Pb  Pb53  1  0.16710700  0.83101786  0.83324640  1
  I  I54  1  0.16409617  0.00250096  0.16725792  1
  I  I55  1  0.16812079  0.00017463  0.49799119  1
  I  I56  1  0.16695714  0.00007222  0.83520044  1
  I  I57  1  0.16990236  0.33509884  0.16663830  1
  I  I58  1  0.17380253  0.33780267  0.50145098  1
  I  I59  1  0.17525701  0.33843493  0.83161373  1
  I  I60  1  0.16911271  0.66285402  0.16682188  1
  I  I61  1  0.17352754  0.66258302  0.49661639  1
  I  I62  1  0.16925699  0.66271333  0.83681457  1
  I  I63  1  0.50099419  -0.00245360  0.16762731  1
  I  I64  1  0.50577596  -0.00138223  0.49748719  1
  I  I65  1  0.50535772  -0.00343851  0.83512564  1
  I  I66  1  0.49866657  0.33657471  0.16711005  1
  I  I67  1  0.49426486  0.33489321  0.49750740  1
  I  I68  1  0.49452680  0.33714196  0.83543671  1
  I  I69  1  0.49559174  0.66576804  0.17063998  1
  I  I70  1  0.49988085  0.66645658  0.49938921  1
  I  I71  1  0.49976627  0.66642573  0.83031427  1
  I  I72  1  0.83793296  0.00293826  0.16713192  1
  I  I73  1  0.82545645  -0.00425939  0.50277723  1
  I  I74  1  0.82383049  -0.00486074  0.82978984  1
  I  I75  1  0.83177666  0.33040119  0.16744672  1
  I  I76  1  0.83188358  0.33310897  0.49891090  1
  I  I77  1  0.83284345  0.33316862  0.83434409  1
  I  I78  1  0.83605210  0.66710410  0.16665757  1
  I  I79  1  0.82615448  0.67016424  0.50184241  1
  I  I80  1  0.83047598  0.67003856  0.83115092  1
  I  I81  1  0.16523301  0.17118249  0.00389555  1
  I  I82  1  0.16398028  0.17255888  0.33007344  1
  I  I83  1  0.16759227  0.16678199  0.66641143  1
  I  I84  1  0.17394787  0.49646038  0.00055115  1
  I  I85  1  0.17453648  0.49643867  0.33286870  1
  I  I86  1  0.17566927  0.50399151  0.66656021  1
  I  I87  1  0.16558906  0.83163807  0.00010364  1
  I  I88  1  0.16603681  0.83101959  0.33325038  1
  I  I89  1  0.17024896  0.83141462  0.66659822  1
  I  I90  1  0.50015684  0.16575034  0.00005981  1
  I  I91  1  0.50002608  0.16599104  0.33592939  1
  I  I92  1  0.50072111  0.16689085  0.66231628  1
  I  I93  1  0.49375603  0.50730245  0.00016722  1
  I  I94  1  0.49443319  0.50278107  0.33345854  1
  I  I95  1  0.49287874  0.50384778  0.66640808  1
  I  I96  1  0.50377755  0.82657638  -0.00037311  1
  I  I97  1  0.50346463  0.83080747  0.33401779  1
  I  I98  1  0.50521168  0.82941079  0.66639595  1
  I  I99  1  0.83493985  0.16634242  0.00344237  1
  I  I100  1  0.83653580  0.16524271  0.33052742  1
  I  I101  1  0.83199682  0.16852939  0.66647507  1
  I  I102  1  0.83318099  0.50245723  0.00004546  1
  I  I103  1  0.83267930  0.50296554  0.33331841  1
  I  I104  1  0.83470309  0.49749432  0.66659952  1
  I  I105  1  0.82826422  0.83394122  -0.00238474  1
  I  I106  1  0.82762728  0.83378463  0.33566715  1
  I  I107  1  0.82264185  0.83091024  0.66647134  1
  I  I108  1  0.00100231  0.17239813  0.16715783  1
  I  I109  1  0.00012637  0.16657094  0.50012416  1
  I  I110  1  0.00008299  0.16684642  0.83083134  1
  I  I111  1  0.00329153  0.49796332  0.16681338  1
  I  I112  1  0.00303851  0.50240491  0.49846116  1
  I  I113  1  0.00305902  0.50188336  0.83503843  1
  I  I114  1  -0.00001900  0.83143881  0.16664485  1
  I  I115  1  -0.00281409  0.83103379  0.50415724  1
  I  I116  1  -0.00277824  0.83167216  0.82927435  1
  I  I117  1  0.33103553  0.16910796  0.16826226  1
  I  I118  1  0.33691964  0.16033444  0.49713225  1
  I  I119  1  0.33354117  0.16010705  0.83620554  1
  I  I120  1  0.33406958  0.49784552  0.16698764  1
  I  I121  1  0.33511104  0.50212453  0.49913050  1
  I  I122  1  0.33474895  0.50572936  0.83348199  1
  I  I123  1  0.33808873  0.83395323  0.16779432  1
  I  I124  1  0.33737160  0.83463065  0.50021502  1
  I  I125  1  0.33713696  0.83118729  0.83246270  1
  I  I126  1  0.66805280  0.16539921  0.16870166  1
  I  I127  1  0.66323306  0.17262507  0.49599655  1
  I  I128  1  0.66650097  0.17260823  0.83756432  1
  I  I129  1  0.66273154  0.50262260  0.16749528  1
  I  I130  1  0.66258241  0.49871717  0.49937834  1
  I  I131  1  0.66285240  0.50213997  0.83328293  1
  I  I132  1  0.66255699  0.82923555  0.16765889  1
  I  I133  1  0.66422996  0.83102002  0.49995148  1
  I  I134  1  0.66460819  0.82725288  0.83279435  1
