# generated using pymatgen
data_Cs27Sn13Pb14I81
_symmetry_space_group_name_H-M   'P 1'
_cell_length_a   18.97617481
_cell_length_b   18.97926734
_cell_length_c   18.97812877
_cell_angle_alpha   90.00318929
_cell_angle_beta   90.00013120
_cell_angle_gamma   89.99935314
_symmetry_Int_Tables_number   1
_chemical_formula_structural   Cs27Sn13Pb14I81
_chemical_formula_sum   'Cs27 Sn13 Pb14 I81'
_cell_volume   6835.04698009
_cell_formula_units_Z   1
loop_
 _symmetry_equiv_pos_site_id
 _symmetry_equiv_pos_as_xyz
  1  'x, y, z'
loop_
 _atom_site_type_symbol
 _atom_site_label
 _atom_site_symmetry_multiplicity
 _atom_site_fract_x
 _atom_site_fract_y
 _atom_site_fract_z
 _atom_site_occupancy
  Cs  Cs0  1  0.00055936  -0.00259465  0.00085577  1
  Cs  Cs1  1  -0.00093333  -0.00011917  0.33300340  1
  Cs  Cs2  1  -0.00228712  0.00009434  0.66683874  1
  Cs  Cs3  1  -0.00270812  0.33099636  -0.00186270  1
  Cs  Cs4  1  -0.00222109  0.33250927  0.33351460  1
  Cs  Cs5  1  -0.00348210  0.33237438  0.66800790  1
  Cs  Cs6  1  0.00218393  0.67067283  -0.00049666  1
  Cs  Cs7  1  0.00208361  0.66760312  0.33539485  1
  Cs  Cs8  1  0.00032510  0.66698636  0.66581077  1
  Cs  Cs9  1  0.33272399  0.00119890  0.00113151  1
  Cs  Cs10  1  0.33355425  0.00217000  0.33262859  1
  Cs  Cs11  1  0.33778793  0.00160893  0.66592056  1
  Cs  Cs12  1  0.33318271  0.33322877  -0.00084589  1
  Cs  Cs13  1  0.33355951  0.33210871  0.33492950  1
  Cs  Cs14  1  0.33194419  0.33115171  0.66259951  1
  Cs  Cs15  1  0.33260918  0.66595679  0.00130369  1
  Cs  Cs16  1  0.33192961  0.66520819  0.33334696  1
  Cs  Cs17  1  0.33401363  0.66774820  0.66468999  1
  Cs  Cs18  1  0.66687977  -0.00064795  0.00023705  1
  Cs  Cs19  1  0.66576231  0.00194196  0.33374620  1
  Cs  Cs20  1  0.66278284  -0.00158960  0.66624090  1
  Cs  Cs21  1  0.67336302  0.34222308  -0.00614527  1
  Cs  Cs22  1  0.66970261  0.33332915  0.33225819  1
  Cs  Cs23  1  0.67394637  0.33446737  0.67188316  1
  Cs  Cs24  1  0.66551188  0.66193989  -0.00113948  1
  Cs  Cs25  1  0.66862614  0.66369916  0.33392740  1
  Cs  Cs26  1  0.66638122  0.66805836  0.66778827  1
  Sn  Sn27  1  0.16693904  0.83349029  0.16619371  1
  Sn  Sn28  1  0.83322462  0.83327999  0.16616130  1
  Sn  Sn29  1  0.49983102  0.83363384  0.16690153  1
  Sn  Sn30  1  0.16642104  0.83285182  0.83384051  1
  Sn  Sn31  1  0.49926207  0.16811710  0.49902470  1
  Sn  Sn32  1  0.83410139  0.83349364  0.83420923  1
  Sn  Sn33  1  0.16712636  0.16732580  0.49910565  1
  Sn  Sn34  1  0.16728484  0.49901263  0.50006361  1
  Sn  Sn35  1  0.49953507  0.16681148  0.16663124  1
  Sn  Sn36  1  0.49924923  0.49892142  0.49992146  1
  Sn  Sn37  1  0.16715514  0.50058976  0.83316778  1
  Sn  Sn38  1  0.16685733  0.49953480  0.16656948  1
  Sn  Sn39  1  0.16735652  0.16679575  0.16746004  1
  Pb  Pb40  1  0.83301245  0.16663440  0.49980280  1
  Pb  Pb41  1  0.16668120  0.83390242  0.50017764  1
  Pb  Pb42  1  0.49986591  0.83340658  0.49724594  1
  Pb  Pb43  1  0.83302448  0.16476892  0.16655096  1
  Pb  Pb44  1  0.83324611  0.83340737  0.50005975  1
  Pb  Pb45  1  0.49936341  0.83328568  0.83621454  1
  Pb  Pb46  1  0.83640792  0.50285783  0.83334348  1
  Pb  Pb47  1  0.83359204  0.49996377  0.49993981  1
  Pb  Pb48  1  0.83648804  0.50277830  0.16673782  1
  Pb  Pb49  1  0.49713743  0.49990650  0.83024714  1
  Pb  Pb50  1  0.49817468  0.49916969  0.16823838  1
  Pb  Pb51  1  0.83332262  0.16344375  0.83357010  1
  Pb  Pb52  1  0.16675799  0.16629548  0.83331997  1
  Pb  Pb53  1  0.49993828  0.16696030  0.83390633  1
  I  I54  1  0.16671276  -0.00049740  0.16655425  1
  I  I55  1  0.17086139  0.00328178  0.49661737  1
  I  I56  1  0.16224245  -0.00328472  0.83735916  1
  I  I57  1  0.17231625  0.33296114  0.16719258  1
  I  I58  1  0.17072553  0.33357966  0.49706934  1
  I  I59  1  0.16865673  0.33623038  0.83571854  1
  I  I60  1  0.16635773  0.66722401  0.16654281  1
  I  I61  1  0.17009947  0.66371034  0.49752370  1
  I  I62  1  0.16324060  0.66709651  0.83648514  1
  I  I63  1  0.49501921  -0.00000256  0.17180618  1
  I  I64  1  0.49497045  0.00338507  0.49847362  1
  I  I65  1  0.49811628  -0.00015838  0.82790012  1
  I  I66  1  0.49279590  0.33006819  0.16993632  1
  I  I67  1  0.49266328  0.33258941  0.49321383  1
  I  I68  1  0.49781044  0.33351648  0.83906938  1
  I  I69  1  0.49861002  0.66912185  0.16764352  1
  I  I70  1  0.49452171  0.66374598  0.49911433  1
  I  I71  1  0.50120541  0.66673414  0.83265582  1
  I  I72  1  0.83882016  -0.00368939  0.16278541  1
  I  I73  1  0.83466869  0.00001219  0.50084140  1
  I  I74  1  0.84217048  -0.00476884  0.83782231  1
  I  I75  1  0.83358259  0.33346079  0.16777276  1
  I  I76  1  0.83470606  0.33332940  0.49995651  1
  I  I77  1  0.83372360  0.33375621  0.83224616  1
  I  I78  1  0.83218427  0.67122420  0.16296494  1
  I  I79  1  0.83379812  0.66665965  0.49888887  1
  I  I80  1  0.83562514  0.67061467  0.83856931  1
  I  I81  1  0.17055246  0.16782105  0.00353439  1
  I  I82  1  0.17006879  0.16825890  0.33243740  1
  I  I83  1  0.17097202  0.16922094  0.66340105  1
  I  I84  1  0.16586025  0.50199607  0.00068665  1
  I  I85  1  0.17014201  0.50137539  0.33320298  1
  I  I86  1  0.17028395  0.50122080  0.66612848  1
  I  I87  1  0.16610013  0.83057197  0.00155826  1
  I  I88  1  0.16595677  0.83082482  0.32982968  1
  I  I89  1  0.16075083  0.83003207  0.66974345  1
  I  I90  1  0.49322925  0.15949077  0.00424054  1
  I  I91  1  0.49449789  0.16481721  0.33292574  1
  I  I92  1  0.49392838  0.16916004  0.66289132  1
  I  I93  1  0.49879724  0.50055457  0.00016628  1
  I  I94  1  0.49236395  0.50059844  0.33619732  1
  I  I95  1  0.49375279  0.49501654  0.66201597  1
  I  I96  1  0.49834025  0.83923866  0.00448789  1
  I  I97  1  0.49789084  0.83474660  0.32900342  1
  I  I98  1  0.50089698  0.83405631  0.66663843  1
  I  I99  1  0.83448341  0.16802335  0.00038747  1
  I  I100  1  0.83500018  0.16232360  0.33307608  1
  I  I101  1  0.83444770  0.16385037  0.66655310  1
  I  I102  1  0.83273371  0.49755192  0.00006144  1
  I  I103  1  0.83669590  0.50421153  0.33320394  1
  I  I104  1  0.83518319  0.50340525  0.66673600  1
  I  I105  1  0.83644194  0.83419034  0.00105361  1
  I  I106  1  0.83572382  0.83373386  0.32954210  1
  I  I107  1  0.84051010  0.83276105  0.67025827  1
  I  I108  1  0.00372851  0.16611304  0.17062905  1
  I  I109  1  0.00371950  0.17021171  0.49582667  1
  I  I110  1  0.00061732  0.16901965  0.83251013  1
  I  I111  1  0.00548247  0.49897752  0.16964194  1
  I  I112  1  0.00433125  0.49690327  0.49977648  1
  I  I113  1  0.00478102  0.50147821  0.83109543  1
  I  I114  1  0.00163938  0.83298935  0.16264222  1
  I  I115  1  0.00042825  0.83315898  0.49537231  1
  I  I116  1  0.00152022  0.82936063  0.84227452  1
  I  I117  1  0.33199426  0.16051272  0.17078621  1
  I  I118  1  0.33245883  0.17062035  0.49564917  1
  I  I119  1  0.33291010  0.16273569  0.83347038  1
  I  I120  1  0.32938260  0.50610173  0.16489809  1
  I  I121  1  0.33151420  0.49646939  0.49991595  1
  I  I122  1  0.32871242  0.50763542  0.83656170  1
  I  I123  1  0.33192291  0.83401361  0.16347053  1
  I  I124  1  0.33310008  0.83240668  0.50138627  1
  I  I125  1  0.32973914  0.82973672  0.83729417  1
  I  I126  1  0.66300002  0.15974495  0.17298088  1
  I  I127  1  0.66263550  0.16951773  0.49434014  1
  I  I128  1  0.66660205  0.16418466  0.83223717  1
  I  I129  1  0.66658138  0.50084308  0.16959818  1
  I  I130  1  0.66330069  0.49649523  0.49776943  1
  I  I131  1  0.66680664  0.50114889  0.83161881  1
  I  I132  1  0.66631766  0.83935112  0.16414145  1
  I  I133  1  0.66638753  0.83324334  0.50018686  1
  I  I134  1  0.66943896  0.83510938  0.83706851  1
