# generated using pymatgen
data_Cs27Sn13Pb14I81
_symmetry_space_group_name_H-M   'P 1'
_cell_length_a   18.98518378
_cell_length_b   18.99037603
_cell_length_c   18.99984548
_cell_angle_alpha   89.99889543
_cell_angle_beta   89.99951337
_cell_angle_gamma   89.99860832
_symmetry_Int_Tables_number   1
_chemical_formula_structural   Cs27Sn13Pb14I81
_chemical_formula_sum   'Cs27 Sn13 Pb14 I81'
_cell_volume   6850.12408648
_cell_formula_units_Z   1
loop_
 _symmetry_equiv_pos_site_id
 _symmetry_equiv_pos_as_xyz
  1  'x, y, z'
loop_
 _atom_site_type_symbol
 _atom_site_label
 _atom_site_symmetry_multiplicity
 _atom_site_fract_x
 _atom_site_fract_y
 _atom_site_fract_z
 _atom_site_occupancy
  Cs  Cs0  1  0.00151265  0.00031128  0.00135251  1
  Cs  Cs1  1  0.00027594  -0.00191679  0.33246190  1
  Cs  Cs2  1  -0.00021618  0.00036821  0.66508854  1
  Cs  Cs3  1  -0.00037913  0.33256804  0.00075503  1
  Cs  Cs4  1  0.00234650  0.33096583  0.33094658  1
  Cs  Cs5  1  0.00241085  0.32973361  0.66547755  1
  Cs  Cs6  1  -0.00001240  0.66648023  -0.00047956  1
  Cs  Cs7  1  -0.00333092  0.66991382  0.33096009  1
  Cs  Cs8  1  -0.00144745  0.66784763  0.66913596  1
  Cs  Cs9  1  0.33549499  -0.00173966  -0.00104644  1
  Cs  Cs10  1  0.33241966  0.00048407  0.33254125  1
  Cs  Cs11  1  0.33333741  -0.00119657  0.66828833  1
  Cs  Cs12  1  0.33048400  0.33582968  0.00393019  1
  Cs  Cs13  1  0.34257241  0.34077150  0.34294844  1
  Cs  Cs14  1  0.33100185  0.33661691  0.65415647  1
  Cs  Cs15  1  0.33429433  0.66627211  0.00028825  1
  Cs  Cs16  1  0.33753988  0.66211727  0.33424335  1
  Cs  Cs17  1  0.33344123  0.66699012  0.66690471  1
  Cs  Cs18  1  0.65871663  0.00186085  -0.00209480  1
  Cs  Cs19  1  0.66629852  0.00124565  0.33427958  1
  Cs  Cs20  1  0.66718267  0.00855981  0.66791966  1
  Cs  Cs21  1  0.66824190  0.33021696  -0.00243949  1
  Cs  Cs22  1  0.65785800  0.33542919  0.33383185  1
  Cs  Cs23  1  0.66609848  0.32773961  0.66875433  1
  Cs  Cs24  1  0.66732299  0.66722124  -0.00217381  1
  Cs  Cs25  1  0.66869757  0.66622445  0.33423336  1
  Cs  Cs26  1  0.66828492  0.66695274  0.66840126  1
  Sn  Sn27  1  0.16614677  0.83377183  0.16645981  1
  Sn  Sn28  1  0.49978449  0.83355300  0.50026182  1
  Sn  Sn29  1  0.16677335  0.16604280  0.83418321  1
  Sn  Sn30  1  0.16638998  0.16609348  0.16609667  1
  Sn  Sn31  1  0.83368720  0.83393162  0.16525046  1
  Sn  Sn32  1  0.83267182  0.50034832  0.83309877  1
  Sn  Sn33  1  0.16578614  0.83401077  0.83373809  1
  Sn  Sn34  1  0.83360085  0.49988233  0.16654387  1
  Sn  Sn35  1  0.83398415  0.49969980  0.50039181  1
  Sn  Sn36  1  0.83379069  0.16615894  0.16653756  1
  Sn  Sn37  1  0.16747187  0.83301061  0.49969601  1
  Sn  Sn38  1  0.50048382  0.49987545  0.83355779  1
  Sn  Sn39  1  0.83384918  0.83339752  0.83424678  1
  Pb  Pb40  1  0.16609634  0.49989816  0.83333606  1
  Pb  Pb41  1  0.50290847  0.50233924  0.50265845  1
  Pb  Pb42  1  0.16655284  0.16419927  0.49906184  1
  Pb  Pb43  1  0.83348043  0.83241392  0.50034839  1
  Pb  Pb44  1  0.49876083  0.16659367  0.16650556  1
  Pb  Pb45  1  0.50306892  0.50027274  0.16401912  1
  Pb  Pb46  1  0.50020766  0.83214674  0.83159642  1
  Pb  Pb47  1  0.83355023  0.16979215  0.49658819  1
  Pb  Pb48  1  0.16490830  0.49998957  0.16685321  1
  Pb  Pb49  1  0.83525219  0.16632967  0.83535184  1
  Pb  Pb50  1  0.49580468  0.16998224  0.83345116  1
  Pb  Pb51  1  0.50000813  0.83328875  0.16860900  1
  Pb  Pb52  1  0.49994543  0.16365235  0.50013085  1
  Pb  Pb53  1  0.16390050  0.50311867  0.49979701  1
  I  I54  1  0.15742828  -0.00128581  0.16666028  1
  I  I55  1  0.16804147  -0.00413735  0.50033003  1
  I  I56  1  0.16089807  -0.00198972  0.83324556  1
  I  I57  1  0.16019978  0.33004682  0.15868372  1
  I  I58  1  0.16610907  0.33331393  0.50116132  1
  I  I59  1  0.16562807  0.33052422  0.84002456  1
  I  I60  1  0.16203096  0.67032571  0.16525058  1
  I  I61  1  0.17016885  0.67137234  0.50079351  1
  I  I62  1  0.16504361  0.67004026  0.83402397  1
  I  I63  1  0.50647031  -0.00017839  0.16734126  1
  I  I64  1  0.49737462  -0.00437582  0.50091193  1
  I  I65  1  0.50305134  0.00016028  0.83120298  1
  I  I66  1  0.49939506  0.33351237  0.16741878  1
  I  I67  1  0.50024831  0.33385669  0.49990061  1
  I  I68  1  0.51001453  0.33737797  0.83380928  1
  I  I69  1  0.49886994  0.66677867  0.16736552  1
  I  I70  1  0.49424623  0.66962121  0.49972276  1
  I  I71  1  0.50131832  0.66430302  0.83225431  1
  I  I72  1  0.83853052  -0.00118109  0.16302780  1
  I  I73  1  0.83265769  -0.00002081  0.50038427  1
  I  I74  1  0.83581198  -0.00328351  0.83628508  1
  I  I75  1  0.83834443  0.33349584  0.16617889  1
  I  I76  1  0.83277826  0.33784648  0.50332343  1
  I  I77  1  0.83073080  0.33611377  0.83425739  1
  I  I78  1  0.83728770  0.66723287  0.16646120  1
  I  I79  1  0.83410621  0.66447665  0.49578468  1
  I  I80  1  0.83553662  0.66707512  0.83752525  1
  I  I81  1  0.16175439  0.15832173  0.00058431  1
  I  I82  1  0.16000320  0.16111639  0.32957068  1
  I  I83  1  0.16652726  0.16311695  0.66925754  1
  I  I84  1  0.16576971  0.50430173  -0.00005667  1
  I  I85  1  0.16411143  0.49986087  0.33327726  1
  I  I86  1  0.16391885  0.49941476  0.66679356  1
  I  I87  1  0.16071878  0.83699503  -0.00002692  1
  I  I88  1  0.16461434  0.83714227  0.33215871  1
  I  I89  1  0.16577655  0.83610941  0.66776018  1
  I  I90  1  0.50274958  0.16566717  -0.00024225  1
  I  I91  1  0.49928603  0.16810554  0.33327670  1
  I  I92  1  0.49998860  0.16697241  0.66705813  1
  I  I93  1  0.50507887  0.50276720  -0.00349236  1
  I  I94  1  0.50068611  0.49982995  0.33363629  1
  I  I95  1  0.50617312  0.50157839  0.66989693  1
  I  I96  1  0.49832628  0.83189221  -0.00020407  1
  I  I97  1  0.49651827  0.83202350  0.33641963  1
  I  I98  1  0.49528643  0.83025865  0.66405043  1
  I  I99  1  0.83625704  0.17159892  0.00324585  1
  I  I100  1  0.84113102  0.16314641  0.32832178  1
  I  I101  1  0.83441498  0.16640474  0.66682191  1
  I  I102  1  0.82964963  0.50183785  -0.00013674  1
  I  I103  1  0.83649954  0.50232519  0.33230553  1
  I  I104  1  0.82994373  0.50811887  0.66806566  1
  I  I105  1  0.84131203  0.82703672  0.00016352  1
  I  I106  1  0.83636790  0.83179172  0.33037168  1
  I  I107  1  0.83709006  0.82651854  0.66958151  1
  I  I108  1  -0.00007977  0.16614179  0.16284765  1
  I  I109  1  0.00002343  0.16529885  0.50278307  1
  I  I110  1  0.00305084  0.16697910  0.83518973  1
  I  I111  1  -0.00400157  0.50126082  0.16248755  1
  I  I112  1  -0.00400665  0.50279103  0.50346194  1
  I  I113  1  -0.00362626  0.50260956  0.83432407  1
  I  I114  1  -0.00038618  0.83287276  0.16866420  1
  I  I115  1  0.00263656  0.83155174  0.49986729  1
  I  I116  1  0.00001109  0.82999792  0.83176378  1
  I  I117  1  0.32895988  0.15846717  0.16127466  1
  I  I118  1  0.33297066  0.17056880  0.49808408  1
  I  I119  1  0.32813235  0.15876984  0.84102304  1
  I  I120  1  0.33345597  0.50008533  0.16498983  1
  I  I121  1  0.33361331  0.49846231  0.50174573  1
  I  I122  1  0.33539830  0.50114061  0.83266006  1
  I  I123  1  0.32955514  0.83913127  0.16351294  1
  I  I124  1  0.33171781  0.83354077  0.50083370  1
  I  I125  1  0.32999737  0.83491259  0.83565372  1
  I  I126  1  0.67000380  0.16642037  0.16725996  1
  I  I127  1  0.66700536  0.16300692  0.49885430  1
  I  I128  1  0.66662203  0.16388249  0.83432778  1
  I  I129  1  0.67190792  0.50134832  0.17027013  1
  I  I130  1  0.67044189  0.50491629  0.49548466  1
  I  I131  1  0.66932411  0.50737935  0.83407392  1
  I  I132  1  0.67059388  0.83272438  0.16388373  1
  I  I133  1  0.66505202  0.82920038  0.49927767  1
  I  I134  1  0.67003940  0.82960301  0.83657826  1
