# generated using pymatgen
data_Cs27Sn13Pb14I81
_symmetry_space_group_name_H-M   'P 1'
_cell_length_a   18.99914874
_cell_length_b   18.99406102
_cell_length_c   18.98283017
_cell_angle_alpha   89.99964640
_cell_angle_beta   90.00172290
_cell_angle_gamma   89.99927573
_symmetry_Int_Tables_number   1
_chemical_formula_structural   Cs27Sn13Pb14I81
_chemical_formula_sum   'Cs27 Sn13 Pb14 I81'
_cell_volume   6850.35272222
_cell_formula_units_Z   1
loop_
 _symmetry_equiv_pos_site_id
 _symmetry_equiv_pos_as_xyz
  1  'x, y, z'
loop_
 _atom_site_type_symbol
 _atom_site_label
 _atom_site_symmetry_multiplicity
 _atom_site_fract_x
 _atom_site_fract_y
 _atom_site_fract_z
 _atom_site_occupancy
  Cs  Cs0  1  -0.00401395  -0.00061969  -0.00666097  1
  Cs  Cs1  1  0.00007509  -0.00122201  0.33496035  1
  Cs  Cs2  1  0.00216939  0.00176018  0.66953418  1
  Cs  Cs3  1  -0.00620842  0.33725422  0.00202532  1
  Cs  Cs4  1  -0.00266062  0.33582188  0.33311987  1
  Cs  Cs5  1  0.00378989  0.33459483  0.66502840  1
  Cs  Cs6  1  0.00176597  0.66503943  -0.00218433  1
  Cs  Cs7  1  0.00035141  0.66664467  0.33360764  1
  Cs  Cs8  1  -0.00023767  0.66537228  0.66787844  1
  Cs  Cs9  1  0.33285951  -0.00062897  0.00024050  1
  Cs  Cs10  1  0.33359214  0.00056985  0.33339422  1
  Cs  Cs11  1  0.33079108  0.00212207  0.67377367  1
  Cs  Cs12  1  0.33685152  0.33478030  0.00215468  1
  Cs  Cs13  1  0.33189401  0.32807613  0.33096602  1
  Cs  Cs14  1  0.33124293  0.33139811  0.67012972  1
  Cs  Cs15  1  0.33150823  0.66572020  0.00184589  1
  Cs  Cs16  1  0.33224810  0.66873130  0.33187414  1
  Cs  Cs17  1  0.33969910  0.66646467  0.66735514  1
  Cs  Cs18  1  0.67137101  0.00323566  -0.00355156  1
  Cs  Cs19  1  0.66650242  -0.00032994  0.33259312  1
  Cs  Cs20  1  0.66689500  -0.00230845  0.67062899  1
  Cs  Cs21  1  0.66757194  0.32894147  -0.00097983  1
  Cs  Cs22  1  0.67049711  0.33209457  0.33436355  1
  Cs  Cs23  1  0.66293552  0.33837617  0.66611698  1
  Cs  Cs24  1  0.66456137  0.66889945  -0.00259933  1
  Cs  Cs25  1  0.66751810  0.66803701  0.33762739  1
  Cs  Cs26  1  0.65766840  0.66402952  0.66487564  1
  Sn  Sn27  1  0.83374643  0.83320828  0.16729902  1
  Sn  Sn28  1  0.16639535  0.16561703  0.16666736  1
  Sn  Sn29  1  0.50052852  0.49989377  0.16762481  1
  Sn  Sn30  1  0.16692696  0.50105625  0.50037539  1
  Sn  Sn31  1  0.83405790  0.83413296  0.49952116  1
  Sn  Sn32  1  0.50012851  0.83368387  0.16721126  1
  Sn  Sn33  1  0.16608698  0.83460075  0.16741024  1
  Sn  Sn34  1  0.16607255  0.50024892  0.83247994  1
  Sn  Sn35  1  0.83241943  0.16577057  0.49989443  1
  Sn  Sn36  1  0.50078468  0.16620053  0.49937324  1
  Sn  Sn37  1  0.83365713  0.50034389  0.83296944  1
  Sn  Sn38  1  0.49952506  0.16630392  0.16766168  1
  Sn  Sn39  1  0.16615645  0.83264839  0.49954606  1
  Pb  Pb40  1  0.49951421  0.83563192  0.49833433  1
  Pb  Pb41  1  0.16642273  0.16958687  0.83727863  1
  Pb  Pb42  1  0.83340339  0.16921121  0.82950226  1
  Pb  Pb43  1  0.16666091  0.16600488  0.49839292  1
  Pb  Pb44  1  0.83503484  0.50069421  0.50154641  1
  Pb  Pb45  1  0.49995098  0.16657152  0.83356630  1
  Pb  Pb46  1  0.49957958  0.49995063  0.83572436  1
  Pb  Pb47  1  0.83346495  0.16443439  0.16834501  1
  Pb  Pb48  1  0.16664612  0.83129087  0.83304262  1
  Pb  Pb49  1  0.49695077  0.49740076  0.49735647  1
  Pb  Pb50  1  0.16787831  0.50010519  0.16697970  1
  Pb  Pb51  1  0.49987242  0.83356628  0.83644381  1
  Pb  Pb52  1  0.83343892  0.83118277  0.83208804  1
  Pb  Pb53  1  0.83053999  0.50293691  0.16513989  1
  I  I54  1  0.17269286  -0.00131782  0.17376103  1
  I  I55  1  0.16554243  -0.00294273  0.49514297  1
  I  I56  1  0.16780867  0.00006001  0.83087474  1
  I  I57  1  0.17334872  0.33122762  0.16675610  1
  I  I58  1  0.16690444  0.33518926  0.50205366  1
  I  I59  1  0.16344276  0.33729280  0.82645832  1
  I  I60  1  0.16829213  0.66962733  0.16711213  1
  I  I61  1  0.16038669  0.66785005  0.49647732  1
  I  I62  1  0.16252198  0.66351324  0.83592396  1
  I  I63  1  0.49772125  0.00009879  0.17150972  1
  I  I64  1  0.49918504  0.00320445  0.49183864  1
  I  I65  1  0.50008910  0.00018843  0.83473877  1
  I  I66  1  0.49280897  0.33218186  0.16910279  1
  I  I67  1  0.50541336  0.32979363  0.49305086  1
  I  I68  1  0.49997619  0.33346922  0.83696251  1
  I  I69  1  0.49856415  0.66770187  0.16444313  1
  I  I70  1  0.50278253  0.66676951  0.49869620  1
  I  I71  1  0.50069489  0.66639057  0.83480932  1
  I  I72  1  0.82929115  -0.00362724  0.16794805  1
  I  I73  1  0.83560447  -0.00103746  0.49429489  1
  I  I74  1  0.83185877  -0.00012174  0.83611057  1
  I  I75  1  0.83369855  0.33331505  0.16694911  1
  I  I76  1  0.83086491  0.33110403  0.50135742  1
  I  I77  1  0.83820789  0.33680686  0.83458728  1
  I  I78  1  0.83509706  0.67097022  0.17318243  1
  I  I79  1  0.83639734  0.66990182  0.49603619  1
  I  I80  1  0.83871583  0.66374019  0.83389720  1
  I  I81  1  0.17427709  0.16093632  0.00531148  1
  I  I82  1  0.16944482  0.16808381  0.33045850  1
  I  I83  1  0.16788577  0.16470826  0.66661786  1
  I  I84  1  0.16487629  0.49952426  -0.00176294  1
  I  I85  1  0.16854984  0.50133239  0.33561793  1
  I  I86  1  0.16229188  0.50481096  0.66587878  1
  I  I87  1  0.16767837  0.83548429  0.00371074  1
  I  I88  1  0.16619645  0.83008601  0.33256977  1
  I  I89  1  0.16047337  0.83197404  0.66304902  1
  I  I90  1  0.49510677  0.16709662  0.00414373  1
  I  I91  1  0.49930536  0.16679536  0.33181957  1
  I  I92  1  0.50396467  0.16749118  0.66325501  1
  I  I93  1  0.49678562  0.49858925  0.00381393  1
  I  I94  1  0.49804570  0.50297969  0.32958263  1
  I  I95  1  0.50146916  0.49838802  0.66634697  1
  I  I96  1  0.49936063  0.83512021  0.00586905  1
  I  I97  1  0.49942033  0.83138076  0.32966331  1
  I  I98  1  0.50053737  0.83409527  0.66608380  1
  I  I99  1  0.83287197  0.16602958  0.00004234  1
  I  I100  1  0.83215117  0.16683549  0.33615694  1
  I  I101  1  0.82816953  0.15837090  0.66160066  1
  I  I102  1  0.84124083  0.50153801  -0.00253603  1
  I  I103  1  0.83432021  0.49816400  0.33348679  1
  I  I104  1  0.83566381  0.50084541  0.66932971  1
  I  I105  1  0.83279420  0.83171551  0.00300715  1
  I  I106  1  0.83402603  0.83586514  0.33323537  1
  I  I107  1  0.84008148  0.83752041  0.66264218  1
  I  I108  1  0.00253911  0.16338427  0.16885343  1
  I  I109  1  -0.00200933  0.16617300  0.49810333  1
  I  I110  1  -0.00001743  0.16526534  0.83369422  1
  I  I111  1  -0.00010704  0.49885767  0.16733871  1
  I  I112  1  0.00300430  0.49842622  0.49955433  1
  I  I113  1  0.00097291  0.50082400  0.83081567  1
  I  I114  1  0.00074458  0.83740299  0.17121972  1
  I  I115  1  0.00014776  0.83463909  0.49054860  1
  I  I116  1  0.00004643  0.83332394  0.83993175  1
  I  I117  1  0.33421288  0.16325450  0.17271275  1
  I  I118  1  0.33542587  0.16810236  0.49552825  1
  I  I119  1  0.33305804  0.16959177  0.82813381  1
  I  I120  1  0.33573848  0.50364849  0.16495626  1
  I  I121  1  0.32930466  0.50590848  0.50594195  1
  I  I122  1  0.33040392  0.50029719  0.83072571  1
  I  I123  1  0.33292374  0.83329952  0.17026939  1
  I  I124  1  0.33024818  0.82974471  0.49486515  1
  I  I125  1  0.33309669  0.82986107  0.83241732  1
  I  I126  1  0.66379234  0.16659182  0.16849502  1
  I  I127  1  0.66664024  0.16239782  0.49265952  1
  I  I128  1  0.66683030  0.16986514  0.83926489  1
  I  I129  1  0.66279451  0.49806463  0.16454921  1
  I  I130  1  0.66642863  0.50208245  0.50201143  1
  I  I131  1  0.66897771  0.50062922  0.83523015  1
  I  I132  1  0.66669101  0.83196562  0.17049163  1
  I  I133  1  0.66928008  0.83521116  0.49532184  1
  I  I134  1  0.66684789  0.82894413  0.83340382  1
