# generated using pymatgen
data_Cs27Sn14Pb13I81
_symmetry_space_group_name_H-M   'P 1'
_cell_length_a   18.97924338
_cell_length_b   18.96881819
_cell_length_c   18.97986176
_cell_angle_alpha   89.99807510
_cell_angle_beta   89.99935396
_cell_angle_gamma   89.99869942
_symmetry_Int_Tables_number   1
_chemical_formula_structural   Cs27Sn14Pb13I81
_chemical_formula_sum   'Cs27 Sn14 Pb13 I81'
_cell_volume   6833.01247399
_cell_formula_units_Z   1
loop_
 _symmetry_equiv_pos_site_id
 _symmetry_equiv_pos_as_xyz
  1  'x, y, z'
loop_
 _atom_site_type_symbol
 _atom_site_label
 _atom_site_symmetry_multiplicity
 _atom_site_fract_x
 _atom_site_fract_y
 _atom_site_fract_z
 _atom_site_occupancy
  Cs  Cs0  1  0.00257891  -0.00087918  0.00058182  1
  Cs  Cs1  1  0.00274363  0.00143605  0.33319355  1
  Cs  Cs2  1  0.00218603  0.00286061  0.66708059  1
  Cs  Cs3  1  0.00157187  0.33304689  0.00093483  1
  Cs  Cs4  1  0.00092193  0.33298987  0.33318934  1
  Cs  Cs5  1  0.00165857  0.33073469  0.66464524  1
  Cs  Cs6  1  -0.00589320  0.66754417  0.00224165  1
  Cs  Cs7  1  -0.00548114  0.66657668  0.33049285  1
  Cs  Cs8  1  -0.00482419  0.66625088  0.66587635  1
  Cs  Cs9  1  0.33331661  -0.00231544  -0.00011796  1
  Cs  Cs10  1  0.33385608  -0.00211320  0.33011769  1
  Cs  Cs11  1  0.33120803  0.00024567  0.66903800  1
  Cs  Cs12  1  0.33356551  0.33467286  -0.00081303  1
  Cs  Cs13  1  0.33273103  0.33522379  0.33187566  1
  Cs  Cs14  1  0.33291364  0.33485775  0.66824908  1
  Cs  Cs15  1  0.33198819  0.66391480  -0.00162213  1
  Cs  Cs16  1  0.33400014  0.66740753  0.33579345  1
  Cs  Cs17  1  0.33404005  0.66557699  0.66709010  1
  Cs  Cs18  1  0.66323379  -0.00012017  0.00055759  1
  Cs  Cs19  1  0.66171149  -0.00161784  0.33332621  1
  Cs  Cs20  1  0.66737190  0.00084448  0.66658219  1
  Cs  Cs21  1  0.66423801  0.33429768  0.00075967  1
  Cs  Cs22  1  0.66737793  0.33109921  0.33168325  1
  Cs  Cs23  1  0.66513723  0.33147413  0.66744460  1
  Cs  Cs24  1  0.67605553  0.66315000  -0.00194459  1
  Cs  Cs25  1  0.67345021  0.67474741  0.34232719  1
  Cs  Cs26  1  0.67193847  0.67034333  0.66211213  1
  Sn  Sn27  1  0.49943675  0.83274017  0.83370967  1
  Sn  Sn28  1  0.83231888  0.16685077  0.83381077  1
  Sn  Sn29  1  0.49970351  0.50047752  0.16650642  1
  Sn  Sn30  1  0.16739676  0.16606765  0.49880335  1
  Sn  Sn31  1  0.16734804  0.83170971  0.83250077  1
  Sn  Sn32  1  0.16641073  0.16740652  0.16744119  1
  Sn  Sn33  1  0.16682308  0.83384805  0.50084388  1
  Sn  Sn34  1  0.49922014  0.16700267  0.50066032  1
  Sn  Sn35  1  0.49950827  0.50071435  0.83388711  1
  Sn  Sn36  1  0.16701436  0.50131074  0.83400377  1
  Sn  Sn37  1  0.50065932  0.16662597  0.83277720  1
  Sn  Sn38  1  0.83329277  0.16663580  0.49971638  1
  Sn  Sn39  1  0.83404104  0.16674631  0.16642449  1
  Sn  Sn40  1  0.16769455  0.49939860  0.16578338  1
  Pb  Pb41  1  0.83308178  0.83674081  0.16661499  1
  Pb  Pb42  1  0.83326897  0.49737678  0.50002468  1
  Pb  Pb43  1  0.83341391  0.49733167  0.83309799  1
  Pb  Pb44  1  0.50003281  0.49820464  0.50026341  1
  Pb  Pb45  1  0.49944912  0.16788405  0.16641366  1
  Pb  Pb46  1  0.83649433  0.83645447  0.50016337  1
  Pb  Pb47  1  0.49758564  0.83591263  0.50240631  1
  Pb  Pb48  1  0.83315016  0.49794136  0.16674552  1
  Pb  Pb49  1  0.16690067  0.83257048  0.16640667  1
  Pb  Pb50  1  0.83365109  0.83619186  0.83336528  1
  Pb  Pb51  1  0.16665587  0.50028352  0.49993261  1
  Pb  Pb52  1  0.16713931  0.16688976  0.83362880  1
  Pb  Pb53  1  0.49984872  0.82906840  0.16377444  1
  I  I54  1  0.16144550  0.00290717  0.16731084  1
  I  I55  1  0.16580303  0.00193354  0.50135012  1
  I  I56  1  0.16887657  -0.00167925  0.83238026  1
  I  I57  1  0.16606354  0.33260165  0.16611856  1
  I  I58  1  0.16526420  0.32985898  0.49990456  1
  I  I59  1  0.16934746  0.33538161  0.83416139  1
  I  I60  1  0.17227185  0.66321911  0.16558793  1
  I  I61  1  0.16880536  0.66951620  0.50180478  1
  I  I62  1  0.17558703  0.66637816  0.83277353  1
  I  I63  1  0.50082341  0.00000697  0.16600203  1
  I  I64  1  0.50285415  0.00451200  0.50458062  1
  I  I65  1  0.49966526  0.00076385  0.82800796  1
  I  I66  1  0.49825056  0.33560393  0.16028876  1
  I  I67  1  0.49739791  0.32916480  0.50644971  1
  I  I68  1  0.49955803  0.33309969  0.83311465  1
  I  I69  1  0.48961951  0.66129249  0.16176496  1
  I  I70  1  0.49746511  0.66700281  0.49981307  1
  I  I71  1  0.49213245  0.66603595  0.83918898  1
  I  I72  1  0.84062531  0.00560039  0.16617568  1
  I  I73  1  0.83110536  0.00488767  0.50093954  1
  I  I74  1  0.83040950  0.00463109  0.83254088  1
  I  I75  1  0.83532614  0.32931657  0.16702931  1
  I  I76  1  0.83753267  0.32803363  0.50059373  1
  I  I77  1  0.83017195  0.32890649  0.83265891  1
  I  I78  1  0.83458698  0.66635249  0.16599965  1
  I  I79  1  0.83425132  0.66737761  0.49969774  1
  I  I80  1  0.83138807  0.66668156  0.83362124  1
  I  I81  1  0.16338490  0.16744623  0.00222015  1
  I  I82  1  0.16339259  0.16663622  0.33371706  1
  I  I83  1  0.16421724  0.16619691  0.66470147  1
  I  I84  1  0.17108468  0.49747407  -0.00035939  1
  I  I85  1  0.17068298  0.49681384  0.33022577  1
  I  I86  1  0.17187652  0.49891880  0.66983005  1
  I  I87  1  0.17084256  0.83489547  -0.00325383  1
  I  I88  1  0.16543796  0.83693252  0.33591833  1
  I  I89  1  0.17068954  0.83607050  0.66757605  1
  I  I90  1  0.50292132  0.16552276  -0.00312623  1
  I  I91  1  0.50222442  0.16922889  0.33567944  1
  I  I92  1  0.50261185  0.16867310  0.66778884  1
  I  I93  1  0.49481503  0.49552430  -0.00152478  1
  I  I94  1  0.49387120  0.49402048  0.33025767  1
  I  I95  1  0.49417741  0.49925414  0.67049648  1
  I  I96  1  0.49171526  0.84300259  -0.00465590  1
  I  I97  1  0.49918439  0.83460897  0.33353336  1
  I  I98  1  0.49764889  0.82931511  0.67065636  1
  I  I99  1  0.83386566  0.16737369  -0.00010500  1
  I  I100  1  0.83493420  0.16787426  0.33352620  1
  I  I101  1  0.83345911  0.16677544  0.66651899  1
  I  I102  1  0.83367439  0.49572619  -0.00011356  1
  I  I103  1  0.83430751  0.49677342  0.33302756  1
  I  I104  1  0.83422893  0.49611525  0.66699586  1
  I  I105  1  0.83625126  0.83704550  -0.00040257  1
  I  I106  1  0.83495720  0.83405430  0.33362209  1
  I  I107  1  0.83197540  0.83601873  0.66681486  1
  I  I108  1  0.00105581  0.17210370  0.16909887  1
  I  I109  1  0.00052770  0.16307877  0.50031136  1
  I  I110  1  -0.00161746  0.16680210  0.83106918  1
  I  I111  1  0.00329179  0.49722907  0.16238335  1
  I  I112  1  0.00047581  0.49715127  0.50097960  1
  I  I113  1  0.00350027  0.50277002  0.83741446  1
  I  I114  1  0.00040373  0.82945376  0.16396459  1
  I  I115  1  0.00435902  0.83938624  0.50699554  1
  I  I116  1  0.00351571  0.83090687  0.83000520  1
  I  I117  1  0.33042975  0.16875152  0.16980787  1
  I  I118  1  0.33270497  0.16363781  0.50113634  1
  I  I119  1  0.33603416  0.16708505  0.83021782  1
  I  I120  1  0.33225581  0.49136076  0.16150439  1
  I  I121  1  0.33319019  0.49479388  0.49988510  1
  I  I122  1  0.33343446  0.49701348  0.83713219  1
  I  I123  1  0.33325936  0.84149169  0.16868499  1
  I  I124  1  0.32983917  0.84084167  0.50177132  1
  I  I125  1  0.33295280  0.83638349  0.82949018  1
  I  I126  1  0.66873524  0.16861828  0.16861383  1
  I  I127  1  0.66654541  0.16954032  0.50129726  1
  I  I128  1  0.66549437  0.16697307  0.83029753  1
  I  I129  1  0.66355467  0.49598422  0.15915688  1
  I  I130  1  0.66635378  0.49751172  0.50006033  1
  I  I131  1  0.66314187  0.50059687  0.83839704  1
  I  I132  1  0.66627980  0.83457733  0.16471711  1
  I  I133  1  0.66659810  0.83386022  0.50092963  1
  I  I134  1  0.66348627  0.83178307  0.83485154  1
