# generated using pymatgen
data_Cs27Sn13Pb14I81
_symmetry_space_group_name_H-M   'P 1'
_cell_length_a   18.97488983
_cell_length_b   18.97596121
_cell_length_c   18.97995321
_cell_angle_alpha   89.99656924
_cell_angle_beta   90.00089962
_cell_angle_gamma   89.99790130
_symmetry_Int_Tables_number   1
_chemical_formula_structural   Cs27Sn13Pb14I81
_chemical_formula_sum   'Cs27 Sn13 Pb14 I81'
_cell_volume   6834.05049486
_cell_formula_units_Z   1
loop_
 _symmetry_equiv_pos_site_id
 _symmetry_equiv_pos_as_xyz
  1  'x, y, z'
loop_
 _atom_site_type_symbol
 _atom_site_label
 _atom_site_symmetry_multiplicity
 _atom_site_fract_x
 _atom_site_fract_y
 _atom_site_fract_z
 _atom_site_occupancy
  Cs  Cs0  1  0.00332000  -0.00138834  0.00402251  1
  Cs  Cs1  1  -0.00067371  -0.00425683  0.33138479  1
  Cs  Cs2  1  -0.00496419  0.00261816  0.66468180  1
  Cs  Cs3  1  -0.00686356  0.33429623  -0.00240088  1
  Cs  Cs4  1  0.00356705  0.33565922  0.33150001  1
  Cs  Cs5  1  0.00155918  0.33390010  0.67065515  1
  Cs  Cs6  1  -0.00171777  0.66769940  0.00069164  1
  Cs  Cs7  1  -0.00427845  0.66896985  0.33205216  1
  Cs  Cs8  1  0.00514486  0.66332974  0.66694231  1
  Cs  Cs9  1  0.32963233  -0.00113274  0.00035429  1
  Cs  Cs10  1  0.33256171  0.00367172  0.33177398  1
  Cs  Cs11  1  0.33323572  -0.00130459  0.66791520  1
  Cs  Cs12  1  0.33478805  0.33103732  0.00355491  1
  Cs  Cs13  1  0.33465631  0.33268053  0.33208511  1
  Cs  Cs14  1  0.33141783  0.33396058  0.66565852  1
  Cs  Cs15  1  0.33503603  0.67003878  -0.00217849  1
  Cs  Cs16  1  0.33500355  0.66355044  0.33554626  1
  Cs  Cs17  1  0.33243377  0.66715082  0.66695963  1
  Cs  Cs18  1  0.66599001  0.00057970  -0.00431669  1
  Cs  Cs19  1  0.66796307  0.00169644  0.33743941  1
  Cs  Cs20  1  0.67146598  0.00118640  0.66560837  1
  Cs  Cs21  1  0.67000080  0.33407452  -0.00074873  1
  Cs  Cs22  1  0.66395602  0.33254647  0.33392781  1
  Cs  Cs23  1  0.66822896  0.33011141  0.66741087  1
  Cs  Cs24  1  0.66588025  0.66549246  0.00174964  1
  Cs  Cs25  1  0.66768480  0.66629548  0.33326979  1
  Cs  Cs26  1  0.66337626  0.66936979  0.66438229  1
  Sn  Sn27  1  0.49917870  0.16735619  0.83309965  1
  Sn  Sn28  1  0.16706507  0.16581838  0.50046043  1
  Sn  Sn29  1  0.16753798  0.83424304  0.49992960  1
  Sn  Sn30  1  0.16723606  0.50036998  0.16624064  1
  Sn  Sn31  1  0.49910698  0.50073264  0.16664583  1
  Sn  Sn32  1  0.49983000  0.49903357  0.83313177  1
  Sn  Sn33  1  0.49991069  0.83313538  0.16774605  1
  Sn  Sn34  1  0.49915381  0.83306071  0.49890737  1
  Sn  Sn35  1  0.83251066  0.49981805  0.50027598  1
  Sn  Sn36  1  0.16748552  0.16676686  0.83274149  1
  Sn  Sn37  1  0.83306665  0.16650127  0.16715391  1
  Sn  Sn38  1  0.50094263  0.50038003  0.50020735  1
  Sn  Sn39  1  0.83357656  0.83276554  0.83333608  1
  Pb  Pb40  1  0.16907923  0.83089982  0.16899709  1
  Pb  Pb41  1  0.49833063  0.16658832  0.50206222  1
  Pb  Pb42  1  0.16907236  0.49804086  0.83606340  1
  Pb  Pb43  1  0.83082879  0.50213942  0.83104945  1
  Pb  Pb44  1  0.83046338  0.83523328  0.16493215  1
  Pb  Pb45  1  0.83358908  0.16517247  0.83482004  1
  Pb  Pb46  1  0.16730689  0.50007946  0.49866399  1
  Pb  Pb47  1  0.83249341  0.49881595  0.16838814  1
  Pb  Pb48  1  0.16429543  0.83551054  0.83104324  1
  Pb  Pb49  1  0.50084898  0.83337000  0.83285036  1
  Pb  Pb50  1  0.50146603  0.16663885  0.16454758  1
  Pb  Pb51  1  0.83622943  0.16910387  0.49801930  1
  Pb  Pb52  1  0.16493203  0.16847714  0.16650683  1
  Pb  Pb53  1  0.83315347  0.83142167  0.50141872  1
  I  I54  1  0.16680777  -0.00011111  0.16545885  1
  I  I55  1  0.17225800  -0.00021780  0.50330812  1
  I  I56  1  0.17414422  0.00352740  0.83353644  1
  I  I57  1  0.17372007  0.33614335  0.17040384  1
  I  I58  1  0.16627311  0.33123313  0.50218102  1
  I  I59  1  0.16709211  0.33006229  0.82587335  1
  I  I60  1  0.16778870  0.66306876  0.16904775  1
  I  I61  1  0.16799468  0.66882776  0.49792351  1
  I  I62  1  0.16677473  0.66662252  0.83208951  1
  I  I63  1  0.50268343  -0.00257830  0.16995724  1
  I  I64  1  0.49764569  -0.00285458  0.49684077  1
  I  I65  1  0.49845661  0.00230787  0.83404185  1
  I  I66  1  0.49763538  0.33647087  0.16944375  1
  I  I67  1  0.50172745  0.33636266  0.49733283  1
  I  I68  1  0.49720698  0.33406284  0.83352470  1
  I  I69  1  0.49707257  0.66540888  0.16525301  1
  I  I70  1  0.49810786  0.66610897  0.50145222  1
  I  I71  1  0.50290311  0.66398844  0.83355972  1
  I  I72  1  0.83346640  0.00275581  0.16614055  1
  I  I73  1  0.83109972  -0.00001648  0.50041834  1
  I  I74  1  0.82896534  -0.00225903  0.83238217  1
  I  I75  1  0.83213732  0.33116202  0.16556060  1
  I  I76  1  0.82675363  0.33673297  0.49970815  1
  I  I77  1  0.83427424  0.33348501  0.83368584  1
  I  I78  1  0.83509866  0.66667146  0.16652440  1
  I  I79  1  0.83293308  0.66366760  0.49921100  1
  I  I80  1  0.83083133  0.66945085  0.83362241  1
  I  I81  1  0.16952758  0.16892827  -0.00255790  1
  I  I82  1  0.16504138  0.16492489  0.33583740  1
  I  I83  1  0.17041765  0.16420961  0.66652586  1
  I  I84  1  0.17153534  0.49771659  0.00374202  1
  I  I85  1  0.17257393  0.49701887  0.33107071  1
  I  I86  1  0.16670751  0.50091570  0.66671274  1
  I  I87  1  0.16716696  0.83448998  0.00013483  1
  I  I88  1  0.16704106  0.83984286  0.33700937  1
  I  I89  1  0.17393042  0.83222273  0.66306047  1
  I  I90  1  0.49545602  0.16953726  -0.00338895  1
  I  I91  1  0.49946022  0.16894160  0.33343340  1
  I  I92  1  0.49932186  0.17020685  0.66998902  1
  I  I93  1  0.49519774  0.50035336  0.00051838  1
  I  I94  1  0.50005085  0.50468765  0.33353336  1
  I  I95  1  0.50463587  0.50078960  0.66588437  1
  I  I96  1  0.50326876  0.82976466  0.00198745  1
  I  I97  1  0.49751803  0.82509123  0.33418200  1
  I  I98  1  0.49769954  0.82935325  0.66372690  1
  I  I99  1  0.83423874  0.16788412  0.00231367  1
  I  I100  1  0.83295366  0.16685066  0.33068614  1
  I  I101  1  0.83213704  0.16628839  0.66657564  1
  I  I102  1  0.83300224  0.49925410  -0.00008265  1
  I  I103  1  0.82822661  0.50022290  0.33616581  1
  I  I104  1  0.82922996  0.49979933  0.66322522  1
  I  I105  1  0.83071738  0.83392077  -0.00265224  1
  I  I106  1  0.83481376  0.83348097  0.33346877  1
  I  I107  1  0.82934709  0.83486324  0.66886411  1
  I  I108  1  -0.00249147  0.16960856  0.16496117  1
  I  I109  1  0.00403723  0.16304718  0.50595605  1
  I  I110  1  0.00269826  0.16452577  0.83035981  1
  I  I111  1  0.00187791  0.49649229  0.17034380  1
  I  I112  1  -0.00147020  0.49989779  0.49676442  1
  I  I113  1  0.00001947  0.49907105  0.83302396  1
  I  I114  1  0.00009944  0.83236466  0.16700753  1
  I  I115  1  0.00252935  0.83538146  0.50269536  1
  I  I116  1  -0.00307381  0.83521378  0.83195024  1
  I  I117  1  0.33343283  0.16619186  0.16710626  1
  I  I118  1  0.33040973  0.16802543  0.50050991  1
  I  I119  1  0.33369858  0.17017870  0.83057605  1
  I  I120  1  0.33548421  0.50136259  0.16978063  1
  I  I121  1  0.33662984  0.50122756  0.50105390  1
  I  I122  1  0.33747593  0.50026518  0.82761024  1
  I  I123  1  0.33719538  0.83264311  0.16613545  1
  I  I124  1  0.33458579  0.83047114  0.49775488  1
  I  I125  1  0.33334226  0.83253557  0.83454763  1
  I  I126  1  0.66886644  0.16871965  0.16428477  1
  I  I127  1  0.66658352  0.16459272  0.50111814  1
  I  I128  1  0.66411761  0.16918476  0.83571632  1
  I  I129  1  0.66294797  0.50244449  0.16533309  1
  I  I130  1  0.66415984  0.50552204  0.49769269  1
  I  I131  1  0.66238917  0.49410939  0.83821173  1
  I  I132  1  0.66255657  0.82630204  0.17231141  1
  I  I133  1  0.66346637  0.82995769  0.49802584  1
  I  I134  1  0.66826705  0.83571364  0.83156049  1
