# generated using pymatgen
data_Cs27Sn14Pb13I81
_symmetry_space_group_name_H-M   'P 1'
_cell_length_a   18.97108125
_cell_length_b   18.97518626
_cell_length_c   18.98265660
_cell_angle_alpha   89.99878181
_cell_angle_beta   89.99952467
_cell_angle_gamma   89.99945380
_symmetry_Int_Tables_number   1
_chemical_formula_structural   Cs27Sn14Pb13I81
_chemical_formula_sum   'Cs27 Sn14 Pb13 I81'
_cell_volume   6833.37292891
_cell_formula_units_Z   1
loop_
 _symmetry_equiv_pos_site_id
 _symmetry_equiv_pos_as_xyz
  1  'x, y, z'
loop_
 _atom_site_type_symbol
 _atom_site_label
 _atom_site_symmetry_multiplicity
 _atom_site_fract_x
 _atom_site_fract_y
 _atom_site_fract_z
 _atom_site_occupancy
  Cs  Cs0  1  -0.00209646  -0.00286230  0.00115312  1
  Cs  Cs1  1  0.00140441  -0.00158875  0.33419332  1
  Cs  Cs2  1  0.00151525  -0.00037187  0.66426378  1
  Cs  Cs3  1  0.00130496  0.33232586  -0.00097300  1
  Cs  Cs4  1  -0.00145949  0.33501911  0.33115595  1
  Cs  Cs5  1  0.00174071  0.33238533  0.66933458  1
  Cs  Cs6  1  0.00035596  0.66681855  0.00056910  1
  Cs  Cs7  1  -0.00090487  0.66675704  0.33199666  1
  Cs  Cs8  1  -0.00206052  0.66733422  0.66815348  1
  Cs  Cs9  1  0.34347719  -0.00212364  0.00038864  1
  Cs  Cs10  1  0.33663240  0.00103638  0.33964177  1
  Cs  Cs11  1  0.33944332  0.00688613  0.65927717  1
  Cs  Cs12  1  0.32822554  0.33570861  -0.00237643  1
  Cs  Cs13  1  0.33422063  0.33447252  0.33510181  1
  Cs  Cs14  1  0.33065669  0.32589151  0.66612923  1
  Cs  Cs15  1  0.33175479  0.66577313  0.00033377  1
  Cs  Cs16  1  0.33376351  0.66696765  0.33414294  1
  Cs  Cs17  1  0.33653587  0.66842680  0.66470199  1
  Cs  Cs18  1  0.65877466  0.00728305  -0.00060093  1
  Cs  Cs19  1  0.66288603  0.00358674  0.32862475  1
  Cs  Cs20  1  0.66284936  0.00104585  0.67270596  1
  Cs  Cs21  1  0.66801600  0.33011480  0.00074619  1
  Cs  Cs22  1  0.66590188  0.33435026  0.33374476  1
  Cs  Cs23  1  0.66632012  0.33466478  0.66511896  1
  Cs  Cs24  1  0.66704317  0.66653625  -0.00095468  1
  Cs  Cs25  1  0.66876906  0.66438107  0.33413709  1
  Cs  Cs26  1  0.66853244  0.66540423  0.66742346  1
  Sn  Sn27  1  0.16652693  0.50019215  0.16745918  1
  Sn  Sn28  1  0.83334421  0.50051981  0.16616318  1
  Sn  Sn29  1  0.83272153  0.50053120  0.83379067  1
  Sn  Sn30  1  0.83458910  0.49999993  0.50005794  1
  Sn  Sn31  1  0.16644016  0.16591186  0.16625618  1
  Sn  Sn32  1  0.16555518  0.50054122  0.49961889  1
  Sn  Sn33  1  0.83367262  0.83292804  0.16623320  1
  Sn  Sn34  1  0.83419358  0.83267567  0.83401903  1
  Sn  Sn35  1  0.50018047  0.50046487  0.16555098  1
  Sn  Sn36  1  0.50062388  0.50033059  0.83403773  1
  Sn  Sn37  1  0.83348827  0.83368855  0.49982472  1
  Sn  Sn38  1  0.16620010  0.83369850  0.16589598  1
  Sn  Sn39  1  0.83367296  0.16657001  0.49995439  1
  Sn  Sn40  1  0.16638534  0.83338452  0.83364039  1
  Pb  Pb41  1  0.50010705  0.83090151  0.16680423  1
  Pb  Pb42  1  0.16628429  0.16238323  0.83599190  1
  Pb  Pb43  1  0.83375129  0.16633718  0.83117543  1
  Pb  Pb44  1  0.50002842  0.83108944  0.83340683  1
  Pb  Pb45  1  0.49661184  0.17010593  0.16672112  1
  Pb  Pb46  1  0.16648370  0.50163196  0.83307588  1
  Pb  Pb47  1  0.16435751  0.16924484  0.49773343  1
  Pb  Pb48  1  0.49991215  0.17043545  0.83351861  1
  Pb  Pb49  1  0.16505359  0.83135343  0.49986169  1
  Pb  Pb50  1  0.50002822  0.50008026  0.50028085  1
  Pb  Pb51  1  0.50368319  0.83300354  0.49992089  1
  Pb  Pb52  1  0.50323931  0.16701785  0.49972615  1
  Pb  Pb53  1  0.83498464  0.16635765  0.16826104  1
  I  I54  1  0.15834823  -0.00155814  0.16191044  1
  I  I55  1  0.16436142  -0.00017534  0.49893369  1
  I  I56  1  0.15693999  -0.00553601  0.83748666  1
  I  I57  1  0.16665356  0.33547088  0.17187170  1
  I  I58  1  0.16109058  0.33750615  0.49536926  1
  I  I59  1  0.16742120  0.33355419  0.83352030  1
  I  I60  1  0.16536410  0.66599180  0.16652397  1
  I  I61  1  0.16082666  0.66322858  0.49406649  1
  I  I62  1  0.16390906  0.66929536  0.83947810  1
  I  I63  1  0.50125716  0.00006694  0.16702126  1
  I  I64  1  0.49912826  0.00008165  0.49988700  1
  I  I65  1  0.50099330  -0.00014257  0.83295470  1
  I  I66  1  0.50302099  0.33838168  0.16369867  1
  I  I67  1  0.50230001  0.33397366  0.50000951  1
  I  I68  1  0.50678567  0.33863069  0.83764236  1
  I  I69  1  0.49667426  0.66264733  0.16338713  1
  I  I70  1  0.50102709  0.66603795  0.49975085  1
  I  I71  1  0.50282479  0.66312779  0.83766305  1
  I  I72  1  0.83881609  -0.00342257  0.16775537  1
  I  I73  1  0.83382327  -0.00112561  0.49934645  1
  I  I74  1  0.83827246  -0.00388944  0.83316896  1
  I  I75  1  0.83401251  0.33693350  0.16719135  1
  I  I76  1  0.83643732  0.33536431  0.49912167  1
  I  I77  1  0.82916927  0.33699575  0.83364222  1
  I  I78  1  0.83701285  0.66559869  0.17013748  1
  I  I79  1  0.83670468  0.66576668  0.49972495  1
  I  I80  1  0.83312126  0.66593043  0.82968820  1
  I  I81  1  0.16417259  0.17604017  0.00387200  1
  I  I82  1  0.16473168  0.16293637  0.32996353  1
  I  I83  1  0.16655576  0.16829948  0.66642104  1
  I  I84  1  0.16491549  0.49835692  0.00319750  1
  I  I85  1  0.16357356  0.50166531  0.33154470  1
  I  I86  1  0.16247039  0.50242180  0.66435367  1
  I  I87  1  0.15753267  0.82976285  0.00149564  1
  I  I88  1  0.16196583  0.83324806  0.32996748  1
  I  I89  1  0.16063877  0.82829763  0.66900104  1
  I  I90  1  0.50238253  0.16438975  0.00038763  1
  I  I91  1  0.50044148  0.16939567  0.33302646  1
  I  I92  1  0.49905994  0.16843330  0.66658328  1
  I  I93  1  0.50316341  0.50109900  0.00079135  1
  I  I94  1  0.50216271  0.49987957  0.33037269  1
  I  I95  1  0.50496372  0.50167816  0.66948224  1
  I  I96  1  0.50403756  0.83404914  0.00013827  1
  I  I97  1  0.49936571  0.83005224  0.33312358  1
  I  I98  1  0.49888713  0.82941955  0.66682789  1
  I  I99  1  0.83399443  0.16780973  0.00015817  1
  I  I100  1  0.83536986  0.16839634  0.33616537  1
  I  I101  1  0.83420066  0.16862546  0.66309490  1
  I  I102  1  0.83308618  0.50616264  0.00075459  1
  I  I103  1  0.83378573  0.50220718  0.33283553  1
  I  I104  1  0.83274208  0.50271719  0.66646656  1
  I  I105  1  0.83910188  0.82396420  0.00047729  1
  I  I106  1  0.83759317  0.82896649  0.33266640  1
  I  I107  1  0.83719325  0.82883556  0.66702224  1
  I  I108  1  0.00275670  0.17258185  0.16799185  1
  I  I109  1  -0.00345233  0.16549298  0.49947271  1
  I  I110  1  0.00002549  0.17405277  0.83300458  1
  I  I111  1  -0.00036395  0.50056023  0.16801932  1
  I  I112  1  -0.00183242  0.50030999  0.49619182  1
  I  I113  1  -0.00319025  0.50188978  0.83451319  1
  I  I114  1  -0.00058165  0.82808041  0.16641229  1
  I  I115  1  -0.00379941  0.83347881  0.49977712  1
  I  I116  1  -0.00167419  0.82630822  0.83450909  1
  I  I117  1  0.32871051  0.16556750  0.16702108  1
  I  I118  1  0.33294679  0.16889441  0.49969995  1
  I  I119  1  0.33304148  0.16803568  0.83293072  1
  I  I120  1  0.33207162  0.49986566  0.16670735  1
  I  I121  1  0.33032726  0.50051543  0.49571364  1
  I  I122  1  0.33514905  0.50218907  0.83776429  1
  I  I123  1  0.32971433  0.83141149  0.16090052  1
  I  I124  1  0.33298631  0.83076551  0.50013114  1
  I  I125  1  0.33030157  0.83001763  0.84104208  1
  I  I126  1  0.66658812  0.16638398  0.16848786  1
  I  I127  1  0.67144589  0.17082783  0.49806490  1
  I  I128  1  0.66697247  0.16209077  0.83342983  1
  I  I129  1  0.66844800  0.50484338  0.16744740  1
  I  I130  1  0.67057046  0.50058064  0.49745666  1
  I  I131  1  0.66886839  0.50557585  0.83534483  1
  I  I132  1  0.67053365  0.82816449  0.16752962  1
  I  I133  1  0.67284444  0.82754315  0.49988663  1
  I  I134  1  0.67048530  0.83052592  0.83229282  1
