# generated using pymatgen
data_Cs27Sn14Pb13I81
_symmetry_space_group_name_H-M   'P 1'
_cell_length_a   18.96585457
_cell_length_b   18.96538395
_cell_length_c   18.95535098
_cell_angle_alpha   89.99823225
_cell_angle_beta   89.99787750
_cell_angle_gamma   90.00006510
_symmetry_Int_Tables_number   1
_chemical_formula_structural   Cs27Sn14Pb13I81
_chemical_formula_sum   'Cs27 Sn14 Pb13 I81'
_cell_volume   6818.13954035
_cell_formula_units_Z   1
loop_
 _symmetry_equiv_pos_site_id
 _symmetry_equiv_pos_as_xyz
  1  'x, y, z'
loop_
 _atom_site_type_symbol
 _atom_site_label
 _atom_site_symmetry_multiplicity
 _atom_site_fract_x
 _atom_site_fract_y
 _atom_site_fract_z
 _atom_site_occupancy
  Cs  Cs0  1  0.00003842  0.00004176  -0.00016927  1
  Cs  Cs1  1  0.00022107  -0.00083658  0.33355620  1
  Cs  Cs2  1  0.00228285  0.00092580  0.66724021  1
  Cs  Cs3  1  -0.00191128  0.33433835  0.00102609  1
  Cs  Cs4  1  -0.00043817  0.33360305  0.33328571  1
  Cs  Cs5  1  0.00013240  0.33361172  0.66510973  1
  Cs  Cs6  1  -0.00110394  0.66546648  -0.00113096  1
  Cs  Cs7  1  0.00032230  0.66795706  0.33308161  1
  Cs  Cs8  1  0.00240333  0.66524931  0.66881723  1
  Cs  Cs9  1  0.33306862  0.00093271  -0.00010208  1
  Cs  Cs10  1  0.33228433  0.00011702  0.33253005  1
  Cs  Cs11  1  0.33109582  0.00195074  0.66826628  1
  Cs  Cs12  1  0.33617820  0.33381000  0.00213518  1
  Cs  Cs13  1  0.33301395  0.33306730  0.33212251  1
  Cs  Cs14  1  0.33296996  0.33207818  0.66600009  1
  Cs  Cs15  1  0.33330982  0.66522237  0.00069155  1
  Cs  Cs16  1  0.33642780  0.66760544  0.33528718  1
  Cs  Cs17  1  0.33222077  0.66576574  0.66528993  1
  Cs  Cs18  1  0.66623498  0.00129316  -0.00163026  1
  Cs  Cs19  1  0.66774780  -0.00538249  0.33471630  1
  Cs  Cs20  1  0.66750948  0.00177317  0.66808723  1
  Cs  Cs21  1  0.66612333  0.33379607  0.00025477  1
  Cs  Cs22  1  0.66680621  0.33300688  0.33053627  1
  Cs  Cs23  1  0.66735895  0.33231613  0.66610874  1
  Cs  Cs24  1  0.66774469  0.66367552  -0.00021073  1
  Cs  Cs25  1  0.66380191  0.67328355  0.33838821  1
  Cs  Cs26  1  0.66529222  0.66592300  0.66413340  1
  Sn  Sn27  1  0.50119203  0.49939726  0.16597910  1
  Sn  Sn28  1  0.16671714  0.83424500  0.50095880  1
  Sn  Sn29  1  0.49980902  0.83219808  0.83355159  1
  Sn  Sn30  1  0.16752985  0.16598182  0.50077224  1
  Sn  Sn31  1  0.83327109  0.83329949  0.83343420  1
  Sn  Sn32  1  0.83442432  0.16691498  0.83405067  1
  Sn  Sn33  1  0.50101473  0.16694857  0.16779402  1
  Sn  Sn34  1  0.16687225  0.83419529  0.83312510  1
  Sn  Sn35  1  0.50072535  0.50076396  0.83378537  1
  Sn  Sn36  1  0.16568839  0.16639373  0.83303230  1
  Sn  Sn37  1  0.83209537  0.49942302  0.16607028  1
  Sn  Sn38  1  0.49962263  0.16672773  0.49872354  1
  Sn  Sn39  1  0.83227903  0.49973314  0.83354336  1
  Sn  Sn40  1  0.83228515  0.16707049  0.16584135  1
  Pb  Pb41  1  0.16634134  0.16670341  0.16652199  1
  Pb  Pb42  1  0.16673380  0.49977991  0.49993307  1
  Pb  Pb43  1  0.83324150  0.83320216  0.16458343  1
  Pb  Pb44  1  0.16661080  0.50002829  0.16665689  1
  Pb  Pb45  1  0.83312699  0.50008482  0.49951187  1
  Pb  Pb46  1  0.49796653  0.83613016  0.50291072  1
  Pb  Pb47  1  0.16671558  0.83327742  0.16626785  1
  Pb  Pb48  1  0.50002206  0.16705773  0.83367802  1
  Pb  Pb49  1  0.83601822  0.83335435  0.50302962  1
  Pb  Pb50  1  0.83359710  0.16674615  0.49956318  1
  Pb  Pb51  1  0.50014119  0.49770588  0.49985804  1
  Pb  Pb52  1  0.16675217  0.49967587  0.83343705  1
  Pb  Pb53  1  0.50005815  0.83329757  0.16448423  1
  I  I54  1  0.16701691  0.00035852  0.16541432  1
  I  I55  1  0.17061859  0.00110295  0.50598706  1
  I  I56  1  0.16436288  0.00031892  0.82969893  1
  I  I57  1  0.16715169  0.33300399  0.16641480  1
  I  I58  1  0.16976298  0.32939901  0.50490066  1
  I  I59  1  0.16403714  0.32998370  0.82913511  1
  I  I60  1  0.16619456  0.66664722  0.16649739  1
  I  I61  1  0.16524362  0.67009812  0.50623940  1
  I  I62  1  0.16463689  0.66975666  0.82908250  1
  I  I63  1  0.50318019  0.00334919  0.16841483  1
  I  I64  1  0.49847739  0.00406849  0.49581968  1
  I  I65  1  0.50168216  -0.00176709  0.83272780  1
  I  I66  1  0.50298310  0.33299511  0.16367382  1
  I  I67  1  0.49334639  0.32957475  0.50227121  1
  I  I68  1  0.50246845  0.33568820  0.83397169  1
  I  I69  1  0.50396449  0.66329092  0.16334491  1
  I  I70  1  0.49789698  0.66700092  0.49780146  1
  I  I71  1  0.50205184  0.66616177  0.83847598  1
  I  I72  1  0.83014332  0.00334715  0.16228180  1
  I  I73  1  0.83050347  0.00025752  0.49937449  1
  I  I74  1  0.83379800  0.00058614  0.83663046  1
  I  I75  1  0.82974806  0.33274404  0.15782402  1
  I  I76  1  0.83648320  0.33303799  0.50635293  1
  I  I77  1  0.83325165  0.33294913  0.83672561  1
  I  I78  1  0.82986767  0.66312334  0.16157222  1
  I  I79  1  0.83574167  0.66683798  0.49969460  1
  I  I80  1  0.83389388  0.66634882  0.83691251  1
  I  I81  1  0.16595489  0.16190672  -0.00322986  1
  I  I82  1  0.16784996  0.16218345  0.33625239  1
  I  I83  1  0.16732485  0.16280406  0.66762316  1
  I  I84  1  0.16758650  0.50017519  -0.00037764  1
  I  I85  1  0.16585790  0.50004502  0.33330135  1
  I  I86  1  0.16645961  0.49904739  0.66711675  1
  I  I87  1  0.16615509  0.83798716  -0.00447975  1
  I  I88  1  0.16694588  0.83853352  0.33670987  1
  I  I89  1  0.16629629  0.83857574  0.66855437  1
  I  I90  1  0.50044966  0.16746476  0.00222043  1
  I  I91  1  0.49899225  0.17267102  0.33230233  1
  I  I92  1  0.49848079  0.16584845  0.66526739  1
  I  I93  1  0.50322539  0.49737302  -0.00051600  1
  I  I94  1  0.50391983  0.49691628  0.32981543  1
  I  I95  1  0.50361862  0.50252052  0.67002980  1
  I  I96  1  0.49751608  0.83533893  -0.00425819  1
  I  I97  1  0.49728971  0.83079618  0.33366614  1
  I  I98  1  0.50252562  0.82909936  0.67128663  1
  I  I99  1  0.83326793  0.16697750  -0.00122534  1
  I  I100  1  0.83311710  0.17307965  0.32992774  1
  I  I101  1  0.83361871  0.16646347  0.67012595  1
  I  I102  1  0.82960473  0.49892950  -0.00138362  1
  I  I103  1  0.83021877  0.49265079  0.32917909  1
  I  I104  1  0.83007963  0.49916748  0.67085415  1
  I  I105  1  0.83646908  0.83405128  -0.00435550  1
  I  I106  1  0.83581136  0.83297148  0.33339753  1
  I  I107  1  0.83081305  0.83460720  0.67187575  1
  I  I108  1  -0.00325675  0.17101723  0.16474174  1
  I  I109  1  0.00306350  0.16247749  0.50197023  1
  I  I110  1  -0.00059979  0.16398237  0.83323082  1
  I  I111  1  -0.00406130  0.49513653  0.16108667  1
  I  I112  1  -0.00003972  0.49774075  0.50035280  1
  I  I113  1  -0.00330042  0.50184225  0.83757943  1
  I  I114  1  -0.00019289  0.83337261  0.16457609  1
  I  I115  1  0.00411528  0.84113906  0.50508482  1
  I  I116  1  -0.00003325  0.83412681  0.82997221  1
  I  I117  1  0.33626729  0.17081124  0.16651305  1
  I  I118  1  0.33274765  0.16377514  0.50153472  1
  I  I119  1  0.33124971  0.16339454  0.83242863  1
  I  I120  1  0.33727610  0.49532000  0.16161941  1
  I  I121  1  0.33359830  0.50075058  0.50058485  1
  I  I122  1  0.33653262  0.50234362  0.83723656  1
  I  I123  1  0.33357735  0.83329092  0.16237597  1
  I  I124  1  0.33001417  0.83525152  0.50674716  1
  I  I125  1  0.33294168  0.83437593  0.83020768  1
  I  I126  1  0.66678983  0.17098749  0.16503161  1
  I  I127  1  0.66416818  0.16868297  0.50077811  1
  I  I128  1  0.66908657  0.16406470  0.83353470  1
  I  I129  1  0.66656513  0.49329279  0.15956920  1
  I  I130  1  0.66647206  0.49769415  0.50276485  1
  I  I131  1  0.66700319  0.50217577  0.83703492  1
  I  I132  1  0.66664116  0.83536188  0.16532599  1
  I  I133  1  0.66641104  0.83403134  0.50105558  1
  I  I134  1  0.66701920  0.83418395  0.83562260  1
