# generated using pymatgen
data_Cs27Sn14Pb13I81
_symmetry_space_group_name_H-M   'P 1'
_cell_length_a   18.97175150
_cell_length_b   18.98516214
_cell_length_c   18.97073778
_cell_angle_alpha   90.00035541
_cell_angle_beta   90.00250930
_cell_angle_gamma   89.99843502
_symmetry_Int_Tables_number   1
_chemical_formula_structural   Cs27Sn14Pb13I81
_chemical_formula_sum   'Cs27 Sn14 Pb13 I81'
_cell_volume   6832.91406008
_cell_formula_units_Z   1
loop_
 _symmetry_equiv_pos_site_id
 _symmetry_equiv_pos_as_xyz
  1  'x, y, z'
loop_
 _atom_site_type_symbol
 _atom_site_label
 _atom_site_symmetry_multiplicity
 _atom_site_fract_x
 _atom_site_fract_y
 _atom_site_fract_z
 _atom_site_occupancy
  Cs  Cs0  1  -0.00024821  0.00029957  0.00245842  1
  Cs  Cs1  1  0.00239620  0.00404098  0.33134174  1
  Cs  Cs2  1  -0.00741004  -0.00120575  0.66436576  1
  Cs  Cs3  1  -0.00322842  0.33603360  0.00085374  1
  Cs  Cs4  1  0.00205142  0.33437599  0.33329096  1
  Cs  Cs5  1  -0.00038968  0.33219133  0.66578661  1
  Cs  Cs6  1  -0.00222148  0.66358289  0.00018150  1
  Cs  Cs7  1  0.00037549  0.66303467  0.33417613  1
  Cs  Cs8  1  0.00240276  0.66735134  0.66598059  1
  Cs  Cs9  1  0.33386433  -0.00043925  0.00043629  1
  Cs  Cs10  1  0.33184884  0.00018880  0.33080570  1
  Cs  Cs11  1  0.33261433  0.00134134  0.67149077  1
  Cs  Cs12  1  0.33565382  0.33301487  -0.00239751  1
  Cs  Cs13  1  0.33301630  0.33214542  0.33555411  1
  Cs  Cs14  1  0.33436819  0.33526182  0.66853377  1
  Cs  Cs15  1  0.33320232  0.66786221  -0.00187082  1
  Cs  Cs16  1  0.33492835  0.66830934  0.33317877  1
  Cs  Cs17  1  0.33050974  0.66453408  0.66889958  1
  Cs  Cs18  1  0.66585058  0.00256705  0.00065411  1
  Cs  Cs19  1  0.66667498  -0.00395346  0.33710562  1
  Cs  Cs20  1  0.67715194  -0.00106597  0.65925038  1
  Cs  Cs21  1  0.66685042  0.33287594  0.00119749  1
  Cs  Cs22  1  0.66387695  0.33409388  0.33055658  1
  Cs  Cs23  1  0.66476189  0.32932480  0.66498278  1
  Cs  Cs24  1  0.66876014  0.66449135  0.00065193  1
  Cs  Cs25  1  0.66451078  0.66989975  0.33544019  1
  Cs  Cs26  1  0.66844228  0.67097062  0.66270832  1
  Sn  Sn27  1  0.83340724  0.83414642  0.16630821  1
  Sn  Sn28  1  0.16702110  0.83345209  0.83266730  1
  Sn  Sn29  1  0.49957813  0.16635217  0.83374135  1
  Sn  Sn30  1  0.49967206  0.50030098  0.83407458  1
  Sn  Sn31  1  0.16600108  0.50068405  0.50026318  1
  Sn  Sn32  1  0.16706397  0.49985356  0.83353184  1
  Sn  Sn33  1  0.16708475  0.83293095  0.50044347  1
  Sn  Sn34  1  0.83364549  0.49966866  0.50019444  1
  Sn  Sn35  1  0.50049918  0.16713019  0.16615182  1
  Sn  Sn36  1  0.49997173  0.83346283  0.83327009  1
  Sn  Sn37  1  0.83242331  0.16568709  0.16647665  1
  Sn  Sn38  1  0.49876927  0.49948067  0.16584435  1
  Sn  Sn39  1  0.16676704  0.16671982  0.83346743  1
  Sn  Sn40  1  0.16795066  0.49996664  0.16635116  1
  Pb  Pb41  1  0.16515735  0.83091169  0.16615876  1
  Pb  Pb42  1  0.49917785  0.50000862  0.50027421  1
  Pb  Pb43  1  0.83628138  0.83139878  0.49734023  1
  Pb  Pb44  1  0.83344620  0.16932374  0.49661349  1
  Pb  Pb45  1  0.50151495  0.83322486  0.16458608  1
  Pb  Pb46  1  0.83267514  0.49999082  0.83085823  1
  Pb  Pb47  1  0.16739195  0.16915297  0.16430376  1
  Pb  Pb48  1  0.83367511  0.83323081  0.83511499  1
  Pb  Pb49  1  0.83291123  0.16682330  0.83525145  1
  Pb  Pb50  1  0.83253332  0.49971827  0.16829551  1
  Pb  Pb51  1  0.16686973  0.16667119  0.50307150  1
  Pb  Pb52  1  0.49684353  0.83342630  0.50325983  1
  Pb  Pb53  1  0.49974092  0.16635225  0.50022691  1
  I  I54  1  0.16736603  0.00010389  0.16741143  1
  I  I55  1  0.16749058  -0.00307595  0.50427727  1
  I  I56  1  0.17343455  -0.00044364  0.82964034  1
  I  I57  1  0.16447438  0.33732510  0.16765248  1
  I  I58  1  0.16300751  0.33684327  0.50013834  1
  I  I59  1  0.17212355  0.33446013  0.83355999  1
  I  I60  1  0.16967576  0.66271672  0.16268230  1
  I  I61  1  0.16289064  0.66522214  0.50511883  1
  I  I62  1  0.17223178  0.66593301  0.83241859  1
  I  I63  1  0.50261325  0.00276428  0.16168342  1
  I  I64  1  0.49874324  -0.00024366  0.49857079  1
  I  I65  1  0.49131743  0.00059151  0.83865194  1
  I  I66  1  0.50271438  0.33379401  0.15906971  1
  I  I67  1  0.49854651  0.33354728  0.50394629  1
  I  I68  1  0.49311144  0.33367595  0.83773922  1
  I  I69  1  0.49803265  0.66361356  0.16287674  1
  I  I70  1  0.50372411  0.66652335  0.49785363  1
  I  I71  1  0.49318285  0.66580376  0.83756622  1
  I  I72  1  0.82883282  0.00083288  0.16482295  1
  I  I73  1  0.83432024  -0.00013729  0.50106461  1
  I  I74  1  0.83430648  0.00003039  0.83209803  1
  I  I75  1  0.83193669  0.33128480  0.16776824  1
  I  I76  1  0.84151054  0.33699322  0.49921595  1
  I  I77  1  0.83528402  0.33348742  0.83552867  1
  I  I78  1  0.83452555  0.66801066  0.16767417  1
  I  I79  1  0.83530880  0.66372028  0.49706100  1
  I  I80  1  0.83247055  0.66655478  0.83776155  1
  I  I81  1  0.16799420  0.16538135  -0.00382194  1
  I  I82  1  0.16624962  0.16697252  0.33301750  1
  I  I83  1  0.17393880  0.17195570  0.67132493  1
  I  I84  1  0.17051627  0.50040186  -0.00092167  1
  I  I85  1  0.16560719  0.50444972  0.33339226  1
  I  I86  1  0.16683593  0.50074699  0.66782430  1
  I  I87  1  0.16948615  0.83228660  -0.00348568  1
  I  I88  1  0.16299148  0.82711220  0.33552431  1
  I  I89  1  0.17047984  0.82734545  0.66807359  1
  I  I90  1  0.50006505  0.16844959  -0.00064199  1
  I  I91  1  0.50431347  0.17324026  0.32955495  1
  I  I92  1  0.49405168  0.17002407  0.67096939  1
  I  I93  1  0.49297684  0.49933445  -0.00045961  1
  I  I94  1  0.49758860  0.49450069  0.33021731  1
  I  I95  1  0.49656667  0.49879915  0.67034265  1
  I  I96  1  0.49235465  0.83297524  -0.00359137  1
  I  I97  1  0.50051479  0.83291987  0.33319082  1
  I  I98  1  0.49929382  0.83118635  0.67179721  1
  I  I99  1  0.83216152  0.16560583  0.00327631  1
  I  I100  1  0.82763587  0.16280838  0.32868699  1
  I  I101  1  0.83267405  0.16717476  0.66649153  1
  I  I102  1  0.83671704  0.50004082  0.00023452  1
  I  I103  1  0.83968469  0.49979721  0.33581917  1
  I  I104  1  0.83861310  0.50172618  0.66324485  1
  I  I105  1  0.83604951  0.83493032  0.00290707  1
  I  I106  1  0.83336210  0.83661931  0.32981579  1
  I  I107  1  0.83084797  0.83224541  0.66636920  1
  I  I108  1  -0.00180906  0.16469642  0.16537352  1
  I  I109  1  0.00021672  0.16583493  0.50009882  1
  I  I110  1  0.00308379  0.16748579  0.83421071  1
  I  I111  1  0.00248703  0.50049719  0.16407818  1
  I  I112  1  0.00234334  0.50373443  0.49895653  1
  I  I113  1  0.00359338  0.50077811  0.83665739  1
  I  I114  1  -0.00263530  0.83766427  0.16490027  1
  I  I115  1  0.00385327  0.83005783  0.50846925  1
  I  I116  1  0.00377052  0.83209806  0.83049053  1
  I  I117  1  0.33640271  0.16935773  0.16410099  1
  I  I118  1  0.33301967  0.16933202  0.49382049  1
  I  I119  1  0.33373516  0.16709376  0.83875367  1
  I  I120  1  0.33353002  0.49530133  0.16745677  1
  I  I121  1  0.32977252  0.50367084  0.50052531  1
  I  I122  1  0.33248687  0.49979374  0.83215582  1
  I  I123  1  0.33321189  0.83539669  0.16930314  1
  I  I124  1  0.32900849  0.82423009  0.49929522  1
  I  I125  1  0.33255603  0.83243635  0.83077294  1
  I  I126  1  0.66531555  0.17030595  0.15991636  1
  I  I127  1  0.66680024  0.16920434  0.50574003  1
  I  I128  1  0.66294307  0.16861212  0.83605591  1
  I  I129  1  0.66361252  0.49884831  0.16292230  1
  I  I130  1  0.66864940  0.49898807  0.49853989  1
  I  I131  1  0.66280260  0.49915179  0.83823556  1
  I  I132  1  0.66934360  0.83128657  0.16433439  1
  I  I133  1  0.66693605  0.83159547  0.50105909  1
  I  I134  1  0.66353478  0.83238870  0.83701753  1
