# generated using pymatgen
data_Cs27Sn13Pb14I81
_symmetry_space_group_name_H-M   'P 1'
_cell_length_a   18.96841267
_cell_length_b   18.97984105
_cell_length_c   18.97984106
_cell_angle_alpha   89.99927353
_cell_angle_beta   89.99679632
_cell_angle_gamma   90.00320365
_symmetry_Int_Tables_number   1
_chemical_formula_structural   Cs27Sn13Pb14I81
_chemical_formula_sum   'Cs27 Sn13 Pb14 I81'
_cell_volume   6833.07409638
_cell_formula_units_Z   1
loop_
 _symmetry_equiv_pos_site_id
 _symmetry_equiv_pos_as_xyz
  1  'x, y, z'
loop_
 _atom_site_type_symbol
 _atom_site_label
 _atom_site_symmetry_multiplicity
 _atom_site_fract_x
 _atom_site_fract_y
 _atom_site_fract_z
 _atom_site_occupancy
  Cs  Cs0  1  -0.00158011  0.00263690  -0.00104680  1
  Cs  Cs1  1  0.00640798  0.00139094  0.33194229  1
  Cs  Cs2  1  -0.00452088  -0.00499945  0.66932319  1
  Cs  Cs3  1  -0.00229323  0.32942613  0.00390724  1
  Cs  Cs4  1  -0.00158006  0.33438029  0.33069640  1
  Cs  Cs5  1  0.00285049  0.33870159  0.66511902  1
  Cs  Cs6  1  0.00285074  0.66821434  -0.00536827  1
  Cs  Cs7  1  -0.00452084  0.66401001  0.33833258  1
  Cs  Cs8  1  0.00958262  0.66575152  0.66758180  1
  Cs  Cs9  1  0.33362838  0.00028781  0.00416728  1
  Cs  Cs10  1  0.32501866  0.00173989  0.33159350  1
  Cs  Cs11  1  0.33412610  0.00413325  0.66319006  1
  Cs  Cs12  1  0.33447978  0.33477260  -0.00143922  1
  Cs  Cs13  1  0.33362836  0.32916605  0.33304553  1
  Cs  Cs14  1  0.33389831  0.33214648  0.66722349  1
  Cs  Cs15  1  0.33389824  0.66610975  0.00118687  1
  Cs  Cs16  1  0.33412619  0.67014340  0.32920008  1
  Cs  Cs17  1  0.32980635  0.66525196  0.66808136  1
  Cs  Cs18  1  0.66829287  -0.00011495  -0.00168107  1
  Cs  Cs19  1  0.66550099  -0.00437777  0.33771102  1
  Cs  Cs20  1  0.66788831  -0.00037587  0.66556767  1
  Cs  Cs21  1  0.66695622  0.33375952  -0.00042628  1
  Cs  Cs22  1  0.66829299  0.33501437  0.33344839  1
  Cs  Cs23  1  0.66421475  0.33289101  0.66692243  1
  Cs  Cs24  1  0.66421467  0.66641091  0.00044220  1
  Cs  Cs25  1  0.66788841  0.66776564  0.33370922  1
  Cs  Cs26  1  0.66628683  0.66737890  0.66595445  1
  Sn  Sn27  1  0.50016271  0.83339893  0.83245666  1
  Sn  Sn28  1  0.16724276  0.16650344  0.83308631  1
  Sn  Sn29  1  0.83324495  0.16626023  0.49996423  1
  Sn  Sn30  1  0.49933957  0.16647428  0.83425067  1
  Sn  Sn31  1  0.50075380  0.16702726  0.16630610  1
  Sn  Sn32  1  0.83268161  0.83420833  0.49912497  1
  Sn  Sn33  1  0.83270158  0.50006311  0.83327024  1
  Sn  Sn34  1  0.50016274  0.50087663  0.49993435  1
  Sn  Sn35  1  0.16724281  0.50024701  0.16682989  1
  Sn  Sn36  1  0.50079604  0.50020038  0.83313297  1
  Sn  Sn37  1  0.50005058  0.83253612  0.50079726  1
  Sn  Sn38  1  0.49933961  0.49908267  0.16685907  1
  Sn  Sn39  1  0.83324496  0.83336912  0.16707311  1
  Pb  Pb40  1  0.83274927  0.16868489  0.83149369  1
  Pb  Pb41  1  0.17022642  0.49986660  0.49706900  1
  Pb  Pb42  1  0.17022645  0.83626432  0.83346681  1
  Pb  Pb43  1  0.16733269  0.49812009  0.83521325  1
  Pb  Pb44  1  0.16319092  0.83069689  0.16659291  1
  Pb  Pb45  1  0.50104699  0.16635538  0.49986562  1
  Pb  Pb46  1  0.16890253  0.16864893  0.16468440  1
  Pb  Pb47  1  0.83144122  0.83116487  0.83268432  1
  Pb  Pb48  1  0.16689384  0.83330493  0.50002836  1
  Pb  Pb49  1  0.83274922  0.50183965  0.16464842  1
  Pb  Pb50  1  0.83070951  0.16447957  0.16885377  1
  Pb  Pb51  1  0.83144125  0.50064903  0.50216841  1
  Pb  Pb52  1  0.50104699  0.83346773  0.16697794  1
  Pb  Pb53  1  0.16319086  0.16674042  0.50263652  1
  I  I54  1  0.16807637  0.00020691  0.16607087  1
  I  I55  1  0.17261395  0.00010384  0.49904401  1
  I  I56  1  0.17062416  0.00404299  0.83394321  1
  I  I57  1  0.16851176  0.33649953  0.16536919  1
  I  I58  1  0.16619208  0.33340505  0.50069093  1
  I  I59  1  0.17329299  0.33063575  0.83379322  1
  I  I60  1  0.17640659  0.66307817  0.16445262  1
  I  I61  1  0.16192641  0.66640634  0.50147443  1
  I  I62  1  0.16609460  0.66649713  0.83410590  1
  I  I63  1  0.50327423  0.00232672  0.16243495  1
  I  I64  1  0.50391528  -0.00267949  0.50391084  1
  I  I65  1  0.49637547  0.00036994  0.83342214  1
  I  I66  1  0.49722947  0.33443691  0.16354940  1
  I  I67  1  0.50225280  0.33576641  0.50219227  1
  I  I68  1  0.50011394  0.33384320  0.83365477  1
  I  I69  1  0.49815825  0.66382226  0.16403940  1
  I  I70  1  0.50606768  0.66671042  0.50255482  1
  I  I71  1  0.50563936  0.66579202  0.83347835  1
  I  I72  1  0.82978814  -0.00324028  0.16642080  1
  I  I73  1  0.82550425  -0.00129350  0.49854994  1
  I  I74  1  0.83257478  -0.00014933  0.83442973  1
  I  I75  1  0.83465256  0.33343643  0.16751766  1
  I  I76  1  0.83053587  0.33175190  0.50299733  1
  I  I77  1  0.82638183  0.33631481  0.83236278  1
  I  I78  1  0.82989821  0.66938618  0.17320851  1
  I  I79  1  0.82926543  0.66961627  0.49627733  1
  I  I80  1  0.82649085  0.66346569  0.83318946  1
  I  I81  1  0.16851177  0.16796397  -0.00316615  1
  I  I82  1  0.16807642  0.16726229  0.33312643  1
  I  I83  1  0.17640675  0.16888091  0.67025510  1
  I  I84  1  0.17329266  0.49954041  0.00269758  1
  I  I85  1  0.17062421  0.49939006  0.32929032  1
  I  I86  1  0.16609472  0.49922714  0.66683619  1
  I  I87  1  0.16619186  0.83264213  -0.00007172  1
  I  I88  1  0.17261376  0.83428946  0.33322951  1
  I  I89  1  0.16192678  0.83185906  0.66692700  1
  I  I90  1  0.49722943  0.16978376  -0.00110360  1
  I  I91  1  0.50327433  0.17089859  0.33100663  1
  I  I92  1  0.49815830  0.16929390  0.66951111  1
  I  I93  1  0.50011417  0.49967874  -0.00050989  1
  I  I94  1  0.49637532  0.49991123  0.33296340  1
  I  I95  1  0.50563922  0.49985478  0.66754128  1
  I  I96  1  0.50225269  0.83114110  -0.00243310  1
  I  I97  1  0.50391524  0.82942226  0.33601282  1
  I  I98  1  0.50606788  0.83077886  0.66662291  1
  I  I99  1  0.83465275  0.16581560  -0.00010310  1
  I  I100  1  0.82978787  0.16691239  0.33657363  1
  I  I101  1  0.82989818  0.16012524  0.66394714  1
  I  I102  1  0.82638176  0.50097071  -0.00298151  1
  I  I103  1  0.83257473  0.49890342  0.33348266  1
  I  I104  1  0.82649100  0.50014376  0.66986765  1
  I  I105  1  0.83053605  0.83033585  0.00158146  1
  I  I106  1  0.82550440  0.83478373  0.33462685  1
  I  I107  1  0.82926498  0.83705579  0.66371714  1
  I  I108  1  -0.00015773  0.16789328  0.16544020  1
  I  I109  1  -0.00461377  0.16044222  0.50134461  1
  I  I110  1  0.00187007  0.17001280  0.83122491  1
  I  I111  1  0.00187008  0.50210821  0.16332085  1
  I  I112  1  -0.00012810  0.50015767  0.50114886  1
  I  I113  1  -0.00209000  0.49860437  0.83472891  1
  I  I114  1  -0.00461378  0.83198858  0.17289114  1
  I  I115  1  -0.00360488  0.83768049  0.49565334  1
  I  I116  1  -0.00012806  0.83218446  0.83317535  1
  I  I117  1  0.33737567  0.16690413  0.16642924  1
  I  I118  1  0.33355386  0.16656987  0.49838372  1
  I  I119  1  0.33611910  0.16911433  0.83611954  1
  I  I120  1  0.33611908  0.49721385  0.16421871  1
  I  I121  1  0.33872977  0.50426281  0.50659368  1
  I  I122  1  0.33728535  0.50135465  0.83197897  1
  I  I123  1  0.33355395  0.83494951  0.16676345  1
  I  I124  1  0.33731553  0.82882497  0.50450822  1
  I  I125  1  0.33872981  0.82673961  0.82907063  1
  I  I126  1  0.66270262  0.17432097  0.15901214  1
  I  I127  1  0.66864544  0.16494917  0.50248024  1
  I  I128  1  0.66305419  0.16621025  0.83557962  1
  I  I129  1  0.66305418  0.49775388  0.16712323  1
  I  I130  1  0.66293033  0.50110210  0.49621568  1
  I  I131  1  0.66378720  0.49778302  0.83555015  1
  I  I132  1  0.66864543  0.83085324  0.16838416  1
  I  I133  1  0.66589481  0.83334049  0.49999261  1
  I  I134  1  0.66293034  0.83711764  0.83223157  1
