# generated using pymatgen
data_Cs27Sn13Pb14I81
_symmetry_space_group_name_H-M   'P 1'
_cell_length_a   18.98289148
_cell_length_b   18.97420001
_cell_length_c   18.97415594
_cell_angle_alpha   89.99735312
_cell_angle_beta   89.99976901
_cell_angle_gamma   89.99878025
_symmetry_Int_Tables_number   1
_chemical_formula_structural   Cs27Sn13Pb14I81
_chemical_formula_sum   'Cs27 Sn13 Pb14 I81'
_cell_volume   6834.20976057
_cell_formula_units_Z   1
loop_
 _symmetry_equiv_pos_site_id
 _symmetry_equiv_pos_as_xyz
  1  'x, y, z'
loop_
 _atom_site_type_symbol
 _atom_site_label
 _atom_site_symmetry_multiplicity
 _atom_site_fract_x
 _atom_site_fract_y
 _atom_site_fract_z
 _atom_site_occupancy
  Cs  Cs0  1  -0.00119071  -0.00050725  0.00042624  1
  Cs  Cs1  1  0.00034867  -0.00110188  0.33172954  1
  Cs  Cs2  1  -0.00217075  -0.00035468  0.66757402  1
  Cs  Cs3  1  0.00173850  0.33238556  0.00016742  1
  Cs  Cs4  1  -0.00096765  0.33487413  0.33373877  1
  Cs  Cs5  1  0.00089181  0.33497198  0.66583256  1
  Cs  Cs6  1  0.00054110  0.66797905  -0.00289963  1
  Cs  Cs7  1  -0.00015457  0.66514564  0.33438409  1
  Cs  Cs8  1  -0.00042086  0.66642932  0.66787905  1
  Cs  Cs9  1  0.33139223  0.00015036  0.00055618  1
  Cs  Cs10  1  0.33413067  -0.00065537  0.33376779  1
  Cs  Cs11  1  0.33409107  0.00048173  0.66577242  1
  Cs  Cs12  1  0.33234730  0.33358198  -0.00035352  1
  Cs  Cs13  1  0.33219650  0.32972084  0.33237972  1
  Cs  Cs14  1  0.33409239  0.33319424  0.66723110  1
  Cs  Cs15  1  0.33413928  0.66522883  0.00045980  1
  Cs  Cs16  1  0.33983208  0.67473126  0.33994864  1
  Cs  Cs17  1  0.33542992  0.66679947  0.66195666  1
  Cs  Cs18  1  0.67163315  0.00196984  -0.00097857  1
  Cs  Cs19  1  0.66573262  -0.00050654  0.33354558  1
  Cs  Cs20  1  0.66914537  0.00042966  0.66776967  1
  Cs  Cs21  1  0.66497436  0.33278425  0.00032882  1
  Cs  Cs22  1  0.66859307  0.33904916  0.33173595  1
  Cs  Cs23  1  0.66311581  0.33345719  0.66880280  1
  Cs  Cs24  1  0.66443520  0.66511458  0.00533156  1
  Cs  Cs25  1  0.66060939  0.65905157  0.32577341  1
  Cs  Cs26  1  0.66795436  0.66732896  0.66608664  1
  Sn  Sn27  1  0.50017947  0.83352766  0.83351751  1
  Sn  Sn28  1  0.16651705  0.16669400  0.83332021  1
  Sn  Sn29  1  0.16707551  0.83314316  0.83312511  1
  Sn  Sn30  1  0.49945636  0.16639442  0.16708827  1
  Sn  Sn31  1  0.16632761  0.16645039  0.49990305  1
  Sn  Sn32  1  0.16601716  0.50008964  0.83390230  1
  Sn  Sn33  1  0.83310247  0.83236446  0.83275464  1
  Sn  Sn34  1  0.83386191  0.50051540  0.83327743  1
  Sn  Sn35  1  0.16718702  0.16727920  0.16668114  1
  Sn  Sn36  1  0.83331510  0.16601634  0.50013627  1
  Sn  Sn37  1  0.83315296  0.83353793  0.50005361  1
  Sn  Sn38  1  0.16695605  0.49992627  0.16651354  1
  Sn  Sn39  1  0.50028767  0.16655394  0.49926772  1
  Pb  Pb40  1  0.16683254  0.49824264  0.49991099  1
  Pb  Pb41  1  0.49772682  0.16490258  0.83352932  1
  Pb  Pb42  1  0.83333880  0.50034998  0.50214585  1
  Pb  Pb43  1  0.49994671  0.83618552  0.16425480  1
  Pb  Pb44  1  0.83335213  0.83314676  0.16694003  1
  Pb  Pb45  1  0.49653879  0.49743611  0.16652161  1
  Pb  Pb46  1  0.49997557  0.49734356  0.50000596  1
  Pb  Pb47  1  0.50292419  0.83556307  0.50188976  1
  Pb  Pb48  1  0.83617466  0.49989871  0.16364689  1
  Pb  Pb49  1  0.49951897  0.50257769  0.83330370  1
  Pb  Pb50  1  0.16664936  0.83308841  0.16487103  1
  Pb  Pb51  1  0.83549307  0.16697407  0.83158670  1
  Pb  Pb52  1  0.83369070  0.16664045  0.16959215  1
  Pb  Pb53  1  0.16463189  0.83560674  0.50229035  1
  I  I54  1  0.17004348  0.00364499  0.16578331  1
  I  I55  1  0.16861432  0.00441083  0.49995715  1
  I  I56  1  0.16659542  0.00026972  0.83279838  1
  I  I57  1  0.16984801  0.33166823  0.16090129  1
  I  I58  1  0.16444691  0.32894430  0.50511667  1
  I  I59  1  0.16213596  0.33296997  0.83356791  1
  I  I60  1  0.16369843  0.66353700  0.15908683  1
  I  I61  1  0.16442136  0.66697680  0.49989066  1
  I  I62  1  0.16485849  0.66660995  0.83885458  1
  I  I63  1  0.49181452  0.00421418  0.17073638  1
  I  I64  1  0.49644200  0.00390340  0.49736131  1
  I  I65  1  0.50064185  -0.00289789  0.83287491  1
  I  I66  1  0.49797899  0.32919134  0.16914025  1
  I  I67  1  0.50166159  0.32813034  0.49892375  1
  I  I68  1  0.50046211  0.33302345  0.83286354  1
  I  I69  1  0.49963777  0.66662862  0.16561791  1
  I  I70  1  0.50049461  0.66733512  0.50144248  1
  I  I71  1  0.49568606  0.67056829  0.83243136  1
  I  I72  1  0.83609898  0.00025550  0.16087993  1
  I  I73  1  0.83410264  0.00077822  0.50734489  1
  I  I74  1  0.83446134  -0.00276973  0.83110976  1
  I  I75  1  0.83154639  0.33309717  0.16616807  1
  I  I76  1  0.83420041  0.33005135  0.50109478  1
  I  I77  1  0.83920851  0.33572863  0.83187110  1
  I  I78  1  0.83526320  0.66643548  0.17095093  1
  I  I79  1  0.83547351  0.66986312  0.50530732  1
  I  I80  1  0.83946326  0.66783702  0.82751575  1
  I  I81  1  0.17124599  0.16699135  -0.00036846  1
  I  I82  1  0.16711247  0.17166939  0.33323571  1
  I  I83  1  0.16654698  0.16610499  0.66694786  1
  I  I84  1  0.16288388  0.49428874  -0.00161488  1
  I  I85  1  0.16652311  0.49213832  0.33028835  1
  I  I86  1  0.16251489  0.49883779  0.67034536  1
  I  I87  1  0.16317278  0.83893902  -0.00438723  1
  I  I88  1  0.16462288  0.83363623  0.33366846  1
  I  I89  1  0.16793614  0.83334665  0.67113072  1
  I  I90  1  0.49400656  0.16511972  0.00242343  1
  I  I91  1  0.49365593  0.16595220  0.33385095  1
  I  I92  1  0.49880258  0.16479911  0.66403734  1
  I  I93  1  0.50256968  0.49716911  -0.00020211  1
  I  I94  1  0.49942104  0.50281804  0.33303786  1
  I  I95  1  0.49728280  0.49620954  0.66708247  1
  I  I96  1  0.50157461  0.83553558  -0.00410585  1
  I  I97  1  0.50099916  0.83277187  0.33358941  1
  I  I98  1  0.49681339  0.83659664  0.66995875  1
  I  I99  1  0.83323486  0.16586358  -0.00017165  1
  I  I100  1  0.83826077  0.16043615  0.33779290  1
  I  I101  1  0.83333624  0.16511313  0.66353896  1
  I  I102  1  0.83566007  0.50594261  -0.00459618  1
  I  I103  1  0.83449041  0.49990993  0.33327128  1
  I  I104  1  0.84154353  0.50112093  0.67037365  1
  I  I105  1  0.83451357  0.83041565  -0.00412870  1
  I  I106  1  0.83497864  0.84111933  0.33690572  1
  I  I107  1  0.83438872  0.83495683  0.66825154  1
  I  I108  1  0.00369624  0.16982144  0.16603001  1
  I  I109  1  0.00065553  0.16340480  0.50167393  1
  I  I110  1  0.00393709  0.16298247  0.83399997  1
  I  I111  1  0.00409399  0.49153614  0.16472853  1
  I  I112  1  0.00012168  0.49607277  0.49855506  1
  I  I113  1  0.00132189  0.50390093  0.83607443  1
  I  I114  1  0.00026121  0.83724795  0.16394562  1
  I  I115  1  -0.00320353  0.84014828  0.50692534  1
  I  I116  1  0.00021722  0.83306334  0.82993936  1
  I  I117  1  0.33170698  0.16981589  0.17033653  1
  I  I118  1  0.33259116  0.16809417  0.50008013  1
  I  I119  1  0.32929460  0.16697450  0.82945849  1
  I  I120  1  0.32877234  0.49606189  0.15663916  1
  I  I121  1  0.33303396  0.49873913  0.50408960  1
  I  I122  1  0.32947119  0.49906820  0.83716038  1
  I  I123  1  0.33315349  0.83236243  0.16391012  1
  I  I124  1  0.33347700  0.83467914  0.50240859  1
  I  I125  1  0.33211850  0.83543945  0.83517019  1
  I  I126  1  0.66381090  0.16452205  0.16993281  1
  I  I127  1  0.66673950  0.16174886  0.49675413  1
  I  I128  1  0.66671350  0.16636467  0.83330031  1
  I  I129  1  0.66643689  0.49863805  0.16558404  1
  I  I130  1  0.66691554  0.49659255  0.50340025  1
  I  I131  1  0.66959575  0.50373617  0.83070524  1
  I  I132  1  0.66656630  0.83668474  0.16282124  1
  I  I133  1  0.67054085  0.84148014  0.50897623  1
  I  I134  1  0.66787760  0.83042901  0.82867678  1
