# generated using pymatgen
data_Cs27Sn14Pb13I81
_symmetry_space_group_name_H-M   'P 1'
_cell_length_a   18.98209640
_cell_length_b   18.97298480
_cell_length_c   18.97338258
_cell_angle_alpha   90.00074988
_cell_angle_beta   89.99927388
_cell_angle_gamma   90.00026410
_symmetry_Int_Tables_number   1
_chemical_formula_structural   Cs27Sn14Pb13I81
_chemical_formula_sum   'Cs27 Sn14 Pb13 I81'
_cell_volume   6833.20731430
_cell_formula_units_Z   1
loop_
 _symmetry_equiv_pos_site_id
 _symmetry_equiv_pos_as_xyz
  1  'x, y, z'
loop_
 _atom_site_type_symbol
 _atom_site_label
 _atom_site_symmetry_multiplicity
 _atom_site_fract_x
 _atom_site_fract_y
 _atom_site_fract_z
 _atom_site_occupancy
  Cs  Cs0  1  -0.00415037  0.00032994  -0.00290213  1
  Cs  Cs1  1  0.00283533  -0.00269669  0.33643658  1
  Cs  Cs2  1  0.00295417  -0.00005569  0.66671514  1
  Cs  Cs3  1  0.00338417  0.33432029  -0.00018451  1
  Cs  Cs4  1  -0.00344283  0.33271297  0.33393926  1
  Cs  Cs5  1  -0.00163903  0.33389511  0.66620380  1
  Cs  Cs6  1  0.00328766  0.66534603  0.00195224  1
  Cs  Cs7  1  0.00633938  0.66946892  0.33020959  1
  Cs  Cs8  1  -0.00460733  0.66819375  0.66772420  1
  Cs  Cs9  1  0.33721691  0.00167287  -0.00132156  1
  Cs  Cs10  1  0.33251509  -0.00171390  0.33535904  1
  Cs  Cs11  1  0.32878418  0.00002915  0.66567206  1
  Cs  Cs12  1  0.32941028  0.33351383  0.00112940  1
  Cs  Cs13  1  0.33681915  0.33629380  0.33144457  1
  Cs  Cs14  1  0.33193045  0.33315549  0.66852675  1
  Cs  Cs15  1  0.33282983  0.66642895  -0.00223992  1
  Cs  Cs16  1  0.32949905  0.66446385  0.33416102  1
  Cs  Cs17  1  0.33675124  0.66650720  0.66530825  1
  Cs  Cs18  1  0.66801738  -0.00048829  0.00024007  1
  Cs  Cs19  1  0.66649962  0.00132306  0.33140781  1
  Cs  Cs20  1  0.66714860  -0.00102990  0.66765865  1
  Cs  Cs21  1  0.66715337  0.33040896  0.00281908  1
  Cs  Cs22  1  0.66561980  0.33302189  0.33336783  1
  Cs  Cs23  1  0.66920771  0.33642770  0.66479963  1
  Cs  Cs24  1  0.66454199  0.67031037  -0.00295696  1
  Cs  Cs25  1  0.66672779  0.66615250  0.33391538  1
  Cs  Cs26  1  0.66718071  0.66606732  0.66819160  1
  Sn  Sn27  1  0.83250103  0.16636407  0.83360942  1
  Sn  Sn28  1  0.50096908  0.83340276  0.49972547  1
  Sn  Sn29  1  0.83352192  0.16726634  0.16611047  1
  Sn  Sn30  1  0.16694218  0.49949550  0.50043994  1
  Sn  Sn31  1  0.16654997  0.16614359  0.16708988  1
  Sn  Sn32  1  0.49938281  0.49983146  0.49938494  1
  Sn  Sn33  1  0.83411557  0.83416464  0.83251598  1
  Sn  Sn34  1  0.83250179  0.83352162  0.50035535  1
  Sn  Sn35  1  0.50105832  0.49954353  0.16704948  1
  Sn  Sn36  1  0.16603649  0.83330357  0.83354225  1
  Sn  Sn37  1  0.49993732  0.16729052  0.16667392  1
  Sn  Sn38  1  0.50023919  0.16677009  0.50024946  1
  Sn  Sn39  1  0.83225497  0.49951401  0.16656085  1
  Sn  Sn40  1  0.50089507  0.16696933  0.83319126  1
  Pb  Pb41  1  0.16685371  0.83607099  0.16389215  1
  Pb  Pb42  1  0.16627088  0.16538006  0.83510137  1
  Pb  Pb43  1  0.16674226  0.83145614  0.50174195  1
  Pb  Pb44  1  0.83319307  0.83344526  0.16640118  1
  Pb  Pb45  1  0.16695633  0.49802150  0.16821260  1
  Pb  Pb46  1  0.50050518  0.83564093  0.83101300  1
  Pb  Pb47  1  0.49985184  0.83305010  0.16918027  1
  Pb  Pb48  1  0.50019934  0.49702736  0.83365170  1
  Pb  Pb49  1  0.83311919  0.49974598  0.83626582  1
  Pb  Pb50  1  0.16664478  0.50247494  0.83061748  1
  Pb  Pb51  1  0.16920446  0.16889246  0.49786516  1
  Pb  Pb52  1  0.83149562  0.16480436  0.49994413  1
  Pb  Pb53  1  0.83279719  0.50246153  0.49763827  1
  I  I54  1  0.16735778  0.00426258  0.16838426  1
  I  I55  1  0.16800848  0.00003712  0.49923323  1
  I  I56  1  0.16509726  -0.00247782  0.83219108  1
  I  I57  1  0.16754544  0.33008938  0.16574999  1
  I  I58  1  0.17185480  0.33657380  0.49951223  1
  I  I59  1  0.16668127  0.33310463  0.83351751  1
  I  I60  1  0.16618405  0.66637709  0.16693012  1
  I  I61  1  0.17335559  0.66384901  0.49874920  1
  I  I62  1  0.16009403  0.67054243  0.83399510  1
  I  I63  1  0.50152028  0.00373825  0.16710410  1
  I  I64  1  0.50504790  0.00057123  0.49946104  1
  I  I65  1  0.50127963  0.00381034  0.83557803  1
  I  I66  1  0.50126196  0.33207003  0.17164052  1
  I  I67  1  0.49541209  0.33321488  0.49815887  1
  I  I68  1  0.50572875  0.32871359  0.82932536  1
  I  I69  1  0.50493349  0.66312319  0.17149973  1
  I  I70  1  0.49955618  0.66613794  0.49550798  1
  I  I71  1  0.49980749  0.66683061  0.83358425  1
  I  I72  1  0.83103605  0.00343663  0.16531400  1
  I  I73  1  0.82800809  -0.00310972  0.49897126  1
  I  I74  1  0.83263893  0.00065147  0.83614924  1
  I  I75  1  0.83196474  0.33166554  0.16227910  1
  I  I76  1  0.83347544  0.33335128  0.50275101  1
  I  I77  1  0.82854955  0.32980034  0.83527023  1
  I  I78  1  0.82805940  0.66389457  0.16815442  1
  I  I79  1  0.82739285  0.67020064  0.50517082  1
  I  I80  1  0.83704883  0.66979132  0.83031840  1
  I  I81  1  0.17188227  0.16698054  0.00309319  1
  I  I82  1  0.16483189  0.16640372  0.32981617  1
  I  I83  1  0.16743944  0.16661860  0.66658888  1
  I  I84  1  0.16722409  0.50067881  0.00027010  1
  I  I85  1  0.16960958  0.50142933  0.33599682  1
  I  I86  1  0.17466336  0.49888787  0.66264861  1
  I  I87  1  0.15926719  0.83292043  -0.00385320  1
  I  I88  1  0.16587777  0.83317773  0.33361243  1
  I  I89  1  0.16495580  0.83502514  0.66934838  1
  I  I90  1  0.50034056  0.17026885  0.00096601  1
  I  I91  1  0.50042908  0.16720481  0.33286284  1
  I  I92  1  0.50461107  0.16583191  0.66634918  1
  I  I93  1  0.50394530  0.49547982  0.00355560  1
  I  I94  1  0.50043118  0.49507190  0.33360070  1
  I  I95  1  0.49559752  0.49949771  0.66330564  1
  I  I96  1  0.50027604  0.83316428  -0.00025981  1
  I  I97  1  0.50583234  0.83830024  0.33749423  1
  I  I98  1  0.50112501  0.83254884  0.66289053  1
  I  I99  1  0.82797388  0.16381491  0.00039565  1
  I  I100  1  0.83185343  0.16915244  0.33026605  1
  I  I101  1  0.82851889  0.16353563  0.66938286  1
  I  I102  1  0.82719337  0.50009711  0.00430591  1
  I  I103  1  0.83107381  0.49351318  0.32995064  1
  I  I104  1  0.83367253  0.49811585  0.66649421  1
  I  I105  1  0.83723610  0.83523230  -0.00295840  1
  I  I106  1  0.82817901  0.83347373  0.33581433  1
  I  I107  1  0.83314620  0.83840538  0.66723658  1
  I  I108  1  -0.00148054  0.17070195  0.16073457  1
  I  I109  1  -0.00002252  0.16638876  0.49939813  1
  I  I110  1  -0.00322871  0.16392882  0.83894639  1
  I  I111  1  -0.00242635  0.49586385  0.16795805  1
  I  I112  1  0.00173047  0.50274819  0.49800245  1
  I  I113  1  -0.00021051  0.49539290  0.83294964  1
  I  I114  1  -0.00018824  0.83250938  0.17273833  1
  I  I115  1  -0.00254908  0.83180414  0.50151101  1
  I  I116  1  -0.00190223  0.83991291  0.82712742  1
  I  I117  1  0.33524678  0.17018292  0.16650953  1
  I  I118  1  0.33789035  0.16086984  0.50079006  1
  I  I119  1  0.33620339  0.16491624  0.83409650  1
  I  I120  1  0.33653718  0.49479184  0.16987094  1
  I  I121  1  0.33585636  0.50214341  0.49372680  1
  I  I122  1  0.33354975  0.50062977  0.83783220  1
  I  I123  1  0.33345559  0.83399323  0.16613686  1
  I  I124  1  0.33634970  0.83552863  0.50112725  1
  I  I125  1  0.33172184  0.83519376  0.83214751  1
  I  I126  1  0.66622244  0.17042196  0.16618061  1
  I  I127  1  0.66301263  0.17109148  0.49578152  1
  I  I128  1  0.66693262  0.16056223  0.83846895  1
  I  I129  1  0.66559267  0.49128153  0.17296048  1
  I  I130  1  0.66334721  0.49804120  0.49750336  1
  I  I131  1  0.66663602  0.50539978  0.82827394  1
  I  I132  1  0.66658461  0.83687971  0.16285066  1
  I  I133  1  0.66599748  0.83175352  0.50564994  1
  I  I134  1  0.66950014  0.83587454  0.83145107  1
