# generated using pymatgen
data_Cs27Sn14Pb13I81
_symmetry_space_group_name_H-M   'P 1'
_cell_length_a   18.96114676
_cell_length_b   18.95834044
_cell_length_c   18.96229400
_cell_angle_alpha   89.99868640
_cell_angle_beta   90.00213120
_cell_angle_gamma   90.00111597
_symmetry_Int_Tables_number   1
_chemical_formula_structural   Cs27Sn14Pb13I81
_chemical_formula_sum   'Cs27 Sn14 Pb13 I81'
_cell_volume   6816.41138250
_cell_formula_units_Z   1
loop_
 _symmetry_equiv_pos_site_id
 _symmetry_equiv_pos_as_xyz
  1  'x, y, z'
loop_
 _atom_site_type_symbol
 _atom_site_label
 _atom_site_symmetry_multiplicity
 _atom_site_fract_x
 _atom_site_fract_y
 _atom_site_fract_z
 _atom_site_occupancy
  Cs  Cs0  1  0.00180082  -0.00081767  -0.00050538  1
  Cs  Cs1  1  0.00140489  0.00385665  0.33574310  1
  Cs  Cs2  1  0.00764190  -0.00079052  0.66377270  1
  Cs  Cs3  1  0.00131636  0.33420906  -0.00124211  1
  Cs  Cs4  1  0.00044540  0.32804850  0.33690392  1
  Cs  Cs5  1  -0.00348671  0.33317158  0.66607777  1
  Cs  Cs6  1  -0.00375039  0.66614230  0.00175621  1
  Cs  Cs7  1  -0.00057985  0.66773673  0.33154441  1
  Cs  Cs8  1  0.00127421  0.66704885  0.66607360  1
  Cs  Cs9  1  0.33314546  0.00120938  0.00132914  1
  Cs  Cs10  1  0.33558007  -0.00122366  0.32979415  1
  Cs  Cs11  1  0.33137159  -0.00449236  0.66882656  1
  Cs  Cs12  1  0.33269989  0.33202688  -0.00031685  1
  Cs  Cs13  1  0.33400855  0.33691610  0.33400412  1
  Cs  Cs14  1  0.33335499  0.33697851  0.66827514  1
  Cs  Cs15  1  0.33317483  0.66659613  0.00030534  1
  Cs  Cs16  1  0.33341875  0.66567639  0.33497276  1
  Cs  Cs17  1  0.33045922  0.66724352  0.66447082  1
  Cs  Cs18  1  0.66572172  -0.00084179  0.00041872  1
  Cs  Cs19  1  0.66562371  0.00061923  0.33500220  1
  Cs  Cs20  1  0.66590266  0.00127172  0.66496481  1
  Cs  Cs21  1  0.66660493  0.33387906  -0.00068474  1
  Cs  Cs22  1  0.66513910  0.33331888  0.33276077  1
  Cs  Cs23  1  0.66812501  0.33220154  0.66764073  1
  Cs  Cs24  1  0.67108303  0.66777061  0.00135539  1
  Cs  Cs25  1  0.66710768  0.66594002  0.33144623  1
  Cs  Cs26  1  0.66713723  0.66769643  0.66797476  1
  Sn  Sn27  1  0.50095278  0.83386046  0.49923343  1
  Sn  Sn28  1  0.50033840  0.49968304  0.83358267  1
  Sn  Sn29  1  0.49963716  0.83361937  0.16725273  1
  Sn  Sn30  1  0.83254564  0.16667757  0.16557637  1
  Sn  Sn31  1  0.16661938  0.50062238  0.16620719  1
  Sn  Sn32  1  0.50079766  0.16732214  0.83321736  1
  Sn  Sn33  1  0.83256989  0.83261095  0.50011678  1
  Sn  Sn34  1  0.83287762  0.50095043  0.50040855  1
  Sn  Sn35  1  0.50092575  0.16617394  0.16664982  1
  Sn  Sn36  1  0.16732547  0.83245492  0.16667628  1
  Sn  Sn37  1  0.50006023  0.16611689  0.50023177  1
  Sn  Sn38  1  0.16646986  0.49999790  0.83418196  1
  Sn  Sn39  1  0.83271780  0.16689682  0.83419909  1
  Sn  Sn40  1  0.83307824  0.49951290  0.83269581  1
  Pb  Pb41  1  0.50204004  0.50046648  0.50223788  1
  Pb  Pb42  1  0.16651627  0.83051480  0.83619923  1
  Pb  Pb43  1  0.16722040  0.83326367  0.49742293  1
  Pb  Pb44  1  0.17096675  0.16666334  0.50020062  1
  Pb  Pb45  1  0.83338087  0.83418967  0.83078490  1
  Pb  Pb46  1  0.83306566  0.83596640  0.16880081  1
  Pb  Pb47  1  0.50016385  0.83367726  0.83347684  1
  Pb  Pb48  1  0.49844163  0.50010082  0.16453655  1
  Pb  Pb49  1  0.83172625  0.16647342  0.50060156  1
  Pb  Pb50  1  0.16381666  0.49998819  0.49991863  1
  Pb  Pb51  1  0.16668384  0.16872478  0.83316375  1
  Pb  Pb52  1  0.83551273  0.49760639  0.16661237  1
  Pb  Pb53  1  0.16705937  0.16685722  0.16657504  1
  I  I54  1  0.16855341  -0.00250800  0.16888415  1
  I  I55  1  0.15962529  -0.00023852  0.49858032  1
  I  I56  1  0.16650924  -0.00002487  0.83373875  1
  I  I57  1  0.16652704  0.33600289  0.16182774  1
  I  I58  1  0.16579998  0.33364191  0.49633565  1
  I  I59  1  0.16728542  0.33711964  0.84063026  1
  I  I60  1  0.17164861  0.66677694  0.16284306  1
  I  I61  1  0.17086459  0.66655810  0.50191421  1
  I  I62  1  0.16730945  0.66203652  0.83408477  1
  I  I63  1  0.49776391  0.00047858  0.16572346  1
  I  I64  1  0.50627607  -0.00011563  0.50042171  1
  I  I65  1  0.50553113  0.00349632  0.83338799  1
  I  I66  1  0.50201439  0.33029295  0.16894990  1
  I  I67  1  0.50169832  0.33068572  0.49725445  1
  I  I68  1  0.50038878  0.33258105  0.83344448  1
  I  I69  1  0.49709803  0.66933298  0.17022861  1
  I  I70  1  0.50193256  0.66952813  0.49636195  1
  I  I71  1  0.50022827  0.66366236  0.83323562  1
  I  I72  1  0.83338710  0.00385285  0.16224009  1
  I  I73  1  0.83042525  -0.00216936  0.49861193  1
  I  I74  1  0.82643296  0.00371603  0.83653557  1
  I  I75  1  0.82815162  0.32975621  0.16749811  1
  I  I76  1  0.83291404  0.33537005  0.50174541  1
  I  I77  1  0.83263721  0.33393662  0.83122303  1
  I  I78  1  0.83184401  0.66669983  0.16509173  1
  I  I79  1  0.82814673  0.66647648  0.50470200  1
  I  I80  1  0.83265310  0.66338438  0.83130195  1
  I  I81  1  0.17025828  0.16490302  0.00001792  1
  I  I82  1  0.16316376  0.16984230  0.33297177  1
  I  I83  1  0.16457146  0.16870227  0.66690464  1
  I  I84  1  0.16510979  0.50356426  -0.00072713  1
  I  I85  1  0.16650487  0.50338543  0.33038551  1
  I  I86  1  0.16867980  0.49800671  0.66995791  1
  I  I87  1  0.17303145  0.83303632  0.00418656  1
  I  I88  1  0.16865784  0.82676040  0.32955609  1
  I  I89  1  0.16730512  0.83263793  0.66652578  1
  I  I90  1  0.50335776  0.16673689  0.00010254  1
  I  I91  1  0.50398924  0.16170543  0.33263406  1
  I  I92  1  0.50472027  0.16715390  0.66737947  1
  I  I93  1  0.50403016  0.49633900  -0.00372782  1
  I  I94  1  0.49930014  0.49706711  0.33332356  1
  I  I95  1  0.49622810  0.49621728  0.67047322  1
  I  I96  1  0.49546990  0.83654998  0.00309149  1
  I  I97  1  0.49983500  0.84081312  0.33306716  1
  I  I98  1  0.50445855  0.83632488  0.66375188  1
  I  I99  1  0.82582948  0.17214332  -0.00079175  1
  I  I100  1  0.83011120  0.16682237  0.33144661  1
  I  I101  1  0.82829758  0.16943455  0.66950977  1
  I  I102  1  0.83217136  0.49743591  -0.00304180  1
  I  I103  1  0.83459994  0.50190524  0.33561819  1
  I  I104  1  0.83486501  0.49757495  0.66811988  1
  I  I105  1  0.83298959  0.83099454  0.00031775  1
  I  I106  1  0.83154745  0.82853603  0.33663964  1
  I  I107  1  0.82620320  0.83325261  0.66278507  1
  I  I108  1  -0.00273080  0.16736256  0.16221146  1
  I  I109  1  -0.00040522  0.16647369  0.49925066  1
  I  I110  1  -0.00346703  0.17087973  0.83838957  1
  I  I111  1  0.00328417  0.50477916  0.16131538  1
  I  I112  1  -0.00425305  0.50458761  0.50497495  1
  I  I113  1  -0.00091872  0.49626744  0.83342407  1
  I  I114  1  0.00217845  0.83036488  0.16719958  1
  I  I115  1  -0.00269273  0.82905820  0.49989701  1
  I  I116  1  -0.00013276  0.83419736  0.83306183  1
  I  I117  1  0.33695567  0.16543157  0.16612879  1
  I  I118  1  0.33932553  0.16122097  0.49902236  1
  I  I119  1  0.33702498  0.17040241  0.83424897  1
  I  I120  1  0.33046207  0.49905633  0.16137834  1
  I  I121  1  0.33362949  0.49959173  0.50161058  1
  I  I122  1  0.33376714  0.49572788  0.83784389  1
  I  I123  1  0.33481315  0.83520628  0.17146916  1
  I  I124  1  0.33690615  0.83809968  0.49852437  1
  I  I125  1  0.33358299  0.83309608  0.82895278  1
  I  I126  1  0.66521649  0.16213016  0.16573521  1
  I  I127  1  0.66352704  0.16534963  0.49979449  1
  I  I128  1  0.66595964  0.17486290  0.83437120  1
  I  I129  1  0.66678470  0.50217497  0.16571006  1
  I  I130  1  0.66997305  0.50068674  0.50491554  1
  I  I131  1  0.66717175  0.49533068  0.82877601  1
  I  I132  1  0.66369704  0.83605913  0.16876363  1
  I  I133  1  0.66556425  0.83347496  0.49458895  1
  I  I134  1  0.66660853  0.82756715  0.83774116  1
