# generated using pymatgen
data_Cs27Sn13Pb14I81
_symmetry_space_group_name_H-M   'P 1'
_cell_length_a   18.97342771
_cell_length_b   18.98258863
_cell_length_c   18.97334320
_cell_angle_alpha   89.99935889
_cell_angle_beta   90.00153320
_cell_angle_gamma   89.99996244
_symmetry_Int_Tables_number   1
_chemical_formula_structural   Cs27Sn13Pb14I81
_chemical_formula_sum   'Cs27 Sn13 Pb14 I81'
_cell_volume   6833.52984581
_cell_formula_units_Z   1
loop_
 _symmetry_equiv_pos_site_id
 _symmetry_equiv_pos_as_xyz
  1  'x, y, z'
loop_
 _atom_site_type_symbol
 _atom_site_label
 _atom_site_symmetry_multiplicity
 _atom_site_fract_x
 _atom_site_fract_y
 _atom_site_fract_z
 _atom_site_occupancy
  Cs  Cs0  1  -0.00266536  -0.00845225  0.00179165  1
  Cs  Cs1  1  0.00173681  -0.00039044  0.33193381  1
  Cs  Cs2  1  -0.00302268  0.00068080  0.66680775  1
  Cs  Cs3  1  -0.00194736  0.33512624  -0.00028001  1
  Cs  Cs4  1  -0.00055420  0.33352094  0.33372851  1
  Cs  Cs5  1  -0.00054689  0.33392549  0.66626734  1
  Cs  Cs6  1  0.00285643  0.67081378  0.00107596  1
  Cs  Cs7  1  -0.00087192  0.66693281  0.33377362  1
  Cs  Cs8  1  0.00426524  0.66529105  0.66457530  1
  Cs  Cs9  1  0.33253915  -0.00036614  0.00255539  1
  Cs  Cs10  1  0.33207357  0.00916146  0.33451981  1
  Cs  Cs11  1  0.33571047  0.00283840  0.66351207  1
  Cs  Cs12  1  0.33485238  0.33370281  -0.00004235  1
  Cs  Cs13  1  0.33680331  0.32529075  0.32999548  1
  Cs  Cs14  1  0.33044066  0.32891953  0.66957963  1
  Cs  Cs15  1  0.33228716  0.66648024  -0.00206747  1
  Cs  Cs16  1  0.33617379  0.66605873  0.33451645  1
  Cs  Cs17  1  0.33090198  0.66825959  0.66824269  1
  Cs  Cs18  1  0.66983906  -0.00262919  -0.00268779  1
  Cs  Cs19  1  0.66626562  -0.00105301  0.33470661  1
  Cs  Cs20  1  0.66700678  -0.00032324  0.66851286  1
  Cs  Cs21  1  0.66666233  0.33322904  0.00014591  1
  Cs  Cs22  1  0.66496296  0.33694833  0.33135554  1
  Cs  Cs23  1  0.66962202  0.33585503  0.66764976  1
  Cs  Cs24  1  0.66564431  0.66779596  0.00130263  1
  Cs  Cs25  1  0.66495653  0.66403092  0.33657210  1
  Cs  Cs26  1  0.66498411  0.66463836  0.66213180  1
  Sn  Sn27  1  0.50001233  0.83324428  0.83408970  1
  Sn  Sn28  1  0.83409091  0.83409002  0.49992280  1
  Sn  Sn29  1  0.16697385  0.50004435  0.49859254  1
  Sn  Sn30  1  0.83334309  0.16609670  0.49894532  1
  Sn  Sn31  1  0.83302837  0.50053304  0.83427013  1
  Sn  Sn32  1  0.16633687  0.49984732  0.16778935  1
  Sn  Sn33  1  0.49931775  0.16658708  0.83359790  1
  Sn  Sn34  1  0.49980586  0.83340991  0.16645208  1
  Sn  Sn35  1  0.83348769  0.16701695  0.16730811  1
  Sn  Sn36  1  0.16648581  0.16622646  0.83401662  1
  Sn  Sn37  1  0.16615986  0.83296779  0.49977832  1
  Sn  Sn38  1  0.50079919  0.50014147  0.83335674  1
  Sn  Sn39  1  0.83408963  0.49955338  0.16572558  1
  Pb  Pb40  1  0.83480209  0.49996377  0.49960100  1
  Pb  Pb41  1  0.83143332  0.83010096  0.83088413  1
  Pb  Pb42  1  0.50269495  0.16448570  0.16418196  1
  Pb  Pb43  1  0.16657081  0.49889344  0.83360343  1
  Pb  Pb44  1  0.16416330  0.16880114  0.16413150  1
  Pb  Pb45  1  0.50318377  0.16706216  0.50225546  1
  Pb  Pb46  1  0.83177698  0.83260138  0.16886927  1
  Pb  Pb47  1  0.16890799  0.83600137  0.83121322  1
  Pb  Pb48  1  0.50005976  0.50138095  0.16476713  1
  Pb  Pb49  1  0.49634829  0.49956086  0.50265424  1
  Pb  Pb50  1  0.83325644  0.16806885  0.83374018  1
  Pb  Pb51  1  0.16454893  0.16678151  0.50135279  1
  Pb  Pb52  1  0.16911692  0.83118793  0.16922982  1
  Pb  Pb53  1  0.49956528  0.83341055  0.49994879  1
  I  I54  1  0.16638962  0.00003220  0.16682375  1
  I  I55  1  0.16484433  -0.00232644  0.50344082  1
  I  I56  1  0.17052827  0.00359979  0.83100576  1
  I  I57  1  0.16591314  0.33691962  0.17260477  1
  I  I58  1  0.16435974  0.33580102  0.49949046  1
  I  I59  1  0.17169568  0.33124269  0.83073351  1
  I  I60  1  0.15974503  0.66314342  0.16597640  1
  I  I61  1  0.16013989  0.66654005  0.49855690  1
  I  I62  1  0.16768608  0.66676299  0.83343052  1
  I  I63  1  0.50162800  -0.00315993  0.16135682  1
  I  I64  1  0.49656929  0.00003096  0.50246544  1
  I  I65  1  0.49562183  0.00001210  0.83616463  1
  I  I66  1  0.49880401  0.33328125  0.16510536  1
  I  I67  1  0.50060037  0.33334986  0.50152213  1
  I  I68  1  0.50011220  0.33354863  0.83180322  1
  I  I69  1  0.50198792  0.66912740  0.16071804  1
  I  I70  1  0.50497063  0.66663143  0.50255293  1
  I  I71  1  0.50492957  0.66646664  0.83676302  1
  I  I72  1  0.83061775  0.00210159  0.16837725  1
  I  I73  1  0.83859579  0.00002829  0.49603179  1
  I  I74  1  0.83242441  -0.00020953  0.83454372  1
  I  I75  1  0.83614771  0.33417604  0.16829102  1
  I  I76  1  0.83489644  0.33139941  0.50080500  1
  I  I77  1  0.82855780  0.33601730  0.83201848  1
  I  I78  1  0.83548550  0.66352281  0.16368580  1
  I  I79  1  0.83490472  0.66866738  0.50106661  1
  I  I80  1  0.82929498  0.66226305  0.83791560  1
  I  I81  1  0.16995986  0.17009806  -0.00351101  1
  I  I82  1  0.16717847  0.16559342  0.33313176  1
  I  I83  1  0.16886361  0.16961100  0.66927585  1
  I  I84  1  0.16531332  0.49717723  0.00225489  1
  I  I85  1  0.15900593  0.50419930  0.33315923  1
  I  I86  1  0.16631053  0.50246957  0.66468066  1
  I  I87  1  0.16603999  0.83253449  0.00006791  1
  I  I88  1  0.16444835  0.83202909  0.33708667  1
  I  I89  1  0.16441181  0.82594157  0.66339850  1
  I  I90  1  0.49869531  0.16967043  -0.00396859  1
  I  I91  1  0.49848128  0.16405846  0.33291721  1
  I  I92  1  0.49797350  0.16387179  0.67079970  1
  I  I93  1  0.49949483  0.49820725  -0.00357300  1
  I  I94  1  0.50321218  0.50388233  0.33306125  1
  I  I95  1  0.50629636  0.50286583  0.67119702  1
  I  I96  1  0.50126091  0.83285083  -0.00130999  1
  I  I97  1  0.50158663  0.83104571  0.33101744  1
  I  I98  1  0.50041338  0.83324326  0.66968641  1
  I  I99  1  0.83230855  0.17083894  0.00226669  1
  I  I100  1  0.83478621  0.16901632  0.33325190  1
  I  I101  1  0.83316617  0.16465858  0.66479630  1
  I  I102  1  0.83452730  0.49338785  0.00062091  1
  I  I103  1  0.83592364  0.49904573  0.33066351  1
  I  I104  1  0.83041504  0.49918246  0.66874888  1
  I  I105  1  0.83313766  0.83605304  -0.00001610  1
  I  I106  1  0.83378120  0.83259265  0.33668087  1
  I  I107  1  0.83472038  0.83856037  0.66313757  1
  I  I108  1  -0.00374744  0.16801091  0.16772792  1
  I  I109  1  -0.00328025  0.16599754  0.50066027  1
  I  I110  1  0.00163859  0.17152811  0.83137478  1
  I  I111  1  -0.00100897  0.49656317  0.16410185  1
  I  I112  1  0.00257112  0.50125576  0.50246206  1
  I  I113  1  -0.00226312  0.49569811  0.83333964  1
  I  I114  1  -0.00001467  0.83471971  0.16627881  1
  I  I115  1  -0.00022284  0.83271793  0.49986834  1
  I  I116  1  -0.00004632  0.83397649  0.83366481  1
  I  I117  1  0.33336078  0.16727235  0.16731235  1
  I  I118  1  0.33314950  0.16573069  0.50063467  1
  I  I119  1  0.33431699  0.16988495  0.83175139  1
  I  I120  1  0.33083050  0.50304229  0.16863630  1
  I  I121  1  0.32840970  0.50746630  0.49638425  1
  I  I122  1  0.33591903  0.50118123  0.83259578  1
  I  I123  1  0.33669360  0.83066929  0.16246449  1
  I  I124  1  0.33058035  0.82743282  0.50186800  1
  I  I125  1  0.33708547  0.82722887  0.83464462  1
  I  I126  1  0.67047890  0.17404077  0.16899619  1
  I  I127  1  0.67122962  0.16064211  0.49892325  1
  I  I128  1  0.66412121  0.16560918  0.83281376  1
  I  I129  1  0.66961318  0.49739202  0.16410492  1
  I  I130  1  0.66680885  0.50110706  0.49910368  1
  I  I131  1  0.66672748  0.49723916  0.83794784  1
  I  I132  1  0.66407389  0.83182498  0.16367987  1
  I  I133  1  0.66918637  0.83717893  0.50079535  1
  I  I134  1  0.66328903  0.83858838  0.83463953  1
