# generated using pymatgen
data_Cs27Sn14Pb13I81
_symmetry_space_group_name_H-M   'P 1'
_cell_length_a   18.96060274
_cell_length_b   18.95781900
_cell_length_c   18.96234029
_cell_angle_alpha   89.99794348
_cell_angle_beta   90.00088587
_cell_angle_gamma   89.99991461
_symmetry_Int_Tables_number   1
_chemical_formula_structural   Cs27Sn14Pb13I81
_chemical_formula_sum   'Cs27 Sn14 Pb13 I81'
_cell_volume   6816.04497168
_cell_formula_units_Z   1
loop_
 _symmetry_equiv_pos_site_id
 _symmetry_equiv_pos_as_xyz
  1  'x, y, z'
loop_
 _atom_site_type_symbol
 _atom_site_label
 _atom_site_symmetry_multiplicity
 _atom_site_fract_x
 _atom_site_fract_y
 _atom_site_fract_z
 _atom_site_occupancy
  Cs  Cs0  1  0.00114196  -0.00083319  0.00137924  1
  Cs  Cs1  1  -0.00169062  -0.00022362  0.32826221  1
  Cs  Cs2  1  -0.00248571  -0.00381724  0.66900758  1
  Cs  Cs3  1  -0.00084088  0.33360315  0.00093332  1
  Cs  Cs4  1  0.00004557  0.33497568  0.33419113  1
  Cs  Cs5  1  -0.00038038  0.33524958  0.66372293  1
  Cs  Cs6  1  0.00027448  0.66780668  -0.00167353  1
  Cs  Cs7  1  -0.00012562  0.66497685  0.33453045  1
  Cs  Cs8  1  0.00049682  0.66673725  0.66777033  1
  Cs  Cs9  1  0.32623915  0.00237464  -0.00134956  1
  Cs  Cs10  1  0.33620414  0.00123177  0.33201946  1
  Cs  Cs11  1  0.33750422  0.00317607  0.66700592  1
  Cs  Cs12  1  0.33723164  0.33193401  -0.00153469  1
  Cs  Cs13  1  0.32958322  0.33374503  0.33661909  1
  Cs  Cs14  1  0.33265366  0.32459323  0.66424335  1
  Cs  Cs15  1  0.33456468  0.66587708  0.00164035  1
  Cs  Cs16  1  0.33832653  0.66625845  0.33233827  1
  Cs  Cs17  1  0.32816127  0.66898171  0.66579031  1
  Cs  Cs18  1  0.66983266  0.00053304  0.00121818  1
  Cs  Cs19  1  0.66655715  -0.00037561  0.33437516  1
  Cs  Cs20  1  0.66630403  -0.00065530  0.66508283  1
  Cs  Cs21  1  0.66502903  0.33575789  0.00092830  1
  Cs  Cs22  1  0.66831011  0.33354327  0.33121721  1
  Cs  Cs23  1  0.66710592  0.33399809  0.66920594  1
  Cs  Cs24  1  0.66279997  0.66319962  0.00060637  1
  Cs  Cs25  1  0.66379530  0.66671342  0.33239055  1
  Cs  Cs26  1  0.66738075  0.66675827  0.66749300  1
  Sn  Sn27  1  0.83346173  0.16656932  0.50000574  1
  Sn  Sn28  1  0.83299520  0.83378846  0.83286586  1
  Sn  Sn29  1  0.83405144  0.49957223  0.16723871  1
  Sn  Sn30  1  0.50074499  0.49994518  0.50066320  1
  Sn  Sn31  1  0.16670137  0.50007846  0.83398486  1
  Sn  Sn32  1  0.50066673  0.16646436  0.16664484  1
  Sn  Sn33  1  0.83221891  0.50030617  0.49925056  1
  Sn  Sn34  1  0.16588224  0.50021293  0.16557469  1
  Sn  Sn35  1  0.83250028  0.16761114  0.16659882  1
  Sn  Sn36  1  0.16682533  0.83251092  0.83243104  1
  Sn  Sn37  1  0.83353869  0.16621092  0.83341419  1
  Sn  Sn38  1  0.16600897  0.83352523  0.50023869  1
  Sn  Sn39  1  0.50009111  0.83315836  0.83358314  1
  Sn  Sn40  1  0.83413316  0.83315782  0.50049430  1
  Pb  Pb41  1  0.16630357  0.50165019  0.50017216  1
  Pb  Pb42  1  0.16393820  0.16290844  0.49997535  1
  Pb  Pb43  1  0.50007828  0.49820702  0.16831689  1
  Pb  Pb44  1  0.83459627  0.50031161  0.83332111  1
  Pb  Pb45  1  0.49676608  0.50161042  0.83069814  1
  Pb  Pb46  1  0.16415381  0.16640092  0.83312819  1
  Pb  Pb47  1  0.50274331  0.16447943  0.83524580  1
  Pb  Pb48  1  0.50250928  0.16884533  0.49819622  1
  Pb  Pb49  1  0.16615363  0.16933029  0.16674107  1
  Pb  Pb50  1  0.49993691  0.83614620  0.16391422  1
  Pb  Pb51  1  0.16663494  0.83088101  0.16685625  1
  Pb  Pb52  1  0.50035433  0.83188296  0.50164127  1
  Pb  Pb53  1  0.83318289  0.83283904  0.16673163  1
  I  I54  1  0.16615782  0.00007379  0.16601395  1
  I  I55  1  0.16261765  -0.00509214  0.50709522  1
  I  I56  1  0.16771123  -0.00365095  0.82945431  1
  I  I57  1  0.16393171  0.33744596  0.16205955  1
  I  I58  1  0.16640605  0.33349989  0.50011319  1
  I  I59  1  0.16397135  0.33609362  0.83756932  1
  I  I60  1  0.15991379  0.66284094  0.16534658  1
  I  I61  1  0.16015622  0.66951901  0.50236618  1
  I  I62  1  0.16310242  0.66787856  0.83325931  1
  I  I63  1  0.50830222  0.00390853  0.16819426  1
  I  I64  1  0.49993616  0.00006739  0.49968236  1
  I  I65  1  0.49537311  -0.00367535  0.83219158  1
  I  I66  1  0.50374619  0.33054426  0.16627173  1
  I  I67  1  0.50398337  0.33681978  0.49982887  1
  I  I68  1  0.49993390  0.33319508  0.83341541  1
  I  I69  1  0.50051057  0.66638647  0.16699578  1
  I  I70  1  0.50605743  0.66398216  0.49883780  1
  I  I71  1  0.50642487  0.66977915  0.83332518  1
  I  I72  1  0.82956872  0.00293102  0.16860452  1
  I  I73  1  0.83799697  -0.00035447  0.50072053  1
  I  I74  1  0.83494136  -0.00091499  0.83100717  1
  I  I75  1  0.83379943  0.33332750  0.16930999  1
  I  I76  1  0.82906615  0.33367608  0.49944310  1
  I  I77  1  0.83563073  0.33106502  0.83145728  1
  I  I78  1  0.83753616  0.66338933  0.16967061  1
  I  I79  1  0.83401066  0.66674944  0.50055793  1
  I  I80  1  0.83338150  0.66966978  0.83004618  1
  I  I81  1  0.16326183  0.16242536  -0.00006956  1
  I  I82  1  0.16465531  0.16711487  0.33334932  1
  I  I83  1  0.16595670  0.17326491  0.66662315  1
  I  I84  1  0.16053663  0.50556987  -0.00007884  1
  I  I85  1  0.16468940  0.50054299  0.33134695  1
  I  I86  1  0.16525200  0.50414752  0.66898195  1
  I  I87  1  0.16502465  0.83186701  -0.00352906  1
  I  I88  1  0.15999979  0.83201141  0.33643692  1
  I  I89  1  0.16386931  0.82643207  0.66784254  1
  I  I90  1  0.50696291  0.16797626  0.00302750  1
  I  I91  1  0.50635369  0.16669651  0.33033746  1
  I  I92  1  0.50073782  0.16705521  0.66668991  1
  I  I93  1  0.50184819  0.50036455  -0.00011903  1
  I  I94  1  0.50030001  0.50112755  0.33619258  1
  I  I95  1  0.50779581  0.50056978  0.66313783  1
  I  I96  1  0.50117769  0.83171131  -0.00429934  1
  I  I97  1  0.49965863  0.83277170  0.33354063  1
  I  I98  1  0.50070409  0.83277792  0.66968133  1
  I  I99  1  0.83038149  0.16626745  0.00030991  1
  I  I100  1  0.83013141  0.16723959  0.33334061  1
  I  I101  1  0.83495785  0.16592127  0.66628594  1
  I  I102  1  0.83600792  0.49697134  0.00239258  1
  I  I103  1  0.83582335  0.49720897  0.33366433  1
  I  I104  1  0.83201640  0.49810772  0.66391064  1
  I  I105  1  0.83519876  0.83670696  -0.00334964  1
  I  I106  1  0.83811059  0.83513518  0.33670817  1
  I  I107  1  0.83429385  0.83572940  0.66669085  1
  I  I108  1  -0.00388089  0.16820920  0.16706208  1
  I  I109  1  -0.00485373  0.17314584  0.49739426  1
  I  I110  1  -0.00436385  0.16123427  0.83585056  1
  I  I111  1  -0.00147961  0.49497418  0.16907231  1
  I  I112  1  -0.00320309  0.49844987  0.49871404  1
  I  I113  1  0.00245162  0.50541494  0.83278158  1
  I  I114  1  -0.00027650  0.83728116  0.16299930  1
  I  I115  1  -0.00171692  0.83107610  0.50789004  1
  I  I116  1  -0.00046391  0.83318678  0.82914054  1
  I  I117  1  0.33574166  0.16708558  0.16590019  1
  I  I118  1  0.33353862  0.16800256  0.49765001  1
  I  I119  1  0.33346335  0.16591979  0.83621704  1
  I  I120  1  0.33080950  0.49981673  0.16471701  1
  I  I121  1  0.33493787  0.50347693  0.49927667  1
  I  I122  1  0.32892908  0.50631413  0.83841433  1
  I  I123  1  0.33321818  0.83302584  0.16783513  1
  I  I124  1  0.33083022  0.82885314  0.50440239  1
  I  I125  1  0.33202295  0.82770644  0.83002815  1
  I  I126  1  0.66942351  0.17226073  0.16629981  1
  I  I127  1  0.67121608  0.16141038  0.50181219  1
  I  I128  1  0.67118042  0.16214230  0.83092302  1
  I  I129  1  0.66977327  0.49784807  0.16896866  1
  I  I130  1  0.66945952  0.50231615  0.49451832  1
  I  I131  1  0.66673356  0.50133226  0.83543473  1
  I  I132  1  0.66691531  0.82890386  0.16615035  1
  I  I133  1  0.67027024  0.83480685  0.50408147  1
  I  I134  1  0.66825909  0.83821226  0.82924166  1
