# generated using pymatgen
data_Cs27Sn13Pb14I81
_symmetry_space_group_name_H-M   'P 1'
_cell_length_a   18.97506225
_cell_length_b   18.98011687
_cell_length_c   18.97336599
_cell_angle_alpha   89.99941982
_cell_angle_beta   89.99935526
_cell_angle_gamma   89.99920886
_symmetry_Int_Tables_number   1
_chemical_formula_structural   Cs27Sn13Pb14I81
_chemical_formula_sum   'Cs27 Sn13 Pb14 I81'
_cell_volume   6833.23687294
_cell_formula_units_Z   1
loop_
 _symmetry_equiv_pos_site_id
 _symmetry_equiv_pos_as_xyz
  1  'x, y, z'
loop_
 _atom_site_type_symbol
 _atom_site_label
 _atom_site_symmetry_multiplicity
 _atom_site_fract_x
 _atom_site_fract_y
 _atom_site_fract_z
 _atom_site_occupancy
  Cs  Cs0  1  -0.00062707  0.00020733  0.00023531  1
  Cs  Cs1  1  0.00334409  0.00277233  0.33099655  1
  Cs  Cs2  1  -0.00014950  -0.00311368  0.67037629  1
  Cs  Cs3  1  -0.00221923  0.33224072  0.00082419  1
  Cs  Cs4  1  -0.00080371  0.33170354  0.33378287  1
  Cs  Cs5  1  0.00085579  0.33695332  0.66669764  1
  Cs  Cs6  1  -0.00117124  0.66717951  -0.00172409  1
  Cs  Cs7  1  0.00115256  0.66510269  0.33199824  1
  Cs  Cs8  1  -0.00104535  0.66462866  0.66974437  1
  Cs  Cs9  1  0.33323524  -0.00028114  0.00086013  1
  Cs  Cs10  1  0.33042483  -0.00104260  0.33146398  1
  Cs  Cs11  1  0.33532548  0.00219780  0.66548497  1
  Cs  Cs12  1  0.33709310  0.33343563  -0.00102666  1
  Cs  Cs13  1  0.33176915  0.33634321  0.33154977  1
  Cs  Cs14  1  0.33865195  0.33754614  0.66936049  1
  Cs  Cs15  1  0.33432587  0.66621977  0.00016510  1
  Cs  Cs16  1  0.33485104  0.66735278  0.33175649  1
  Cs  Cs17  1  0.33095845  0.65817454  0.66766524  1
  Cs  Cs18  1  0.66558321  -0.00025516  0.00051888  1
  Cs  Cs19  1  0.66790921  0.00144116  0.33794264  1
  Cs  Cs20  1  0.66357132  -0.00189076  0.65897859  1
  Cs  Cs21  1  0.66757178  0.33501455  -0.00144880  1
  Cs  Cs22  1  0.66915030  0.33282137  0.34003809  1
  Cs  Cs23  1  0.65995553  0.33138497  0.66400243  1
  Cs  Cs24  1  0.66722993  0.66628222  0.00105631  1
  Cs  Cs25  1  0.66375389  0.66621494  0.33707427  1
  Cs  Cs26  1  0.66997701  0.67175979  0.65479197  1
  Sn  Sn27  1  0.83352506  0.16718867  0.83341791  1
  Sn  Sn28  1  0.83280545  0.49934125  0.83397443  1
  Sn  Sn29  1  0.16653163  0.16604077  0.50034912  1
  Sn  Sn30  1  0.50017721  0.83446621  0.16563334  1
  Sn  Sn31  1  0.16609096  0.16665068  0.83335772  1
  Sn  Sn32  1  0.83404290  0.50065674  0.16602093  1
  Sn  Sn33  1  0.16664039  0.83382111  0.49974789  1
  Sn  Sn34  1  0.16658206  0.83309505  0.16694600  1
  Sn  Sn35  1  0.16576416  0.49998915  0.16610288  1
  Sn  Sn36  1  0.49995369  0.83303837  0.83380643  1
  Sn  Sn37  1  0.16748358  0.16694808  0.16628169  1
  Sn  Sn38  1  0.83326998  0.83279932  0.16647198  1
  Sn  Sn39  1  0.49966406  0.16607789  0.16647607  1
  Pb  Pb40  1  0.83367765  0.49984194  0.49980043  1
  Pb  Pb41  1  0.49692847  0.16655985  0.49662807  1
  Pb  Pb42  1  0.16843665  0.83508281  0.83346781  1
  Pb  Pb43  1  0.50368588  0.50327353  0.83358131  1
  Pb  Pb44  1  0.49678270  0.83335922  0.49934135  1
  Pb  Pb45  1  0.83116240  0.83353480  0.83505910  1
  Pb  Pb46  1  0.83307019  0.16680529  0.16555326  1
  Pb  Pb47  1  0.50019758  0.16497444  0.83522235  1
  Pb  Pb48  1  0.83621193  0.16659262  0.50375414  1
  Pb  Pb49  1  0.16499838  0.49733173  0.83606162  1
  Pb  Pb50  1  0.50070243  0.49999858  0.16668620  1
  Pb  Pb51  1  0.16657127  0.49988747  0.49758081  1
  Pb  Pb52  1  0.83674587  0.83357234  0.49657263  1
  Pb  Pb53  1  0.49976399  0.49997976  0.49993498  1
  I  I54  1  0.16689498  0.00007843  0.16744229  1
  I  I55  1  0.16646686  0.00041142  0.49308874  1
  I  I56  1  0.16087903  0.00333946  0.83862669  1
  I  I57  1  0.16665439  0.33226529  0.16689315  1
  I  I58  1  0.16601607  0.33003181  0.49781501  1
  I  I59  1  0.16589688  0.32905514  0.83341330  1
  I  I60  1  0.16652094  0.66771209  0.17151511  1
  I  I61  1  0.16757225  0.66969782  0.49390946  1
  I  I62  1  0.16630421  0.66658094  0.83288330  1
  I  I63  1  0.49606564  -0.00092163  0.16269553  1
  I  I64  1  0.50198190  -0.00006310  0.50190742  1
  I  I65  1  0.50111987  -0.00268687  0.83807835  1
  I  I66  1  0.49477434  0.33043897  0.16629835  1
  I  I67  1  0.49791948  0.33279911  0.49841670  1
  I  I68  1  0.49821688  0.33330762  0.83475645  1
  I  I69  1  0.49683260  0.67008172  0.16366432  1
  I  I70  1  0.49808771  0.66730536  0.49791410  1
  I  I71  1  0.49839697  0.67079899  0.84265754  1
  I  I72  1  0.83610937  -0.00244228  0.16444804  1
  I  I73  1  0.83195587  -0.00000266  0.49979255  1
  I  I74  1  0.83770885  0.00252636  0.83652159  1
  I  I75  1  0.83743357  0.33577352  0.16390088  1
  I  I76  1  0.83625154  0.33313231  0.49359246  1
  I  I77  1  0.83889493  0.33319114  0.84155065  1
  I  I78  1  0.83749302  0.66681748  0.16083040  1
  I  I79  1  0.83563342  0.66687344  0.50466122  1
  I  I80  1  0.83211131  0.66430286  0.83753382  1
  I  I81  1  0.16626863  0.16583882  0.00133619  1
  I  I82  1  0.17112067  0.16542678  0.33163025  1
  I  I83  1  0.16046832  0.16006990  0.66687173  1
  I  I84  1  0.16484324  0.50193918  0.00438445  1
  I  I85  1  0.16098431  0.49610895  0.32880668  1
  I  I86  1  0.16521293  0.50097115  0.66701516  1
  I  I87  1  0.16521125  0.83461204  0.00368784  1
  I  I88  1  0.16752758  0.83774562  0.33076102  1
  I  I89  1  0.16894525  0.83939705  0.66432213  1
  I  I90  1  0.49315086  0.16376758  0.00331754  1
  I  I91  1  0.49635931  0.16014837  0.32835990  1
  I  I92  1  0.49966541  0.16502607  0.66673003  1
  I  I93  1  0.49739424  0.49862621  0.00029721  1
  I  I94  1  0.50124545  0.50165637  0.33245873  1
  I  I95  1  0.50005950  0.50100063  0.66728917  1
  I  I96  1  0.49734691  0.83722627  0.00264967  1
  I  I97  1  0.50132794  0.83635185  0.32934547  1
  I  I98  1  0.50014051  0.83385561  0.66902426  1
  I  I99  1  0.83976410  0.16703071  -0.00217526  1
  I  I100  1  0.83308100  0.16695869  0.33324742  1
  I  I101  1  0.83793106  0.17210794  0.67184658  1
  I  I102  1  0.83808448  0.50008017  0.00128828  1
  I  I103  1  0.83721187  0.50395903  0.32946025  1
  I  I104  1  0.83335021  0.49574940  0.67003352  1
  I  I105  1  0.83892983  0.83257564  0.00364480  1
  I  I106  1  0.82816250  0.82787952  0.32804228  1
  I  I107  1  0.83226132  0.83262636  0.66666466  1
  I  I108  1  0.00324115  0.16423292  0.16785231  1
  I  I109  1  0.00438508  0.16324588  0.49176246  1
  I  I110  1  0.00102704  0.16846809  0.83672031  1
  I  I111  1  0.00046470  0.50304523  0.16370887  1
  I  I112  1  0.00030047  0.50045915  0.50071564  1
  I  I113  1  -0.00299754  0.50019752  0.83628139  1
  I  I114  1  0.00096706  0.83346052  0.17053095  1
  I  I115  1  0.00454831  0.83780004  0.49497130  1
  I  I116  1  -0.00003228  0.83270795  0.83395633  1
  I  I117  1  0.33129241  0.16349832  0.16497742  1
  I  I118  1  0.32872604  0.16164948  0.50378273  1
  I  I119  1  0.33038448  0.16377370  0.83309910  1
  I  I120  1  0.33036724  0.50146384  0.16826933  1
  I  I121  1  0.33256457  0.50058001  0.49809804  1
  I  I122  1  0.33351634  0.49909492  0.83389091  1
  I  I123  1  0.33235968  0.83435728  0.16713416  1
  I  I124  1  0.32921624  0.83856057  0.49237202  1
  I  I125  1  0.33604436  0.83668070  0.84057979  1
  I  I126  1  0.66435200  0.16294449  0.16259277  1
  I  I127  1  0.66654572  0.16769476  0.49938024  1
  I  I128  1  0.66925457  0.16982598  0.83854579  1
  I  I129  1  0.67012184  0.50323809  0.16222453  1
  I  I130  1  0.66704931  0.50049831  0.49675831  1
  I  I131  1  0.67132448  0.49150881  0.84389784  1
  I  I132  1  0.66640959  0.83344666  0.16018570  1
  I  I133  1  0.66659219  0.83224251  0.49986270  1
  I  I134  1  0.66359325  0.83488235  0.84170597  1
