# generated using pymatgen
data_Cs27Sn13Pb14I81
_symmetry_space_group_name_H-M   'P 1'
_cell_length_a   18.97207538
_cell_length_b   18.97781676
_cell_length_c   18.98109508
_cell_angle_alpha   89.99992378
_cell_angle_beta   89.99692528
_cell_angle_gamma   89.99981707
_symmetry_Int_Tables_number   1
_chemical_formula_structural   Cs27Sn13Pb14I81
_chemical_formula_sum   'Cs27 Sn13 Pb14 I81'
_cell_volume   6834.11613443
_cell_formula_units_Z   1
loop_
 _symmetry_equiv_pos_site_id
 _symmetry_equiv_pos_as_xyz
  1  'x, y, z'
loop_
 _atom_site_type_symbol
 _atom_site_label
 _atom_site_symmetry_multiplicity
 _atom_site_fract_x
 _atom_site_fract_y
 _atom_site_fract_z
 _atom_site_occupancy
  Cs  Cs0  1  -0.00049609  0.00048592  -0.00029028  1
  Cs  Cs1  1  0.00258814  -0.00021565  0.33009015  1
  Cs  Cs2  1  -0.00178329  -0.00250520  0.67077757  1
  Cs  Cs3  1  -0.00010001  0.33027424  0.00154825  1
  Cs  Cs4  1  0.00291501  0.33424187  0.33193498  1
  Cs  Cs5  1  -0.00023404  0.34093064  0.66645034  1
  Cs  Cs6  1  0.00004749  0.66841355  0.00085959  1
  Cs  Cs7  1  -0.00227143  0.66680385  0.33295564  1
  Cs  Cs8  1  0.00023493  0.66487204  0.66565174  1
  Cs  Cs9  1  0.33172552  0.00024044  -0.00082532  1
  Cs  Cs10  1  0.33415457  0.00294262  0.34356949  1
  Cs  Cs11  1  0.33552801  -0.00004416  0.66023086  1
  Cs  Cs12  1  0.33425525  0.33551771  -0.00134610  1
  Cs  Cs13  1  0.33436829  0.32693336  0.33478974  1
  Cs  Cs14  1  0.33111158  0.33445654  0.66700846  1
  Cs  Cs15  1  0.33814267  0.66370650  -0.00043283  1
  Cs  Cs16  1  0.33534748  0.67123184  0.33045853  1
  Cs  Cs17  1  0.33133156  0.66562556  0.66909268  1
  Cs  Cs18  1  0.66779486  0.00136083  -0.00143367  1
  Cs  Cs19  1  0.66504548  -0.00026384  0.33616380  1
  Cs  Cs20  1  0.66599962  0.00105501  0.66632418  1
  Cs  Cs21  1  0.66628022  0.33107230  0.00021731  1
  Cs  Cs22  1  0.66591941  0.33551465  0.33579369  1
  Cs  Cs23  1  0.66837597  0.33152718  0.66284987  1
  Cs  Cs24  1  0.66270038  0.66663740  0.00179121  1
  Cs  Cs25  1  0.66800962  0.66411375  0.32970067  1
  Cs  Cs26  1  0.66810751  0.66638538  0.66861659  1
  Sn  Sn27  1  0.49959246  0.50073158  0.50011421  1
  Sn  Sn28  1  0.50007035  0.16614130  0.16595606  1
  Sn  Sn29  1  0.83402762  0.50042441  0.16541105  1
  Sn  Sn30  1  0.49900097  0.16641623  0.83399581  1
  Sn  Sn31  1  0.83314354  0.50085923  0.83477438  1
  Sn  Sn32  1  0.16616867  0.50071295  0.16650908  1
  Sn  Sn33  1  0.16622540  0.83267601  0.16565315  1
  Sn  Sn34  1  0.16740370  0.16593057  0.83335159  1
  Sn  Sn35  1  0.83423728  0.16596239  0.49973962  1
  Sn  Sn36  1  0.83377020  0.83286272  0.16638348  1
  Sn  Sn37  1  0.16615359  0.83400259  0.83429057  1
  Sn  Sn38  1  0.83386761  0.83235189  0.83374546  1
  Sn  Sn39  1  0.83353192  0.83434375  0.49984245  1
  Pb  Pb40  1  0.49995674  0.49813148  0.16794209  1
  Pb  Pb41  1  0.16871464  0.16599276  0.16492296  1
  Pb  Pb42  1  0.50165170  0.16801834  0.50058902  1
  Pb  Pb43  1  0.49968426  0.83538649  0.83340744  1
  Pb  Pb44  1  0.49952962  0.83586246  0.16657558  1
  Pb  Pb45  1  0.16953212  0.50036966  0.49660100  1
  Pb  Pb46  1  0.16433744  0.83317855  0.50001719  1
  Pb  Pb47  1  0.50271654  0.49761393  0.83156766  1
  Pb  Pb48  1  0.83370168  0.16657089  0.83185092  1
  Pb  Pb49  1  0.83259583  0.50065930  0.49946196  1
  Pb  Pb50  1  0.16356127  0.16666833  0.50340430  1
  Pb  Pb51  1  0.83186587  0.16647355  0.16864819  1
  Pb  Pb52  1  0.16465647  0.50060878  0.83543513  1
  Pb  Pb53  1  0.50268144  0.83044493  0.50013294  1
  I  I54  1  0.16127231  -0.00326554  0.16359614  1
  I  I55  1  0.16930896  -0.00002650  0.49478420  1
  I  I56  1  0.16308072  -0.00118724  0.83961801  1
  I  I57  1  0.16264651  0.33562480  0.16567763  1
  I  I58  1  0.16305277  0.33337341  0.49987522  1
  I  I59  1  0.16861759  0.33126810  0.83451825  1
  I  I60  1  0.16236914  0.66756335  0.16190698  1
  I  I61  1  0.16488515  0.66677727  0.50556916  1
  I  I62  1  0.16297826  0.66984873  0.83446266  1
  I  I63  1  0.50194406  0.00353660  0.16322140  1
  I  I64  1  0.50033583  -0.00001476  0.49947249  1
  I  I65  1  0.50250549  0.00348154  0.83617282  1
  I  I66  1  0.50091628  0.33048764  0.16384170  1
  I  I67  1  0.50586631  0.33536025  0.49912562  1
  I  I68  1  0.49598192  0.32973278  0.83669222  1
  I  I69  1  0.50058500  0.66668715  0.16917996  1
  I  I70  1  0.50297976  0.66314572  0.49806621  1
  I  I71  1  0.49863563  0.66649534  0.83151733  1
  I  I72  1  0.83655015  -0.00336640  0.16397680  1
  I  I73  1  0.83180317  -0.00118496  0.50094646  1
  I  I74  1  0.83413418  -0.00296349  0.83534053  1
  I  I75  1  0.83582589  0.33622183  0.16402244  1
  I  I76  1  0.82992841  0.33192841  0.50145703  1
  I  I77  1  0.83283050  0.33557314  0.83518257  1
  I  I78  1  0.83601248  0.66718286  0.16877440  1
  I  I79  1  0.83149705  0.66964068  0.50027176  1
  I  I80  1  0.83842061  0.66795386  0.83046600  1
  I  I81  1  0.16636883  0.16507382  -0.00302722  1
  I  I82  1  0.16879204  0.16666574  0.33320229  1
  I  I83  1  0.17341349  0.16056568  0.67138796  1
  I  I84  1  0.16528590  0.50073085  0.00331071  1
  I  I85  1  0.15849280  0.50498706  0.32855547  1
  I  I86  1  0.16545158  0.49925584  0.66702458  1
  I  I87  1  0.15750970  0.83468274  -0.00002864  1
  I  I88  1  0.16238641  0.82894154  0.32983441  1
  I  I89  1  0.16236936  0.83796316  0.67014817  1
  I  I90  1  0.49891086  0.16774229  -0.00072437  1
  I  I91  1  0.50217733  0.16851200  0.33158698  1
  I  I92  1  0.49818741  0.16784939  0.66943059  1
  I  I93  1  0.49990851  0.49917984  -0.00000853  1
  I  I94  1  0.50413459  0.49624191  0.33534273  1
  I  I95  1  0.50410036  0.49735413  0.66412792  1
  I  I96  1  0.50555594  0.83199458  0.00004599  1
  I  I97  1  0.49993441  0.83686885  0.33321867  1
  I  I98  1  0.50101471  0.83601912  0.66679549  1
  I  I99  1  0.83312529  0.16567068  -0.00005949  1
  I  I100  1  0.82917569  0.16360120  0.33623312  1
  I  I101  1  0.83069225  0.16338278  0.66423837  1
  I  I102  1  0.83560821  0.50622134  0.00069880  1
  I  I103  1  0.83457883  0.50276267  0.33034670  1
  I  I104  1  0.83119379  0.50181973  0.66875740  1
  I  I105  1  0.83733173  0.82909398  0.00001016  1
  I  I106  1  0.83626505  0.83277534  0.33223374  1
  I  I107  1  0.83629161  0.83339031  0.66773548  1
  I  I108  1  0.00009550  0.16762819  0.16657243  1
  I  I109  1  -0.00420876  0.16401865  0.49964345  1
  I  I110  1  0.00225678  0.16474136  0.83184848  1
  I  I111  1  -0.00129170  0.50279630  0.16405836  1
  I  I112  1  -0.00010359  0.49906868  0.50174735  1
  I  I113  1  -0.00355424  0.49816979  0.83249270  1
  I  I114  1  -0.00108648  0.83020976  0.16637179  1
  I  I115  1  -0.00423566  0.83550718  0.50029298  1
  I  I116  1  -0.00095890  0.83657815  0.83394688  1
  I  I117  1  0.33639815  0.16822368  0.16548413  1
  I  I118  1  0.33328123  0.16842811  0.49811392  1
  I  I119  1  0.33302026  0.16208013  0.83759342  1
  I  I120  1  0.33055980  0.50394287  0.16823229  1
  I  I121  1  0.33698935  0.49635216  0.49991200  1
  I  I122  1  0.33320281  0.50173038  0.83342123  1
  I  I123  1  0.32966083  0.82831646  0.16036341  1
  I  I124  1  0.33318446  0.83312276  0.49940846  1
  I  I125  1  0.32972753  0.83514995  0.83891556  1
  I  I126  1  0.66415925  0.16749881  0.16072244  1
  I  I127  1  0.66944174  0.16352435  0.50261598  1
  I  I128  1  0.66492413  0.16751309  0.83475959  1
  I  I129  1  0.66981936  0.50356235  0.16533850  1
  I  I130  1  0.66519105  0.49861656  0.49819847  1
  I  I131  1  0.67090113  0.50481037  0.83866582  1
  I  I132  1  0.67024226  0.82962759  0.16630745  1
  I  I133  1  0.67136142  0.83756555  0.50021757  1
  I  I134  1  0.67032378  0.83128623  0.83373152  1
