# generated using pymatgen
data_Cs27Sn13Pb14I81
_symmetry_space_group_name_H-M   'P 1'
_cell_length_a   18.97595524
_cell_length_b   18.97196964
_cell_length_c   18.98092590
_cell_angle_alpha   90.00082769
_cell_angle_beta   90.00069282
_cell_angle_gamma   89.99856328
_symmetry_Int_Tables_number   1
_chemical_formula_structural   Cs27Sn13Pb14I81
_chemical_formula_sum   'Cs27 Sn13 Pb14 I81'
_cell_volume   6833.34679327
_cell_formula_units_Z   1
loop_
 _symmetry_equiv_pos_site_id
 _symmetry_equiv_pos_as_xyz
  1  'x, y, z'
loop_
 _atom_site_type_symbol
 _atom_site_label
 _atom_site_symmetry_multiplicity
 _atom_site_fract_x
 _atom_site_fract_y
 _atom_site_fract_z
 _atom_site_occupancy
  Cs  Cs0  1  0.00313503  0.00202647  0.00449808  1
  Cs  Cs1  1  -0.00098309  -0.00015994  0.33345969  1
  Cs  Cs2  1  0.00032619  0.00002017  0.66484047  1
  Cs  Cs3  1  -0.00216175  0.33363838  0.00843509  1
  Cs  Cs4  1  -0.00067953  0.33453722  0.32850838  1
  Cs  Cs5  1  -0.00320650  0.33198845  0.66554377  1
  Cs  Cs6  1  -0.00198376  0.66496868  -0.00124830  1
  Cs  Cs7  1  0.00275591  0.66715848  0.33171951  1
  Cs  Cs8  1  -0.00108220  0.66790697  0.66901932  1
  Cs  Cs9  1  0.33430715  0.00090286  -0.00389918  1
  Cs  Cs10  1  0.33380426  -0.00137276  0.33295862  1
  Cs  Cs11  1  0.33127571  0.00269095  0.67140727  1
  Cs  Cs12  1  0.33351901  0.33201428  -0.00174860  1
  Cs  Cs13  1  0.33447961  0.33717437  0.33425850  1
  Cs  Cs14  1  0.33421764  0.33417491  0.66739069  1
  Cs  Cs15  1  0.33395493  0.66749797  -0.00037496  1
  Cs  Cs16  1  0.33482112  0.66374561  0.33505477  1
  Cs  Cs17  1  0.33201988  0.66221267  0.66474241  1
  Cs  Cs18  1  0.66148823  -0.00211579  -0.00108912  1
  Cs  Cs19  1  0.66695867  -0.00017490  0.33315376  1
  Cs  Cs20  1  0.66826323  -0.00257857  0.66792926  1
  Cs  Cs21  1  0.66788840  0.33587480  0.00140491  1
  Cs  Cs22  1  0.66658691  0.33151361  0.33325906  1
  Cs  Cs23  1  0.66880165  0.33224945  0.66556541  1
  Cs  Cs24  1  0.66798147  0.66576886  -0.00287694  1
  Cs  Cs25  1  0.66108524  0.67186005  0.33702868  1
  Cs  Cs26  1  0.67027709  0.67279105  0.66623495  1
  Sn  Sn27  1  0.49993223  0.49930218  0.16599049  1
  Sn  Sn28  1  0.16675275  0.50002065  0.83341355  1
  Sn  Sn29  1  0.83363609  0.83325914  0.16659627  1
  Sn  Sn30  1  0.16605270  0.83329414  0.16664864  1
  Sn  Sn31  1  0.16673699  0.83391000  0.49998519  1
  Sn  Sn32  1  0.49970680  0.16741101  0.16726604  1
  Sn  Sn33  1  0.83355106  0.16673357  0.83342053  1
  Sn  Sn34  1  0.83348171  0.49984139  0.49982553  1
  Sn  Sn35  1  0.49980883  0.49985734  0.83365063  1
  Sn  Sn36  1  0.83341547  0.16740516  0.50057634  1
  Sn  Sn37  1  0.49991362  0.16660746  0.49955597  1
  Sn  Sn38  1  0.16667955  0.16652392  0.49979992  1
  Sn  Sn39  1  0.16655824  0.83264154  0.83339799  1
  Pb  Pb40  1  0.16465690  0.49964876  0.50181286  1
  Pb  Pb41  1  0.16456969  0.16724045  0.83162057  1
  Pb  Pb42  1  0.83546724  0.83394178  0.49845277  1
  Pb  Pb43  1  0.16872386  0.50216113  0.16433897  1
  Pb  Pb44  1  0.49759771  0.83045832  0.83301891  1
  Pb  Pb45  1  0.83350318  0.49836142  0.83184105  1
  Pb  Pb46  1  0.16926607  0.16487559  0.16923745  1
  Pb  Pb47  1  0.83120264  0.16497189  0.16720246  1
  Pb  Pb48  1  0.83069001  0.50251114  0.16927971  1
  Pb  Pb49  1  0.49701809  0.83643509  0.50043985  1
  Pb  Pb50  1  0.50201829  0.16870258  0.83309327  1
  Pb  Pb51  1  0.83591614  0.83588276  0.83562479  1
  Pb  Pb52  1  0.49952954  0.83324489  0.16659747  1
  Pb  Pb53  1  0.50214622  0.49807154  0.50046918  1
  I  I54  1  0.16542440  -0.00340696  0.16237177  1
  I  I55  1  0.16506121  0.00017911  0.50178117  1
  I  I56  1  0.16440118  -0.00251515  0.83422992  1
  I  I57  1  0.16588206  0.33336861  0.16637565  1
  I  I58  1  0.16823014  0.33036093  0.50302119  1
  I  I59  1  0.17039362  0.33595231  0.82973795  1
  I  I60  1  0.16543038  0.67042629  0.17222048  1
  I  I61  1  0.16412206  0.66926485  0.49865358  1
  I  I62  1  0.17059096  0.66726699  0.83114142  1
  I  I63  1  0.50046778  0.00261920  0.17203381  1
  I  I64  1  0.50558498  0.00476628  0.49332511  1
  I  I65  1  0.49942362  0.00034156  0.83440323  1
  I  I66  1  0.50085377  0.33309669  0.16731431  1
  I  I67  1  0.49547066  0.32979571  0.49861362  1
  I  I68  1  0.49287998  0.33639786  0.83450421  1
  I  I69  1  0.49976694  0.66398313  0.16241180  1
  I  I70  1  0.50080014  0.66645952  0.49859608  1
  I  I71  1  0.49993575  0.66238480  0.84015961  1
  I  I72  1  0.83616266  -0.00269778  0.16887697  1
  I  I73  1  0.83196058  0.00326177  0.50211527  1
  I  I74  1  0.83346515  0.00347525  0.82521835  1
  I  I75  1  0.83351055  0.33331745  0.16547814  1
  I  I76  1  0.83499730  0.33138629  0.50381320  1
  I  I77  1  0.83500583  0.33046227  0.83030628  1
  I  I78  1  0.83692109  0.67000869  0.16765681  1
  I  I79  1  0.83438455  0.66476229  0.49872460  1
  I  I80  1  0.83155173  0.66674615  0.83190481  1
  I  I81  1  0.16630536  0.16504645  0.00008499  1
  I  I82  1  0.16168583  0.16169251  0.33748304  1
  I  I83  1  0.17055565  0.16116640  0.66326139  1
  I  I84  1  0.16723651  0.50453651  -0.00368874  1
  I  I85  1  0.16766042  0.50139266  0.33336011  1
  I  I86  1  0.17303955  0.50556696  0.66963345  1
  I  I87  1  0.16297050  0.82836469  -0.00005943  1
  I  I88  1  0.16265481  0.83918944  0.33351582  1
  I  I89  1  0.16778917  0.83402940  0.66651269  1
  I  I90  1  0.50224511  0.16780690  0.00230363  1
  I  I91  1  0.50157037  0.17183157  0.33388639  1
  I  I92  1  0.49832788  0.16791866  0.66375697  1
  I  I93  1  0.49617725  0.49420062  0.00016123  1
  I  I94  1  0.50185142  0.49824585  0.33122923  1
  I  I95  1  0.49593416  0.49830485  0.66918009  1
  I  I96  1  0.49781208  0.83884875  0.00003683  1
  I  I97  1  0.49750256  0.82882118  0.33337991  1
  I  I98  1  0.50007725  0.83317236  0.66665591  1
  I  I99  1  0.83230308  0.16498186  -0.00186654  1
  I  I100  1  0.83465942  0.16844050  0.33655757  1
  I  I101  1  0.83162558  0.16991461  0.66471742  1
  I  I102  1  0.83448955  0.49877518  0.00015167  1
  I  I103  1  0.83351109  0.49213029  0.33677980  1
  I  I104  1  0.83170424  0.49773739  0.66387824  1
  I  I105  1  0.83825007  0.83477960  0.00319736  1
  I  I106  1  0.83893063  0.83492118  0.33077043  1
  I  I107  1  0.83448521  0.83201348  0.66662944  1
  I  I108  1  0.00009717  0.16651376  0.16702424  1
  I  I109  1  -0.00024586  0.16541215  0.50576557  1
  I  I110  1  -0.00300455  0.16728770  0.82659097  1
  I  I111  1  -0.00006539  0.49928356  0.16571153  1
  I  I112  1  -0.00292094  0.49432388  0.50236455  1
  I  I113  1  0.00257680  0.50419671  0.82968983  1
  I  I114  1  0.00123679  0.83465446  0.16735432  1
  I  I115  1  0.00351894  0.83881541  0.50156640  1
  I  I116  1  0.00398842  0.82699282  0.83053095  1
  I  I117  1  0.33711543  0.16812838  0.17091254  1
  I  I118  1  0.33321186  0.16138883  0.49569088  1
  I  I119  1  0.33320530  0.16485826  0.83234604  1
  I  I120  1  0.33668834  0.49813523  0.16718564  1
  I  I121  1  0.33335569  0.49977102  0.49898859  1
  I  I122  1  0.33319179  0.50348046  0.83567421  1
  I  I123  1  0.33015346  0.83371837  0.16695299  1
  I  I124  1  0.32860596  0.83655681  0.49659349  1
  I  I125  1  0.32903871  0.83493813  0.83636867  1
  I  I126  1  0.66346589  0.16729515  0.17202105  1
  I  I127  1  0.66703397  0.17253087  0.49951499  1
  I  I128  1  0.66964011  0.16853157  0.82761081  1
  I  I129  1  0.66300467  0.49795069  0.16025765  1
  I  I130  1  0.66978930  0.49412105  0.50090018  1
  I  I131  1  0.66426105  0.49612853  0.83669861  1
  I  I132  1  0.66871914  0.83415172  0.16826270  1
  I  I133  1  0.66687550  0.83309221  0.49702459  1
  I  I134  1  0.66704654  0.83281912  0.83556787  1
