# generated using pymatgen
data_Cs27Sn13Pb14I81
_symmetry_space_group_name_H-M   'P 1'
_cell_length_a   18.98005302
_cell_length_b   18.99778215
_cell_length_c   18.99772608
_cell_angle_alpha   89.99986644
_cell_angle_beta   89.99990980
_cell_angle_gamma   89.99991177
_symmetry_Int_Tables_number   1
_chemical_formula_structural   Cs27Sn13Pb14I81
_chemical_formula_sum   'Cs27 Sn13 Pb14 I81'
_cell_volume   6850.17940948
_cell_formula_units_Z   1
loop_
 _symmetry_equiv_pos_site_id
 _symmetry_equiv_pos_as_xyz
  1  'x, y, z'
loop_
 _atom_site_type_symbol
 _atom_site_label
 _atom_site_symmetry_multiplicity
 _atom_site_fract_x
 _atom_site_fract_y
 _atom_site_fract_z
 _atom_site_occupancy
  Cs  Cs0  1  -0.00972175  0.00018897  -0.00085317  1
  Cs  Cs1  1  -0.00282048  -0.00863670  0.34065546  1
  Cs  Cs2  1  -0.00724363  0.00942467  0.66076982  1
  Cs  Cs3  1  0.00464927  0.33084443  -0.00218166  1
  Cs  Cs4  1  -0.00625702  0.33317707  0.33482930  1
  Cs  Cs5  1  0.00027226  0.32782767  0.66536209  1
  Cs  Cs6  1  0.00236912  0.66897342  0.00067246  1
  Cs  Cs7  1  -0.00504611  0.67353497  0.33295854  1
  Cs  Cs8  1  -0.00300652  0.66542332  0.66670432  1
  Cs  Cs9  1  0.33381728  -0.00160591  -0.00002645  1
  Cs  Cs10  1  0.33148044  -0.00297744  0.33436708  1
  Cs  Cs11  1  0.33444839  0.00176450  0.66540564  1
  Cs  Cs12  1  0.33197444  0.33360906  0.00171099  1
  Cs  Cs13  1  0.33422151  0.33393974  0.33015646  1
  Cs  Cs14  1  0.33299428  0.33427828  0.66747803  1
  Cs  Cs15  1  0.33283215  0.66622870  -0.00148416  1
  Cs  Cs16  1  0.33237315  0.66834189  0.33368849  1
  Cs  Cs17  1  0.33523848  0.66458684  0.66874777  1
  Cs  Cs18  1  0.67223949  0.00164782  0.00096557  1
  Cs  Cs19  1  0.66898175  0.00459716  0.32995393  1
  Cs  Cs20  1  0.66563572  -0.00152266  0.66827678  1
  Cs  Cs21  1  0.66609285  0.33275124  0.00889718  1
  Cs  Cs22  1  0.67310475  0.33321515  0.32461726  1
  Cs  Cs23  1  0.66429146  0.33529991  0.66514889  1
  Cs  Cs24  1  0.66766169  0.66617077  -0.00093465  1
  Cs  Cs25  1  0.67212719  0.66275151  0.33301362  1
  Cs  Cs26  1  0.66470255  0.66672214  0.66771615  1
  Sn  Sn27  1  0.16699344  0.49950187  0.16720660  1
  Sn  Sn28  1  0.49954897  0.83299079  0.49977601  1
  Sn  Sn29  1  0.49945752  0.16700674  0.83312766  1
  Sn  Sn30  1  0.50008021  0.49948463  0.83317590  1
  Sn  Sn31  1  0.16743987  0.50014252  0.49994327  1
  Sn  Sn32  1  0.49909100  0.49954837  0.50008456  1
  Sn  Sn33  1  0.49894638  0.83346123  0.83353871  1
  Sn  Sn34  1  0.49975196  0.83299133  0.16653069  1
  Sn  Sn35  1  0.16709773  0.83361524  0.83267997  1
  Sn  Sn36  1  0.16674000  0.16623522  0.16684326  1
  Sn  Sn37  1  0.16661421  0.50070565  0.83288707  1
  Sn  Sn38  1  0.49936687  0.16745696  0.50027505  1
  Sn  Sn39  1  0.83338671  0.49966874  0.83343386  1
  Pb  Pb40  1  0.16897432  0.16906806  0.49761301  1
  Pb  Pb41  1  0.49833087  0.16441835  0.16676053  1
  Pb  Pb42  1  0.83018914  0.83300556  0.16643952  1
  Pb  Pb43  1  0.83728368  0.50011992  0.16365727  1
  Pb  Pb44  1  0.16857503  0.16615436  0.83452155  1
  Pb  Pb45  1  0.49820962  0.50192244  0.16689080  1
  Pb  Pb46  1  0.83748780  0.16663691  0.16669666  1
  Pb  Pb47  1  0.16854818  0.83117387  0.50329243  1
  Pb  Pb48  1  0.82997254  0.16701715  0.50014847  1
  Pb  Pb49  1  0.83342657  0.83136800  0.83300002  1
  Pb  Pb50  1  0.16805262  0.83342826  0.16446152  1
  Pb  Pb51  1  0.82984280  0.16989212  0.83330403  1
  Pb  Pb52  1  0.82997527  0.83311275  0.50056449  1
  Pb  Pb53  1  0.83310813  0.49998762  0.50227325  1
  I  I54  1  0.17198308  0.00204802  0.16367793  1
  I  I55  1  0.16884263  -0.00009043  0.49838669  1
  I  I56  1  0.17545772  -0.00281519  0.83750555  1
  I  I57  1  0.17008180  0.33503631  0.16273681  1
  I  I58  1  0.17347688  0.33740589  0.50681861  1
  I  I59  1  0.16804867  0.33691324  0.83247576  1
  I  I60  1  0.16909087  0.66373675  0.16635923  1
  I  I61  1  0.17349757  0.66283021  0.49593599  1
  I  I62  1  0.17234209  0.66478167  0.83593359  1
  I  I63  1  0.49604819  -0.00318634  0.16570941  1
  I  I64  1  0.50074350  -0.00028339  0.50419423  1
  I  I65  1  0.49408655  -0.00091295  0.83037110  1
  I  I66  1  0.50057897  0.33343714  0.16597471  1
  I  I67  1  0.49530672  0.33437792  0.50969745  1
  I  I68  1  0.49934988  0.33464251  0.82611185  1
  I  I69  1  0.49619822  0.66955325  0.16497383  1
  I  I70  1  0.49589075  0.66603395  0.50404493  1
  I  I71  1  0.49945120  0.66611910  0.83112223  1
  I  I72  1  0.83415675  -0.00005930  0.16478376  1
  I  I73  1  0.83377864  0.00007322  0.50043898  1
  I  I74  1  0.83355141  0.00025957  0.83434851  1
  I  I75  1  0.82739412  0.33359683  0.16639272  1
  I  I76  1  0.83105415  0.33368611  0.50120970  1
  I  I77  1  0.83605757  0.33766132  0.83231746  1
  I  I78  1  0.83493480  0.66632852  0.16664442  1
  I  I79  1  0.83085658  0.66633213  0.50006728  1
  I  I80  1  0.82834830  0.66344808  0.83284849  1
  I  I81  1  0.17188996  0.17426043  0.00202597  1
  I  I82  1  0.17170868  0.17275876  0.33006336  1
  I  I83  1  0.16611292  0.16703386  0.66653441  1
  I  I84  1  0.16753859  0.49976567  -0.00143287  1
  I  I85  1  0.17538264  0.49462063  0.33384061  1
  I  I86  1  0.16906991  0.50524005  0.66772458  1
  I  I87  1  0.17557413  0.82539865  -0.00338460  1
  I  I88  1  0.16958154  0.83180160  0.33355334  1
  I  I89  1  0.17461052  0.82684150  0.67117602  1
  I  I90  1  0.49820421  0.16778231  -0.00280950  1
  I  I91  1  0.49774546  0.16653291  0.33615813  1
  I  I92  1  0.49875064  0.16335361  0.66718216  1
  I  I93  1  0.49913268  0.50004835  -0.00335416  1
  I  I94  1  0.49460186  0.50072469  0.33643143  1
  I  I95  1  0.49632176  0.50327784  0.66766768  1
  I  I96  1  0.49554586  0.83244998  -0.00168558  1
  I  I97  1  0.49907446  0.83320425  0.33406401  1
  I  I98  1  0.49682309  0.83261516  0.66744843  1
  I  I99  1  0.82924346  0.16683295  -0.00014706  1
  I  I100  1  0.82878823  0.16903196  0.33327126  1
  I  I101  1  0.83786871  0.16683623  0.66696881  1
  I  I102  1  0.82865536  0.50089303  -0.00408112  1
  I  I103  1  0.83170152  0.49949943  0.33323622  1
  I  I104  1  0.83567136  0.50134735  0.67006638  1
  I  I105  1  0.83063730  0.83246428  -0.00042639  1
  I  I106  1  0.83370870  0.83206766  0.33342324  1
  I  I107  1  0.83108435  0.83175795  0.66699091  1
  I  I108  1  0.00510939  0.17362156  0.16301624  1
  I  I109  1  0.00034497  0.16839268  0.49888406  1
  I  I110  1  0.00004276  0.16627707  0.83626321  1
  I  I111  1  0.00535172  0.49653503  0.16721348  1
  I  I112  1  0.00339184  0.49952255  0.50127124  1
  I  I113  1  0.00174857  0.50624288  0.83448480  1
  I  I114  1  0.00032714  0.83329754  0.16391717  1
  I  I115  1  0.00040640  0.83156967  0.50021758  1
  I  I116  1  0.00337539  0.82602660  0.83655619  1
  I  I117  1  0.33109834  0.17251293  0.16540895  1
  I  I118  1  0.33731714  0.16449757  0.50468688  1
  I  I119  1  0.33702063  0.17094593  0.83029906  1
  I  I120  1  0.33037567  0.49733852  0.16113229  1
  I  I121  1  0.33458394  0.50043222  0.50558210  1
  I  I122  1  0.33376631  0.50109853  0.83279785  1
  I  I123  1  0.33629070  0.83269291  0.16755354  1
  I  I124  1  0.33740677  0.83495677  0.49858321  1
  I  I125  1  0.33528821  0.82719510  0.83374330  1
  I  I126  1  0.66650619  0.16487293  0.16692631  1
  I  I127  1  0.66103650  0.16871418  0.50415522  1
  I  I128  1  0.66129863  0.16380030  0.82978958  1
  I  I129  1  0.66672547  0.50162618  0.16672525  1
  I  I130  1  0.66265305  0.50148971  0.50575854  1
  I  I131  1  0.66438504  0.50110127  0.82733155  1
  I  I132  1  0.66150501  0.83348691  0.16333966  1
  I  I133  1  0.66066811  0.82933084  0.50452554  1
  I  I134  1  0.66243646  0.83235524  0.83250837  1
