# generated using pymatgen
data_Cs27Sn14Pb13I81
_symmetry_space_group_name_H-M   'P 1'
_cell_length_a   18.97496424
_cell_length_b   18.96906863
_cell_length_c   18.98334378
_cell_angle_alpha   90.00028065
_cell_angle_beta   89.99947738
_cell_angle_gamma   89.99926555
_symmetry_Int_Tables_number   1
_chemical_formula_structural   Cs27Sn14Pb13I81
_chemical_formula_sum   'Cs27 Sn14 Pb13 I81'
_cell_volume   6832.81538161
_cell_formula_units_Z   1
loop_
 _symmetry_equiv_pos_site_id
 _symmetry_equiv_pos_as_xyz
  1  'x, y, z'
loop_
 _atom_site_type_symbol
 _atom_site_label
 _atom_site_symmetry_multiplicity
 _atom_site_fract_x
 _atom_site_fract_y
 _atom_site_fract_z
 _atom_site_occupancy
  Cs  Cs0  1  -0.00118010  -0.00032646  -0.00218908  1
  Cs  Cs1  1  -0.00215697  0.00081259  0.33418437  1
  Cs  Cs2  1  -0.00224308  -0.00381811  0.66694120  1
  Cs  Cs3  1  -0.00196285  0.33446857  -0.00111657  1
  Cs  Cs4  1  -0.00016828  0.33212078  0.33584319  1
  Cs  Cs5  1  0.00304057  0.33092519  0.66485636  1
  Cs  Cs6  1  0.00167380  0.66526847  0.00249544  1
  Cs  Cs7  1  0.00192868  0.66743156  0.33144381  1
  Cs  Cs8  1  -0.00004268  0.67597179  0.66550198  1
  Cs  Cs9  1  0.33581109  0.00003352  -0.00108424  1
  Cs  Cs10  1  0.33512576  0.00134983  0.33291592  1
  Cs  Cs11  1  0.33423373  0.00103483  0.66763899  1
  Cs  Cs12  1  0.33326736  0.33184514  0.00034583  1
  Cs  Cs13  1  0.33418765  0.33208775  0.33404623  1
  Cs  Cs14  1  0.33046421  0.33271439  0.66585481  1
  Cs  Cs15  1  0.32871375  0.66714450  0.00152518  1
  Cs  Cs16  1  0.33110008  0.66548405  0.33092401  1
  Cs  Cs17  1  0.33548389  0.66455873  0.66749112  1
  Cs  Cs18  1  0.66441372  0.00092478  0.00251268  1
  Cs  Cs19  1  0.66629325  0.00009674  0.33185177  1
  Cs  Cs20  1  0.66666440  -0.00038007  0.66663550  1
  Cs  Cs21  1  0.66899693  0.34219081  0.00044997  1
  Cs  Cs22  1  0.66629887  0.33332540  0.33344124  1
  Cs  Cs23  1  0.66777923  0.33561684  0.66729900  1
  Cs  Cs24  1  0.66882486  0.65907805  -0.00055923  1
  Cs  Cs25  1  0.66656855  0.66706833  0.33419098  1
  Cs  Cs26  1  0.66530617  0.66538803  0.66848461  1
  Sn  Sn27  1  0.16652461  0.49917403  0.83214869  1
  Sn  Sn28  1  0.49976976  0.83410455  0.50000296  1
  Sn  Sn29  1  0.83257266  0.83418712  0.16661417  1
  Sn  Sn30  1  0.83328960  0.16714529  0.49946769  1
  Sn  Sn31  1  0.49980665  0.16634755  0.83264152  1
  Sn  Sn32  1  0.83450817  0.49942403  0.50013983  1
  Sn  Sn33  1  0.50019088  0.16594014  0.50097531  1
  Sn  Sn34  1  0.50012339  0.83404616  0.83344993  1
  Sn  Sn35  1  0.16725645  0.16707915  0.83317405  1
  Sn  Sn36  1  0.50096002  0.83353830  0.16652367  1
  Sn  Sn37  1  0.16579882  0.16635050  0.16659623  1
  Sn  Sn38  1  0.83386204  0.16599452  0.16715026  1
  Sn  Sn39  1  0.16543700  0.49938174  0.50113529  1
  Sn  Sn40  1  0.16651787  0.16673750  0.50019466  1
  Pb  Pb41  1  0.83025570  0.83342228  0.83649352  1
  Pb  Pb42  1  0.50052291  0.16579675  0.16634367  1
  Pb  Pb43  1  0.49990414  0.50353440  0.16668180  1
  Pb  Pb44  1  0.83100297  0.83355622  0.49834260  1
  Pb  Pb45  1  0.83361937  0.49952900  0.16932409  1
  Pb  Pb46  1  0.16650450  0.49684796  0.16716272  1
  Pb  Pb47  1  0.16637318  0.83621377  0.16675243  1
  Pb  Pb48  1  0.16868000  0.83374044  0.83322250  1
  Pb  Pb49  1  0.49953945  0.49929548  0.50000245  1
  Pb  Pb50  1  0.83305917  0.16672100  0.83326824  1
  Pb  Pb51  1  0.16917798  0.83353443  0.49998331  1
  Pb  Pb52  1  0.49753727  0.49918735  0.83317079  1
  Pb  Pb53  1  0.83685785  0.49985003  0.82994781  1
  I  I54  1  0.16633875  0.00448408  0.16772865  1
  I  I55  1  0.16426383  0.00391300  0.50074156  1
  I  I56  1  0.16899697  0.00378585  0.83236940  1
  I  I57  1  0.16118615  0.32859869  0.16709349  1
  I  I58  1  0.16822039  0.33154467  0.50025621  1
  I  I59  1  0.17315743  0.33137332  0.83237277  1
  I  I60  1  0.16786676  0.66665448  0.16630125  1
  I  I61  1  0.16347713  0.66347115  0.50474708  1
  I  I62  1  0.16814883  0.66379813  0.82811550  1
  I  I63  1  0.50055957  -0.00239111  0.16719345  1
  I  I64  1  0.49960529  0.00145350  0.50027156  1
  I  I65  1  0.49350640  0.00090988  0.83226703  1
  I  I66  1  0.50029130  0.33294616  0.16685456  1
  I  I67  1  0.49963783  0.32944980  0.50475559  1
  I  I68  1  0.49771766  0.32961412  0.82722512  1
  I  I69  1  0.50612675  0.67235468  0.16781677  1
  I  I70  1  0.50039162  0.66950800  0.49954774  1
  I  I71  1  0.49933312  0.66963367  0.83284943  1
  I  I72  1  0.83325616  0.00128043  0.17335277  1
  I  I73  1  0.83599957  0.00338659  0.49786571  1
  I  I74  1  0.83907911  0.00023643  0.82833723  1
  I  I75  1  0.83782493  0.32981315  0.16850870  1
  I  I76  1  0.83180461  0.33128724  0.49398136  1
  I  I77  1  0.82628561  0.33309597  0.83966761  1
  I  I78  1  0.82656895  0.66941510  0.16762095  1
  I  I79  1  0.83683393  0.66428243  0.49874490  1
  I  I80  1  0.83280266  0.66660097  0.83298027  1
  I  I81  1  0.16809482  0.16941544  -0.00057415  1
  I  I82  1  0.16722008  0.16958592  0.33449111  1
  I  I83  1  0.16849070  0.17116413  0.66607092  1
  I  I84  1  0.17011773  0.49650705  -0.00277294  1
  I  I85  1  0.16366470  0.49670059  0.33692212  1
  I  I86  1  0.16438091  0.49038251  0.66570164  1
  I  I87  1  0.16956860  0.83285103  0.00003475  1
  I  I88  1  0.17114584  0.83225317  0.33337343  1
  I  I89  1  0.16767611  0.83682633  0.66654497  1
  I  I90  1  0.49511302  0.16156473  -0.00253474  1
  I  I91  1  0.49725667  0.16309363  0.33617970  1
  I  I92  1  0.49655217  0.15869837  0.66581960  1
  I  I93  1  0.49834001  0.49818950  -0.00030399  1
  I  I94  1  0.49694639  0.49930261  0.33378181  1
  I  I95  1  0.50305812  0.50643396  0.66643354  1
  I  I96  1  0.50271847  0.83930750  -0.00017642  1
  I  I97  1  0.50349720  0.83808066  0.33354234  1
  I  I98  1  0.49790950  0.83795997  0.66646681  1
  I  I99  1  0.83643671  0.16115168  0.00302951  1
  I  I100  1  0.83626909  0.16627406  0.33424059  1
  I  I101  1  0.83485028  0.17077293  0.66319759  1
  I  I102  1  0.83301693  0.50040142  0.00000855  1
  I  I103  1  0.84016926  0.49807486  0.33707909  1
  I  I104  1  0.83257423  0.49230132  0.66210906  1
  I  I105  1  0.82895152  0.84101650  0.00450110  1
  I  I106  1  0.82656283  0.83547750  0.33059394  1
  I  I107  1  0.83229937  0.83330446  0.66646371  1
  I  I108  1  -0.00020652  0.16107938  0.17029762  1
  I  I109  1  0.00033785  0.17165956  0.49873270  1
  I  I110  1  0.00324021  0.17153758  0.83183193  1
  I  I111  1  0.00011713  0.50677838  0.16378331  1
  I  I112  1  0.00076477  0.49052452  0.50275249  1
  I  I113  1  0.00466048  0.49105308  0.83339057  1
  I  I114  1  -0.00297482  0.83525974  0.16855030  1
  I  I115  1  -0.00016774  0.83500594  0.49772702  1
  I  I116  1  -0.00001205  0.83323273  0.83489730  1
  I  I117  1  0.33107601  0.16590831  0.16917214  1
  I  I118  1  0.33296272  0.16665620  0.49969450  1
  I  I119  1  0.33301682  0.16611987  0.83060698  1
  I  I120  1  0.33289121  0.50005001  0.16988604  1
  I  I121  1  0.33005374  0.49692615  0.50377750  1
  I  I122  1  0.32983376  0.49831794  0.82512595  1
  I  I123  1  0.33650722  0.83443948  0.16658736  1
  I  I124  1  0.33748784  0.83772418  0.49729733  1
  I  I125  1  0.33704302  0.83536086  0.83581507  1
  I  I126  1  0.66927990  0.16349756  0.17110033  1
  I  I127  1  0.66657397  0.16639628  0.49901350  1
  I  I128  1  0.66337441  0.16043302  0.82983320  1
  I  I129  1  0.66699346  0.49435550  0.16821695  1
  I  I130  1  0.66912028  0.49662091  0.49704619  1
  I  I131  1  0.66670856  0.50041301  0.83340819  1
  I  I132  1  0.66618992  0.84144221  0.16755760  1
  I  I133  1  0.66295032  0.83754668  0.50168952  1
  I  I134  1  0.66193991  0.84097299  0.82958288  1
