# generated using pymatgen
data_Cs27Sn14Pb13I81
_symmetry_space_group_name_H-M   'P 1'
_cell_length_a   18.98034437
_cell_length_b   18.97137035
_cell_length_c   18.97280252
_cell_angle_alpha   89.99978735
_cell_angle_beta   90.00072919
_cell_angle_gamma   89.99917456
_symmetry_Int_Tables_number   1
_chemical_formula_structural   Cs27Sn14Pb13I81
_chemical_formula_sum   'Cs27 Sn14 Pb13 I81'
_cell_volume   6831.78635106
_cell_formula_units_Z   1
loop_
 _symmetry_equiv_pos_site_id
 _symmetry_equiv_pos_as_xyz
  1  'x, y, z'
loop_
 _atom_site_type_symbol
 _atom_site_label
 _atom_site_symmetry_multiplicity
 _atom_site_fract_x
 _atom_site_fract_y
 _atom_site_fract_z
 _atom_site_occupancy
  Cs  Cs0  1  0.00002981  -0.00133160  -0.00178938  1
  Cs  Cs1  1  0.00410188  -0.00091655  0.33590280  1
  Cs  Cs2  1  0.00244389  0.00202072  0.66625952  1
  Cs  Cs3  1  -0.01157428  0.33245040  -0.00210044  1
  Cs  Cs4  1  0.00086247  0.34042708  0.33174745  1
  Cs  Cs5  1  -0.00217786  0.33175974  0.66981333  1
  Cs  Cs6  1  0.00038510  0.66764843  0.00344645  1
  Cs  Cs7  1  0.00223833  0.65748204  0.33059865  1
  Cs  Cs8  1  -0.00247062  0.66648923  0.66584983  1
  Cs  Cs9  1  0.33387168  -0.00176206  -0.00031064  1
  Cs  Cs10  1  0.33124748  0.00185685  0.33311270  1
  Cs  Cs11  1  0.33165122  0.00108186  0.66712376  1
  Cs  Cs12  1  0.33662290  0.33354508  -0.00289418  1
  Cs  Cs13  1  0.33257714  0.33205988  0.33534051  1
  Cs  Cs14  1  0.33305381  0.33292998  0.66688902  1
  Cs  Cs15  1  0.33409255  0.66778735  -0.00055708  1
  Cs  Cs16  1  0.33092624  0.66163785  0.33262138  1
  Cs  Cs17  1  0.33524232  0.66542195  0.66859319  1
  Cs  Cs18  1  0.66534153  -0.00154779  0.00250443  1
  Cs  Cs19  1  0.66730233  0.00063209  0.33319935  1
  Cs  Cs20  1  0.66561360  -0.00304354  0.66352575  1
  Cs  Cs21  1  0.67083572  0.33344190  0.00332467  1
  Cs  Cs22  1  0.66870121  0.33068618  0.32775179  1
  Cs  Cs23  1  0.66712214  0.33588255  0.66736804  1
  Cs  Cs24  1  0.66442450  0.66847621  -0.00212260  1
  Cs  Cs25  1  0.66672163  0.66847364  0.34280692  1
  Cs  Cs26  1  0.66745810  0.66778576  0.66164768  1
  Sn  Sn27  1  0.16672640  0.83245910  0.83239118  1
  Sn  Sn28  1  0.16660589  0.16686245  0.16649980  1
  Sn  Sn29  1  0.83363157  0.16659023  0.49995431  1
  Sn  Sn30  1  0.83257524  0.83347836  0.16668267  1
  Sn  Sn31  1  0.49935071  0.50030391  0.83414003  1
  Sn  Sn32  1  0.16635746  0.16613489  0.49914174  1
  Sn  Sn33  1  0.16697616  0.83326983  0.50058356  1
  Sn  Sn34  1  0.50062885  0.83227848  0.16651785  1
  Sn  Sn35  1  0.83315339  0.83357875  0.83383526  1
  Sn  Sn36  1  0.49984404  0.50128453  0.16608044  1
  Sn  Sn37  1  0.16700083  0.50069703  0.83364016  1
  Sn  Sn38  1  0.50012954  0.83323696  0.83364965  1
  Sn  Sn39  1  0.50019408  0.16647243  0.50075454  1
  Sn  Sn40  1  0.50019141  0.16647738  0.83267875  1
  Pb  Pb41  1  0.83263173  0.50288050  0.83339966  1
  Pb  Pb42  1  0.83335384  0.49679672  0.50002948  1
  Pb  Pb43  1  0.49999818  0.49709479  0.50007721  1
  Pb  Pb44  1  0.83614275  0.83469306  0.49958427  1
  Pb  Pb45  1  0.16681924  0.49964824  0.50275095  1
  Pb  Pb46  1  0.83620871  0.16404808  0.16879183  1
  Pb  Pb47  1  0.82996350  0.16390219  0.83151887  1
  Pb  Pb48  1  0.16805485  0.16682286  0.83330075  1
  Pb  Pb49  1  0.49762721  0.83516219  0.49961562  1
  Pb  Pb50  1  0.16886942  0.49692804  0.16329239  1
  Pb  Pb51  1  0.83006446  0.50327895  0.16648977  1
  Pb  Pb52  1  0.49877910  0.16632624  0.16641599  1
  Pb  Pb53  1  0.16706880  0.83421512  0.16646855  1
  I  I54  1  0.16990385  0.00206140  0.16689210  1
  I  I55  1  0.16715723  0.00080646  0.50274851  1
  I  I56  1  0.16814226  -0.00282408  0.83228607  1
  I  I57  1  0.17012962  0.32951806  0.17404493  1
  I  I58  1  0.16760399  0.32973008  0.49715594  1
  I  I59  1  0.17386598  0.33542639  0.83315631  1
  I  I60  1  0.16459993  0.66650672  0.17010309  1
  I  I61  1  0.16694166  0.66952288  0.50223652  1
  I  I62  1  0.17200644  0.66847283  0.82838632  1
  I  I63  1  0.50187861  -0.00281004  0.16280897  1
  I  I64  1  0.50033566  0.00332809  0.50414504  1
  I  I65  1  0.49892186  -0.00117416  0.83351579  1
  I  I66  1  0.49614874  0.33523083  0.16352609  1
  I  I67  1  0.49630048  0.32879977  0.50425965  1
  I  I68  1  0.49316248  0.33367148  0.83235099  1
  I  I69  1  0.50203153  0.66781249  0.15736396  1
  I  I70  1  0.49845538  0.66683514  0.50176505  1
  I  I71  1  0.49835616  0.66763489  0.83865364  1
  I  I72  1  0.82533064  -0.00351674  0.16193846  1
  I  I73  1  0.83148784  0.00264794  0.50092913  1
  I  I74  1  0.83527059  -0.00411760  0.83642299  1
  I  I75  1  0.83289760  0.33322767  0.16870280  1
  I  I76  1  0.83565266  0.32842429  0.50079836  1
  I  I77  1  0.83447721  0.33308294  0.83084050  1
  I  I78  1  0.83521560  0.67122638  0.16219806  1
  I  I79  1  0.83438347  0.66714669  0.50016950  1
  I  I80  1  0.82975462  0.67111671  0.83595659  1
  I  I81  1  0.17147499  0.16475151  0.00170471  1
  I  I82  1  0.17006774  0.15927580  0.33512734  1
  I  I83  1  0.16611093  0.16496224  0.66408331  1
  I  I84  1  0.17037821  0.50662828  -0.00426523  1
  I  I85  1  0.16768803  0.50207760  0.33306269  1
  I  I86  1  0.17472081  0.49970906  0.67059350  1
  I  I87  1  0.16743707  0.83237217  -0.00312707  1
  I  I88  1  0.16722947  0.83889347  0.33550905  1
  I  I89  1  0.16723702  0.83687364  0.66806302  1
  I  I90  1  0.49596264  0.16569714  -0.00274810  1
  I  I91  1  0.50018607  0.16607289  0.33583808  1
  I  I92  1  0.49690424  0.16565990  0.66718316  1
  I  I93  1  0.49519859  0.49889438  -0.00150819  1
  I  I94  1  0.50081126  0.50389141  0.33035391  1
  I  I95  1  0.49633273  0.50226186  0.67028467  1
  I  I96  1  0.49833566  0.83563550  -0.00150420  1
  I  I97  1  0.50360790  0.83130915  0.33042632  1
  I  I98  1  0.50219087  0.83151003  0.66985290  1
  I  I99  1  0.83416230  0.16777300  -0.00003346  1
  I  I100  1  0.82678897  0.16300350  0.33668373  1
  I  I101  1  0.83957903  0.16367722  0.66371722  1
  I  I102  1  0.83656483  0.49476979  -0.00011751  1
  I  I103  1  0.83201568  0.50298395  0.33300847  1
  I  I104  1  0.83111482  0.50280578  0.66706332  1
  I  I105  1  0.83432920  0.83447576  -0.00094294  1
  I  I106  1  0.82805080  0.83634151  0.33077929  1
  I  I107  1  0.83037402  0.83448804  0.66940860  1
  I  I108  1  0.00386549  0.16381566  0.17071447  1
  I  I109  1  0.00127918  0.16090752  0.49588344  1
  I  I110  1  -0.00014956  0.16692920  0.83276035  1
  I  I111  1  0.00004913  0.49992910  0.16666432  1
  I  I112  1  0.00038968  0.49898928  0.50143971  1
  I  I113  1  0.00270159  0.50328373  0.83109087  1
  I  I114  1  -0.00178171  0.83845582  0.16295682  1
  I  I115  1  0.00377346  0.84109032  0.50487933  1
  I  I116  1  0.00084296  0.82992740  0.83332715  1
  I  I117  1  0.33123377  0.16349310  0.17241114  1
  I  I118  1  0.33290952  0.16282888  0.50018998  1
  I  I119  1  0.33626021  0.16261207  0.82892882  1
  I  I120  1  0.33670511  0.50747878  0.16448991  1
  I  I121  1  0.33343129  0.49728363  0.49821528  1
  I  I122  1  0.33459855  0.50473570  0.83592367  1
  I  I123  1  0.33619294  0.83220041  0.16271536  1
  I  I124  1  0.32994667  0.84060058  0.50420516  1
  I  I125  1  0.33400788  0.83348238  0.83357030  1
  I  I126  1  0.66665839  0.16840894  0.16817238  1
  I  I127  1  0.66588427  0.16636602  0.50572570  1
  I  I128  1  0.66172849  0.16772704  0.82911927  1
  I  I129  1  0.66216507  0.49730216  0.15834805  1
  I  I130  1  0.66630876  0.50015822  0.50317812  1
  I  I131  1  0.66279969  0.49895113  0.83687445  1
  I  I132  1  0.66538543  0.83163967  0.15806461  1
  I  I133  1  0.66656328  0.83584873  0.50231865  1
  I  I134  1  0.66539229  0.83467589  0.83804258  1
