# generated using pymatgen
data_Cs27Sn14Pb13I81
_symmetry_space_group_name_H-M   'P 1'
_cell_length_a   18.98344332
_cell_length_b   18.97253755
_cell_length_c   18.97264127
_cell_angle_alpha   89.99946211
_cell_angle_beta   90.00091592
_cell_angle_gamma   90.00086348
_symmetry_Int_Tables_number   1
_chemical_formula_structural   Cs27Sn14Pb13I81
_chemical_formula_sum   'Cs27 Sn14 Pb13 I81'
_cell_volume   6833.26410105
_cell_formula_units_Z   1
loop_
 _symmetry_equiv_pos_site_id
 _symmetry_equiv_pos_as_xyz
  1  'x, y, z'
loop_
 _atom_site_type_symbol
 _atom_site_label
 _atom_site_symmetry_multiplicity
 _atom_site_fract_x
 _atom_site_fract_y
 _atom_site_fract_z
 _atom_site_occupancy
  Cs  Cs0  1  -0.00427175  0.00446467  0.00087818  1
  Cs  Cs1  1  -0.00164221  -0.00075637  0.33354603  1
  Cs  Cs2  1  0.00303212  0.00596109  0.66578874  1
  Cs  Cs3  1  0.00164198  0.33280791  0.00013351  1
  Cs  Cs4  1  -0.00100228  0.33467765  0.33282489  1
  Cs  Cs5  1  0.00039003  0.33080110  0.66709256  1
  Cs  Cs6  1  0.00110722  0.66519800  -0.00010729  1
  Cs  Cs7  1  0.00212576  0.66590130  0.33319763  1
  Cs  Cs8  1  -0.00278167  0.66506226  0.66742373  1
  Cs  Cs9  1  0.33683852  0.00393904  -0.00109104  1
  Cs  Cs10  1  0.33140880  -0.00755992  0.34036566  1
  Cs  Cs11  1  0.32869139  0.00084063  0.66125225  1
  Cs  Cs12  1  0.33417670  0.33243639  0.00146831  1
  Cs  Cs13  1  0.33558307  0.33341503  0.32867567  1
  Cs  Cs14  1  0.33349602  0.33252606  0.66475697  1
  Cs  Cs15  1  0.33166950  0.66570451  -0.00097882  1
  Cs  Cs16  1  0.33018488  0.67579081  0.33521416  1
  Cs  Cs17  1  0.33322517  0.66640529  0.66810167  1
  Cs  Cs18  1  0.66577407  0.00058178  0.00300880  1
  Cs  Cs19  1  0.66832667  -0.00042701  0.33000431  1
  Cs  Cs20  1  0.66795799  0.00055583  0.66638899  1
  Cs  Cs21  1  0.66404299  0.33410778  -0.00001264  1
  Cs  Cs22  1  0.66552276  0.33230531  0.33499085  1
  Cs  Cs23  1  0.66633273  0.33539012  0.66375034  1
  Cs  Cs24  1  0.66667367  0.66640403  -0.00287232  1
  Cs  Cs25  1  0.66624524  0.66772079  0.33558091  1
  Cs  Cs26  1  0.66932718  0.66433755  0.66891395  1
  Sn  Sn27  1  0.16667275  0.50039156  0.83250929  1
  Sn  Sn28  1  0.16621852  0.83296866  0.83383836  1
  Sn  Sn29  1  0.83375698  0.83279163  0.83251932  1
  Sn  Sn30  1  0.16763807  0.16636470  0.16676692  1
  Sn  Sn31  1  0.50051578  0.50003592  0.16611821  1
  Sn  Sn32  1  0.83233502  0.50008463  0.16642033  1
  Sn  Sn33  1  0.83354006  0.50031456  0.83347580  1
  Sn  Sn34  1  0.83429369  0.50062647  0.50019063  1
  Sn  Sn35  1  0.49982227  0.49987170  0.83402442  1
  Sn  Sn36  1  0.16637889  0.49980521  0.50067083  1
  Sn  Sn37  1  0.50012528  0.16698747  0.83340786  1
  Sn  Sn38  1  0.49994109  0.83341779  0.83342128  1
  Sn  Sn39  1  0.83327515  0.83233496  0.50117249  1
  Sn  Sn40  1  0.49874747  0.16721658  0.16610661  1
  Pb  Pb41  1  0.83254044  0.16936837  0.16655986  1
  Pb  Pb42  1  0.83333464  0.16675240  0.50013981  1
  Pb  Pb43  1  0.49980307  0.50011686  0.49967922  1
  Pb  Pb44  1  0.49997674  0.16657276  0.49931041  1
  Pb  Pb45  1  0.16395526  0.83090346  0.50278314  1
  Pb  Pb46  1  0.49991325  0.83291686  0.16463469  1
  Pb  Pb47  1  0.16729042  0.49921179  0.16656863  1
  Pb  Pb48  1  0.16673371  0.16965241  0.49690908  1
  Pb  Pb49  1  0.83064168  0.16680600  0.83328395  1
  Pb  Pb50  1  0.50287245  0.83311888  0.50321157  1
  Pb  Pb51  1  0.83337881  0.83044039  0.16610722  1
  Pb  Pb52  1  0.16657958  0.83644161  0.16369420  1
  Pb  Pb53  1  0.16894658  0.16702093  0.83466636  1
  I  I54  1  0.17378825  0.00424852  0.16435135  1
  I  I55  1  0.16541140  -0.00028417  0.50063940  1
  I  I56  1  0.16593074  -0.00270118  0.83607880  1
  I  I57  1  0.16822629  0.33148531  0.16396710  1
  I  I58  1  0.15934342  0.33766566  0.50857929  1
  I  I59  1  0.16557526  0.33683117  0.83132082  1
  I  I60  1  0.16682368  0.66651816  0.16845617  1
  I  I61  1  0.16547396  0.66287127  0.49960165  1
  I  I62  1  0.17059250  0.66527101  0.83061578  1
  I  I63  1  0.49656829  0.00302902  0.16086343  1
  I  I64  1  0.50204670  -0.00027376  0.50034532  1
  I  I65  1  0.50105546  -0.00020886  0.83785415  1
  I  I66  1  0.50035898  0.33425820  0.15798864  1
  I  I67  1  0.50295223  0.33375151  0.50563622  1
  I  I68  1  0.50014210  0.33471543  0.83764532  1
  I  I69  1  0.50490448  0.66309805  0.16206944  1
  I  I70  1  0.49743273  0.66640796  0.49748180  1
  I  I71  1  0.50069493  0.66562860  0.83685337  1
  I  I72  1  0.83319906  -0.00004776  0.16727397  1
  I  I73  1  0.83201838  -0.00348947  0.50638536  1
  I  I74  1  0.83403752  -0.00345835  0.82810248  1
  I  I75  1  0.83232089  0.33782459  0.16564489  1
  I  I76  1  0.83620393  0.33748752  0.50120867  1
  I  I77  1  0.83411801  0.33725344  0.83286709  1
  I  I78  1  0.82785358  0.66208999  0.16545631  1
  I  I79  1  0.83635628  0.66495133  0.50190105  1
  I  I80  1  0.82910854  0.66532847  0.83300998  1
  I  I81  1  0.16890108  0.16999376  0.00237905  1
  I  I82  1  0.17380998  0.16990969  0.32921492  1
  I  I83  1  0.16793724  0.16499763  0.66676152  1
  I  I84  1  0.16428343  0.50243850  -0.00322098  1
  I  I85  1  0.16200490  0.49637015  0.33546475  1
  I  I86  1  0.16403622  0.50320532  0.66845506  1
  I  I87  1  0.16421897  0.82403312  -0.00477545  1
  I  I88  1  0.16567192  0.83254493  0.33373806  1
  I  I89  1  0.17076788  0.83275136  0.67100683  1
  I  I90  1  0.49649782  0.16823831  -0.00047926  1
  I  I91  1  0.49776424  0.17487868  0.32929548  1
  I  I92  1  0.50138631  0.16839606  0.67020316  1
  I  I93  1  0.50315709  0.49927801  -0.00155355  1
  I  I94  1  0.50387624  0.49237993  0.33004014  1
  I  I95  1  0.50242310  0.49997680  0.67036659  1
  I  I96  1  0.50387799  0.83259888  -0.00430213  1
  I  I97  1  0.50124907  0.83414365  0.33349642  1
  I  I98  1  0.49754610  0.83143566  0.67192810  1
  I  I99  1  0.83584249  0.16565241  -0.00009894  1
  I  I100  1  0.83098103  0.16698395  0.33317835  1
  I  I101  1  0.83118397  0.17157002  0.66698174  1
  I  I102  1  0.83280745  0.50321450  -0.00129786  1
  I  I103  1  0.83400877  0.50261062  0.33365584  1
  I  I104  1  0.83290946  0.50386213  0.66778219  1
  I  I105  1  0.83255316  0.82946452  -0.00399327  1
  I  I106  1  0.83357290  0.82892906  0.33618269  1
  I  I107  1  0.83153123  0.82385473  0.66833427  1
  I  I108  1  0.00214683  0.16854198  0.16638499  1
  I  I109  1  0.00016525  0.16577474  0.49838375  1
  I  I110  1  0.00018022  0.16672980  0.83545050  1
  I  I111  1  -0.00227121  0.49851966  0.16412227  1
  I  I112  1  -0.00111183  0.50331211  0.50254453  1
  I  I113  1  -0.00045238  0.50635187  0.83371320  1
  I  I114  1  -0.00011035  0.83384926  0.16349928  1
  I  I115  1  -0.00373995  0.83036998  0.50579737  1
  I  I116  1  -0.00060067  0.82456487  0.83027248  1
  I  I117  1  0.33492393  0.17575070  0.16038662  1
  I  I118  1  0.33318761  0.16876584  0.50312299  1
  I  I119  1  0.33694932  0.16774473  0.83635152  1
  I  I120  1  0.33618388  0.49629052  0.16187676  1
  I  I121  1  0.33062112  0.49803714  0.50454965  1
  I  I122  1  0.33373889  0.50267556  0.83383224  1
  I  I123  1  0.33332898  0.82723340  0.16509901  1
  I  I124  1  0.33297789  0.83264766  0.50023025  1
  I  I125  1  0.33358827  0.82896936  0.83628806  1
  I  I126  1  0.66313624  0.16863981  0.16175433  1
  I  I127  1  0.66671281  0.16950113  0.49868658  1
  I  I128  1  0.66255093  0.16725609  0.84058613  1
  I  I129  1  0.66629789  0.49474771  0.16290788  1
  I  I130  1  0.66987078  0.50322732  0.50265236  1
  I  I131  1  0.66674686  0.50194347  0.83390095  1
  I  I132  1  0.66671313  0.83833509  0.16503881  1
  I  I133  1  0.67073706  0.82531901  0.50521390  1
  I  I134  1  0.66688676  0.82981099  0.82992551  1
