# generated using pymatgen
data_Cs27Sn14Pb13I81
_symmetry_space_group_name_H-M   'P 1'
_cell_length_a   18.96239896
_cell_length_b   18.95764516
_cell_length_c   18.96269175
_cell_angle_alpha   89.99803644
_cell_angle_beta   89.99880012
_cell_angle_gamma   90.00086075
_symmetry_Int_Tables_number   1
_chemical_formula_structural   Cs27Sn14Pb13I81
_chemical_formula_sum   'Cs27 Sn14 Pb13 I81'
_cell_volume   6816.75451922
_cell_formula_units_Z   1
loop_
 _symmetry_equiv_pos_site_id
 _symmetry_equiv_pos_as_xyz
  1  'x, y, z'
loop_
 _atom_site_type_symbol
 _atom_site_label
 _atom_site_symmetry_multiplicity
 _atom_site_fract_x
 _atom_site_fract_y
 _atom_site_fract_z
 _atom_site_occupancy
  Cs  Cs0  1  -0.00756011  -0.00292161  0.00036594  1
  Cs  Cs1  1  -0.00080398  -0.00030198  0.33183429  1
  Cs  Cs2  1  -0.00133468  0.00011373  0.66727267  1
  Cs  Cs3  1  -0.00006563  0.33532518  0.00070136  1
  Cs  Cs4  1  -0.00101863  0.33213769  0.33499468  1
  Cs  Cs5  1  0.00219721  0.33583287  0.66417214  1
  Cs  Cs6  1  0.00128952  0.66770460  0.00135608  1
  Cs  Cs7  1  0.00816947  0.66846379  0.33326827  1
  Cs  Cs8  1  0.00018267  0.66288502  0.66637722  1
  Cs  Cs9  1  0.33503963  0.00019440  -0.00165694  1
  Cs  Cs10  1  0.33322110  0.00081057  0.33446715  1
  Cs  Cs11  1  0.33347908  0.00089334  0.66724680  1
  Cs  Cs12  1  0.33442607  0.33446742  0.00008543  1
  Cs  Cs13  1  0.33465365  0.33000515  0.33068107  1
  Cs  Cs14  1  0.33124643  0.33110808  0.66869805  1
  Cs  Cs15  1  0.33407108  0.66586237  -0.00005216  1
  Cs  Cs16  1  0.32969956  0.67120633  0.33789475  1
  Cs  Cs17  1  0.33308986  0.66893848  0.66396758  1
  Cs  Cs18  1  0.67098351  -0.00091255  -0.00229161  1
  Cs  Cs19  1  0.66713023  -0.00000612  0.33284652  1
  Cs  Cs20  1  0.66850612  -0.00003765  0.66915343  1
  Cs  Cs21  1  0.66582186  0.33397939  0.00034281  1
  Cs  Cs22  1  0.66660925  0.33495933  0.33233304  1
  Cs  Cs23  1  0.66683616  0.33448289  0.66762143  1
  Cs  Cs24  1  0.66625572  0.66635538  -0.00046967  1
  Cs  Cs25  1  0.66415282  0.66237129  0.33580306  1
  Cs  Cs26  1  0.66657291  0.66529094  0.66501280  1
  Sn  Sn27  1  0.50011342  0.83332813  0.16615184  1
  Sn  Sn28  1  0.16725349  0.83423358  0.83352663  1
  Sn  Sn29  1  0.83310484  0.83360629  0.49975118  1
  Sn  Sn30  1  0.83301510  0.16579311  0.50004563  1
  Sn  Sn31  1  0.16663353  0.16628555  0.49988685  1
  Sn  Sn32  1  0.50040113  0.16667686  0.49951459  1
  Sn  Sn33  1  0.50063118  0.50088977  0.83390782  1
  Sn  Sn34  1  0.83291918  0.50016074  0.16601856  1
  Sn  Sn35  1  0.49942581  0.83258136  0.83404670  1
  Sn  Sn36  1  0.16699918  0.16645346  0.16609568  1
  Sn  Sn37  1  0.83251370  0.50001424  0.83435672  1
  Sn  Sn38  1  0.16649676  0.16555107  0.83396946  1
  Sn  Sn39  1  0.50044908  0.50048949  0.16604499  1
  Sn  Sn40  1  0.49972750  0.16624596  0.16711194  1
  Pb  Pb41  1  0.83078297  0.83039230  0.16900435  1
  Pb  Pb42  1  0.49885864  0.16669580  0.83382603  1
  Pb  Pb43  1  0.16451508  0.83583968  0.50240580  1
  Pb  Pb44  1  0.83329888  0.50008075  0.49949636  1
  Pb  Pb45  1  0.83307010  0.83093622  0.83182749  1
  Pb  Pb46  1  0.50148185  0.83572526  0.50036379  1
  Pb  Pb47  1  0.83291000  0.16831782  0.16838166  1
  Pb  Pb48  1  0.16739342  0.50039201  0.83347812  1
  Pb  Pb49  1  0.16714973  0.49762002  0.49974584  1
  Pb  Pb50  1  0.83624180  0.16919555  0.83112962  1
  Pb  Pb51  1  0.16898749  0.83611956  0.16436023  1
  Pb  Pb52  1  0.16751115  0.49805564  0.16671506  1
  Pb  Pb53  1  0.49958467  0.49752138  0.50000682  1
  I  I54  1  0.17192117  0.00441657  0.17009339  1
  I  I55  1  0.16935922  0.00425966  0.49815463  1
  I  I56  1  0.17343804  0.00065813  0.83192448  1
  I  I57  1  0.17215345  0.32932351  0.16508461  1
  I  I58  1  0.16359422  0.32827264  0.50365010  1
  I  I59  1  0.16697457  0.33029615  0.83154606  1
  I  I60  1  0.16643856  0.66709221  0.16472867  1
  I  I61  1  0.16383704  0.66745177  0.50185115  1
  I  I62  1  0.16760840  0.66950632  0.83327575  1
  I  I63  1  0.49458252  0.00064725  0.16733364  1
  I  I64  1  0.49744825  0.00403403  0.49653588  1
  I  I65  1  0.49704242  -0.00238575  0.83525046  1
  I  I66  1  0.49965868  0.33311593  0.16696134  1
  I  I67  1  0.50184111  0.32896217  0.49671259  1
  I  I68  1  0.50200200  0.33568580  0.83546964  1
  I  I69  1  0.50587501  0.66620114  0.16095829  1
  I  I70  1  0.50333718  0.66696368  0.49803756  1
  I  I71  1  0.49830376  0.66675664  0.84034199  1
  I  I72  1  0.83268455  -0.00009925  0.16685637  1
  I  I73  1  0.83346407  0.00156780  0.50060219  1
  I  I74  1  0.83153311  0.00000948  0.83278195  1
  I  I75  1  0.82806730  0.33621325  0.16514626  1
  I  I76  1  0.83461483  0.33029786  0.50005212  1
  I  I77  1  0.82765802  0.33691690  0.83480445  1
  I  I78  1  0.82797736  0.66251661  0.16440485  1
  I  I79  1  0.83121613  0.66895227  0.50149810  1
  I  I80  1  0.83381222  0.66315075  0.83385472  1
  I  I81  1  0.17365689  0.16498838  0.00016841  1
  I  I82  1  0.16804883  0.16932607  0.33343143  1
  I  I83  1  0.16725617  0.16381095  0.66652086  1
  I  I84  1  0.16525517  0.49521219  -0.00007123  1
  I  I85  1  0.16518669  0.49859568  0.33294523  1
  I  I86  1  0.16532392  0.49657187  0.66708850  1
  I  I87  1  0.16732308  0.83903530  -0.00362121  1
  I  I88  1  0.16704937  0.83350940  0.33326986  1
  I  I89  1  0.17331279  0.83852892  0.67029556  1
  I  I90  1  0.49466339  0.16788526  0.00293558  1
  I  I91  1  0.49560511  0.16718948  0.33241350  1
  I  I92  1  0.49874072  0.16682013  0.66450716  1
  I  I93  1  0.50393718  0.49766814  0.00031709  1
  I  I94  1  0.50506414  0.50054916  0.32975478  1
  I  I95  1  0.50416924  0.50282729  0.67005449  1
  I  I96  1  0.49661774  0.83467290  -0.00020983  1
  I  I97  1  0.50269317  0.83140008  0.33060900  1
  I  I98  1  0.49757491  0.83028070  0.66974228  1
  I  I99  1  0.83373866  0.16660507  -0.00005911  1
  I  I100  1  0.83715718  0.16629158  0.33660815  1
  I  I101  1  0.83173549  0.16560731  0.66289855  1
  I  I102  1  0.82891114  0.49897463  -0.00006749  1
  I  I103  1  0.82730470  0.49809590  0.33047599  1
  I  I104  1  0.82957075  0.49940626  0.66919264  1
  I  I105  1  0.83492001  0.83399316  0.00005464  1
  I  I106  1  0.83174642  0.83744122  0.33657177  1
  I  I107  1  0.83158259  0.83649756  0.66408997  1
  I  I108  1  0.00246851  0.16948543  0.16781439  1
  I  I109  1  0.00035626  0.16390901  0.50066725  1
  I  I110  1  0.00443358  0.16236885  0.83400317  1
  I  I111  1  -0.00262817  0.49704708  0.16326014  1
  I  I112  1  -0.00028829  0.49746859  0.50122966  1
  I  I113  1  -0.00246629  0.49855250  0.83574959  1
  I  I114  1  -0.00002297  0.83321359  0.16639638  1
  I  I115  1  -0.00320577  0.83814673  0.50146006  1
  I  I116  1  0.00228545  0.83685928  0.83028104  1
  I  I117  1  0.33440925  0.16890804  0.17129271  1
  I  I118  1  0.33324426  0.16848474  0.49907640  1
  I  I119  1  0.33070002  0.16785986  0.82885075  1
  I  I120  1  0.33730500  0.49934749  0.16120198  1
  I  I121  1  0.33377498  0.49912813  0.50112063  1
  I  I122  1  0.33667956  0.49962867  0.83831535  1
  I  I123  1  0.33745394  0.82862180  0.16647903  1
  I  I124  1  0.33335630  0.83416137  0.49897413  1
  I  I125  1  0.33447882  0.83198801  0.83608802  1
  I  I126  1  0.66334338  0.16644420  0.17155501  1
  I  I127  1  0.66627451  0.16388271  0.49503332  1
  I  I128  1  0.66680581  0.16493192  0.83209593  1
  I  I129  1  0.66513434  0.49679193  0.16291829  1
  I  I130  1  0.66656276  0.49595237  0.50073666  1
  I  I131  1  0.66546059  0.50424717  0.83647389  1
  I  I132  1  0.66246816  0.83966608  0.16030970  1
  I  I133  1  0.66912470  0.84030544  0.50209142  1
  I  I134  1  0.66358213  0.83162101  0.83550139  1
