# generated using pymatgen
data_Cs27Sn14Pb13I81
_symmetry_space_group_name_H-M   'P 1'
_cell_length_a   18.97817085
_cell_length_b   18.96807334
_cell_length_c   18.98173624
_cell_angle_alpha   90.00132144
_cell_angle_beta   90.00039153
_cell_angle_gamma   89.99805630
_symmetry_Int_Tables_number   1
_chemical_formula_structural   Cs27Sn14Pb13I81
_chemical_formula_sum   'Cs27 Sn14 Pb13 I81'
_cell_volume   6833.03281287
_cell_formula_units_Z   1
loop_
 _symmetry_equiv_pos_site_id
 _symmetry_equiv_pos_as_xyz
  1  'x, y, z'
loop_
 _atom_site_type_symbol
 _atom_site_label
 _atom_site_symmetry_multiplicity
 _atom_site_fract_x
 _atom_site_fract_y
 _atom_site_fract_z
 _atom_site_occupancy
  Cs  Cs0  1  -0.00076294  -0.00115255  -0.00340318  1
  Cs  Cs1  1  -0.00353533  0.00144953  0.33449566  1
  Cs  Cs2  1  0.00185984  0.00017402  0.66859070  1
  Cs  Cs3  1  -0.00329848  0.33358353  -0.00019838  1
  Cs  Cs4  1  -0.00028424  0.33406487  0.33338786  1
  Cs  Cs5  1  0.00167047  0.33344811  0.66867993  1
  Cs  Cs6  1  0.00595567  0.66897846  0.00537409  1
  Cs  Cs7  1  -0.00084927  0.66330954  0.33451971  1
  Cs  Cs8  1  0.00169426  0.66692800  0.66407314  1
  Cs  Cs9  1  0.33117753  -0.00217091  -0.00104008  1
  Cs  Cs10  1  0.33680364  0.00137990  0.33395233  1
  Cs  Cs11  1  0.33207930  0.00015451  0.66695843  1
  Cs  Cs12  1  0.33803707  0.33696554  0.00257007  1
  Cs  Cs13  1  0.33136970  0.33057791  0.33596578  1
  Cs  Cs14  1  0.33205804  0.33462500  0.66452382  1
  Cs  Cs15  1  0.33043432  0.66467853  0.00723790  1
  Cs  Cs16  1  0.33424690  0.66916989  0.32943874  1
  Cs  Cs17  1  0.33205883  0.66461075  0.66579896  1
  Cs  Cs18  1  0.66893339  0.00192353  -0.00070335  1
  Cs  Cs19  1  0.66657172  -0.00002403  0.33365943  1
  Cs  Cs20  1  0.66636509  -0.00163101  0.66674788  1
  Cs  Cs21  1  0.66504983  0.33749634  -0.00437781  1
  Cs  Cs22  1  0.66832950  0.33040742  0.33439436  1
  Cs  Cs23  1  0.66659974  0.33607710  0.66877555  1
  Cs  Cs24  1  0.66403087  0.65931245  -0.00262670  1
  Cs  Cs25  1  0.66715717  0.66871830  0.33345353  1
  Cs  Cs26  1  0.66681578  0.66699246  0.66666063  1
  Sn  Sn27  1  0.83260192  0.16589112  0.50002401  1
  Sn  Sn28  1  0.16759889  0.50086168  0.50063807  1
  Sn  Sn29  1  0.49940889  0.49947600  0.49979409  1
  Sn  Sn30  1  0.16619006  0.83294696  0.49985531  1
  Sn  Sn31  1  0.16629295  0.16629991  0.16644995  1
  Sn  Sn32  1  0.49990918  0.16579746  0.83303184  1
  Sn  Sn33  1  0.50029430  0.16633539  0.16652748  1
  Sn  Sn34  1  0.83415199  0.83426612  0.49999818  1
  Sn  Sn35  1  0.83264309  0.83321460  0.83336847  1
  Sn  Sn36  1  0.50035391  0.83370557  0.83337880  1
  Sn  Sn37  1  0.50093846  0.16735977  0.50046555  1
  Sn  Sn38  1  0.16663331  0.49997437  0.83290437  1
  Sn  Sn39  1  0.83331272  0.16588991  0.16712046  1
  Sn  Sn40  1  0.83287998  0.83391557  0.16674488  1
  Pb  Pb41  1  0.16663661  0.49762893  0.16763860  1
  Pb  Pb42  1  0.16630714  0.16667471  0.49885520  1
  Pb  Pb43  1  0.50023995  0.83360936  0.50140928  1
  Pb  Pb44  1  0.16945233  0.16879036  0.83602540  1
  Pb  Pb45  1  0.83614700  0.50352783  0.83324205  1
  Pb  Pb46  1  0.83311983  0.49963064  0.16668666  1
  Pb  Pb47  1  0.83154821  0.16516166  0.83302855  1
  Pb  Pb48  1  0.16438811  0.83589724  0.16967409  1
  Pb  Pb49  1  0.49820166  0.50034218  0.83123623  1
  Pb  Pb50  1  0.50023866  0.49748539  0.17011283  1
  Pb  Pb51  1  0.83338910  0.49965779  0.50009976  1
  Pb  Pb52  1  0.16693667  0.83171084  0.83155282  1
  Pb  Pb53  1  0.50253953  0.83554774  0.16379447  1
  I  I54  1  0.16975626  0.00373308  0.16814982  1
  I  I55  1  0.16524132  -0.00218789  0.49838326  1
  I  I56  1  0.16589823  -0.00003936  0.83258504  1
  I  I57  1  0.16460293  0.32956666  0.16953442  1
  I  I58  1  0.16819442  0.33557580  0.50171627  1
  I  I59  1  0.16811634  0.33632707  0.82474190  1
  I  I60  1  0.16479948  0.66694246  0.16500205  1
  I  I61  1  0.16614000  0.66649507  0.50412627  1
  I  I62  1  0.16784805  0.66391009  0.83043276  1
  I  I63  1  0.49818174  0.00408379  0.17367536  1
  I  I64  1  0.50063638  0.00314444  0.49783902  1
  I  I65  1  0.50337469  0.00079424  0.83065376  1
  I  I66  1  0.50306156  0.32859202  0.16054689  1
  I  I67  1  0.49925492  0.33162289  0.50125630  1
  I  I68  1  0.49845235  0.33043195  0.83576051  1
  I  I69  1  0.50106193  0.66694316  0.16597798  1
  I  I70  1  0.49917934  0.66474226  0.50415709  1
  I  I71  1  0.50448426  0.66936940  0.82949396  1
  I  I72  1  0.83300813  0.00100253  0.16858401  1
  I  I73  1  0.83314433  -0.00013155  0.49864437  1
  I  I74  1  0.83281543  -0.00311970  0.83263328  1
  I  I75  1  0.83381370  0.32900720  0.17306367  1
  I  I76  1  0.83248680  0.32991169  0.49386149  1
  I  I77  1  0.83241991  0.33331713  0.83359203  1
  I  I78  1  0.83456513  0.67031458  0.16833913  1
  I  I79  1  0.83400368  0.66996441  0.49940940  1
  I  I80  1  0.82493854  0.67181046  0.83159552  1
  I  I81  1  0.16431178  0.16771213  0.00380849  1
  I  I82  1  0.17051413  0.16792395  0.33097796  1
  I  I83  1  0.16671483  0.16544489  0.66668847  1
  I  I84  1  0.16656911  0.49896580  -0.00211680  1
  I  I85  1  0.17002590  0.50274351  0.33689240  1
  I  I86  1  0.17065207  0.50304776  0.66490828  1
  I  I87  1  0.16591253  0.83153046  0.00019171  1
  I  I88  1  0.16279271  0.82671331  0.33755679  1
  I  I89  1  0.16094360  0.83312202  0.66354636  1
  I  I90  1  0.49962716  0.16113494  0.00015566  1
  I  I91  1  0.50056547  0.17188679  0.33375756  1
  I  I92  1  0.50461519  0.16685830  0.66569795  1
  I  I93  1  0.49817928  0.49932996  -0.00010718  1
  I  I94  1  0.49338165  0.49604797  0.33808709  1
  I  I95  1  0.49787363  0.49342432  0.66347249  1
  I  I96  1  0.50414427  0.83865508  -0.00410902  1
  I  I97  1  0.49980949  0.83301331  0.33332656  1
  I  I98  1  0.50549492  0.83921411  0.66907891  1
  I  I99  1  0.83343700  0.16246812  0.00284820  1
  I  I100  1  0.82884519  0.15940054  0.33365120  1
  I  I101  1  0.82907205  0.16265225  0.66362148  1
  I  I102  1  0.83491270  0.49825242  -0.00020577  1
  I  I103  1  0.83561479  0.50398190  0.33368222  1
  I  I104  1  0.83156544  0.49900512  0.66650440  1
  I  I105  1  0.82897775  0.83887025  0.00018874  1
  I  I106  1  0.83829819  0.83798099  0.33408921  1
  I  I107  1  0.83328252  0.83721179  0.66574378  1
  I  I108  1  -0.00148809  0.16385053  0.17302729  1
  I  I109  1  -0.00277135  0.16563964  0.49448585  1
  I  I110  1  0.00006074  0.16633145  0.83340208  1
  I  I111  1  0.00011273  0.49663390  0.16824768  1
  I  I112  1  0.00285091  0.50121973  0.50318688  1
  I  I113  1  0.00371629  0.49951908  0.82514737  1
  I  I114  1  -0.00367931  0.83966873  0.16112038  1
  I  I115  1  -0.00135752  0.83357353  0.50209210  1
  I  I116  1  -0.00285186  0.83184561  0.83452830  1
  I  I117  1  0.33445035  0.16907558  0.16789504  1
  I  I118  1  0.33597492  0.16725199  0.49848826  1
  I  I119  1  0.33766495  0.16008885  0.83104151  1
  I  I120  1  0.33341224  0.49817990  0.16452396  1
  I  I121  1  0.33303908  0.49858455  0.50440461  1
  I  I122  1  0.33066647  0.50079329  0.82959549  1
  I  I123  1  0.33339927  0.83502307  0.16621339  1
  I  I124  1  0.33140495  0.83297037  0.50338977  1
  I  I125  1  0.33594355  0.83739840  0.82963057  1
  I  I126  1  0.66695276  0.16207022  0.16926368  1
  I  I127  1  0.66633806  0.16634059  0.49511259  1
  I  I128  1  0.66328990  0.16589797  0.83652322  1
  I  I129  1  0.66650248  0.49858822  0.16735811  1
  I  I130  1  0.66403731  0.49800203  0.49979139  1
  I  I131  1  0.66642594  0.49865897  0.83263671  1
  I  I132  1  0.67061060  0.83976957  0.17409167  1
  I  I133  1  0.66961916  0.83446266  0.49831792  1
  I  I134  1  0.66713940  0.83819938  0.83022505  1
