# generated using pymatgen
data_Cs27Sn14Pb13I81
_symmetry_space_group_name_H-M   'P 1'
_cell_length_a   18.97526264
_cell_length_b   18.97867527
_cell_length_c   18.97602190
_cell_angle_alpha   89.99868765
_cell_angle_beta   89.99692576
_cell_angle_gamma   90.00027346
_symmetry_Int_Tables_number   1
_chemical_formula_structural   Cs27Sn14Pb13I81
_chemical_formula_sum   'Cs27 Sn14 Pb13 I81'
_cell_volume   6833.74647665
_cell_formula_units_Z   1
loop_
 _symmetry_equiv_pos_site_id
 _symmetry_equiv_pos_as_xyz
  1  'x, y, z'
loop_
 _atom_site_type_symbol
 _atom_site_label
 _atom_site_symmetry_multiplicity
 _atom_site_fract_x
 _atom_site_fract_y
 _atom_site_fract_z
 _atom_site_occupancy
  Cs  Cs0  1  0.00136739  0.00424051  0.00127345  1
  Cs  Cs1  1  -0.00288992  0.00122806  0.33277542  1
  Cs  Cs2  1  -0.00026501  0.00099939  0.66604766  1
  Cs  Cs3  1  -0.00422397  0.32842937  -0.00194004  1
  Cs  Cs4  1  0.00087806  0.33350747  0.33537077  1
  Cs  Cs5  1  -0.00110116  0.33156944  0.66657182  1
  Cs  Cs6  1  -0.00085070  0.66606348  0.00158879  1
  Cs  Cs7  1  0.00095373  0.66678490  0.33259346  1
  Cs  Cs8  1  0.00108868  0.66687813  0.66581012  1
  Cs  Cs9  1  0.33386655  0.00087644  -0.00099174  1
  Cs  Cs10  1  0.33487441  -0.00009915  0.33334153  1
  Cs  Cs11  1  0.33258101  -0.00598886  0.66869838  1
  Cs  Cs12  1  0.33225987  0.33375770  0.00071388  1
  Cs  Cs13  1  0.33411911  0.33420241  0.33101290  1
  Cs  Cs14  1  0.33211594  0.33703306  0.66781868  1
  Cs  Cs15  1  0.33343908  0.66633192  -0.00073457  1
  Cs  Cs16  1  0.33159328  0.66570669  0.33350480  1
  Cs  Cs17  1  0.33328899  0.66703978  0.66664479  1
  Cs  Cs18  1  0.66284751  -0.00471379  0.00287104  1
  Cs  Cs19  1  0.66849975  0.01138183  0.33309125  1
  Cs  Cs20  1  0.66759943  0.00056404  0.66540925  1
  Cs  Cs21  1  0.67143545  0.33555694  -0.00068943  1
  Cs  Cs22  1  0.66568252  0.32183319  0.33705454  1
  Cs  Cs23  1  0.66975224  0.33062197  0.66429868  1
  Cs  Cs24  1  0.66676178  0.66757456  -0.00014050  1
  Cs  Cs25  1  0.66776734  0.66607406  0.33132928  1
  Cs  Cs26  1  0.66542477  0.66646324  0.66766847  1
  Sn  Sn27  1  0.16757216  0.83249196  0.16571455  1
  Sn  Sn28  1  0.16700477  0.50070601  0.16593518  1
  Sn  Sn29  1  0.49996705  0.83299097  0.83379808  1
  Sn  Sn30  1  0.83306797  0.83204644  0.50045661  1
  Sn  Sn31  1  0.49959290  0.50090886  0.16592553  1
  Sn  Sn32  1  0.16752321  0.16746494  0.50028419  1
  Sn  Sn33  1  0.83369566  0.83283662  0.83258667  1
  Sn  Sn34  1  0.83378135  0.50134178  0.49985262  1
  Sn  Sn35  1  0.16598591  0.49927630  0.50017150  1
  Sn  Sn36  1  0.49982006  0.16709397  0.83326014  1
  Sn  Sn37  1  0.16622670  0.83239514  0.83431156  1
  Sn  Sn38  1  0.16679208  0.50060776  0.83388594  1
  Sn  Sn39  1  0.49894087  0.83214948  0.16639017  1
  Sn  Sn40  1  0.49948099  0.49988823  0.83411521  1
  Pb  Pb41  1  0.49990247  0.50021132  0.49963969  1
  Pb  Pb42  1  0.16689379  0.16672434  0.16863460  1
  Pb  Pb43  1  0.83328501  0.83322412  0.16654797  1
  Pb  Pb44  1  0.83296348  0.49990566  0.16936981  1
  Pb  Pb45  1  0.83044875  0.16332585  0.83334088  1
  Pb  Pb46  1  0.83337198  0.50189313  0.83157528  1
  Pb  Pb47  1  0.83345793  0.16691852  0.16621214  1
  Pb  Pb48  1  0.50279576  0.83324476  0.49907369  1
  Pb  Pb49  1  0.83574771  0.16667900  0.50037164  1
  Pb  Pb50  1  0.49959214  0.16710877  0.16408758  1
  Pb  Pb51  1  0.49675579  0.16664702  0.50286389  1
  Pb  Pb52  1  0.16522411  0.83272795  0.49962106  1
  Pb  Pb53  1  0.16838902  0.16672389  0.83174497  1
  I  I54  1  0.17013426  -0.00367186  0.16321818  1
  I  I55  1  0.16516235  0.00130262  0.50113561  1
  I  I56  1  0.16759482  -0.00352804  0.83516930  1
  I  I57  1  0.17123920  0.33727522  0.16510261  1
  I  I58  1  0.16090122  0.33595953  0.50064080  1
  I  I59  1  0.17174141  0.33686172  0.83480241  1
  I  I60  1  0.17062886  0.66627907  0.16848633  1
  I  I61  1  0.16422456  0.66366771  0.50028590  1
  I  I62  1  0.17112342  0.66665000  0.83068273  1
  I  I63  1  0.49653209  -0.00336328  0.16238439  1
  I  I64  1  0.49973156  -0.00016879  0.50015995  1
  I  I65  1  0.50013616  -0.00204774  0.83611749  1
  I  I66  1  0.49503078  0.33701465  0.16352911  1
  I  I67  1  0.50539722  0.33362423  0.50002591  1
  I  I68  1  0.49334769  0.33514533  0.83624564  1
  I  I69  1  0.49593672  0.66681206  0.15836664  1
  I  I70  1  0.49618583  0.66667063  0.50524327  1
  I  I71  1  0.49942129  0.66694163  0.83671981  1
  I  I72  1  0.83331007  -0.00077870  0.17015880  1
  I  I73  1  0.83436061  -0.00291007  0.50385628  1
  I  I74  1  0.83532305  -0.00521385  0.82627867  1
  I  I75  1  0.83292850  0.33402095  0.16891289  1
  I  I76  1  0.83528062  0.33632677  0.49933532  1
  I  I77  1  0.83304270  0.33352237  0.83136996  1
  I  I78  1  0.83314652  0.66669857  0.16667221  1
  I  I79  1  0.83997391  0.66653156  0.50390532  1
  I  I80  1  0.82914159  0.67001283  0.83087307  1
  I  I81  1  0.16740352  0.16822769  -0.00020122  1
  I  I82  1  0.16524431  0.17032199  0.33665291  1
  I  I83  1  0.16757190  0.17109088  0.66392635  1
  I  I84  1  0.17253774  0.50574290  -0.00041682  1
  I  I85  1  0.16689394  0.50065124  0.33291565  1
  I  I86  1  0.16760877  0.50049616  0.66741491  1
  I  I87  1  0.16552607  0.82643703  -0.00103623  1
  I  I88  1  0.16992144  0.83053398  0.33048949  1
  I  I89  1  0.16967161  0.83095012  0.66967459  1
  I  I90  1  0.49730064  0.16466292  -0.00361097  1
  I  I91  1  0.50159487  0.16610154  0.33320785  1
  I  I92  1  0.50033650  0.16601731  0.67076553  1
  I  I93  1  0.49222050  0.50092903  -0.00102354  1
  I  I94  1  0.49636584  0.50641632  0.32998883  1
  I  I95  1  0.49646902  0.50188701  0.67005954  1
  I  I96  1  0.50194521  0.83342773  -0.00142304  1
  I  I97  1  0.49481398  0.82721754  0.32952343  1
  I  I98  1  0.49679359  0.83231886  0.67019090  1
  I  I99  1  0.83577314  0.16616945  -0.00073678  1
  I  I100  1  0.83200822  0.16349420  0.33399979  1
  I  I101  1  0.83214208  0.16766104  0.66676872  1
  I  I102  1  0.83547681  0.50104547  -0.00009906  1
  I  I103  1  0.83850747  0.50748725  0.33734594  1
  I  I104  1  0.83767514  0.50246571  0.66366782  1
  I  I105  1  0.83213596  0.83357556  -0.00310723  1
  I  I106  1  0.83535002  0.82942865  0.33599875  1
  I  I107  1  0.83361151  0.82961007  0.66755917  1
  I  I108  1  0.00069182  0.16505639  0.16659297  1
  I  I109  1  0.00329262  0.16849087  0.50172585  1
  I  I110  1  0.00016313  0.16649949  0.83176579  1
  I  I111  1  0.00366553  0.50529290  0.16506975  1
  I  I112  1  0.00166540  0.50019741  0.50031990  1
  I  I113  1  0.00340131  0.50496940  0.83499372  1
  I  I114  1  0.00328263  0.82872666  0.16425330  1
  I  I115  1  -0.00255796  0.83224191  0.50460120  1
  I  I116  1  0.00133255  0.82775171  0.83266336  1
  I  I117  1  0.33328076  0.16573604  0.16912055  1
  I  I118  1  0.32930792  0.17373265  0.49902252  1
  I  I119  1  0.33619685  0.16158678  0.83169162  1
  I  I120  1  0.33257772  0.50392101  0.16839426  1
  I  I121  1  0.32999850  0.49622289  0.50056245  1
  I  I122  1  0.33292624  0.50426011  0.83073124  1
  I  I123  1  0.33314138  0.82986278  0.15917025  1
  I  I124  1  0.33320428  0.83355396  0.50300621  1
  I  I125  1  0.33336496  0.83356833  0.83672454  1
  I  I126  1  0.66599533  0.16555484  0.16848540  1
  I  I127  1  0.66670220  0.16705721  0.49951065  1
  I  I128  1  0.66235226  0.16911214  0.83290586  1
  I  I129  1  0.66297090  0.50567155  0.16132550  1
  I  I130  1  0.66926674  0.50528982  0.50140662  1
  I  I131  1  0.66340972  0.50120521  0.83643677  1
  I  I132  1  0.66331190  0.82871506  0.16223261  1
  I  I133  1  0.67067232  0.82677352  0.50531871  1
  I  I134  1  0.66536041  0.83349707  0.83303066  1
