# generated using pymatgen
data_Cs27Sn13Pb14I81
_symmetry_space_group_name_H-M   'P 1'
_cell_length_a   18.99987947
_cell_length_b   18.99412241
_cell_length_c   18.98033732
_cell_angle_alpha   90.00027226
_cell_angle_beta   89.99953974
_cell_angle_gamma   89.99945655
_symmetry_Int_Tables_number   1
_chemical_formula_structural   Cs27Sn13Pb14I81
_chemical_formula_sum   'Cs27 Sn13 Pb14 I81'
_cell_volume   6849.73870618
_cell_formula_units_Z   1
loop_
 _symmetry_equiv_pos_site_id
 _symmetry_equiv_pos_as_xyz
  1  'x, y, z'
loop_
 _atom_site_type_symbol
 _atom_site_label
 _atom_site_symmetry_multiplicity
 _atom_site_fract_x
 _atom_site_fract_y
 _atom_site_fract_z
 _atom_site_occupancy
  Cs  Cs0  1  -0.00270736  0.00045673  0.00049872  1
  Cs  Cs1  1  0.00242094  -0.00265373  0.33412914  1
  Cs  Cs2  1  0.00099798  0.00222066  0.66586296  1
  Cs  Cs3  1  -0.00090084  0.33296922  0.00964684  1
  Cs  Cs4  1  -0.00018305  0.33558262  0.32710846  1
  Cs  Cs5  1  0.00079290  0.32988737  0.66580157  1
  Cs  Cs6  1  0.00132583  0.66588332  -0.00371576  1
  Cs  Cs7  1  -0.00433949  0.66855981  0.33373007  1
  Cs  Cs8  1  -0.00281678  0.66557597  0.66833660  1
  Cs  Cs9  1  0.33634598  -0.00171850  -0.00072912  1
  Cs  Cs10  1  0.33251459  -0.00063167  0.33447605  1
  Cs  Cs11  1  0.33147721  -0.00041693  0.66559438  1
  Cs  Cs12  1  0.33920121  0.34247017  0.00894858  1
  Cs  Cs13  1  0.33272202  0.33299175  0.33324406  1
  Cs  Cs14  1  0.33185035  0.33463116  0.66437678  1
  Cs  Cs15  1  0.33293762  0.66146854  -0.01018334  1
  Cs  Cs16  1  0.33451478  0.66956620  0.33433498  1
  Cs  Cs17  1  0.33245696  0.66541294  0.67110140  1
  Cs  Cs18  1  0.66792466  0.00556054  -0.00369140  1
  Cs  Cs19  1  0.66415160  -0.00471491  0.33487706  1
  Cs  Cs20  1  0.66717940  0.00267287  0.66792225  1
  Cs  Cs21  1  0.66144162  0.32653128  0.00502809  1
  Cs  Cs22  1  0.66704488  0.33775397  0.32827636  1
  Cs  Cs23  1  0.66738129  0.32985856  0.66814572  1
  Cs  Cs24  1  0.66580160  0.66613614  -0.00130071  1
  Cs  Cs25  1  0.66957710  0.66842957  0.33363523  1
  Cs  Cs26  1  0.67063499  0.66582500  0.66659053  1
  Sn  Sn27  1  0.16720189  0.16722990  0.83375428  1
  Sn  Sn28  1  0.83319358  0.83350146  0.16526576  1
  Sn  Sn29  1  0.16653139  0.16688917  0.50058002  1
  Sn  Sn30  1  0.50001406  0.16670969  0.49999364  1
  Sn  Sn31  1  0.83329207  0.49922718  0.83353460  1
  Sn  Sn32  1  0.16723263  0.83321350  0.16680540  1
  Sn  Sn33  1  0.49908308  0.83294743  0.49991971  1
  Sn  Sn34  1  0.83347300  0.83299170  0.83401112  1
  Sn  Sn35  1  0.49948265  0.50048241  0.50025478  1
  Sn  Sn36  1  0.16732493  0.83267753  0.49975775  1
  Sn  Sn37  1  0.16688277  0.50045060  0.50007445  1
  Sn  Sn38  1  0.49954200  0.83314293  0.16694493  1
  Sn  Sn39  1  0.83351428  0.16671889  0.49939291  1
  Pb  Pb40  1  0.16469603  0.49682449  0.83126247  1
  Pb  Pb41  1  0.83337564  0.49732529  0.50130241  1
  Pb  Pb42  1  0.49974800  0.16401348  0.16939480  1
  Pb  Pb43  1  0.83317378  0.50251858  0.16365572  1
  Pb  Pb44  1  0.50240300  0.83342521  0.83274548  1
  Pb  Pb45  1  0.16696959  0.16445419  0.16688204  1
  Pb  Pb46  1  0.16476340  0.83495502  0.83300232  1
  Pb  Pb47  1  0.16669996  0.50343132  0.16944515  1
  Pb  Pb48  1  0.50243424  0.49974938  0.83075609  1
  Pb  Pb49  1  0.49658530  0.16682927  0.83138454  1
  Pb  Pb50  1  0.83338350  0.83479363  0.50022851  1
  Pb  Pb51  1  0.49998351  0.50327542  0.16938784  1
  Pb  Pb52  1  0.83522001  0.16708003  0.83199078  1
  Pb  Pb53  1  0.83327730  0.16399247  0.16963664  1
  I  I54  1  0.16610654  -0.00391615  0.17451940  1
  I  I55  1  0.16843875  -0.00021967  0.49972899  1
  I  I56  1  0.16326715  0.00233945  0.82435848  1
  I  I57  1  0.16480957  0.33350893  0.16730892  1
  I  I58  1  0.16920280  0.33270435  0.50633404  1
  I  I59  1  0.16314439  0.32951466  0.82241175  1
  I  I60  1  0.16563956  0.67167974  0.17270129  1
  I  I61  1  0.17302161  0.66759692  0.49519075  1
  I  I62  1  0.16634955  0.66653841  0.83239999  1
  I  I63  1  0.49977238  -0.00428981  0.17398339  1
  I  I64  1  0.49763871  -0.00048120  0.49586383  1
  I  I65  1  0.50339887  -0.00005681  0.83045811  1
  I  I66  1  0.50127252  0.33355265  0.16714682  1
  I  I67  1  0.49678624  0.33299987  0.50337515  1
  I  I68  1  0.50432511  0.33322720  0.83027760  1
  I  I69  1  0.50111210  0.67136317  0.17488977  1
  I  I70  1  0.49355354  0.66760207  0.49575686  1
  I  I71  1  0.49781976  0.66683032  0.83012733  1
  I  I72  1  0.83365580  -0.00442028  0.16032966  1
  I  I73  1  0.83414186  0.00254611  0.50166793  1
  I  I74  1  0.83435033  -0.00244948  0.83626659  1
  I  I75  1  0.83390242  0.33328383  0.16615651  1
  I  I76  1  0.83389618  0.32963299  0.50483536  1
  I  I77  1  0.83517022  0.33548866  0.82565309  1
  I  I78  1  0.83349358  0.67113236  0.16950550  1
  I  I79  1  0.83345007  0.66673871  0.49879492  1
  I  I80  1  0.83465718  0.66790435  0.83476319  1
  I  I81  1  0.16192535  0.16205912  -0.00260715  1
  I  I82  1  0.16728418  0.16748842  0.33750133  1
  I  I83  1  0.16605054  0.16326160  0.66332920  1
  I  I84  1  0.16495132  0.49962015  -0.00005524  1
  I  I85  1  0.16919979  0.49338135  0.33815023  1
  I  I86  1  0.17029167  0.50552056  0.66252332  1
  I  I87  1  0.16817828  0.83708678  0.00273273  1
  I  I88  1  0.16455027  0.83566674  0.33506184  1
  I  I89  1  0.16990389  0.83289482  0.66295193  1
  I  I90  1  0.50012632  0.16434997  0.00022204  1
  I  I91  1  0.49626111  0.16811997  0.33837914  1
  I  I92  1  0.50277361  0.16212234  0.66193482  1
  I  I93  1  0.50053294  0.50185598  0.00017034  1
  I  I94  1  0.49718765  0.49654432  0.33799125  1
  I  I95  1  0.49564596  0.50367677  0.66200406  1
  I  I96  1  0.49704139  0.83351697  0.00308518  1
  I  I97  1  0.50208859  0.83418578  0.33495508  1
  I  I98  1  0.49610735  0.83416683  0.66264295  1
  I  I99  1  0.83638670  0.16744831  0.00009779  1
  I  I100  1  0.83684989  0.16548447  0.33792406  1
  I  I101  1  0.83180279  0.16260766  0.66355510  1
  I  I102  1  0.83577280  0.50195264  -0.00410578  1
  I  I103  1  0.83330907  0.50009401  0.33343474  1
  I  I104  1  0.83329807  0.50907041  0.66869683  1
  I  I105  1  0.83446748  0.82954471  0.00058559  1
  I  I106  1  0.83354166  0.83659142  0.33138992  1
  I  I107  1  0.83378794  0.83155565  0.66863353  1
  I  I108  1  0.00011382  0.16301438  0.17037854  1
  I  I109  1  0.00132786  0.16459027  0.50476786  1
  I  I110  1  0.00263689  0.16436611  0.82273362  1
  I  I111  1  -0.00003026  0.50246324  0.17047235  1
  I  I112  1  0.00287244  0.50114649  0.50191231  1
  I  I113  1  -0.00274553  0.50603036  0.82868828  1
  I  I114  1  0.00031623  0.83423517  0.16898343  1
  I  I115  1  0.00275784  0.83420565  0.49729768  1
  I  I116  1  -0.00301143  0.83101409  0.83561400  1
  I  I117  1  0.33329425  0.16332586  0.16808053  1
  I  I118  1  0.33287412  0.16540089  0.50380647  1
  I  I119  1  0.32905693  0.16315368  0.82446844  1
  I  I120  1  0.33329312  0.50114503  0.16359234  1
  I  I121  1  0.33302721  0.49640508  0.50019380  1
  I  I122  1  0.33312299  0.49985756  0.83380505  1
  I  I123  1  0.33327868  0.83539178  0.17585522  1
  I  I124  1  0.33298709  0.83785544  0.49247055  1
  I  I125  1  0.33322996  0.83487279  0.83540704  1
  I  I126  1  0.66660870  0.16354262  0.16809745  1
  I  I127  1  0.66601027  0.16425122  0.49998662  1
  I  I128  1  0.66669900  0.16548234  0.83006337  1
  I  I129  1  0.66663270  0.50345750  0.17096371  1
  I  I130  1  0.66383338  0.50141687  0.50154387  1
  I  I131  1  0.67013323  0.50619442  0.82911496  1
  I  I132  1  0.66635504  0.83309815  0.16989423  1
  I  I133  1  0.66403287  0.83374667  0.49722476  1
  I  I134  1  0.67036959  0.83095847  0.83518383  1
