# generated using pymatgen
data_Cs27Sn13Pb14I81
_symmetry_space_group_name_H-M   'P 1'
_cell_length_a   18.97542116
_cell_length_b   18.97936905
_cell_length_c   18.97673967
_cell_angle_alpha   89.99978333
_cell_angle_beta   89.99966957
_cell_angle_gamma   89.99982668
_symmetry_Int_Tables_number   1
_chemical_formula_structural   Cs27Sn13Pb14I81
_chemical_formula_sum   'Cs27 Sn13 Pb14 I81'
_cell_volume   6834.31188951
_cell_formula_units_Z   1
loop_
 _symmetry_equiv_pos_site_id
 _symmetry_equiv_pos_as_xyz
  1  'x, y, z'
loop_
 _atom_site_type_symbol
 _atom_site_label
 _atom_site_symmetry_multiplicity
 _atom_site_fract_x
 _atom_site_fract_y
 _atom_site_fract_z
 _atom_site_occupancy
  Cs  Cs0  1  0.00175486  -0.00381028  -0.00096141  1
  Cs  Cs1  1  0.00318264  0.00214481  0.33595759  1
  Cs  Cs2  1  -0.00110167  -0.00012607  0.66590385  1
  Cs  Cs3  1  -0.00050141  0.33354211  -0.00135598  1
  Cs  Cs4  1  0.00021975  0.33392896  0.33371052  1
  Cs  Cs5  1  -0.00012889  0.33362008  0.66721655  1
  Cs  Cs6  1  -0.00431366  0.67041476  -0.00169610  1
  Cs  Cs7  1  -0.00218423  0.66366839  0.33626254  1
  Cs  Cs8  1  0.00089901  0.66590141  0.66560106  1
  Cs  Cs9  1  0.33175240  -0.00676206  0.00244064  1
  Cs  Cs10  1  0.33203685  -0.00372846  0.32916532  1
  Cs  Cs11  1  0.33847364  0.00008737  0.66870422  1
  Cs  Cs12  1  0.33355030  0.33254017  0.00078549  1
  Cs  Cs13  1  0.33148933  0.33449118  0.33060542  1
  Cs  Cs14  1  0.33517140  0.33501507  0.66905490  1
  Cs  Cs15  1  0.33427398  0.67161612  -0.00152016  1
  Cs  Cs16  1  0.33567779  0.66616209  0.33495990  1
  Cs  Cs17  1  0.33707077  0.66465965  0.66634975  1
  Cs  Cs18  1  0.66681979  -0.00471502  -0.00171007  1
  Cs  Cs19  1  0.66305152  0.00226512  0.33611058  1
  Cs  Cs20  1  0.66040587  0.00386600  0.66613248  1
  Cs  Cs21  1  0.66709291  0.33343027  0.00058292  1
  Cs  Cs22  1  0.66783201  0.33129784  0.33182317  1
  Cs  Cs23  1  0.66229251  0.33055890  0.66756686  1
  Cs  Cs24  1  0.67084824  0.67477099  0.00199598  1
  Cs  Cs25  1  0.66687169  0.66860806  0.33093232  1
  Cs  Cs26  1  0.66095667  0.66626297  0.66746809  1
  Sn  Sn27  1  0.83393960  0.49911493  0.83230738  1
  Sn  Sn28  1  0.83383519  0.83251512  0.50036816  1
  Sn  Sn29  1  0.16603907  0.49975605  0.50032561  1
  Sn  Sn30  1  0.16720967  0.49989103  0.16615141  1
  Sn  Sn31  1  0.16579062  0.16735560  0.83263684  1
  Sn  Sn32  1  0.49953430  0.49935475  0.16631175  1
  Sn  Sn33  1  0.16575799  0.49927038  0.83348800  1
  Sn  Sn34  1  0.83295952  0.16685396  0.16567554  1
  Sn  Sn35  1  0.50080642  0.16750905  0.16625702  1
  Sn  Sn36  1  0.16585360  0.83305867  0.50037062  1
  Sn  Sn37  1  0.83369186  0.50044432  0.50109787  1
  Sn  Sn38  1  0.16662276  0.16697433  0.50106544  1
  Sn  Sn39  1  0.83426519  0.16754968  0.83417217  1
  Pb  Pb40  1  0.50044008  0.49967018  0.49781185  1
  Pb  Pb41  1  0.49609549  0.16709108  0.49731152  1
  Pb  Pb42  1  0.83346347  0.83353372  0.83034198  1
  Pb  Pb43  1  0.16654147  0.83305422  0.83062982  1
  Pb  Pb44  1  0.50049399  0.49998363  0.83627678  1
  Pb  Pb45  1  0.49957640  0.16687411  0.83604138  1
  Pb  Pb46  1  0.83372126  0.83708454  0.16979813  1
  Pb  Pb47  1  0.50006767  0.83322445  0.16684118  1
  Pb  Pb48  1  0.83357773  0.49872306  0.16647522  1
  Pb  Pb49  1  0.50006606  0.83319566  0.49998708  1
  Pb  Pb50  1  0.50006142  0.83325035  0.83320606  1
  Pb  Pb51  1  0.16639166  0.16814091  0.16591818  1
  Pb  Pb52  1  0.16613118  0.82946374  0.16933051  1
  Pb  Pb53  1  0.83476644  0.16715427  0.50061982  1
  I  I54  1  0.16802151  0.00003459  0.16764201  1
  I  I55  1  0.16173021  0.00043906  0.50308056  1
  I  I56  1  0.16286926  0.00342021  0.82982627  1
  I  I57  1  0.16742226  0.33623954  0.17211646  1
  I  I58  1  0.16257093  0.33446507  0.49932224  1
  I  I59  1  0.16295191  0.33399877  0.82862412  1
  I  I60  1  0.17239560  0.66111586  0.16554870  1
  I  I61  1  0.16239539  0.66523925  0.49852921  1
  I  I62  1  0.16280591  0.66277094  0.83389673  1
  I  I63  1  0.50385729  0.00328048  0.16728753  1
  I  I64  1  0.50116126  0.00023928  0.49742839  1
  I  I65  1  0.49988393  0.00062064  0.83540448  1
  I  I66  1  0.49919492  0.33349751  0.16750647  1
  I  I67  1  0.50102803  0.33336283  0.50000547  1
  I  I68  1  0.49963417  0.33342938  0.83206210  1
  I  I69  1  0.49470898  0.66336060  0.16762310  1
  I  I70  1  0.49609979  0.66632809  0.49707352  1
  I  I71  1  0.49921501  0.66600571  0.83562510  1
  I  I72  1  0.82795132  0.00512221  0.16169498  1
  I  I73  1  0.83900759  -0.00171470  0.49797560  1
  I  I74  1  0.83768525  0.00355202  0.83697438  1
  I  I75  1  0.83278620  0.33084247  0.16851483  1
  I  I76  1  0.83858429  0.33619095  0.49944432  1
  I  I77  1  0.83815812  0.33368853  0.83153095  1
  I  I78  1  0.83250837  0.66654931  0.16454826  1
  I  I79  1  0.84212869  0.66496803  0.50356061  1
  I  I80  1  0.83814448  0.66317365  0.83254302  1
  I  I81  1  0.16572086  0.17294508  -0.00292132  1
  I  I82  1  0.16615781  0.16781743  0.33559874  1
  I  I83  1  0.16016507  0.17092360  0.66689695  1
  I  I84  1  0.16669395  0.49255350  -0.00092037  1
  I  I85  1  0.16651263  0.49933956  0.33444667  1
  I  I86  1  0.16160258  0.49941257  0.66625692  1
  I  I87  1  0.16883908  0.83450763  -0.00015200  1
  I  I88  1  0.16321084  0.83623917  0.33765259  1
  I  I89  1  0.16152841  0.82952390  0.66255730  1
  I  I90  1  0.49920061  0.17280763  0.00375071  1
  I  I91  1  0.50615175  0.17082347  0.32953785  1
  I  I92  1  0.50261071  0.16495500  0.66683127  1
  I  I93  1  0.49516017  0.49430862  0.00400312  1
  I  I94  1  0.49526386  0.49599171  0.32991552  1
  I  I95  1  0.49759606  0.50124484  0.66688411  1
  I  I96  1  0.49963693  0.83301701  0.00043580  1
  I  I97  1  0.49937601  0.83380226  0.33337529  1
  I  I98  1  0.49976778  0.83371145  0.66619544  1
  I  I99  1  0.83534931  0.17395685  -0.00100529  1
  I  I100  1  0.83134329  0.16723425  0.33161252  1
  I  I101  1  0.83709087  0.16745119  0.66948016  1
  I  I102  1  0.83672440  0.49624468  -0.00273900  1
  I  I103  1  0.83696439  0.50159354  0.33586049  1
  I  I104  1  0.84211704  0.49832624  0.66659811  1
  I  I105  1  0.83138366  0.83046191  -0.00016947  1
  I  I106  1  0.83789740  0.82659335  0.33755549  1
  I  I107  1  0.84011173  0.83348554  0.66265621  1
  I  I108  1  -0.00223124  0.16904685  0.16680841  1
  I  I109  1  0.00305462  0.16735728  0.49742461  1
  I  I110  1  0.00014011  0.17144750  0.83541516  1
  I  I111  1  0.00273043  0.49735249  0.16866440  1
  I  I112  1  0.00123093  0.50060486  0.49760353  1
  I  I113  1  0.00075184  0.49548088  0.83415293  1
  I  I114  1  -0.00001032  0.83409346  0.16519706  1
  I  I115  1  0.00085766  0.83174289  0.49940880  1
  I  I116  1  0.00004623  0.83403003  0.83581527  1
  I  I117  1  0.33506879  0.17008298  0.16876667  1
  I  I118  1  0.32777405  0.16782866  0.50471564  1
  I  I119  1  0.32963527  0.17152664  0.82929240  1
  I  I120  1  0.33215740  0.49338381  0.16826586  1
  I  I121  1  0.32959370  0.50075383  0.50202261  1
  I  I122  1  0.32971899  0.49596608  0.82987460  1
  I  I123  1  0.33299421  0.83823052  0.16913663  1
  I  I124  1  0.32964288  0.83221149  0.49941515  1
  I  I125  1  0.33270048  0.83378379  0.83112083  1
  I  I126  1  0.66721577  0.17360792  0.16320990  1
  I  I127  1  0.66669280  0.16571291  0.50150893  1
  I  I128  1  0.66997862  0.17096860  0.83454633  1
  I  I129  1  0.66474106  0.49643640  0.16794974  1
  I  I130  1  0.67038005  0.50472714  0.50287840  1
  I  I131  1  0.67045307  0.49530510  0.82867320  1
  I  I132  1  0.66695326  0.82811811  0.16926584  1
  I  I133  1  0.67013700  0.82812493  0.49944646  1
  I  I134  1  0.66732022  0.83278038  0.83093364  1
