# generated using pymatgen
data_Cs27Sn14Pb13I81
_symmetry_space_group_name_H-M   'P 1'
_cell_length_a   18.97846025
_cell_length_b   18.98202094
_cell_length_c   18.96601383
_cell_angle_alpha   89.99829809
_cell_angle_beta   90.00204825
_cell_angle_gamma   89.99972488
_symmetry_Int_Tables_number   1
_chemical_formula_structural   Cs27Sn14Pb13I81
_chemical_formula_sum   'Cs27 Sn14 Pb13 I81'
_cell_volume   6832.49755772
_cell_formula_units_Z   1
loop_
 _symmetry_equiv_pos_site_id
 _symmetry_equiv_pos_as_xyz
  1  'x, y, z'
loop_
 _atom_site_type_symbol
 _atom_site_label
 _atom_site_symmetry_multiplicity
 _atom_site_fract_x
 _atom_site_fract_y
 _atom_site_fract_z
 _atom_site_occupancy
  Cs  Cs0  1  -0.00096678  -0.00120417  0.00008586  1
  Cs  Cs1  1  0.00208069  0.00003095  0.33270955  1
  Cs  Cs2  1  -0.00712772  0.00952661  0.67440328  1
  Cs  Cs3  1  0.00217835  0.33709183  0.00124085  1
  Cs  Cs4  1  0.00019146  0.33062732  0.33378542  1
  Cs  Cs5  1  0.00027435  0.32244054  0.66413260  1
  Cs  Cs6  1  0.00412458  0.66471033  0.00115971  1
  Cs  Cs7  1  0.00061772  0.66853290  0.33241513  1
  Cs  Cs8  1  -0.00270538  0.66986479  0.66641521  1
  Cs  Cs9  1  0.33659165  0.00081316  -0.00508913  1
  Cs  Cs10  1  0.33269035  -0.00186929  0.33321388  1
  Cs  Cs11  1  0.33151488  0.00086153  0.67039144  1
  Cs  Cs12  1  0.33262175  0.33479514  -0.00217615  1
  Cs  Cs13  1  0.33490942  0.33346793  0.33429590  1
  Cs  Cs14  1  0.33032980  0.33253591  0.66349621  1
  Cs  Cs15  1  0.32994818  0.66494175  -0.00138980  1
  Cs  Cs16  1  0.33341843  0.66790395  0.33422280  1
  Cs  Cs17  1  0.33523024  0.66697166  0.66421071  1
  Cs  Cs18  1  0.66486588  0.00331674  -0.00294334  1
  Cs  Cs19  1  0.66433168  -0.00274061  0.33074728  1
  Cs  Cs20  1  0.67390036  -0.00040202  0.67699022  1
  Cs  Cs21  1  0.66534977  0.33401323  0.00134660  1
  Cs  Cs22  1  0.66482162  0.33485856  0.33258164  1
  Cs  Cs23  1  0.66880436  0.33720150  0.66656308  1
  Cs  Cs24  1  0.66625058  0.66483741  0.00132158  1
  Cs  Cs25  1  0.66595164  0.66642989  0.33380144  1
  Cs  Cs26  1  0.66750929  0.66521752  0.66594566  1
  Sn  Sn27  1  0.50034155  0.50086544  0.16651435  1
  Sn  Sn28  1  0.83321216  0.50021558  0.83412532  1
  Sn  Sn29  1  0.83396926  0.16684741  0.16716960  1
  Sn  Sn30  1  0.50031203  0.50034827  0.83338325  1
  Sn  Sn31  1  0.16659288  0.16562222  0.16697385  1
  Sn  Sn32  1  0.16683110  0.50086719  0.49969928  1
  Sn  Sn33  1  0.49921980  0.50014299  0.50000310  1
  Sn  Sn34  1  0.50065065  0.16562873  0.50005271  1
  Sn  Sn35  1  0.83261208  0.50007355  0.16622676  1
  Sn  Sn36  1  0.49960974  0.83394673  0.49967465  1
  Sn  Sn37  1  0.83304039  0.83319764  0.16698618  1
  Sn  Sn38  1  0.16727373  0.83433724  0.16722415  1
  Sn  Sn39  1  0.49966091  0.83242372  0.16710222  1
  Sn  Sn40  1  0.16694604  0.83306723  0.49986139  1
  Pb  Pb41  1  0.83025601  0.16632562  0.49733912  1
  Pb  Pb42  1  0.49988233  0.83094759  0.83311871  1
  Pb  Pb43  1  0.16847355  0.16552549  0.49814120  1
  Pb  Pb44  1  0.16665135  0.83318931  0.83252246  1
  Pb  Pb45  1  0.16681767  0.50031297  0.16854456  1
  Pb  Pb46  1  0.16684571  0.16672863  0.83688787  1
  Pb  Pb47  1  0.50004456  0.16979193  0.82985064  1
  Pb  Pb48  1  0.49976759  0.16651451  0.16786910  1
  Pb  Pb49  1  0.83329985  0.83047051  0.83663753  1
  Pb  Pb50  1  0.16612115  0.50022391  0.82953546  1
  Pb  Pb51  1  0.83371520  0.50002455  0.49964565  1
  Pb  Pb52  1  0.83313124  0.16989193  0.83677538  1
  Pb  Pb53  1  0.83341562  0.83356550  0.49834546  1
  I  I54  1  0.16328937  -0.00149025  0.17300807  1
  I  I55  1  0.17308664  -0.00346696  0.49466033  1
  I  I56  1  0.16678629  -0.00002311  0.82876564  1
  I  I57  1  0.16342016  0.33175753  0.16877460  1
  I  I58  1  0.17151050  0.33533330  0.49855771  1
  I  I59  1  0.16725503  0.33379321  0.83360294  1
  I  I60  1  0.16448895  0.66943577  0.16864078  1
  I  I61  1  0.17526015  0.66712677  0.49304248  1
  I  I62  1  0.16625248  0.66639253  0.83977556  1
  I  I63  1  0.50240250  -0.00300623  0.17256783  1
  I  I64  1  0.49536196  -0.00158350  0.49030539  1
  I  I65  1  0.49954545  -0.00003469  0.83421424  1
  I  I66  1  0.50300080  0.33638517  0.16813498  1
  I  I67  1  0.49656661  0.33523540  0.49885930  1
  I  I68  1  0.50419805  0.33813999  0.83667734  1
  I  I69  1  0.50315240  0.66615737  0.17081058  1
  I  I70  1  0.49598581  0.66623248  0.49860169  1
  I  I71  1  0.50422285  0.66276381  0.83001113  1
  I  I72  1  0.83380350  -0.00064369  0.17057501  1
  I  I73  1  0.83312426  -0.00007210  0.49716371  1
  I  I74  1  0.83411728  0.00019447  0.83296284  1
  I  I75  1  0.83286406  0.33431918  0.16312932  1
  I  I76  1  0.83347524  0.33348798  0.49705511  1
  I  I77  1  0.82789177  0.33756640  0.83875284  1
  I  I78  1  0.83231170  0.66635328  0.16322991  1
  I  I79  1  0.83008179  0.66658650  0.49771138  1
  I  I80  1  0.82836215  0.66264612  0.83835967  1
  I  I81  1  0.16394108  0.16196261  0.00535623  1
  I  I82  1  0.16252685  0.16583698  0.33013050  1
  I  I83  1  0.16781732  0.16776198  0.66624360  1
  I  I84  1  0.16941759  0.49924234  0.00019421  1
  I  I85  1  0.17163347  0.50096549  0.33623532  1
  I  I86  1  0.17228943  0.50611147  0.66164364  1
  I  I87  1  0.16679486  0.83679718  0.00402125  1
  I  I88  1  0.16780166  0.83256176  0.33221846  1
  I  I89  1  0.17474009  0.82630904  0.66242081  1
  I  I90  1  0.50004273  0.16675516  0.00006717  1
  I  I91  1  0.50031453  0.17272122  0.33556985  1
  I  I92  1  0.49761185  0.16573995  0.66173250  1
  I  I93  1  0.50493140  0.50409057  0.00144877  1
  I  I94  1  0.50085822  0.50036183  0.33320370  1
  I  I95  1  0.50070941  0.49970426  0.66553513  1
  I  I96  1  0.49992389  0.82957946  0.00378362  1
  I  I97  1  0.49994639  0.82821626  0.33261760  1
  I  I98  1  0.49366865  0.83185273  0.66288843  1
  I  I99  1  0.83519494  0.16336371  0.00495026  1
  I  I100  1  0.83735894  0.17118902  0.32893928  1
  I  I101  1  0.83317423  0.16814133  0.66694846  1
  I  I102  1  0.82498365  0.49968461  0.00202956  1
  I  I103  1  0.82929174  0.50030992  0.32963872  1
  I  I104  1  0.82859577  0.50072641  0.66902263  1
  I  I105  1  0.83270016  0.83614829  0.00549787  1
  I  I106  1  0.83264402  0.82874590  0.32915002  1
  I  I107  1  0.83334256  0.83149367  0.66691102  1
  I  I108  1  -0.00034465  0.16476384  0.16765280  1
  I  I109  1  0.00013920  0.16865635  0.50052353  1
  I  I110  1  -0.00026510  0.16985273  0.82898316  1
  I  I111  1  -0.00254602  0.50183538  0.16341429  1
  I  I112  1  0.00295447  0.50531424  0.49799133  1
  I  I113  1  -0.00304826  0.50094857  0.84082857  1
  I  I114  1  0.00024762  0.83311411  0.17028012  1
  I  I115  1  0.00350325  0.82545959  0.49344471  1
  I  I116  1  -0.00013888  0.82938556  0.83327584  1
  I  I117  1  0.33111109  0.16420555  0.16970790  1
  I  I118  1  0.33630252  0.16950095  0.49524260  1
  I  I119  1  0.33368757  0.16961694  0.83699366  1
  I  I120  1  0.33648560  0.50178067  0.16504342  1
  I  I121  1  0.33534341  0.50020346  0.49897181  1
  I  I122  1  0.33642296  0.50021510  0.83709563  1
  I  I123  1  0.33378201  0.83291923  0.17134901  1
  I  I124  1  0.33430276  0.83046964  0.49041953  1
  I  I125  1  0.33345066  0.83023884  0.83966414  1
  I  I126  1  0.66900848  0.16562433  0.16875601  1
  I  I127  1  0.66227060  0.16998712  0.49623285  1
  I  I128  1  0.66661103  0.16465431  0.83544730  1
  I  I129  1  0.66580005  0.50193278  0.16833660  1
  I  I130  1  0.66322037  0.50087309  0.49936677  1
  I  I131  1  0.66571642  0.50009985  0.83270194  1
  I  I132  1  0.66597456  0.83178137  0.17120280  1
  I  I133  1  0.66297301  0.83028907  0.49458463  1
  I  I134  1  0.66656077  0.83444601  0.83205251  1
