# generated using pymatgen
data_Cs27Sn14Pb13I81
_symmetry_space_group_name_H-M   'P 1'
_cell_length_a   18.96714221
_cell_length_b   18.98491848
_cell_length_c   18.97523820
_cell_angle_alpha   90.00021162
_cell_angle_beta   90.00327859
_cell_angle_gamma   90.00097611
_symmetry_Int_Tables_number   1
_chemical_formula_structural   Cs27Sn14Pb13I81
_chemical_formula_sum   'Cs27 Sn14 Pb13 I81'
_cell_volume   6832.78684072
_cell_formula_units_Z   1
loop_
 _symmetry_equiv_pos_site_id
 _symmetry_equiv_pos_as_xyz
  1  'x, y, z'
loop_
 _atom_site_type_symbol
 _atom_site_label
 _atom_site_symmetry_multiplicity
 _atom_site_fract_x
 _atom_site_fract_y
 _atom_site_fract_z
 _atom_site_occupancy
  Cs  Cs0  1  0.00066143  0.00027974  -0.00383963  1
  Cs  Cs1  1  0.00068793  0.00161171  0.33522091  1
  Cs  Cs2  1  0.00104992  0.00132143  0.66773860  1
  Cs  Cs3  1  0.00207919  0.33183544  -0.00396602  1
  Cs  Cs4  1  -0.00108336  0.33041019  0.33825078  1
  Cs  Cs5  1  0.00011603  0.33032208  0.66435333  1
  Cs  Cs6  1  0.00131078  0.66723746  0.00149672  1
  Cs  Cs7  1  -0.00195197  0.66646228  0.33325843  1
  Cs  Cs8  1  -0.00134370  0.66711860  0.66576782  1
  Cs  Cs9  1  0.33004614  -0.00220544  0.00220497  1
  Cs  Cs10  1  0.33377868  0.00043304  0.33469695  1
  Cs  Cs11  1  0.33477828  0.00166093  0.66491659  1
  Cs  Cs12  1  0.33344727  0.33796668  0.00239127  1
  Cs  Cs13  1  0.33215955  0.33233892  0.33333472  1
  Cs  Cs14  1  0.33475688  0.33303882  0.66583785  1
  Cs  Cs15  1  0.32414622  0.66431101  0.00768539  1
  Cs  Cs16  1  0.33417144  0.66805289  0.32906154  1
  Cs  Cs17  1  0.33610336  0.66528389  0.66630467  1
  Cs  Cs18  1  0.66817027  0.00236358  -0.00006618  1
  Cs  Cs19  1  0.66460478  -0.00062096  0.32803860  1
  Cs  Cs20  1  0.66398656  -0.00227640  0.66872929  1
  Cs  Cs21  1  0.66523415  0.33295536  0.00139955  1
  Cs  Cs22  1  0.66885858  0.33133133  0.33095074  1
  Cs  Cs23  1  0.66530353  0.33615716  0.66665905  1
  Cs  Cs24  1  0.66924553  0.66473960  -0.00387466  1
  Cs  Cs25  1  0.66806588  0.66869091  0.33202123  1
  Cs  Cs26  1  0.66559057  0.66649270  0.66856196  1
  Sn  Sn27  1  0.16652833  0.16674405  0.16716258  1
  Sn  Sn28  1  0.83338193  0.83282114  0.16625317  1
  Sn  Sn29  1  0.49981681  0.16688233  0.83278899  1
  Sn  Sn30  1  0.49939486  0.49937723  0.50013777  1
  Sn  Sn31  1  0.50034036  0.50047963  0.83291519  1
  Sn  Sn32  1  0.16757009  0.50017764  0.50029347  1
  Sn  Sn33  1  0.49994448  0.83270047  0.83366714  1
  Sn  Sn34  1  0.83294371  0.50056785  0.83396293  1
  Sn  Sn35  1  0.83333633  0.50019567  0.16571176  1
  Sn  Sn36  1  0.49971699  0.16758468  0.50060385  1
  Sn  Sn37  1  0.16620142  0.83311424  0.50038499  1
  Sn  Sn38  1  0.83366172  0.83354291  0.50024155  1
  Sn  Sn39  1  0.16762287  0.16672088  0.49942512  1
  Sn  Sn40  1  0.83270690  0.83252527  0.83334253  1
  Pb  Pb41  1  0.16649388  0.83308553  0.83110321  1
  Pb  Pb42  1  0.83229698  0.16375312  0.50019490  1
  Pb  Pb43  1  0.50215211  0.50011550  0.16686324  1
  Pb  Pb44  1  0.50238984  0.83308968  0.16291857  1
  Pb  Pb45  1  0.49776669  0.16671255  0.16686524  1
  Pb  Pb46  1  0.83078418  0.16704828  0.83308493  1
  Pb  Pb47  1  0.16966713  0.16677767  0.83276002  1
  Pb  Pb48  1  0.83575261  0.16684121  0.16649959  1
  Pb  Pb49  1  0.16362362  0.49804563  0.16970153  1
  Pb  Pb50  1  0.16649215  0.50013418  0.83104638  1
  Pb  Pb51  1  0.16407427  0.83512557  0.16940337  1
  Pb  Pb52  1  0.50001022  0.83308851  0.50121286  1
  Pb  Pb53  1  0.83265571  0.50173286  0.50045637  1
  I  I54  1  0.16562960  0.00281143  0.17291755  1
  I  I55  1  0.16637024  0.00046253  0.49634997  1
  I  I56  1  0.16600620  -0.00002188  0.83108583  1
  I  I57  1  0.16522089  0.33045504  0.17294817  1
  I  I58  1  0.17089316  0.33301837  0.49637183  1
  I  I59  1  0.16404166  0.33339570  0.83147179  1
  I  I60  1  0.16778383  0.66660506  0.16782414  1
  I  I61  1  0.16588340  0.66661811  0.50296649  1
  I  I62  1  0.17152191  0.66661984  0.83065422  1
  I  I63  1  0.50285368  -0.00004895  0.16734122  1
  I  I64  1  0.49696275  0.00229595  0.50483843  1
  I  I65  1  0.50409733  -0.00017115  0.82824413  1
  I  I66  1  0.50357171  0.33338254  0.16229971  1
  I  I67  1  0.49200258  0.33341276  0.50860626  1
  I  I68  1  0.50390330  0.33411830  0.82836317  1
  I  I69  1  0.49640540  0.66663282  0.17027377  1
  I  I70  1  0.49760645  0.66406111  0.50487713  1
  I  I71  1  0.50693246  0.66594243  0.82625325  1
  I  I72  1  0.83403670  -0.00317695  0.16637569  1
  I  I73  1  0.83746715  -0.00457470  0.50043143  1
  I  I74  1  0.82977422  -0.00331493  0.83390788  1
  I  I75  1  0.83343703  0.33636685  0.16204813  1
  I  I76  1  0.83648860  0.33348508  0.49961643  1
  I  I77  1  0.82988912  0.33681944  0.83810773  1
  I  I78  1  0.83351493  0.66730561  0.16635153  1
  I  I79  1  0.83723233  0.66976861  0.50023652  1
  I  I80  1  0.82498972  0.66716118  0.83301786  1
  I  I81  1  0.16602082  0.16577606  0.00230628  1
  I  I82  1  0.17168919  0.16624724  0.33583577  1
  I  I83  1  0.16810931  0.16640170  0.66291226  1
  I  I84  1  0.16923553  0.49769712  0.00027238  1
  I  I85  1  0.17134294  0.50254336  0.33779164  1
  I  I86  1  0.16506783  0.49671667  0.66265372  1
  I  I87  1  0.16693019  0.83635266  0.00021429  1
  I  I88  1  0.16198629  0.83137173  0.33766658  1
  I  I89  1  0.16038447  0.83690925  0.66273906  1
  I  I90  1  0.50041999  0.16693204  -0.00327121  1
  I  I91  1  0.49825691  0.17113213  0.33687471  1
  I  I92  1  0.49447552  0.16699295  0.66602829  1
  I  I93  1  0.50346073  0.49867241  -0.00351064  1
  I  I94  1  0.49733375  0.49426638  0.33686032  1
  I  I95  1  0.50244491  0.49909714  0.66697592  1
  I  I96  1  0.50555557  0.83452351  -0.00548537  1
  I  I97  1  0.50145217  0.83458754  0.33337797  1
  I  I98  1  0.50590629  0.83340409  0.66935564  1
  I  I99  1  0.83442705  0.16223601  -0.00018334  1
  I  I100  1  0.82897391  0.16700406  0.33346497  1
  I  I101  1  0.83947841  0.16673582  0.66654287  1
  I  I102  1  0.82718310  0.50812429  -0.00125598  1
  I  I103  1  0.83423191  0.50479659  0.33168066  1
  I  I104  1  0.83169786  0.50484405  0.66929382  1
  I  I105  1  0.82736921  0.82954566  -0.00083702  1
  I  I106  1  0.83876788  0.82941037  0.33352017  1
  I  I107  1  0.83338382  0.82947303  0.66736045  1
  I  I108  1  0.00337788  0.16665307  0.17587853  1
  I  I109  1  0.00292697  0.16919982  0.49564168  1
  I  I110  1  0.00017622  0.16601532  0.83306660  1
  I  I111  1  -0.00407047  0.50493530  0.16128789  1
  I  I112  1  0.00218992  0.49758954  0.49934133  1
  I  I113  1  -0.00342039  0.50634024  0.83602899  1
  I  I114  1  -0.00401405  0.82962472  0.16135036  1
  I  I115  1  -0.00015504  0.83304410  0.50180235  1
  I  I116  1  -0.00365366  0.82842007  0.83483760  1
  I  I117  1  0.33003140  0.16653806  0.16960186  1
  I  I118  1  0.33312556  0.16470913  0.50045828  1
  I  I119  1  0.33783773  0.16653132  0.83057350  1
  I  I120  1  0.33295794  0.49842247  0.16355354  1
  I  I121  1  0.33385644  0.50075199  0.50640856  1
  I  I122  1  0.33687100  0.49972976  0.82985002  1
  I  I123  1  0.33295893  0.83483787  0.16631804  1
  I  I124  1  0.33090805  0.83433857  0.50289893  1
  I  I125  1  0.33655628  0.83395018  0.82906724  1
  I  I126  1  0.66671644  0.16588621  0.16768930  1
  I  I127  1  0.66295784  0.17117466  0.50498493  1
  I  I128  1  0.66268411  0.16599763  0.82657938  1
  I  I129  1  0.67022340  0.50366118  0.16826444  1
  I  I130  1  0.66373142  0.49636253  0.50163103  1
  I  I131  1  0.66620438  0.50084887  0.83034540  1
  I  I132  1  0.67087055  0.83114004  0.17449525  1
  I  I133  1  0.66932510  0.83270241  0.49906950  1
  I  I134  1  0.66742398  0.83307365  0.82987532  1
