# generated using pymatgen
data_Cs27Sn13Pb14I81
_symmetry_space_group_name_H-M   'P 1'
_cell_length_a   18.97654638
_cell_length_b   18.96944946
_cell_length_c   18.98453437
_cell_angle_alpha   90.00047044
_cell_angle_beta   90.00098473
_cell_angle_gamma   90.00073566
_symmetry_Int_Tables_number   1
_chemical_formula_structural   Cs27Sn13Pb14I81
_chemical_formula_sum   'Cs27 Sn13 Pb14 I81'
_cell_volume   6833.95087987
_cell_formula_units_Z   1
loop_
 _symmetry_equiv_pos_site_id
 _symmetry_equiv_pos_as_xyz
  1  'x, y, z'
loop_
 _atom_site_type_symbol
 _atom_site_label
 _atom_site_symmetry_multiplicity
 _atom_site_fract_x
 _atom_site_fract_y
 _atom_site_fract_z
 _atom_site_occupancy
  Cs  Cs0  1  0.00265787  0.00204340  0.00083639  1
  Cs  Cs1  1  -0.00084035  -0.00105733  0.33314403  1
  Cs  Cs2  1  0.00088512  -0.00121124  0.66662294  1
  Cs  Cs3  1  -0.00461097  0.32723243  0.00617510  1
  Cs  Cs4  1  0.00254272  0.33181680  0.32362562  1
  Cs  Cs5  1  -0.00302725  0.32978664  0.67062038  1
  Cs  Cs6  1  -0.00195659  0.66656042  -0.00146437  1
  Cs  Cs7  1  0.00270843  0.66711049  0.33502095  1
  Cs  Cs8  1  0.00100121  0.66817354  0.66610481  1
  Cs  Cs9  1  0.33450304  0.00015744  -0.00247870  1
  Cs  Cs10  1  0.33352697  -0.00045301  0.33416705  1
  Cs  Cs11  1  0.33370487  0.00498045  0.66816679  1
  Cs  Cs12  1  0.33050153  0.33182414  0.00131176  1
  Cs  Cs13  1  0.33307579  0.33490575  0.33174290  1
  Cs  Cs14  1  0.33437232  0.33271628  0.66673741  1
  Cs  Cs15  1  0.33590451  0.66799114  -0.00201828  1
  Cs  Cs16  1  0.33232268  0.66495555  0.33562802  1
  Cs  Cs17  1  0.33082937  0.66507812  0.66593654  1
  Cs  Cs18  1  0.66137332  -0.00443134  -0.00159436  1
  Cs  Cs19  1  0.66718277  0.00066012  0.33513350  1
  Cs  Cs20  1  0.66462142  0.00626660  0.66494152  1
  Cs  Cs21  1  0.67501200  0.33634665  0.00103727  1
  Cs  Cs22  1  0.66537063  0.33076658  0.33482631  1
  Cs  Cs23  1  0.66752631  0.32932070  0.66556234  1
  Cs  Cs24  1  0.66621487  0.66767677  -0.00046862  1
  Cs  Cs25  1  0.66542430  0.66765647  0.33497703  1
  Cs  Cs26  1  0.66796522  0.66567578  0.66548795  1
  Sn  Sn27  1  0.83388349  0.83303387  0.83302508  1
  Sn  Sn28  1  0.49951167  0.50012259  0.83317794  1
  Sn  Sn29  1  0.50073401  0.50082281  0.50031437  1
  Sn  Sn30  1  0.16667593  0.50025099  0.83352573  1
  Sn  Sn31  1  0.83227833  0.83248729  0.50025252  1
  Sn  Sn32  1  0.50044621  0.83284240  0.50037746  1
  Sn  Sn33  1  0.83316396  0.50047949  0.49978999  1
  Sn  Sn34  1  0.16643053  0.16706121  0.49982497  1
  Sn  Sn35  1  0.50013238  0.16760190  0.16645368  1
  Sn  Sn36  1  0.16610206  0.83240609  0.83422159  1
  Sn  Sn37  1  0.50001091  0.49916089  0.16661813  1
  Sn  Sn38  1  0.16625254  0.83268140  0.16585016  1
  Sn  Sn39  1  0.83413540  0.83288547  0.16675642  1
  Pb  Pb40  1  0.49980475  0.83160013  0.83040763  1
  Pb  Pb41  1  0.83350330  0.50172082  0.83142260  1
  Pb  Pb42  1  0.16662710  0.16677301  0.83192099  1
  Pb  Pb43  1  0.16858832  0.50228353  0.16399841  1
  Pb  Pb44  1  0.16655740  0.83440294  0.50055167  1
  Pb  Pb45  1  0.83117276  0.50242766  0.16923078  1
  Pb  Pb46  1  0.83063832  0.16356580  0.16674675  1
  Pb  Pb47  1  0.16617747  0.49773305  0.50196440  1
  Pb  Pb48  1  0.49848171  0.16733746  0.49857252  1
  Pb  Pb49  1  0.83323660  0.16319733  0.83346510  1
  Pb  Pb50  1  0.50004940  0.17043755  0.83626879  1
  Pb  Pb51  1  0.16863229  0.16401813  0.16838473  1
  Pb  Pb52  1  0.49988468  0.83270799  0.16859631  1
  Pb  Pb53  1  0.83576903  0.16688866  0.49975250  1
  I  I54  1  0.16570510  -0.00407056  0.16157590  1
  I  I55  1  0.16809280  0.00174587  0.50072796  1
  I  I56  1  0.16216702  -0.00354872  0.83551416  1
  I  I57  1  0.16655144  0.33350390  0.16657367  1
  I  I58  1  0.16885402  0.33066897  0.50194118  1
  I  I59  1  0.17333561  0.33648585  0.82898111  1
  I  I60  1  0.16546162  0.67043585  0.16778380  1
  I  I61  1  0.16762043  0.66658719  0.49868963  1
  I  I62  1  0.16754727  0.66770968  0.83515161  1
  I  I63  1  0.50007671  0.00118477  0.17052435  1
  I  I64  1  0.50296682  -0.00247154  0.49730717  1
  I  I65  1  0.49987514  -0.00018540  0.83337008  1
  I  I66  1  0.49836913  0.33483488  0.16995216  1
  I  I67  1  0.50300412  0.33700637  0.50167937  1
  I  I68  1  0.49331090  0.33860212  0.82602799  1
  I  I69  1  0.50011062  0.66395805  0.16605242  1
  I  I70  1  0.50288386  0.66589741  0.49706963  1
  I  I71  1  0.49869799  0.66353557  0.83791952  1
  I  I72  1  0.83486097  -0.00485162  0.17008348  1
  I  I73  1  0.82971169  -0.00378711  0.50004777  1
  I  I74  1  0.83942479  -0.00569706  0.83000213  1
  I  I75  1  0.83430295  0.33364019  0.16841920  1
  I  I76  1  0.82788084  0.33655215  0.50191814  1
  I  I77  1  0.83353366  0.33383441  0.83057788  1
  I  I78  1  0.83409353  0.67070274  0.16516346  1
  I  I79  1  0.82891748  0.66807287  0.49998234  1
  I  I80  1  0.83448398  0.67019027  0.83450901  1
  I  I81  1  0.16830953  0.16697725  0.00021567  1
  I  I82  1  0.16751921  0.16495782  0.33591351  1
  I  I83  1  0.16870463  0.16315254  0.66422388  1
  I  I84  1  0.17264589  0.50269927  -0.00392869  1
  I  I85  1  0.16802473  0.50079724  0.33330659  1
  I  I86  1  0.17294203  0.50780236  0.66964293  1
  I  I87  1  0.16007310  0.83022138  -0.00054948  1
  I  I88  1  0.16462520  0.83617602  0.33159718  1
  I  I89  1  0.16403882  0.83097192  0.66936412  1
  I  I90  1  0.49826398  0.16717977  0.00397637  1
  I  I91  1  0.49830635  0.17081273  0.33098231  1
  I  I92  1  0.49859109  0.16572818  0.66665285  1
  I  I93  1  0.49440048  0.49660679  -0.00013029  1
  I  I94  1  0.50431026  0.50059813  0.33411502  1
  I  I95  1  0.49924829  0.50656035  0.66590904  1
  I  I96  1  0.50245236  0.83289728  -0.00014372  1
  I  I97  1  0.50265293  0.82889873  0.33638233  1
  I  I98  1  0.50277823  0.82842495  0.66260617  1
  I  I99  1  0.83383415  0.16766213  0.00028157  1
  I  I100  1  0.83391303  0.16346000  0.33334297  1
  I  I101  1  0.83297450  0.16471002  0.66632701  1
  I  I102  1  0.83114759  0.50222950  0.00004477  1
  I  I103  1  0.82850877  0.50632447  0.33721802  1
  I  I104  1  0.82789135  0.50694859  0.66348562  1
  I  I105  1  0.83761732  0.83397855  -0.00008492  1
  I  I106  1  0.83309596  0.83021187  0.33399190  1
  I  I107  1  0.83459627  0.82868063  0.66613845  1
  I  I108  1  0.00002475  0.16724052  0.16785348  1
  I  I109  1  0.00308146  0.16433292  0.50088379  1
  I  I110  1  0.00014766  0.17159329  0.83220673  1
  I  I111  1  -0.00012084  0.49946224  0.16754270  1
  I  I112  1  -0.00276451  0.50583966  0.50284718  1
  I  I113  1  0.00247028  0.50418513  0.82891319  1
  I  I114  1  -0.00033214  0.83346045  0.16891974  1
  I  I115  1  -0.00294951  0.83051702  0.49970227  1
  I  I116  1  0.00032021  0.82739088  0.83143917  1
  I  I117  1  0.33631773  0.16851772  0.16862536  1
  I  I118  1  0.33106862  0.16421804  0.49934853  1
  I  I119  1  0.33343739  0.16083642  0.83235973  1
  I  I120  1  0.33692873  0.49984731  0.17249355  1
  I  I121  1  0.33651239  0.50378810  0.49851710  1
  I  I122  1  0.33383588  0.50687008  0.83116352  1
  I  I123  1  0.33120298  0.83350174  0.16374127  1
  I  I124  1  0.33563494  0.83006631  0.49829725  1
  I  I125  1  0.33066786  0.83128789  0.83696746  1
  I  I126  1  0.66296283  0.16951054  0.16958590  1
  I  I127  1  0.66667853  0.16540092  0.49875637  1
  I  I128  1  0.66636985  0.16568565  0.83154961  1
  I  I129  1  0.66279760  0.49926822  0.16204072  1
  I  I130  1  0.66532975  0.50493065  0.50149013  1
  I  I131  1  0.66385375  0.50196647  0.83480837  1
  I  I132  1  0.66907763  0.83329209  0.16496796  1
  I  I133  1  0.66725992  0.82977750  0.49879448  1
  I  I134  1  0.66920706  0.83152679  0.83650459  1
