# generated using pymatgen
data_Cs27Sn14Pb13I81
_symmetry_space_group_name_H-M   'P 1'
_cell_length_a   18.98226294
_cell_length_b   18.97764088
_cell_length_c   18.96811359
_cell_angle_alpha   89.99860528
_cell_angle_beta   90.00141271
_cell_angle_gamma   89.99882471
_symmetry_Int_Tables_number   1
_chemical_formula_structural   Cs27Sn14Pb13I81
_chemical_formula_sum   'Cs27 Sn14 Pb13 I81'
_cell_volume   6833.04609456
_cell_formula_units_Z   1
loop_
 _symmetry_equiv_pos_site_id
 _symmetry_equiv_pos_as_xyz
  1  'x, y, z'
loop_
 _atom_site_type_symbol
 _atom_site_label
 _atom_site_symmetry_multiplicity
 _atom_site_fract_x
 _atom_site_fract_y
 _atom_site_fract_z
 _atom_site_occupancy
  Cs  Cs0  1  0.00025253  0.00225651  -0.00121492  1
  Cs  Cs1  1  -0.00392577  0.00137142  0.33237110  1
  Cs  Cs2  1  0.00282275  0.00084690  0.66946481  1
  Cs  Cs3  1  0.00427741  0.32945641  -0.00169928  1
  Cs  Cs4  1  0.00043696  0.33218570  0.33371816  1
  Cs  Cs5  1  0.00167228  0.33285936  0.66681580  1
  Cs  Cs6  1  -0.00321013  0.66824028  -0.00084948  1
  Cs  Cs7  1  -0.00218320  0.66554058  0.33380623  1
  Cs  Cs8  1  -0.00029277  0.66768228  0.66726820  1
  Cs  Cs9  1  0.33488647  -0.00026387  0.00066775  1
  Cs  Cs10  1  0.33586040  -0.00464222  0.33425526  1
  Cs  Cs11  1  0.33704481  -0.00540856  0.66523252  1
  Cs  Cs12  1  0.33063741  0.33250155  -0.00070450  1
  Cs  Cs13  1  0.33072550  0.33708000  0.33193404  1
  Cs  Cs14  1  0.33017405  0.33268845  0.66802212  1
  Cs  Cs15  1  0.33453637  0.66720933  0.00308746  1
  Cs  Cs16  1  0.33401123  0.66556159  0.33260606  1
  Cs  Cs17  1  0.33154294  0.67324049  0.66485923  1
  Cs  Cs18  1  0.66544676  -0.00143903  0.00143485  1
  Cs  Cs19  1  0.66879144  0.00169532  0.33389097  1
  Cs  Cs20  1  0.65652756  0.00393853  0.66547481  1
  Cs  Cs21  1  0.66455050  0.33549478  -0.00299003  1
  Cs  Cs22  1  0.66859844  0.33404092  0.33476797  1
  Cs  Cs23  1  0.66362470  0.33231294  0.66805639  1
  Cs  Cs24  1  0.66878210  0.66598712  -0.00174971  1
  Cs  Cs25  1  0.66841271  0.66552988  0.33165611  1
  Cs  Cs26  1  0.66954722  0.66468297  0.67419575  1
  Sn  Sn27  1  0.50095908  0.49968114  0.16744927  1
  Sn  Sn28  1  0.16613370  0.16722203  0.83208782  1
  Sn  Sn29  1  0.83355046  0.83264827  0.16747248  1
  Sn  Sn30  1  0.16667911  0.16679172  0.50030276  1
  Sn  Sn31  1  0.83313242  0.50060318  0.49955902  1
  Sn  Sn32  1  0.50007387  0.16736957  0.16720866  1
  Sn  Sn33  1  0.83329815  0.83291865  0.49987163  1
  Sn  Sn34  1  0.50020399  0.50020939  0.49965476  1
  Sn  Sn35  1  0.83297605  0.50004898  0.16707353  1
  Sn  Sn36  1  0.16595191  0.83330457  0.16687954  1
  Sn  Sn37  1  0.83339614  0.16668584  0.83308404  1
  Sn  Sn38  1  0.16660046  0.49951713  0.50095274  1
  Sn  Sn39  1  0.50058829  0.83300565  0.16715713  1
  Sn  Sn40  1  0.16657998  0.50000473  0.83252712  1
  Pb  Pb41  1  0.49715068  0.16920273  0.49761927  1
  Pb  Pb42  1  0.16861916  0.16426246  0.16701628  1
  Pb  Pb43  1  0.16658119  0.83345867  0.83564625  1
  Pb  Pb44  1  0.83552405  0.49814859  0.83332478  1
  Pb  Pb45  1  0.83146792  0.16719721  0.16497805  1
  Pb  Pb46  1  0.50310609  0.83037518  0.49787654  1
  Pb  Pb47  1  0.49897772  0.16685441  0.83522866  1
  Pb  Pb48  1  0.16615018  0.50156590  0.16692588  1
  Pb  Pb49  1  0.16457700  0.83300789  0.49785150  1
  Pb  Pb50  1  0.83325685  0.83601758  0.83291622  1
  Pb  Pb51  1  0.83497468  0.16692968  0.50208798  1
  Pb  Pb52  1  0.50018802  0.83295437  0.83571367  1
  Pb  Pb53  1  0.49701851  0.50013448  0.83323612  1
  I  I54  1  0.16616280  -0.00350525  0.16639579  1
  I  I55  1  0.16429661  0.00229763  0.50276104  1
  I  I56  1  0.16271966  0.00328618  0.83112867  1
  I  I57  1  0.16738204  0.33336539  0.16596703  1
  I  I58  1  0.16484782  0.33480340  0.50278665  1
  I  I59  1  0.16286995  0.33306666  0.83100301  1
  I  I60  1  0.17077435  0.66936847  0.16674553  1
  I  I61  1  0.16851754  0.66324534  0.50290069  1
  I  I62  1  0.16729457  0.66378648  0.82935404  1
  I  I63  1  0.49890191  -0.00087685  0.16369585  1
  I  I64  1  0.49964555  -0.00016528  0.49864679  1
  I  I65  1  0.49837488  0.00019653  0.83556828  1
  I  I66  1  0.50413409  0.33493612  0.16975895  1
  I  I67  1  0.50532715  0.33725323  0.49327579  1
  I  I68  1  0.50212240  0.33352304  0.83828268  1
  I  I69  1  0.49975741  0.66616951  0.17045027  1
  I  I70  1  0.49265837  0.66242893  0.49344220  1
  I  I71  1  0.49848752  0.66617073  0.83612054  1
  I  I72  1  0.83234577  -0.00288295  0.16961090  1
  I  I73  1  0.83655946  -0.00242977  0.49454250  1
  I  I74  1  0.84158825  0.00354284  0.83531353  1
  I  I75  1  0.82901979  0.33659250  0.17060629  1
  I  I76  1  0.83240522  0.33686395  0.49555327  1
  I  I77  1  0.83626817  0.33060144  0.83456712  1
  I  I78  1  0.82962188  0.66648211  0.16933466  1
  I  I79  1  0.83597514  0.66513534  0.49494098  1
  I  I80  1  0.83492781  0.66647137  0.83433196  1
  I  I81  1  0.16475679  0.17023443  -0.00249358  1
  I  I82  1  0.16791678  0.17223337  0.33587223  1
  I  I83  1  0.16199821  0.17183894  0.66685959  1
  I  I84  1  0.16671164  0.49639884  -0.00184393  1
  I  I85  1  0.16671787  0.49662902  0.33624317  1
  I  I86  1  0.16619554  0.49553831  0.66532305  1
  I  I87  1  0.16544177  0.83278169  0.00396880  1
  I  I88  1  0.16934203  0.83297264  0.32986946  1
  I  I89  1  0.16431196  0.83333797  0.66631090  1
  I  I90  1  0.49808648  0.16814493  0.00359878  1
  I  I91  1  0.49945701  0.16381145  0.32962483  1
  I  I92  1  0.50224436  0.16840894  0.66630942  1
  I  I93  1  0.50347444  0.50115373  0.00375551  1
  I  I94  1  0.49771830  0.50008425  0.33230989  1
  I  I95  1  0.50392312  0.49851236  0.66326031  1
  I  I96  1  0.50220496  0.83051443  0.00521318  1
  I  I97  1  0.49682458  0.83553495  0.32936157  1
  I  I98  1  0.50069536  0.83306387  0.66581431  1
  I  I99  1  0.84057011  0.16700297  -0.00264553  1
  I  I100  1  0.83456910  0.16625599  0.33344395  1
  I  I101  1  0.83627000  0.16742775  0.66972643  1
  I  I102  1  0.82950318  0.50391355  0.00305753  1
  I  I103  1  0.83477011  0.50326809  0.33335668  1
  I  I104  1  0.83101856  0.50374196  0.66335093  1
  I  I105  1  0.83225169  0.82933159  0.00364366  1
  I  I106  1  0.83371289  0.82968463  0.33184276  1
  I  I107  1  0.83608811  0.82716441  0.66344596  1
  I  I108  1  0.00013316  0.16596520  0.16697089  1
  I  I109  1  0.00293588  0.17256463  0.49990062  1
  I  I110  1  0.00147324  0.17055272  0.83213012  1
  I  I111  1  -0.00274901  0.50523456  0.16937257  1
  I  I112  1  -0.00018773  0.50003892  0.49898982  1
  I  I113  1  0.00329982  0.49760608  0.83064461  1
  I  I114  1  -0.00145801  0.82815670  0.16974276  1
  I  I115  1  -0.00303955  0.82756010  0.49225361  1
  I  I116  1  -0.00004307  0.83220075  0.83850744  1
  I  I117  1  0.33644780  0.16815304  0.16492911  1
  I  I118  1  0.32925522  0.17124652  0.50568334  1
  I  I119  1  0.32975534  0.17160911  0.83191780  1
  I  I120  1  0.33573255  0.50152911  0.16897401  1
  I  I121  1  0.33294704  0.49436327  0.49832144  1
  I  I122  1  0.32915457  0.49242127  0.83188660  1
  I  I123  1  0.33412205  0.83309557  0.16471623  1
  I  I124  1  0.33348516  0.83312973  0.49800121  1
  I  I125  1  0.33307579  0.83533457  0.83550511  1
  I  I126  1  0.66360900  0.16284345  0.16459722  1
  I  I127  1  0.66652696  0.16655981  0.50169049  1
  I  I128  1  0.66873687  0.16580408  0.83573136  1
  I  I129  1  0.66665187  0.50394206  0.17343417  1
  I  I130  1  0.66727563  0.50437901  0.49319117  1
  I  I131  1  0.66683227  0.49804790  0.83195867  1
  I  I132  1  0.66707155  0.83278382  0.17002247  1
  I  I133  1  0.67088357  0.83023317  0.49370935  1
  I  I134  1  0.66704465  0.83516307  0.83547360  1
