# generated using pymatgen
data_Cs27Sn13Pb14I81
_symmetry_space_group_name_H-M   'P 1'
_cell_length_a   18.97966469
_cell_length_b   18.96980619
_cell_length_c   18.97966467
_cell_angle_alpha   89.99895120
_cell_angle_beta   90.00103050
_cell_angle_gamma   89.99895119
_symmetry_Int_Tables_number   1
_chemical_formula_structural   Cs27Sn13Pb14I81
_chemical_formula_sum   'Cs27 Sn13 Pb14 I81'
_cell_volume   6833.44910605
_cell_formula_units_Z   1
loop_
 _symmetry_equiv_pos_site_id
 _symmetry_equiv_pos_as_xyz
  1  'x, y, z'
loop_
 _atom_site_type_symbol
 _atom_site_label
 _atom_site_symmetry_multiplicity
 _atom_site_fract_x
 _atom_site_fract_y
 _atom_site_fract_z
 _atom_site_occupancy
  Cs  Cs0  1  -0.00079454  0.00028744  0.00167689  1
  Cs  Cs1  1  -0.00100695  0.00101039  0.33232639  1
  Cs  Cs2  1  0.00099603  -0.00049336  0.66688658  1
  Cs  Cs3  1  0.00192962  0.33222235  0.00435022  1
  Cs  Cs4  1  -0.00058446  0.33353530  0.33274901  1
  Cs  Cs5  1  0.00219502  0.33236901  0.66522192  1
  Cs  Cs6  1  -0.00094884  0.66780809  -0.00231238  1
  Cs  Cs7  1  -0.00077273  0.66550184  0.33256069  1
  Cs  Cs8  1  -0.00176127  0.66830514  0.67023877  1
  Cs  Cs9  1  0.33430391  0.00060151  -0.00038153  1
  Cs  Cs10  1  0.33355334  -0.00049327  0.33432939  1
  Cs  Cs11  1  0.33304005  -0.00311883  0.66637333  1
  Cs  Cs12  1  0.33261592  0.33445572  -0.00161055  1
  Cs  Cs13  1  0.33188860  0.33236901  0.33552844  1
  Cs  Cs14  1  0.33232200  0.33117846  0.66565529  1
  Cs  Cs15  1  0.34145393  0.66430888  0.00437836  1
  Cs  Cs16  1  0.33690537  0.66830519  0.33157209  1
  Cs  Cs17  1  0.33090095  0.67476081  0.66423435  1
  Cs  Cs18  1  0.66554425  -0.00020083  -0.00112221  1
  Cs  Cs19  1  0.66834361  0.00028742  0.33253889  1
  Cs  Cs20  1  0.66628511  0.00060145  0.66763731  1
  Cs  Cs21  1  0.66559128  0.33897717  -0.00107536  1
  Cs  Cs22  1  0.67101690  0.33222227  0.33526276  1
  Cs  Cs23  1  0.66505617  0.33445575  0.66594939  1
  Cs  Cs24  1  0.65800659  0.66115203  -0.00866020  1
  Cs  Cs25  1  0.66435427  0.66780805  0.33238460  1
  Cs  Cs26  1  0.67104482  0.66430899  0.67478740  1
  Sn  Sn27  1  0.49902993  0.49940454  0.50004336  1
  Sn  Sn28  1  0.83371231  0.83307772  0.16704567  1
  Sn  Sn29  1  0.16670772  0.16690360  0.50004105  1
  Sn  Sn30  1  0.49938211  0.16677369  0.16744936  1
  Sn  Sn31  1  0.49975817  0.16711977  0.49906670  1
  Sn  Sn32  1  0.16754157  0.16580429  0.16693449  1
  Sn  Sn33  1  0.16582606  0.83396670  0.16679285  1
  Sn  Sn34  1  0.16573337  0.16711973  0.83309147  1
  Sn  Sn35  1  0.16755060  0.49955426  0.50088396  1
  Sn  Sn36  1  0.83411603  0.16677369  0.83271543  1
  Sn  Sn37  1  0.83360116  0.16580431  0.50087491  1
  Sn  Sn38  1  0.16670999  0.49940454  0.83236321  1
  Sn  Sn39  1  0.83345951  0.83396665  0.49915944  1
  Pb  Pb40  1  0.49980192  0.83338806  0.83313532  1
  Pb  Pb41  1  0.83319963  0.50397913  0.16653294  1
  Pb  Pb42  1  0.16683449  0.83336270  0.83639706  1
  Pb  Pb43  1  0.83351545  0.83578111  0.83373237  1
  Pb  Pb44  1  0.49955111  0.16669806  0.83288442  1
  Pb  Pb45  1  0.83314804  0.16579951  0.16648134  1
  Pb  Pb46  1  0.16471785  0.83310830  0.49805120  1
  Pb  Pb47  1  0.49648239  0.49947000  0.82981572  1
  Pb  Pb48  1  0.50306377  0.83336273  0.50016782  1
  Pb  Pb49  1  0.83623307  0.49666567  0.83322758  1
  Pb  Pb50  1  0.83369521  0.49990964  0.49985243  1
  Pb  Pb51  1  0.49989426  0.49666571  0.16956638  1
  Pb  Pb52  1  0.50039900  0.83578114  0.16684877  1
  Pb  Pb53  1  0.16651904  0.49990966  0.16702860  1
  I  I54  1  0.16632981  0.00206467  0.16728477  1
  I  I55  1  0.16887171  0.00343177  0.50220510  1
  I  I56  1  0.16317766  0.00374484  0.83055698  1
  I  I57  1  0.17011146  0.32968637  0.16664114  1
  I  I58  1  0.16528631  0.33135938  0.49861944  1
  I  I59  1  0.16277253  0.33139933  0.83402476  1
  I  I60  1  0.16093797  0.66950935  0.16743595  1
  I  I61  1  0.16961087  0.66373084  0.50294436  1
  I  I62  1  0.16718788  0.66365937  0.82799208  1
  I  I63  1  0.49778967  0.00390537  0.17378236  1
  I  I64  1  0.49722391  0.00374484  0.49651132  1
  I  I65  1  0.49818732  0.00094366  0.83152064  1
  I  I66  1  0.49315310  0.32858514  0.16784468  1
  I  I67  1  0.50069098  0.33139931  0.49610562  1
  I  I68  1  0.50346581  0.33292287  0.83679942  1
  I  I69  1  0.49945390  0.66660075  0.16748497  1
  I  I70  1  0.49465879  0.66365934  0.50052114  1
  I  I71  1  0.49922359  0.66596710  0.83255663  1
  I  I72  1  0.83555978  -0.00204188  0.16889310  1
  I  I73  1  0.83395110  0.00206467  0.49966291  1
  I  I74  1  0.84044936  0.00390537  0.83112307  1
  I  I75  1  0.83406423  0.33296820  0.16739774  1
  I  I76  1  0.83330803  0.32968640  0.50344487  1
  I  I77  1  0.83451115  0.32858513  0.82648608  1
  I  I78  1  0.84230302  0.67217883  0.17563600  1
  I  I79  1  0.83410289  0.66950936  0.49427133  1
  I  I80  1  0.83415134  0.66660078  0.83278743  1
  I  I81  1  0.16581688  0.16677386  0.00007491  1
  I  I82  1  0.16677613  0.16691664  0.33412508  1
  I  I83  1  0.16574455  0.17114284  0.66577050  1
  I  I84  1  0.16381355  0.49543115  -0.00259316  1
  I  I85  1  0.16958652  0.49593052  0.33677997  1
  I  I86  1  0.16962860  0.49069095  0.66554030  1
  I  I87  1  0.15967962  0.83886097  0.00419820  1
  I  I88  1  0.16450930  0.83854540  0.33028035  1
  I  I89  1  0.16537222  0.83536062  0.66652319  1
  I  I90  1  0.49692153  0.16349339  0.00271753  1
  I  I91  1  0.49676054  0.16939263  0.33459859  1
  I  I92  1  0.49877825  0.17020139  0.66294357  1
  I  I93  1  0.49990933  0.50052000  -0.00025355  1
  I  I94  1  0.49217368  0.49851075  0.33743310  1
  I  I95  1  0.49997806  0.49080569  0.66222024  1
  I  I96  1  0.50165949  0.83572189  0.00054021  1
  I  I97  1  0.49854119  0.83166251  0.33352615  1
  I  I98  1  0.50052872  0.83693434  0.66596597  1
  I  I99  1  0.83749268  0.16478011  -0.00223583  1
  I  I100  1  0.83514970  0.16491527  0.33626176  1
  I  I101  1  0.83642363  0.16133249  0.66500460  1
  I  I102  1  0.83580030  0.49818389  -0.00030436  1
  I  I103  1  0.83664713  0.49443309  0.33376104  1
  I  I104  1  0.83092678  0.50530399  0.66635177  1
  I  I105  1  0.83911559  0.83658036  0.00308084  1
  I  I106  1  0.83719790  0.84080296  0.33391424  1
  I  I107  1  0.83285273  0.83584669  0.66379340  1
  I  I108  1  0.00292836  0.16491521  0.16848309  1
  I  I109  1  0.00079175  0.16691660  0.50010930  1
  I  I110  1  0.00126523  0.16939298  0.83009396  1
  I  I111  1  0.00042769  0.49443285  0.16997992  1
  I  I112  1  0.00344664  0.49593033  0.50291991  1
  I  I113  1  0.00409982  0.49851067  0.82550740  1
  I  I114  1  0.00058096  0.84080310  0.17053137  1
  I  I115  1  -0.00305294  0.83854566  0.49784222  1
  I  I116  1  0.00019277  0.83166205  0.83187481  1
  I  I117  1  0.33167131  0.16133275  0.16975678  1
  I  I118  1  0.33243717  0.17114253  0.49907795  1
  I  I119  1  0.32961028  0.17020108  0.83211162  1
  I  I120  1  0.33301842  0.50530380  0.16425984  1
  I  I121  1  0.33220691  0.49069124  0.50296208  1
  I  I122  1  0.32888695  0.49080593  0.83331140  1
  I  I123  1  0.33046007  0.83584649  0.16618568  1
  I  I124  1  0.33318987  0.83536068  0.49870593  1
  I  I125  1  0.33263260  0.83693441  0.83386181  1
  I  I126  1  0.66443079  0.16477995  0.17082601  1
  I  I127  1  0.66674154  0.16677416  0.49915019  1
  I  I128  1  0.66938426  0.16349331  0.83025478  1
  I  I129  1  0.66636227  0.49818405  0.16913456  1
  I  I130  1  0.66407352  0.49543098  0.49714667  1
  I  I131  1  0.66641310  0.50051980  0.83324212  1
  I  I132  1  0.66974750  0.83658026  0.17244895  1
  I  I133  1  0.67086476  0.83886055  0.49301294  1
  I  I134  1  0.66720692  0.83572216  0.83499251  1
