# generated using pymatgen
data_Cs27Sn14Pb13I81
_symmetry_space_group_name_H-M   'P 1'
_cell_length_a   18.95286026
_cell_length_b   18.96653800
_cell_length_c   18.96259370
_cell_angle_alpha   90.00007640
_cell_angle_beta   90.00115400
_cell_angle_gamma   90.00089428
_symmetry_Int_Tables_number   1
_chemical_formula_structural   Cs27Sn14Pb13I81
_chemical_formula_sum   'Cs27 Sn14 Pb13 I81'
_cell_volume   6816.48629262
_cell_formula_units_Z   1
loop_
 _symmetry_equiv_pos_site_id
 _symmetry_equiv_pos_as_xyz
  1  'x, y, z'
loop_
 _atom_site_type_symbol
 _atom_site_label
 _atom_site_symmetry_multiplicity
 _atom_site_fract_x
 _atom_site_fract_y
 _atom_site_fract_z
 _atom_site_occupancy
  Cs  Cs0  1  0.00078956  -0.00059946  -0.00067692  1
  Cs  Cs1  1  0.00011225  -0.00087556  0.33497831  1
  Cs  Cs2  1  0.00047548  -0.00159294  0.66586377  1
  Cs  Cs3  1  -0.00189725  0.33536164  0.00265327  1
  Cs  Cs4  1  -0.00042674  0.33635175  0.33259071  1
  Cs  Cs5  1  0.00172829  0.33543959  0.66403278  1
  Cs  Cs6  1  0.00111640  0.66605225  0.00002349  1
  Cs  Cs7  1  -0.00039691  0.66639130  0.33214863  1
  Cs  Cs8  1  -0.00146443  0.66827991  0.66803463  1
  Cs  Cs9  1  0.33224535  0.00061662  0.00281975  1
  Cs  Cs10  1  0.33443441  0.00070812  0.33147689  1
  Cs  Cs11  1  0.33008069  0.00203031  0.66661918  1
  Cs  Cs12  1  0.33461291  0.33237163  0.00008118  1
  Cs  Cs13  1  0.33243705  0.33252277  0.33388567  1
  Cs  Cs14  1  0.33478348  0.33517579  0.66484446  1
  Cs  Cs15  1  0.33253550  0.66747275  0.00103637  1
  Cs  Cs16  1  0.33697289  0.66511843  0.33385103  1
  Cs  Cs17  1  0.34010234  0.66311954  0.66568522  1
  Cs  Cs18  1  0.66747262  0.00141453  -0.00778617  1
  Cs  Cs19  1  0.66590648  0.00047509  0.33326450  1
  Cs  Cs20  1  0.66736417  0.00025750  0.67202696  1
  Cs  Cs21  1  0.66688899  0.32996618  0.00132986  1
  Cs  Cs22  1  0.66856571  0.33083338  0.33065615  1
  Cs  Cs23  1  0.66450162  0.33423975  0.66819363  1
  Cs  Cs24  1  0.66278276  0.66951717  -0.00215531  1
  Cs  Cs25  1  0.66567559  0.66872953  0.33501137  1
  Cs  Cs26  1  0.66350307  0.66564053  0.66707746  1
  Sn  Sn27  1  0.50093392  0.16634153  0.49938643  1
  Sn  Sn28  1  0.16636026  0.16711886  0.83416546  1
  Sn  Sn29  1  0.50003628  0.49925019  0.16680931  1
  Sn  Sn30  1  0.49944219  0.16739999  0.16738058  1
  Sn  Sn31  1  0.83390521  0.83364699  0.16704187  1
  Sn  Sn32  1  0.83397802  0.83337189  0.49931426  1
  Sn  Sn33  1  0.83354057  0.50017364  0.50060241  1
  Sn  Sn34  1  0.16579317  0.83396397  0.16718073  1
  Sn  Sn35  1  0.16599821  0.49995136  0.83332669  1
  Sn  Sn36  1  0.16641769  0.83302901  0.49970705  1
  Sn  Sn37  1  0.16637807  0.83301309  0.83316734  1
  Sn  Sn38  1  0.83249017  0.16650071  0.49986407  1
  Sn  Sn39  1  0.16685688  0.16630200  0.16612864  1
  Sn  Sn40  1  0.83396671  0.49992814  0.83277857  1
  Pb  Pb41  1  0.16821491  0.50013407  0.16493537  1
  Pb  Pb42  1  0.16492614  0.50298210  0.50212328  1
  Pb  Pb43  1  0.83509705  0.83145457  0.83308002  1
  Pb  Pb44  1  0.49755645  0.16668680  0.83348061  1
  Pb  Pb45  1  0.16641104  0.16524922  0.49951128  1
  Pb  Pb46  1  0.49659294  0.83346365  0.83313298  1
  Pb  Pb47  1  0.83366091  0.16433236  0.16825226  1
  Pb  Pb48  1  0.50048254  0.83590341  0.50012448  1
  Pb  Pb49  1  0.83614930  0.16909725  0.83066895  1
  Pb  Pb50  1  0.50021980  0.49978345  0.83562348  1
  Pb  Pb51  1  0.83118606  0.50258385  0.16645438  1
  Pb  Pb52  1  0.50279631  0.49744652  0.49776366  1
  Pb  Pb53  1  0.50008789  0.83436050  0.16669071  1
  I  I54  1  0.16879392  -0.00023851  0.16252224  1
  I  I55  1  0.16177333  -0.00291820  0.50383243  1
  I  I56  1  0.16816290  -0.00039538  0.83397509  1
  I  I57  1  0.16927694  0.33052776  0.16249779  1
  I  I58  1  0.16555879  0.33343533  0.50074241  1
  I  I59  1  0.16316045  0.33316474  0.83800779  1
  I  I60  1  0.16452862  0.66976500  0.16577917  1
  I  I61  1  0.16135006  0.67129756  0.49803783  1
  I  I62  1  0.16188568  0.66710076  0.83404930  1
  I  I63  1  0.49699501  0.00332241  0.17131166  1
  I  I64  1  0.50367261  0.00373517  0.49258798  1
  I  I65  1  0.50038795  0.00035383  0.83548448  1
  I  I66  1  0.49486538  0.33170214  0.17001371  1
  I  I67  1  0.50300888  0.32955758  0.49837172  1
  I  I68  1  0.49671848  0.33321647  0.83176894  1
  I  I69  1  0.50003125  0.66490866  0.16496622  1
  I  I70  1  0.49967830  0.66647631  0.49866251  1
  I  I71  1  0.49786871  0.66637116  0.83576821  1
  I  I72  1  0.83411487  -0.00362838  0.17222675  1
  I  I73  1  0.83414857  -0.00068149  0.49468447  1
  I  I74  1  0.83397837  -0.00000131  0.83281056  1
  I  I75  1  0.83518523  0.33325674  0.16805581  1
  I  I76  1  0.82909421  0.33324741  0.50449230  1
  I  I77  1  0.83920592  0.33693420  0.82924345  1
  I  I78  1  0.83879275  0.67033049  0.17166808  1
  I  I79  1  0.83922683  0.66740036  0.49976012  1
  I  I80  1  0.83962093  0.66364974  0.82895671  1
  I  I81  1  0.17202561  0.16184665  0.00074943  1
  I  I82  1  0.16823991  0.16137426  0.33058904  1
  I  I83  1  0.16607477  0.16500126  0.66882659  1
  I  I84  1  0.16122852  0.50390693  -0.00336570  1
  I  I85  1  0.16609909  0.49961475  0.33338147  1
  I  I86  1  0.16562636  0.49824305  0.67048336  1
  I  I87  1  0.16331635  0.83416106  0.00048680  1
  I  I88  1  0.16230985  0.83924565  0.33270502  1
  I  I89  1  0.16202466  0.83493283  0.66661563  1
  I  I90  1  0.49702577  0.16972358  0.00326546  1
  I  I91  1  0.49732753  0.17003134  0.33250705  1
  I  I92  1  0.50265325  0.16531043  0.66382498  1
  I  I93  1  0.50133359  0.49402258  0.00331462  1
  I  I94  1  0.49990480  0.49893444  0.33014465  1
  I  I95  1  0.49812374  0.49898341  0.66645586  1
  I  I96  1  0.50206142  0.83451268  0.00035521  1
  I  I97  1  0.49535533  0.83113600  0.33328318  1
  I  I98  1  0.49995025  0.83450601  0.66634437  1
  I  I99  1  0.83091588  0.16651976  -0.00007245  1
  I  I100  1  0.83463108  0.17053784  0.33662710  1
  I  I101  1  0.82938374  0.16103973  0.66242753  1
  I  I102  1  0.83686625  0.50214197  -0.00245787  1
  I  I103  1  0.83135161  0.49916267  0.33607624  1
  I  I104  1  0.83795684  0.50156439  0.66598932  1
  I  I105  1  0.83708628  0.83152917  0.00235398  1
  I  I106  1  0.84134892  0.83155065  0.33440162  1
  I  I107  1  0.83799607  0.83517589  0.66353107  1
  I  I108  1  0.00303874  0.16382809  0.16408040  1
  I  I109  1  -0.00262695  0.16710227  0.50068737  1
  I  I110  1  0.00430305  0.16341874  0.83793964  1
  I  I111  1  -0.00016874  0.49796665  0.16763639  1
  I  I112  1  -0.00352604  0.49472030  0.49983213  1
  I  I113  1  0.00080615  0.50044984  0.83046058  1
  I  I114  1  0.00145597  0.83774103  0.16754629  1
  I  I115  1  -0.00036995  0.83620174  0.49948246  1
  I  I116  1  0.00363474  0.83544670  0.83343646  1
  I  I117  1  0.33263955  0.16461286  0.16837455  1
  I  I118  1  0.33515370  0.16424630  0.49909177  1
  I  I119  1  0.32905159  0.16761386  0.83219774  1
  I  I120  1  0.33599790  0.50038018  0.16471069  1
  I  I121  1  0.33345162  0.50021575  0.50131325  1
  I  I122  1  0.33005264  0.50111302  0.83541674  1
  I  I123  1  0.32981838  0.83445300  0.16599598  1
  I  I124  1  0.33010296  0.83584962  0.49984196  1
  I  I125  1  0.32761911  0.83092763  0.83432204  1
  I  I126  1  0.66426874  0.16914822  0.17011716  1
  I  I127  1  0.66716884  0.16541304  0.49355871  1
  I  I128  1  0.66704663  0.16847149  0.83559426  1
  I  I129  1  0.66365900  0.49455250  0.16572157  1
  I  I130  1  0.67099305  0.50581388  0.50619402  1
  I  I131  1  0.66970232  0.50097487  0.82944335  1
  I  I132  1  0.66954214  0.83165660  0.17327832  1
  I  I133  1  0.67041533  0.83138856  0.49413968  1
  I  I134  1  0.66708615  0.83120648  0.83420351  1
