# generated using pymatgen
data_Cs27Sn14Pb13I81
_symmetry_space_group_name_H-M   'P 1'
_cell_length_a   18.98176467
_cell_length_b   18.97876165
_cell_length_c   18.96701384
_cell_angle_alpha   90.00059413
_cell_angle_beta   89.99868765
_cell_angle_gamma   89.99890568
_symmetry_Int_Tables_number   1
_chemical_formula_structural   Cs27Sn14Pb13I81
_chemical_formula_sum   'Cs27 Sn14 Pb13 I81'
_cell_volume   6832.87408182
_cell_formula_units_Z   1
loop_
 _symmetry_equiv_pos_site_id
 _symmetry_equiv_pos_as_xyz
  1  'x, y, z'
loop_
 _atom_site_type_symbol
 _atom_site_label
 _atom_site_symmetry_multiplicity
 _atom_site_fract_x
 _atom_site_fract_y
 _atom_site_fract_z
 _atom_site_occupancy
  Cs  Cs0  1  0.00325464  -0.00185755  -0.00069188  1
  Cs  Cs1  1  0.00175393  0.00298539  0.33641126  1
  Cs  Cs2  1  -0.00085963  0.00027568  0.66531823  1
  Cs  Cs3  1  0.00087699  0.33549278  -0.00116124  1
  Cs  Cs4  1  -0.00023519  0.32958078  0.34026880  1
  Cs  Cs5  1  0.00188941  0.33903960  0.65970829  1
  Cs  Cs6  1  -0.00204405  0.66543093  0.00179772  1
  Cs  Cs7  1  -0.00042895  0.66764416  0.32579092  1
  Cs  Cs8  1  -0.00841466  0.65981666  0.66772265  1
  Cs  Cs9  1  0.33310147  -0.00040459  -0.00107788  1
  Cs  Cs10  1  0.33110677  -0.00228520  0.33382091  1
  Cs  Cs11  1  0.33410332  0.00121801  0.66857171  1
  Cs  Cs12  1  0.33519971  0.33278597  -0.00071754  1
  Cs  Cs13  1  0.33266765  0.33364729  0.33563210  1
  Cs  Cs14  1  0.33120995  0.33273306  0.66603663  1
  Cs  Cs15  1  0.33265318  0.66762189  0.00101454  1
  Cs  Cs16  1  0.33543225  0.66847549  0.33279538  1
  Cs  Cs17  1  0.33463538  0.66579213  0.66395742  1
  Cs  Cs18  1  0.66530766  0.00255404  -0.00075593  1
  Cs  Cs19  1  0.66983062  0.00278424  0.33443210  1
  Cs  Cs20  1  0.66612562  -0.00397847  0.66798547  1
  Cs  Cs21  1  0.66399160  0.33101361  0.00226733  1
  Cs  Cs22  1  0.67027592  0.33097025  0.33025351  1
  Cs  Cs23  1  0.66504880  0.33495181  0.66612114  1
  Cs  Cs24  1  0.66717942  0.66633938  -0.00033178  1
  Cs  Cs25  1  0.66480838  0.66684006  0.33743073  1
  Cs  Cs26  1  0.67211580  0.66912761  0.65831965  1
  Sn  Sn27  1  0.50116328  0.83286588  0.16586947  1
  Sn  Sn28  1  0.49991592  0.16667335  0.83230616  1
  Sn  Sn29  1  0.16710803  0.49837492  0.16619882  1
  Sn  Sn30  1  0.83282296  0.50041414  0.16613367  1
  Sn  Sn31  1  0.16705146  0.83333046  0.83184714  1
  Sn  Sn32  1  0.16620989  0.16636453  0.83393182  1
  Sn  Sn33  1  0.50001355  0.50079594  0.16573055  1
  Sn  Sn34  1  0.49936698  0.83253184  0.83395954  1
  Sn  Sn35  1  0.16691780  0.16779315  0.16585893  1
  Sn  Sn36  1  0.83387472  0.16689745  0.83346836  1
  Sn  Sn37  1  0.16655383  0.83275603  0.50207764  1
  Sn  Sn38  1  0.49996516  0.16645580  0.50090068  1
  Sn  Sn39  1  0.83174484  0.83333753  0.16605649  1
  Sn  Sn40  1  0.49997079  0.50071811  0.83375818  1
  Pb  Pb41  1  0.83313681  0.49998403  0.49670081  1
  Pb  Pb42  1  0.49870120  0.83516983  0.50004097  1
  Pb  Pb43  1  0.16690060  0.50323812  0.49706898  1
  Pb  Pb44  1  0.16706251  0.83332908  0.16571575  1
  Pb  Pb45  1  0.83640666  0.83344857  0.49693496  1
  Pb  Pb46  1  0.83050499  0.16647972  0.50348077  1
  Pb  Pb47  1  0.16855173  0.50042600  0.83491437  1
  Pb  Pb48  1  0.83619818  0.16660689  0.16472761  1
  Pb  Pb49  1  0.16835812  0.16515739  0.50090900  1
  Pb  Pb50  1  0.49817031  0.16638389  0.16628629  1
  Pb  Pb51  1  0.83334447  0.83478060  0.83519423  1
  Pb  Pb52  1  0.83033593  0.49761388  0.83549487  1
  Pb  Pb53  1  0.49992586  0.49769878  0.49965735  1
  I  I54  1  0.16737519  0.00188017  0.16547100  1
  I  I55  1  0.16874700  -0.00251964  0.49657160  1
  I  I56  1  0.17190126  0.00067063  0.83698852  1
  I  I57  1  0.16796524  0.33325988  0.16049118  1
  I  I58  1  0.16741164  0.33336788  0.50055353  1
  I  I59  1  0.16872641  0.33036755  0.83739650  1
  I  I60  1  0.16665695  0.66451460  0.16725895  1
  I  I61  1  0.16973164  0.67091838  0.50447391  1
  I  I62  1  0.17244905  0.66976635  0.83263250  1
  I  I63  1  0.50192022  -0.00272564  0.16344997  1
  I  I64  1  0.49799304  0.00285783  0.50415454  1
  I  I65  1  0.49895993  -0.00001243  0.83422697  1
  I  I66  1  0.50178014  0.33591603  0.16368083  1
  I  I67  1  0.49790506  0.32986551  0.50453919  1
  I  I68  1  0.50012410  0.33269945  0.83474649  1
  I  I69  1  0.49760328  0.66663774  0.15957554  1
  I  I70  1  0.49859468  0.66682945  0.50140346  1
  I  I71  1  0.49330604  0.66762057  0.84075494  1
  I  I72  1  0.82954106  -0.00242342  0.16494091  1
  I  I73  1  0.83337092  0.00004971  0.49480912  1
  I  I74  1  0.82863244  0.00270237  0.83755798  1
  I  I75  1  0.82932892  0.33598318  0.16425904  1
  I  I76  1  0.83393835  0.33297645  0.49713887  1
  I  I77  1  0.83350500  0.32972190  0.83721850  1
  I  I78  1  0.83652736  0.66644547  0.16532436  1
  I  I79  1  0.83244994  0.66690951  0.50386800  1
  I  I80  1  0.83455979  0.66647119  0.83338956  1
  I  I81  1  0.17002317  0.16362689  -0.00127234  1
  I  I82  1  0.16879113  0.16796576  0.33096974  1
  I  I83  1  0.16661784  0.16336167  0.67047221  1
  I  I84  1  0.16578965  0.50090980  0.00347580  1
  I  I85  1  0.16942304  0.49535081  0.32824586  1
  I  I86  1  0.16913773  0.49683369  0.66683254  1
  I  I87  1  0.16872335  0.83590310  -0.00265978  1
  I  I88  1  0.16686391  0.83352160  0.33431387  1
  I  I89  1  0.17446675  0.84183701  0.66896857  1
  I  I90  1  0.50084099  0.16657427  -0.00319201  1
  I  I91  1  0.49639309  0.16630331  0.33474308  1
  I  I92  1  0.49755086  0.16635342  0.66960761  1
  I  I93  1  0.49949063  0.49791609  0.00075826  1
  I  I94  1  0.49974861  0.50369737  0.32935489  1
  I  I95  1  0.49855910  0.50119676  0.67008049  1
  I  I96  1  0.49706454  0.83542420  -0.00051730  1
  I  I97  1  0.50039435  0.83003643  0.33017672  1
  I  I98  1  0.49701814  0.83240246  0.67020419  1
  I  I99  1  0.82664669  0.16637838  -0.00282868  1
  I  I100  1  0.83322744  0.16716335  0.33311613  1
  I  I101  1  0.83856670  0.16506468  0.67149206  1
  I  I102  1  0.83580129  0.50403047  0.00369471  1
  I  I103  1  0.83029754  0.50297200  0.32796541  1
  I  I104  1  0.83231087  0.49873272  0.66713683  1
  I  I105  1  0.83463854  0.82980107  0.00329793  1
  I  I106  1  0.82864303  0.82958730  0.32856595  1
  I  I107  1  0.83075672  0.83544154  0.66687069  1
  I  I108  1  0.00406958  0.16835628  0.16140566  1
  I  I109  1  0.00011686  0.16534179  0.49879691  1
  I  I110  1  0.00149490  0.16015501  0.84114959  1
  I  I111  1  0.00011446  0.50231576  0.16685688  1
  I  I112  1  0.00020479  0.49863701  0.49985715  1
  I  I113  1  -0.00006579  0.49965331  0.83586620  1
  I  I114  1  -0.00147232  0.83022036  0.16676811  1
  I  I115  1  0.00420918  0.83630662  0.50398849  1
  I  I116  1  0.00298491  0.83984447  0.83268905  1
  I  I117  1  0.33037807  0.16890215  0.16132005  1
  I  I118  1  0.33596137  0.16587596  0.50531437  1
  I  I119  1  0.33367077  0.16542032  0.83402579  1
  I  I120  1  0.33418478  0.50081008  0.16281498  1
  I  I121  1  0.33343370  0.49948400  0.49591671  1
  I  I122  1  0.33676185  0.49551909  0.84051730  1
  I  I123  1  0.33582361  0.83076902  0.16561793  1
  I  I124  1  0.33092343  0.83529992  0.49740107  1
  I  I125  1  0.33425040  0.83883524  0.83680065  1
  I  I126  1  0.66659774  0.16852758  0.16648923  1
  I  I127  1  0.66258488  0.16567537  0.50283934  1
  I  I128  1  0.66496169  0.16641957  0.82982651  1
  I  I129  1  0.66565736  0.50435573  0.16226280  1
  I  I130  1  0.66628302  0.49991385  0.49891331  1
  I  I131  1  0.66208339  0.49936294  0.84009631  1
  I  I132  1  0.66513519  0.82662118  0.16117784  1
  I  I133  1  0.66669736  0.83451420  0.50138545  1
  I  I134  1  0.66330189  0.83550545  0.83700932  1
