# generated using pymatgen
data_Cs27Sn13Pb14I81
_symmetry_space_group_name_H-M   'P 1'
_cell_length_a   18.98289045
_cell_length_b   18.99366153
_cell_length_c   18.99903909
_cell_angle_alpha   89.99964997
_cell_angle_beta   90.00226940
_cell_angle_gamma   90.00141222
_symmetry_Int_Tables_number   1
_chemical_formula_structural   Cs27Sn13Pb14I81
_chemical_formula_sum   'Cs27 Sn13 Pb14 I81'
_cell_volume   6850.19085770
_cell_formula_units_Z   1
loop_
 _symmetry_equiv_pos_site_id
 _symmetry_equiv_pos_as_xyz
  1  'x, y, z'
loop_
 _atom_site_type_symbol
 _atom_site_label
 _atom_site_symmetry_multiplicity
 _atom_site_fract_x
 _atom_site_fract_y
 _atom_site_fract_z
 _atom_site_occupancy
  Cs  Cs0  1  0.00905253  0.01028052  -0.00015581  1
  Cs  Cs1  1  0.00084447  0.00186530  0.33134143  1
  Cs  Cs2  1  0.00473131  0.00357134  0.66770885  1
  Cs  Cs3  1  0.00239523  0.32533526  -0.00375070  1
  Cs  Cs4  1  0.00238162  0.33084886  0.33007614  1
  Cs  Cs5  1  -0.00391559  0.32897084  0.67369582  1
  Cs  Cs6  1  -0.00348281  0.66463816  0.00276561  1
  Cs  Cs7  1  0.00230921  0.66733292  0.33442486  1
  Cs  Cs8  1  -0.00421820  0.66683317  0.66337188  1
  Cs  Cs9  1  0.33123998  0.00035531  -0.00450509  1
  Cs  Cs10  1  0.33277105  -0.00162717  0.33374502  1
  Cs  Cs11  1  0.32937870  -0.00195285  0.67101478  1
  Cs  Cs12  1  0.33429586  0.33404787  0.00032000  1
  Cs  Cs13  1  0.33396971  0.33831029  0.33829588  1
  Cs  Cs14  1  0.33563649  0.33548562  0.66269657  1
  Cs  Cs15  1  0.33404837  0.66640851  -0.00119713  1
  Cs  Cs16  1  0.32567067  0.66350236  0.33522358  1
  Cs  Cs17  1  0.32962825  0.66666154  0.66642119  1
  Cs  Cs18  1  0.66324161  -0.00348240  0.00372003  1
  Cs  Cs19  1  0.66785054  -0.00099258  0.33349567  1
  Cs  Cs20  1  0.66665341  -0.00308827  0.66195064  1
  Cs  Cs21  1  0.66584139  0.33603668  -0.00053208  1
  Cs  Cs22  1  0.66447464  0.33111534  0.33508406  1
  Cs  Cs23  1  0.66668379  0.33141669  0.66490870  1
  Cs  Cs24  1  0.66602320  0.66625237  0.00088655  1
  Cs  Cs25  1  0.66753206  0.66834661  0.33174894  1
  Cs  Cs26  1  0.66932729  0.66832242  0.66665621  1
  Sn  Sn27  1  0.83299606  0.83284778  0.16632074  1
  Sn  Sn28  1  0.16696337  0.16696491  0.49974497  1
  Sn  Sn29  1  0.50081396  0.16737295  0.83366416  1
  Sn  Sn30  1  0.49946800  0.49950950  0.83363988  1
  Sn  Sn31  1  0.16726336  0.50060967  0.83351410  1
  Sn  Sn32  1  0.83259053  0.83260509  0.49957684  1
  Sn  Sn33  1  0.83364243  0.83399945  0.83418758  1
  Sn  Sn34  1  0.83249403  0.50029973  0.16762470  1
  Sn  Sn35  1  0.50021135  0.16673129  0.16617392  1
  Sn  Sn36  1  0.83281984  0.50010270  0.49873805  1
  Sn  Sn37  1  0.50013606  0.83267118  0.49901301  1
  Sn  Sn38  1  0.50005247  0.83278372  0.16779667  1
  Sn  Sn39  1  0.50081622  0.50031072  0.16631628  1
  Pb  Pb40  1  0.82998824  0.16337580  0.83355688  1
  Pb  Pb41  1  0.50183946  0.50245496  0.49996698  1
  Pb  Pb42  1  0.16306550  0.49809359  0.50237838  1
  Pb  Pb43  1  0.83254676  0.50120148  0.83398119  1
  Pb  Pb44  1  0.83096940  0.16680931  0.16656052  1
  Pb  Pb45  1  0.16646787  0.83317097  0.16645442  1
  Pb  Pb46  1  0.17049955  0.16695546  0.16881157  1
  Pb  Pb47  1  0.16985951  0.16910154  0.83161957  1
  Pb  Pb48  1  0.16624608  0.49998717  0.16464658  1
  Pb  Pb49  1  0.49867768  0.16400567  0.50002051  1
  Pb  Pb50  1  0.16608276  0.83474339  0.49993902  1
  Pb  Pb51  1  0.83508352  0.16633306  0.49984150  1
  Pb  Pb52  1  0.50128856  0.83274509  0.83354916  1
  Pb  Pb53  1  0.16325060  0.83059153  0.83353803  1
  I  I54  1  0.16534884  0.00017156  0.16633695  1
  I  I55  1  0.16611598  0.00237003  0.50173917  1
  I  I56  1  0.16663981  0.00032573  0.83197898  1
  I  I57  1  0.16463612  0.33342789  0.16705268  1
  I  I58  1  0.16857045  0.33084354  0.49985164  1
  I  I59  1  0.16537674  0.33661590  0.83290465  1
  I  I60  1  0.17154587  0.66644660  0.16687561  1
  I  I61  1  0.16806391  0.66643179  0.50125683  1
  I  I62  1  0.17673049  0.66319252  0.83269188  1
  I  I63  1  0.50436338  -0.00085713  0.16692626  1
  I  I64  1  0.50677888  -0.00371464  0.49654051  1
  I  I65  1  0.50291421  0.00176051  0.83620043  1
  I  I66  1  0.50383178  0.33427972  0.16114998  1
  I  I67  1  0.50055828  0.33350324  0.49810842  1
  I  I68  1  0.49675632  0.33426004  0.84114660  1
  I  I69  1  0.50536168  0.66641650  0.16481244  1
  I  I70  1  0.50229698  0.67032957  0.49730673  1
  I  I71  1  0.49803967  0.66382904  0.83684869  1
  I  I72  1  0.82823969  -0.00356702  0.16883387  1
  I  I73  1  0.82971063  -0.00379440  0.49907374  1
  I  I74  1  0.83090613  -0.00466896  0.83174770  1
  I  I75  1  0.82898333  0.33686379  0.17175735  1
  I  I76  1  0.83440478  0.33637625  0.49600911  1
  I  I77  1  0.83613653  0.33339458  0.83235451  1
  I  I78  1  0.82480662  0.66704105  0.16670420  1
  I  I79  1  0.82984323  0.66774841  0.50030765  1
  I  I80  1  0.83027527  0.66917516  0.83250176  1
  I  I81  1  0.16438055  0.16704228  -0.00016807  1
  I  I82  1  0.16683378  0.16599153  0.33614526  1
  I  I83  1  0.16799655  0.16592255  0.66429654  1
  I  I84  1  0.16647516  0.49926700  -0.00305599  1
  I  I85  1  0.16921544  0.49869660  0.33348401  1
  I  I86  1  0.17365748  0.49969908  0.66979536  1
  I  I87  1  0.16764060  0.83489044  -0.00012459  1
  I  I88  1  0.16440289  0.83384502  0.33334761  1
  I  I89  1  0.16821001  0.83429939  0.66670700  1
  I  I90  1  0.50070813  0.16496372  0.00061221  1
  I  I91  1  0.49878423  0.16896421  0.33038055  1
  I  I92  1  0.49837790  0.17065206  0.66914380  1
  I  I93  1  0.50220110  0.50134796  0.00095799  1
  I  I94  1  0.50278689  0.49659414  0.33024238  1
  I  I95  1  0.49817323  0.49624633  0.66926156  1
  I  I96  1  0.50514019  0.83331919  0.00304357  1
  I  I97  1  0.50839009  0.83518459  0.33220255  1
  I  I98  1  0.50550622  0.83418886  0.66465238  1
  I  I99  1  0.83726026  0.16760191  0.00003763  1
  I  I100  1  0.83170983  0.16337122  0.33322441  1
  I  I101  1  0.83130700  0.16780048  0.66668107  1
  I  I102  1  0.83121886  0.50604687  0.00295881  1
  I  I103  1  0.82763362  0.50813525  0.33241462  1
  I  I104  1  0.83393135  0.50540807  0.66486625  1
  I  I105  1  0.82678392  0.82690991  0.00157166  1
  I  I106  1  0.82782854  0.82894057  0.33310618  1
  I  I107  1  0.82831687  0.82833914  0.66547999  1
  I  I108  1  0.00012897  0.16591648  0.16746154  1
  I  I109  1  0.00276396  0.16531194  0.50169938  1
  I  I110  1  0.00021678  0.16740970  0.83195712  1
  I  I111  1  -0.00375947  0.50732584  0.16980722  1
  I  I112  1  -0.00459456  0.50811543  0.49550029  1
  I  I113  1  0.00139710  0.50363547  0.83145217  1
  I  I114  1  -0.00419424  0.82665372  0.16882199  1
  I  I115  1  -0.00395225  0.82982996  0.49935435  1
  I  I116  1  -0.00491548  0.83000674  0.83155995  1
  I  I117  1  0.33863280  0.16574093  0.16178484  1
  I  I118  1  0.33122324  0.16529253  0.50003999  1
  I  I119  1  0.33743778  0.16535337  0.83794806  1
  I  I120  1  0.33701065  0.50056730  0.16442508  1
  I  I121  1  0.33339770  0.50104035  0.49796293  1
  I  I122  1  0.33543806  0.49650900  0.83885504  1
  I  I123  1  0.33756915  0.83259689  0.17165881  1
  I  I124  1  0.33624930  0.83534317  0.49517421  1
  I  I125  1  0.33353526  0.83587302  0.83248161  1
  I  I126  1  0.66271870  0.16604140  0.16438078  1
  I  I127  1  0.66646004  0.16737993  0.50065154  1
  I  I128  1  0.66242261  0.17585216  0.83577196  1
  I  I129  1  0.66569644  0.50137956  0.16355056  1
  I  I130  1  0.66973898  0.50139025  0.50182099  1
  I  I131  1  0.66366641  0.49735020  0.83532402  1
  I  I132  1  0.66632305  0.83288681  0.16728688  1
  I  I133  1  0.66756406  0.83150808  0.49979220  1
  I  I134  1  0.66922070  0.83064766  0.83260663  1
