# generated using pymatgen
data_Cs27Sn14Pb13I81
_symmetry_space_group_name_H-M   'P 1'
_cell_length_a   18.98232492
_cell_length_b   18.97400340
_cell_length_c   18.97064037
_cell_angle_alpha   89.99893941
_cell_angle_beta   90.00193183
_cell_angle_gamma   89.99866727
_symmetry_Int_Tables_number   1
_chemical_formula_structural   Cs27Sn14Pb13I81
_chemical_formula_sum   'Cs27 Sn14 Pb13 I81'
_cell_volume   6832.66876951
_cell_formula_units_Z   1
loop_
 _symmetry_equiv_pos_site_id
 _symmetry_equiv_pos_as_xyz
  1  'x, y, z'
loop_
 _atom_site_type_symbol
 _atom_site_label
 _atom_site_symmetry_multiplicity
 _atom_site_fract_x
 _atom_site_fract_y
 _atom_site_fract_z
 _atom_site_occupancy
  Cs  Cs0  1  0.00248936  -0.00974622  0.00371589  1
  Cs  Cs1  1  0.00026356  -0.00016030  0.33374497  1
  Cs  Cs2  1  -0.00197957  0.00421958  0.66120075  1
  Cs  Cs3  1  0.00083601  0.33451505  0.00293785  1
  Cs  Cs4  1  -0.00069022  0.33177678  0.33218305  1
  Cs  Cs5  1  -0.00171409  0.33538687  0.67043359  1
  Cs  Cs6  1  -0.00032091  0.67289770  -0.00571070  1
  Cs  Cs7  1  -0.00244329  0.66891691  0.33314623  1
  Cs  Cs8  1  0.00176453  0.66107794  0.67201510  1
  Cs  Cs9  1  0.33393753  0.00053915  -0.00202613  1
  Cs  Cs10  1  0.33315766  0.00075415  0.33392143  1
  Cs  Cs11  1  0.33596448  -0.00035397  0.66513330  1
  Cs  Cs12  1  0.33447960  0.33078186  0.00371326  1
  Cs  Cs13  1  0.33366656  0.33437223  0.33172827  1
  Cs  Cs14  1  0.33097912  0.33566032  0.66604723  1
  Cs  Cs15  1  0.33268913  0.66929126  -0.00337951  1
  Cs  Cs16  1  0.33718981  0.66457423  0.33571674  1
  Cs  Cs17  1  0.33019302  0.66340183  0.66663886  1
  Cs  Cs18  1  0.66462210  -0.00238706  -0.00681301  1
  Cs  Cs19  1  0.66582721  -0.00042122  0.33496944  1
  Cs  Cs20  1  0.66516629  0.00266328  0.66992880  1
  Cs  Cs21  1  0.66580762  0.33453833  -0.00007399  1
  Cs  Cs22  1  0.66705511  0.33499892  0.33185907  1
  Cs  Cs23  1  0.67118786  0.32994397  0.67190262  1
  Cs  Cs24  1  0.66868003  0.66757019  -0.00325845  1
  Cs  Cs25  1  0.66543571  0.66601771  0.33355828  1
  Cs  Cs26  1  0.66728389  0.66734032  0.66737042  1
  Sn  Sn27  1  0.16572832  0.50015939  0.16710915  1
  Sn  Sn28  1  0.16644746  0.16707243  0.16667612  1
  Sn  Sn29  1  0.16748268  0.16634428  0.50000142  1
  Sn  Sn30  1  0.49995891  0.83426700  0.16739329  1
  Sn  Sn31  1  0.49997396  0.83399418  0.49908792  1
  Sn  Sn32  1  0.49943885  0.16647958  0.49914517  1
  Sn  Sn33  1  0.83320170  0.16677216  0.16675953  1
  Sn  Sn34  1  0.16691803  0.83361368  0.49957290  1
  Sn  Sn35  1  0.49971984  0.49964673  0.83319271  1
  Sn  Sn36  1  0.16641134  0.16648477  0.83346993  1
  Sn  Sn37  1  0.50037769  0.16558130  0.16746128  1
  Sn  Sn38  1  0.83333163  0.50051826  0.49917849  1
  Sn  Sn39  1  0.83318722  0.83228566  0.49954872  1
  Sn  Sn40  1  0.83461667  0.49970951  0.16744346  1
  Pb  Pb41  1  0.16682117  0.83628327  0.82976463  1
  Pb  Pb42  1  0.83313389  0.16677243  0.49832553  1
  Pb  Pb43  1  0.50025201  0.50007793  0.16537640  1
  Pb  Pb44  1  0.16898548  0.83332631  0.16884343  1
  Pb  Pb45  1  0.16846035  0.49781491  0.83657102  1
  Pb  Pb46  1  0.83659520  0.16658237  0.83748093  1
  Pb  Pb47  1  0.49820852  0.16824584  0.83319525  1
  Pb  Pb48  1  0.83091666  0.83328251  0.16835913  1
  Pb  Pb49  1  0.50230111  0.49928736  0.50186210  1
  Pb  Pb50  1  0.83351907  0.83369063  0.82957907  1
  Pb  Pb51  1  0.49978774  0.83129578  0.83254261  1
  Pb  Pb52  1  0.83180059  0.49981705  0.83421473  1
  Pb  Pb53  1  0.16446513  0.49943521  0.49791598  1
  I  I54  1  0.16379219  0.00348272  0.16524527  1
  I  I55  1  0.16507295  0.00118098  0.49794033  1
  I  I56  1  0.16884805  0.00409635  0.84088480  1
  I  I57  1  0.16856379  0.33136843  0.16898382  1
  I  I58  1  0.17083074  0.32976023  0.50050153  1
  I  I59  1  0.16809002  0.33003998  0.82760587  1
  I  I60  1  0.16392413  0.66432524  0.16920913  1
  I  I61  1  0.17006507  0.66911113  0.49693305  1
  I  I62  1  0.16765277  0.66660638  0.83342945  1
  I  I63  1  0.49950823  0.00153380  0.17065569  1
  I  I64  1  0.50101560  0.00024922  0.49645709  1
  I  I65  1  0.49915494  0.00015112  0.83362575  1
  I  I66  1  0.49900727  0.33015856  0.16966356  1
  I  I67  1  0.49555459  0.32994714  0.49561933  1
  I  I68  1  0.49967703  0.33560392  0.83418641  1
  I  I69  1  0.49971638  0.66905461  0.17065747  1
  I  I70  1  0.49790770  0.66957227  0.49662010  1
  I  I71  1  0.50034691  0.66377983  0.83488797  1
  I  I72  1  0.83715148  0.00284664  0.16885237  1
  I  I73  1  0.83388861  -0.00221227  0.49811230  1
  I  I74  1  0.83115642  0.00038930  0.83304637  1
  I  I75  1  0.83226509  0.33322088  0.17327325  1
  I  I76  1  0.83282908  0.33542060  0.49739537  1
  I  I77  1  0.83199694  0.33315178  0.82614859  1
  I  I78  1  0.83585854  0.66394130  0.16942768  1
  I  I79  1  0.83209802  0.66697419  0.49316279  1
  I  I80  1  0.83270469  0.66656420  0.83797803  1
  I  I81  1  0.16750268  0.17329946  0.00181668  1
  I  I82  1  0.16759967  0.16642234  0.33306172  1
  I  I83  1  0.17247029  0.16117418  0.66496006  1
  I  I84  1  0.16154055  0.49396477  0.00456821  1
  I  I85  1  0.16718991  0.49300904  0.33011705  1
  I  I86  1  0.16589039  0.49943580  0.66651408  1
  I  I87  1  0.16862700  0.83347786  0.00027640  1
  I  I88  1  0.16473300  0.83970016  0.33688235  1
  I  I89  1  0.16990241  0.83728127  0.66141575  1
  I  I90  1  0.49898756  0.16449056  0.00341305  1
  I  I91  1  0.49523210  0.16364858  0.33293669  1
  I  I92  1  0.49621367  0.16332625  0.66334834  1
  I  I93  1  0.50080507  0.49871903  -0.00190351  1
  I  I94  1  0.49907808  0.50027932  0.33332346  1
  I  I95  1  0.50115117  0.49975335  0.66910358  1
  I  I96  1  0.50011028  0.83707966  0.00285751  1
  I  I97  1  0.49991205  0.83672619  0.33450832  1
  I  I98  1  0.50081149  0.83762561  0.66253118  1
  I  I99  1  0.83021846  0.17481663  0.00564136  1
  I  I100  1  0.83731549  0.16809679  0.33025155  1
  I  I101  1  0.83288967  0.16676316  0.66650938  1
  I  I102  1  0.83508767  0.49395074  0.00379238  1
  I  I103  1  0.83525617  0.49958583  0.33247728  1
  I  I104  1  0.83142909  0.50496307  0.66393438  1
  I  I105  1  0.83121473  0.83277718  0.00042076  1
  I  I106  1  0.83489284  0.83235188  0.33659119  1
  I  I107  1  0.83020738  0.82784928  0.66089266  1
  I  I108  1  0.00082948  0.17260696  0.16752377  1
  I  I109  1  0.00275932  0.16326658  0.49868819  1
  I  I110  1  0.00434651  0.16873753  0.82832646  1
  I  I111  1  -0.00032202  0.49004746  0.17115865  1
  I  I112  1  -0.00336608  0.50343019  0.49828316  1
  I  I113  1  0.00020282  0.49879347  0.83124304  1
  I  I114  1  0.00003878  0.83588598  0.16869694  1
  I  I115  1  0.00028167  0.83538591  0.49969003  1
  I  I116  1  0.00035525  0.83218924  0.83520472  1
  I  I117  1  0.33302026  0.16775392  0.16732173  1
  I  I118  1  0.33303524  0.15936886  0.49574255  1
  I  I119  1  0.33053132  0.16830822  0.83769180  1
  I  I120  1  0.33131362  0.49553746  0.16492488  1
  I  I121  1  0.33328955  0.50245682  0.49976524  1
  I  I122  1  0.33584920  0.50002417  0.83367877  1
  I  I123  1  0.33680062  0.83628580  0.17249840  1
  I  I124  1  0.33390495  0.83902753  0.49633154  1
  I  I125  1  0.33333313  0.83147585  0.83227473  1
  I  I126  1  0.66585466  0.16814631  0.17335240  1
  I  I127  1  0.66399430  0.16418201  0.49514464  1
  I  I128  1  0.66663724  0.16801538  0.83231291  1
  I  I129  1  0.66927002  0.49656076  0.16907365  1
  I  I130  1  0.66994193  0.50342550  0.49320857  1
  I  I131  1  0.66416726  0.49863682  0.83532533  1
  I  I132  1  0.66312309  0.83627981  0.17320034  1
  I  I133  1  0.66590677  0.83308682  0.49521891  1
  I  I134  1  0.66638569  0.83318778  0.83269911  1
