# generated using pymatgen
data_Cs27Sn14Pb13I81
_symmetry_space_group_name_H-M   'P 1'
_cell_length_a   18.97215920
_cell_length_b   18.97916290
_cell_length_c   18.97796648
_cell_angle_alpha   89.99875399
_cell_angle_beta   90.00209692
_cell_angle_gamma   89.99861842
_symmetry_Int_Tables_number   1
_chemical_formula_structural   Cs27Sn14Pb13I81
_chemical_formula_sum   'Cs27 Sn14 Pb13 I81'
_cell_volume   6833.50455688
_cell_formula_units_Z   1
loop_
 _symmetry_equiv_pos_site_id
 _symmetry_equiv_pos_as_xyz
  1  'x, y, z'
loop_
 _atom_site_type_symbol
 _atom_site_label
 _atom_site_symmetry_multiplicity
 _atom_site_fract_x
 _atom_site_fract_y
 _atom_site_fract_z
 _atom_site_occupancy
  Cs  Cs0  1  -0.00006996  0.00028485  -0.00151653  1
  Cs  Cs1  1  0.00085393  0.00047782  0.33466416  1
  Cs  Cs2  1  0.00103445  -0.00175948  0.66573066  1
  Cs  Cs3  1  -0.00551466  0.33070854  -0.00143474  1
  Cs  Cs4  1  -0.00072970  0.33541984  0.33550387  1
  Cs  Cs5  1  -0.00256168  0.33511774  0.66500689  1
  Cs  Cs6  1  0.00288468  0.66871299  0.00011037  1
  Cs  Cs7  1  0.00056943  0.66418364  0.33488711  1
  Cs  Cs8  1  0.00114078  0.66856809  0.66521347  1
  Cs  Cs9  1  0.33214902  0.00159597  -0.00107791  1
  Cs  Cs10  1  0.33328219  0.00241001  0.33429010  1
  Cs  Cs11  1  0.33396274  0.00078886  0.66624753  1
  Cs  Cs12  1  0.33269823  0.33420592  0.00319144  1
  Cs  Cs13  1  0.33415595  0.33323228  0.33249554  1
  Cs  Cs14  1  0.33447517  0.33126963  0.66648077  1
  Cs  Cs15  1  0.33201038  0.66527204  0.00095407  1
  Cs  Cs16  1  0.33340425  0.66414605  0.33220734  1
  Cs  Cs17  1  0.33344011  0.66755875  0.66805051  1
  Cs  Cs18  1  0.67021701  -0.00198965  0.00112166  1
  Cs  Cs19  1  0.66620958  -0.00014468  0.33391569  1
  Cs  Cs20  1  0.66523445  -0.00119870  0.66361081  1
  Cs  Cs21  1  0.67361357  0.33466315  -0.00750888  1
  Cs  Cs22  1  0.66252437  0.33138783  0.33384782  1
  Cs  Cs23  1  0.66613907  0.33632171  0.67274224  1
  Cs  Cs24  1  0.66724328  0.66697421  -0.00017241  1
  Cs  Cs25  1  0.66512881  0.66764637  0.32878111  1
  Cs  Cs26  1  0.66521365  0.66640250  0.67128024  1
  Sn  Sn27  1  0.49947776  0.16756922  0.16697022  1
  Sn  Sn28  1  0.83435178  0.83347431  0.83238266  1
  Sn  Sn29  1  0.16677461  0.49940960  0.16584380  1
  Sn  Sn30  1  0.83346327  0.16629637  0.49980248  1
  Sn  Sn31  1  0.49976406  0.49946328  0.49938211  1
  Sn  Sn32  1  0.49994538  0.16773662  0.49939099  1
  Sn  Sn33  1  0.49941052  0.49871967  0.16736807  1
  Sn  Sn34  1  0.16626336  0.83397975  0.49979737  1
  Sn  Sn35  1  0.16683811  0.50014223  0.83400164  1
  Sn  Sn36  1  0.16650487  0.16619136  0.49926393  1
  Sn  Sn37  1  0.16714440  0.16698719  0.16755206  1
  Sn  Sn38  1  0.16641125  0.83262270  0.83308040  1
  Sn  Sn39  1  0.83410357  0.83371994  0.50057823  1
  Sn  Sn40  1  0.16680489  0.83360023  0.16708895  1
  Pb  Pb41  1  0.49998356  0.16660570  0.83418221  1
  Pb  Pb42  1  0.82998821  0.50063970  0.49974074  1
  Pb  Pb43  1  0.16676239  0.16663557  0.83334631  1
  Pb  Pb44  1  0.49996189  0.83339731  0.49994649  1
  Pb  Pb45  1  0.83665570  0.50289547  0.83319452  1
  Pb  Pb46  1  0.49753033  0.49988499  0.83416412  1
  Pb  Pb47  1  0.49969307  0.83349898  0.83354022  1
  Pb  Pb48  1  0.16829042  0.49989216  0.49986423  1
  Pb  Pb49  1  0.83322841  0.16675227  0.16900666  1
  Pb  Pb50  1  0.83346521  0.16379480  0.83015621  1
  Pb  Pb51  1  0.49748582  0.83374180  0.16663840  1
  Pb  Pb52  1  0.83307388  0.49980450  0.16685704  1
  Pb  Pb53  1  0.83605246  0.83338943  0.16735897  1
  I  I54  1  0.17018805  0.00030821  0.16749211  1
  I  I55  1  0.16814185  0.00013795  0.49767148  1
  I  I56  1  0.16246448  -0.00327933  0.83546462  1
  I  I57  1  0.17142800  0.33311201  0.16706542  1
  I  I58  1  0.16446247  0.33032893  0.49774621  1
  I  I59  1  0.16977332  0.33598447  0.83624112  1
  I  I60  1  0.16984987  0.66663679  0.16599322  1
  I  I61  1  0.16345961  0.66939220  0.49817947  1
  I  I62  1  0.16360812  0.66775180  0.83617933  1
  I  I63  1  0.49575230  0.00362073  0.17247163  1
  I  I64  1  0.49968728  0.00328832  0.49556529  1
  I  I65  1  0.49672593  0.00000798  0.83259779  1
  I  I66  1  0.48880216  0.33312831  0.17349481  1
  I  I67  1  0.49849230  0.33204174  0.49570875  1
  I  I68  1  0.49770628  0.33342668  0.83083570  1
  I  I69  1  0.49557750  0.66347484  0.17136510  1
  I  I70  1  0.49849195  0.66402287  0.49580655  1
  I  I71  1  0.50168109  0.66651398  0.83181336  1
  I  I72  1  0.83199351  -0.00003969  0.16403043  1
  I  I73  1  0.83270354  -0.00011297  0.50362939  1
  I  I74  1  0.84251708  -0.00400230  0.83303753  1
  I  I75  1  0.83991939  0.33312605  0.16887917  1
  I  I76  1  0.83788789  0.33025432  0.49756007  1
  I  I77  1  0.83349428  0.33337534  0.83276068  1
  I  I78  1  0.83241051  0.66688137  0.16944479  1
  I  I79  1  0.83905683  0.67024856  0.50390371  1
  I  I80  1  0.83496315  0.67074894  0.82499804  1
  I  I81  1  0.17287323  0.16399445  0.00342759  1
  I  I82  1  0.16741707  0.16315953  0.33377445  1
  I  I83  1  0.16742092  0.16350627  0.66307315  1
  I  I84  1  0.17263352  0.50452825  0.00137722  1
  I  I85  1  0.16884898  0.50291105  0.33051539  1
  I  I86  1  0.16812052  0.50421946  0.66850160  1
  I  I87  1  0.16379065  0.83234745  0.00012696  1
  I  I88  1  0.16332141  0.83391744  0.33377512  1
  I  I89  1  0.16291830  0.83285843  0.66605427  1
  I  I90  1  0.49192392  0.17026468  0.00423457  1
  I  I91  1  0.49839403  0.17069901  0.33417476  1
  I  I92  1  0.49851330  0.16987195  0.66275265  1
  I  I93  1  0.49652195  0.49600073  0.00376505  1
  I  I94  1  0.49325648  0.49656795  0.33265115  1
  I  I95  1  0.49911571  0.49581376  0.66404486  1
  I  I96  1  0.50057587  0.83357274  0.00025852  1
  I  I97  1  0.50107887  0.83187387  0.33341844  1
  I  I98  1  0.49451323  0.83329432  0.66632839  1
  I  I99  1  0.83260426  0.16569459  -0.00004449  1
  I  I100  1  0.83382815  0.15862361  0.33723773  1
  I  I101  1  0.83468600  0.16540398  0.66178007  1
  I  I102  1  0.82838578  0.50177782  -0.00016996  1
  I  I103  1  0.83965414  0.50388648  0.33364959  1
  I  I104  1  0.83314564  0.49698372  0.66639271  1
  I  I105  1  0.83758276  0.83156518  -0.00271658  1
  I  I106  1  0.83700467  0.83756909  0.33699177  1
  I  I107  1  0.84299997  0.83768252  0.66563893  1
  I  I108  1  0.00373565  0.16640575  0.17000752  1
  I  I109  1  0.00111003  0.16118668  0.49636385  1
  I  I110  1  0.00031914  0.17007809  0.83493831  1
  I  I111  1  0.00416645  0.50034603  0.16283654  1
  I  I112  1  0.00019946  0.49735667  0.50029471  1
  I  I113  1  0.00467548  0.50124488  0.83892516  1
  I  I114  1  0.00485208  0.83345206  0.16652454  1
  I  I115  1  0.00152977  0.84066860  0.50055280  1
  I  I116  1  0.00186128  0.82901275  0.83210038  1
  I  I117  1  0.33206550  0.16671270  0.17473543  1
  I  I118  1  0.33277617  0.16573063  0.49645499  1
  I  I119  1  0.33295738  0.16284027  0.82697699  1
  I  I120  1  0.33207189  0.50008995  0.16688938  1
  I  I121  1  0.33603785  0.49661874  0.49877209  1
  I  I122  1  0.32965952  0.50830740  0.83446026  1
  I  I123  1  0.32868278  0.83291996  0.16737986  1
  I  I124  1  0.32984129  0.83632505  0.50062763  1
  I  I125  1  0.32899676  0.82962850  0.83214709  1
  I  I126  1  0.66312064  0.17161400  0.17152147  1
  I  I127  1  0.66606418  0.16502952  0.49583238  1
  I  I128  1  0.66686968  0.16447118  0.83399992  1
  I  I129  1  0.66269978  0.49552757  0.17240450  1
  I  I130  1  0.66202067  0.49645289  0.49331370  1
  I  I131  1  0.66672446  0.50157710  0.83349264  1
  I  I132  1  0.66669565  0.83265882  0.16578191  1
  I  I133  1  0.66965067  0.83650809  0.50613013  1
  I  I134  1  0.67010945  0.83516833  0.82646423  1
