# generated using pymatgen
data_Cs27Sn14Pb13I81
_symmetry_space_group_name_H-M   'P 1'
_cell_length_a   19.04227079
_cell_length_b   19.04410779
_cell_length_c   19.05307182
_cell_angle_alpha   89.99905221
_cell_angle_beta   90.00046349
_cell_angle_gamma   90.00296062
_symmetry_Int_Tables_number   1
_chemical_formula_structural   Cs27Sn14Pb13I81
_chemical_formula_sum   'Cs27 Sn14 Pb13 I81'
_cell_volume   6909.46420615
_cell_formula_units_Z   1
loop_
 _symmetry_equiv_pos_site_id
 _symmetry_equiv_pos_as_xyz
  1  'x, y, z'
loop_
 _atom_site_type_symbol
 _atom_site_label
 _atom_site_symmetry_multiplicity
 _atom_site_fract_x
 _atom_site_fract_y
 _atom_site_fract_z
 _atom_site_occupancy
  Cs  Cs0  1  -0.00924865  0.00648844  0.00207024  1
  Cs  Cs1  1  -0.00147037  -0.00366437  0.32933165  1
  Cs  Cs2  1  0.00355171  0.00768328  0.67023442  1
  Cs  Cs3  1  -0.00423051  0.33316540  -0.00294325  1
  Cs  Cs4  1  -0.00442264  0.33623837  0.33754683  1
  Cs  Cs5  1  -0.00138009  0.33401398  0.66513698  1
  Cs  Cs6  1  0.00564395  0.66340081  -0.00032084  1
  Cs  Cs7  1  0.00120045  0.66700349  0.33666500  1
  Cs  Cs8  1  0.00396178  0.66219979  0.66356148  1
  Cs  Cs9  1  0.33424096  0.00019918  0.00487341  1
  Cs  Cs10  1  0.33195650  0.00404909  0.32710069  1
  Cs  Cs11  1  0.33248184  0.00487651  0.66199128  1
  Cs  Cs12  1  0.33825713  0.33218884  0.00252871  1
  Cs  Cs13  1  0.34172934  0.33006484  0.32926164  1
  Cs  Cs14  1  0.33441304  0.32584254  0.66526008  1
  Cs  Cs15  1  0.33084548  0.66833876  0.00177272  1
  Cs  Cs16  1  0.33091905  0.66382081  0.32726058  1
  Cs  Cs17  1  0.32874550  0.66898493  0.67006065  1
  Cs  Cs18  1  0.67160836  0.00180433  0.00123070  1
  Cs  Cs19  1  0.67068272  -0.00500317  0.33127964  1
  Cs  Cs20  1  0.66321484  -0.02121827  0.66658535  1
  Cs  Cs21  1  0.66511822  0.33124939  -0.00178730  1
  Cs  Cs22  1  0.66647100  0.33688215  0.33828264  1
  Cs  Cs23  1  0.66767534  0.33607044  0.66388168  1
  Cs  Cs24  1  0.66688212  0.66815527  -0.00645608  1
  Cs  Cs25  1  0.66744793  0.66544743  0.34023138  1
  Cs  Cs26  1  0.66396198  0.67634522  0.66717534  1
  Sn  Sn27  1  0.83344751  0.50010058  0.83282649  1
  Sn  Sn28  1  0.83328918  0.50031338  0.16649132  1
  Sn  Sn29  1  0.16698767  0.83463859  0.16611569  1
  Sn  Sn30  1  0.16637201  0.16693114  0.16648562  1
  Sn  Sn31  1  0.16715757  0.49988936  0.50082022  1
  Sn  Sn32  1  0.16721224  0.49960791  0.83238056  1
  Sn  Sn33  1  0.50008012  0.16565997  0.16579660  1
  Sn  Sn34  1  0.49922676  0.49920632  0.83309732  1
  Sn  Sn35  1  0.83277089  0.16656010  0.50057037  1
  Sn  Sn36  1  0.49960695  0.83358281  0.16639058  1
  Sn  Sn37  1  0.50048740  0.16676403  0.83338145  1
  Sn  Sn38  1  0.16679165  0.83289443  0.49994507  1
  Sn  Sn39  1  0.83414405  0.49941702  0.50075078  1
  Sn  Sn40  1  0.16649736  0.83367097  0.83376482  1
  Pb  Pb41  1  0.83357667  0.83036213  0.16637038  1
  Pb  Pb42  1  0.16508994  0.16739693  0.49733598  1
  Pb  Pb43  1  0.83266918  0.16924328  0.16860212  1
  Pb  Pb44  1  0.49904878  0.50020629  0.50306074  1
  Pb  Pb45  1  0.83651592  0.83295091  0.50017960  1
  Pb  Pb46  1  0.83705744  0.83063149  0.83342713  1
  Pb  Pb47  1  0.83007038  0.16874727  0.83047126  1
  Pb  Pb48  1  0.49583350  0.83325592  0.49668396  1
  Pb  Pb49  1  0.49696182  0.83362836  0.83558916  1
  Pb  Pb50  1  0.16845883  0.16730340  0.83567399  1
  Pb  Pb51  1  0.50254335  0.50031534  0.16443039  1
  Pb  Pb52  1  0.16524065  0.49947366  0.16672743  1
  Pb  Pb53  1  0.50309425  0.16636311  0.49981334  1
  I  I54  1  0.17176394  -0.00098551  0.16814155  1
  I  I55  1  0.16500759  -0.00259421  0.50410834  1
  I  I56  1  0.17092879  -0.00263797  0.82793139  1
  I  I57  1  0.17165307  0.33087172  0.16668304  1
  I  I58  1  0.16285546  0.33661789  0.50624311  1
  I  I59  1  0.16274414  0.33693314  0.82849236  1
  I  I60  1  0.17079739  0.66909045  0.16669942  1
  I  I61  1  0.15874335  0.66588377  0.49793400  1
  I  I62  1  0.16842196  0.66545627  0.83604247  1
  I  I63  1  0.49405264  0.00051550  0.15924078  1
  I  I64  1  0.50263433  -0.00001051  0.51017826  1
  I  I65  1  0.49774157  0.00267147  0.83502687  1
  I  I66  1  0.49414575  0.33090822  0.16483044  1
  I  I67  1  0.49279312  0.33342244  0.49227471  1
  I  I68  1  0.49718757  0.33412517  0.84234580  1
  I  I69  1  0.49297888  0.66910905  0.16599099  1
  I  I70  1  0.50992391  0.66658379  0.49902143  1
  I  I71  1  0.50476609  0.66391568  0.83426199  1
  I  I72  1  0.83384982  -0.00005276  0.17055672  1
  I  I73  1  0.83319837  0.00231607  0.49586905  1
  I  I74  1  0.83305085  0.00008488  0.83166280  1
  I  I75  1  0.83538589  0.33658621  0.16338883  1
  I  I76  1  0.84148539  0.33586988  0.49945682  1
  I  I77  1  0.84247324  0.33715312  0.83676231  1
  I  I78  1  0.83431034  0.66292175  0.17021166  1
  I  I79  1  0.83504006  0.66309905  0.49985620  1
  I  I80  1  0.82297598  0.66196087  0.82912295  1
  I  I81  1  0.16715563  0.16217900  0.00323877  1
  I  I82  1  0.17467740  0.16241133  0.32996932  1
  I  I83  1  0.16803150  0.16194441  0.66663861  1
  I  I84  1  0.16502567  0.50393344  -0.00268770  1
  I  I85  1  0.15825744  0.50419240  0.33565211  1
  I  I86  1  0.16037301  0.51089920  0.66714403  1
  I  I87  1  0.17278126  0.82933643  0.00032035  1
  I  I88  1  0.17068245  0.83202429  0.33290132  1
  I  I89  1  0.16402391  0.82405288  0.66689475  1
  I  I90  1  0.49455368  0.16853429  0.00071714  1
  I  I91  1  0.49471022  0.16138479  0.33018605  1
  I  I92  1  0.49978006  0.17595049  0.66957432  1
  I  I93  1  0.49798479  0.49945196  -0.00306121  1
  I  I94  1  0.50081230  0.49962433  0.33347330  1
  I  I95  1  0.50537058  0.49204397  0.67090826  1
  I  I96  1  0.49066985  0.83250633  0.00281716  1
  I  I97  1  0.49477583  0.84216091  0.32896963  1
  I  I98  1  0.50213379  0.83360101  0.66673475  1
  I  I99  1  0.83637340  0.16815028  -0.00011117  1
  I  I100  1  0.83224168  0.17751459  0.33555010  1
  I  I101  1  0.83645982  0.17642028  0.66349757  1
  I  I102  1  0.83496641  0.50223072  -0.00111024  1
  I  I103  1  0.84031930  0.49575233  0.33447254  1
  I  I104  1  0.83585657  0.49327364  0.66664638  1
  I  I105  1  0.83675365  0.83085857  0.00004822  1
  I  I106  1  0.83486928  0.82907230  0.33325148  1
  I  I107  1  0.82993724  0.83351178  0.66663914  1
  I  I108  1  0.00224941  0.16002244  0.16859471  1
  I  I109  1  -0.00235223  0.17018113  0.49765352  1
  I  I110  1  -0.00020872  0.16490695  0.83516492  1
  I  I111  1  -0.00239012  0.49966136  0.16101898  1
  I  I112  1  0.00013541  0.50049327  0.50540244  1
  I  I113  1  0.00017766  0.50782700  0.83321412  1
  I  I114  1  0.00368138  0.83836099  0.16762496  1
  I  I115  1  0.00384260  0.83019985  0.49444885  1
  I  I116  1  0.00496685  0.82683180  0.83744702  1
  I  I117  1  0.33342006  0.16296555  0.16419896  1
  I  I118  1  0.33364864  0.16656166  0.50196312  1
  I  I119  1  0.33590732  0.17564297  0.83431012  1
  I  I120  1  0.33349752  0.49964869  0.16803167  1
  I  I121  1  0.32968113  0.50700674  0.50460404  1
  I  I122  1  0.33245995  0.50161172  0.82795076  1
  I  I123  1  0.33177561  0.83716067  0.16727601  1
  I  I124  1  0.32837792  0.82466279  0.50509259  1
  I  I125  1  0.32975546  0.82312080  0.83084225  1
  I  I126  1  0.66363577  0.16142106  0.16170378  1
  I  I127  1  0.67033280  0.18108795  0.49669487  1
  I  I128  1  0.66280287  0.17489692  0.84504082  1
  I  I129  1  0.67012214  0.49909061  0.16894488  1
  I  I130  1  0.66946707  0.49304347  0.49782462  1
  I  I131  1  0.66684207  0.49134663  0.83636120  1
  I  I132  1  0.66396861  0.83957311  0.16487262  1
  I  I133  1  0.66667749  0.83326993  0.49808796  1
  I  I134  1  0.66655005  0.83283038  0.83502291  1
