# generated using pymatgen
data_Cs27Sn13Pb14I81
_symmetry_space_group_name_H-M   'P 1'
_cell_length_a   18.97441433
_cell_length_b   18.97586316
_cell_length_c   18.98162278
_cell_angle_alpha   89.99997272
_cell_angle_beta   89.99979919
_cell_angle_gamma   90.00059369
_symmetry_Int_Tables_number   1
_chemical_formula_structural   Cs27Sn13Pb14I81
_chemical_formula_sum   'Cs27 Sn13 Pb14 I81'
_cell_volume   6834.44508414
_cell_formula_units_Z   1
loop_
 _symmetry_equiv_pos_site_id
 _symmetry_equiv_pos_as_xyz
  1  'x, y, z'
loop_
 _atom_site_type_symbol
 _atom_site_label
 _atom_site_symmetry_multiplicity
 _atom_site_fract_x
 _atom_site_fract_y
 _atom_site_fract_z
 _atom_site_occupancy
  Cs  Cs0  1  -0.00074004  -0.00063547  0.00103571  1
  Cs  Cs1  1  -0.00189886  0.00324635  0.33303683  1
  Cs  Cs2  1  0.00238139  -0.00018836  0.66587999  1
  Cs  Cs3  1  0.00040930  0.33633391  0.00050462  1
  Cs  Cs4  1  0.00238271  0.33122295  0.33214283  1
  Cs  Cs5  1  -0.00167715  0.33793664  0.66794114  1
  Cs  Cs6  1  0.00521561  0.66683325  -0.00346004  1
  Cs  Cs7  1  0.00265661  0.66359446  0.34372067  1
  Cs  Cs8  1  0.00591131  0.66028347  0.66170982  1
  Cs  Cs9  1  0.33011319  -0.00268949  0.00062049  1
  Cs  Cs10  1  0.33371988  -0.00337262  0.33149998  1
  Cs  Cs11  1  0.33166934  0.00153349  0.66724825  1
  Cs  Cs12  1  0.33494553  0.33360769  0.00246647  1
  Cs  Cs13  1  0.33431838  0.33264318  0.33336677  1
  Cs  Cs14  1  0.33680939  0.33037679  0.66492613  1
  Cs  Cs15  1  0.32890918  0.66941375  -0.00151874  1
  Cs  Cs16  1  0.33103758  0.67409438  0.33361622  1
  Cs  Cs17  1  0.32802222  0.66884588  0.66852073  1
  Cs  Cs18  1  0.66770718  -0.00071389  -0.00139290  1
  Cs  Cs19  1  0.66752374  -0.00142576  0.33301458  1
  Cs  Cs20  1  0.66666834  0.00071091  0.66882187  1
  Cs  Cs21  1  0.66616592  0.33348689  -0.00066958  1
  Cs  Cs22  1  0.66540474  0.33354873  0.33217674  1
  Cs  Cs23  1  0.66548667  0.33293775  0.66940632  1
  Cs  Cs24  1  0.66599344  0.66735678  0.00157078  1
  Cs  Cs25  1  0.66622118  0.66862822  0.33261863  1
  Cs  Cs26  1  0.66794143  0.66674077  0.66510852  1
  Sn  Sn27  1  0.83210793  0.16696137  0.16712508  1
  Sn  Sn28  1  0.50098272  0.16697753  0.16737844  1
  Sn  Sn29  1  0.83280919  0.50019906  0.16657464  1
  Sn  Sn30  1  0.50100427  0.83242195  0.83332936  1
  Sn  Sn31  1  0.50039508  0.50120031  0.83351630  1
  Sn  Sn32  1  0.50019258  0.49971439  0.49949323  1
  Sn  Sn33  1  0.50050350  0.49975221  0.16698807  1
  Sn  Sn34  1  0.83327532  0.83273385  0.16602834  1
  Sn  Sn35  1  0.83290128  0.83296054  0.83350071  1
  Sn  Sn36  1  0.50041579  0.16713220  0.49909345  1
  Sn  Sn37  1  0.16647716  0.16720897  0.83306831  1
  Sn  Sn38  1  0.83274864  0.16686614  0.49974201  1
  Sn  Sn39  1  0.16685619  0.16695322  0.50093810  1
  Pb  Pb40  1  0.83139204  0.50262032  0.83540072  1
  Pb  Pb41  1  0.16962095  0.49716177  0.83335923  1
  Pb  Pb42  1  0.50153084  0.83333097  0.16472432  1
  Pb  Pb43  1  0.83317708  0.83526158  0.50020011  1
  Pb  Pb44  1  0.16686940  0.16668452  0.16701251  1
  Pb  Pb45  1  0.16258499  0.83320179  0.16677478  1
  Pb  Pb46  1  0.16716406  0.50001867  0.16686930  1
  Pb  Pb47  1  0.83089260  0.49734662  0.49769257  1
  Pb  Pb48  1  0.83534346  0.16523133  0.83375125  1
  Pb  Pb49  1  0.16605670  0.83524798  0.83325015  1
  Pb  Pb50  1  0.49877670  0.16658147  0.83390627  1
  Pb  Pb51  1  0.50011819  0.83357446  0.50263557  1
  Pb  Pb52  1  0.16986096  0.49716560  0.49982155  1
  Pb  Pb53  1  0.16667362  0.83608302  0.49993048  1
  I  I54  1  0.16838425  0.00042074  0.16646741  1
  I  I55  1  0.16965924  0.00493578  0.50396094  1
  I  I56  1  0.17011150  0.00305431  0.82894981  1
  I  I57  1  0.16245421  0.33299258  0.16546284  1
  I  I58  1  0.16458060  0.32895809  0.50343088  1
  I  I59  1  0.16724377  0.32945437  0.82951779  1
  I  I60  1  0.16953139  0.66664032  0.16475106  1
  I  I61  1  0.16713136  0.66613467  0.49991846  1
  I  I62  1  0.16582056  0.66654120  0.83421983  1
  I  I63  1  0.50341211  0.00302635  0.17001229  1
  I  I64  1  0.49951870  0.00389058  0.49661216  1
  I  I65  1  0.50193629  -0.00201406  0.83351288  1
  I  I66  1  0.50679381  0.33297208  0.16497184  1
  I  I67  1  0.49972605  0.33212143  0.50145840  1
  I  I68  1  0.49747313  0.33563382  0.83358751  1
  I  I69  1  0.50464904  0.66357317  0.16907182  1
  I  I70  1  0.50152854  0.66344483  0.49653993  1
  I  I71  1  0.50448725  0.66606071  0.83412405  1
  I  I72  1  0.82968951  0.00114946  0.16685990  1
  I  I73  1  0.83073741  0.00414786  0.49439978  1
  I  I74  1  0.82654768  -0.00256310  0.83905712  1
  I  I75  1  0.82913630  0.33248708  0.17124057  1
  I  I76  1  0.83536905  0.32893713  0.49579553  1
  I  I77  1  0.83309083  0.33341238  0.83396117  1
  I  I78  1  0.82684059  0.66631708  0.16047715  1
  I  I79  1  0.83151567  0.66624783  0.49857925  1
  I  I80  1  0.83078638  0.67059446  0.83951264  1
  I  I81  1  0.16778991  0.16544057  -0.00206606  1
  I  I82  1  0.16639885  0.16722428  0.33634697  1
  I  I83  1  0.16870032  0.16544762  0.66550818  1
  I  I84  1  0.16869909  0.49622388  -0.00006163  1
  I  I85  1  0.16736389  0.49695523  0.33346780  1
  I  I86  1  0.16720960  0.50060927  0.66660338  1
  I  I87  1  0.16929051  0.83780885  -0.00022592  1
  I  I88  1  0.16743709  0.83577836  0.33329313  1
  I  I89  1  0.16518382  0.83392009  0.66686306  1
  I  I90  1  0.50341674  0.16967169  0.00290024  1
  I  I91  1  0.49892325  0.17356732  0.33339170  1
  I  I92  1  0.50163956  0.16937423  0.66405192  1
  I  I93  1  0.50415937  0.49782568  0.00086097  1
  I  I94  1  0.50436474  0.49248376  0.33269961  1
  I  I95  1  0.49907772  0.49768164  0.66645858  1
  I  I96  1  0.50226646  0.83158364  -0.00310845  1
  I  I97  1  0.50099389  0.83199311  0.33317780  1
  I  I98  1  0.50624742  0.83134353  0.67063620  1
  I  I99  1  0.82957429  0.16764254  0.00346229  1
  I  I100  1  0.83468803  0.16437528  0.33246112  1
  I  I101  1  0.83035373  0.16391235  0.66398166  1
  I  I102  1  0.82684436  0.49309154  0.00374555  1
  I  I103  1  0.82742577  0.50453557  0.32939054  1
  I  I104  1  0.83137513  0.49966732  0.66653910  1
  I  I105  1  0.82812030  0.83711261  0.00077831  1
  I  I106  1  0.83255462  0.83342796  0.33007982  1
  I  I107  1  0.82851592  0.83762915  0.66967492  1
  I  I108  1  -0.00346842  0.16633173  0.16946389  1
  I  I109  1  -0.00054559  0.16344511  0.49872447  1
  I  I110  1  0.00291262  0.16329789  0.82957575  1
  I  I111  1  -0.00366146  0.49764558  0.16550722  1
  I  I112  1  -0.00019765  0.49931482  0.49877068  1
  I  I113  1  -0.00012480  0.50059129  0.83537089  1
  I  I114  1  -0.00582235  0.83676842  0.15896089  1
  I  I115  1  -0.00030411  0.83531932  0.50090787  1
  I  I116  1  -0.00320380  0.83797626  0.83971729  1
  I  I117  1  0.33678431  0.17204966  0.16874423  1
  I  I118  1  0.33450634  0.17109483  0.50067255  1
  I  I119  1  0.33119719  0.16547508  0.82918915  1
  I  I120  1  0.33781299  0.49250267  0.16628461  1
  I  I121  1  0.33822427  0.49332356  0.49774693  1
  I  I122  1  0.33824440  0.50610377  0.83637573  1
  I  I123  1  0.33357094  0.83470888  0.16478032  1
  I  I124  1  0.33373474  0.83538704  0.50175445  1
  I  I125  1  0.33616331  0.83030194  0.83287569  1
  I  I126  1  0.66676980  0.16724020  0.17336442  1
  I  I127  1  0.66591232  0.16953316  0.49502207  1
  I  I128  1  0.66661071  0.16709915  0.83094218  1
  I  I129  1  0.66575399  0.49797228  0.16640109  1
  I  I130  1  0.66274501  0.49334892  0.50234032  1
  I  I131  1  0.66286399  0.49848030  0.83187209  1
  I  I132  1  0.66967685  0.83511123  0.16443463  1
  I  I133  1  0.66658471  0.83737097  0.49962538  1
  I  I134  1  0.66646068  0.83236527  0.83719372  1
