# generated using pymatgen
data_Cs27Sn13Pb14I81
_symmetry_space_group_name_H-M   'P 1'
_cell_length_a   18.97649251
_cell_length_b   18.97252243
_cell_length_c   18.98225666
_cell_angle_alpha   89.99922329
_cell_angle_beta   89.99885513
_cell_angle_gamma   89.99954033
_symmetry_Int_Tables_number   1
_chemical_formula_structural   Cs27Sn13Pb14I81
_chemical_formula_sum   'Cs27 Sn13 Pb14 I81'
_cell_volume   6834.21849548
_cell_formula_units_Z   1
loop_
 _symmetry_equiv_pos_site_id
 _symmetry_equiv_pos_as_xyz
  1  'x, y, z'
loop_
 _atom_site_type_symbol
 _atom_site_label
 _atom_site_symmetry_multiplicity
 _atom_site_fract_x
 _atom_site_fract_y
 _atom_site_fract_z
 _atom_site_occupancy
  Cs  Cs0  1  -0.00033529  0.00075066  -0.00080539  1
  Cs  Cs1  1  0.00077473  0.00062161  0.33507851  1
  Cs  Cs2  1  -0.00067033  -0.00071604  0.66575811  1
  Cs  Cs3  1  0.00145923  0.33388136  -0.00234536  1
  Cs  Cs4  1  0.00188440  0.33052227  0.33334322  1
  Cs  Cs5  1  0.00065242  0.33451552  0.66909173  1
  Cs  Cs6  1  -0.00316846  0.66632934  -0.00156884  1
  Cs  Cs7  1  -0.00268429  0.67006087  0.33188294  1
  Cs  Cs8  1  0.00019598  0.66705309  0.66911910  1
  Cs  Cs9  1  0.33481115  -0.00159215  -0.00049653  1
  Cs  Cs10  1  0.33130331  -0.00457230  0.33491180  1
  Cs  Cs11  1  0.33872522  -0.00211640  0.66652302  1
  Cs  Cs12  1  0.33166154  0.33601914  0.00291648  1
  Cs  Cs13  1  0.33222199  0.33255139  0.33068653  1
  Cs  Cs14  1  0.33300678  0.33356497  0.66497711  1
  Cs  Cs15  1  0.33505394  0.66332436  -0.00062561  1
  Cs  Cs16  1  0.33272810  0.67265634  0.33539578  1
  Cs  Cs17  1  0.33438031  0.66822934  0.66570833  1
  Cs  Cs18  1  0.66415319  -0.00126011  -0.00406124  1
  Cs  Cs19  1  0.66885411  -0.00006179  0.33263306  1
  Cs  Cs20  1  0.66398698  0.00157678  0.67062599  1
  Cs  Cs21  1  0.66666062  0.33225484  -0.00082737  1
  Cs  Cs22  1  0.66529956  0.33575292  0.33482817  1
  Cs  Cs23  1  0.66551275  0.33305479  0.66541754  1
  Cs  Cs24  1  0.66477189  0.66846159  0.00511427  1
  Cs  Cs25  1  0.66955719  0.66372452  0.33272634  1
  Cs  Cs26  1  0.66569915  0.66565081  0.66097156  1
  Sn  Sn27  1  0.16681215  0.16700919  0.16668184  1
  Sn  Sn28  1  0.83395432  0.83333696  0.83249841  1
  Sn  Sn29  1  0.16609290  0.83412633  0.83358548  1
  Sn  Sn30  1  0.49966424  0.16714306  0.16682113  1
  Sn  Sn31  1  0.49896229  0.49897677  0.16599383  1
  Sn  Sn32  1  0.83403960  0.16608591  0.49962585  1
  Sn  Sn33  1  0.83349090  0.16676236  0.16708230  1
  Sn  Sn34  1  0.16634632  0.49949048  0.49879532  1
  Sn  Sn35  1  0.83364516  0.83438607  0.50096812  1
  Sn  Sn36  1  0.16608692  0.16720467  0.50014054  1
  Sn  Sn37  1  0.16708727  0.49962841  0.16781324  1
  Sn  Sn38  1  0.50018791  0.49958911  0.83372850  1
  Sn  Sn39  1  0.16678417  0.16570312  0.83316571  1
  Pb  Pb40  1  0.83373645  0.49718430  0.16664157  1
  Pb  Pb41  1  0.49708832  0.16879729  0.83563059  1
  Pb  Pb42  1  0.83025243  0.50282801  0.83335359  1
  Pb  Pb43  1  0.16660310  0.83313951  0.16415490  1
  Pb  Pb44  1  0.49717733  0.49973896  0.49885397  1
  Pb  Pb45  1  0.49980649  0.16667144  0.49746717  1
  Pb  Pb46  1  0.83505551  0.16538681  0.83298414  1
  Pb  Pb47  1  0.49984586  0.83304068  0.16684324  1
  Pb  Pb48  1  0.50013612  0.83086213  0.83339982  1
  Pb  Pb49  1  0.50374127  0.83359559  0.49991487  1
  Pb  Pb50  1  0.83619337  0.49922526  0.49994512  1
  Pb  Pb51  1  0.83349763  0.83617488  0.16659673  1
  Pb  Pb52  1  0.16506016  0.83367508  0.50219475  1
  Pb  Pb53  1  0.16779568  0.49997389  0.83352517  1
  I  I54  1  0.16708790  0.00379639  0.16936944  1
  I  I55  1  0.16435921  0.00337010  0.49638013  1
  I  I56  1  0.16284962  0.00105218  0.83433944  1
  I  I57  1  0.16717828  0.33200896  0.16536676  1
  I  I58  1  0.16149107  0.33174390  0.50124186  1
  I  I59  1  0.16806734  0.33052214  0.83385749  1
  I  I60  1  0.17243269  0.66315870  0.16988009  1
  I  I61  1  0.16649491  0.66421489  0.49700335  1
  I  I62  1  0.16431507  0.66889087  0.83296440  1
  I  I63  1  0.49882667  0.00372447  0.16735843  1
  I  I64  1  0.49415353  0.00039408  0.49827301  1
  I  I65  1  0.50083888  0.00016584  0.83494043  1
  I  I66  1  0.49835212  0.33315333  0.16258126  1
  I  I67  1  0.50555524  0.33325159  0.50356506  1
  I  I68  1  0.49769623  0.33639020  0.83554397  1
  I  I69  1  0.49494574  0.66275207  0.16218540  1
  I  I70  1  0.49898619  0.66642993  0.49856918  1
  I  I71  1  0.49706715  0.66325482  0.84098507  1
  I  I72  1  0.83496039  0.00451727  0.16806531  1
  I  I73  1  0.84019858  0.00134700  0.49865505  1
  I  I74  1  0.83524279  -0.00269959  0.83287119  1
  I  I75  1  0.83417446  0.32891026  0.17260848  1
  I  I76  1  0.83524180  0.32961518  0.49496931  1
  I  I77  1  0.83456916  0.33311161  0.83304762  1
  I  I78  1  0.83264029  0.66669587  0.16699752  1
  I  I79  1  0.83419335  0.66935379  0.50494220  1
  I  I80  1  0.84194225  0.67094218  0.82747483  1
  I  I81  1  0.16612190  0.16716232  0.00107022  1
  I  I82  1  0.16570933  0.17184561  0.33294289  1
  I  I83  1  0.16068399  0.16817875  0.66591262  1
  I  I84  1  0.16926280  0.49621659  0.00281561  1
  I  I85  1  0.17158419  0.49143134  0.33237554  1
  I  I86  1  0.16763410  0.49646454  0.66459084  1
  I  I87  1  0.16052771  0.83730480  -0.00375044  1
  I  I88  1  0.16535401  0.83461843  0.33355890  1
  I  I89  1  0.16462125  0.83602158  0.66996400  1
  I  I90  1  0.50117913  0.16808579  0.00385862  1
  I  I91  1  0.49665604  0.17395816  0.32918052  1
  I  I92  1  0.50022616  0.16798532  0.66685803  1
  I  I93  1  0.49310452  0.49698293  0.00155226  1
  I  I94  1  0.49855690  0.49487480  0.32955590  1
  I  I95  1  0.49820491  0.50239962  0.66872551  1
  I  I96  1  0.50287982  0.83523869  -0.00006469  1
  I  I97  1  0.50018625  0.83106927  0.33328876  1
  I  I98  1  0.49704892  0.83059612  0.66693857  1
  I  I99  1  0.83469801  0.16594982  0.00267182  1
  I  I100  1  0.83813556  0.16121806  0.33352855  1
  I  I101  1  0.83903260  0.16453112  0.66367201  1
  I  I102  1  0.83862939  0.50003360  0.00009334  1
  I  I103  1  0.82857515  0.50590351  0.33332189  1
  I  I104  1  0.83345719  0.49551814  0.66657486  1
  I  I105  1  0.83696568  0.83383115  -0.00289417  1
  I  I106  1  0.83343221  0.83547437  0.33620761  1
  I  I107  1  0.83817799  0.83909382  0.66642499  1
  I  I108  1  0.00120257  0.16955314  0.16752595  1
  I  I109  1  0.00089182  0.16623289  0.49459843  1
  I  I110  1  0.00350862  0.16659607  0.83803696  1
  I  I111  1  0.00357435  0.49602368  0.17009786  1
  I  I112  1  0.00424546  0.49775668  0.49474362  1
  I  I113  1  0.00029762  0.49927854  0.83389779  1
  I  I114  1  0.00007434  0.83203513  0.16684439  1
  I  I115  1  -0.00279927  0.83539646  0.50187324  1
  I  I116  1  0.00040926  0.83670209  0.83020217  1
  I  I117  1  0.33210423  0.17169368  0.16565715  1
  I  I118  1  0.32958074  0.17139042  0.49992704  1
  I  I119  1  0.32866836  0.16062781  0.83181687  1
  I  I120  1  0.33255436  0.49109102  0.16541898  1
  I  I121  1  0.32909941  0.49317361  0.49955575  1
  I  I122  1  0.33539636  0.50120430  0.83590561  1
  I  I123  1  0.33301135  0.83791113  0.16461674  1
  I  I124  1  0.33291360  0.83318821  0.50144257  1
  I  I125  1  0.33046097  0.83672701  0.83433299  1
  I  I126  1  0.66678010  0.16995002  0.17151097  1
  I  I127  1  0.67001350  0.16201927  0.49578137  1
  I  I128  1  0.66650749  0.16554855  0.83394267  1
  I  I129  1  0.66362070  0.49663715  0.16187550  1
  I  I130  1  0.66671770  0.50121218  0.50023613  1
  I  I131  1  0.66248351  0.50038693  0.84067463  1
  I  I132  1  0.66685281  0.83334559  0.16488048  1
  I  I133  1  0.67194591  0.83966086  0.50682659  1
  I  I134  1  0.66973747  0.83262737  0.82938154  1
