# generated using pymatgen
data_Cs27Sn14Pb13I81
_symmetry_space_group_name_H-M   'P 1'
_cell_length_a   18.97569122
_cell_length_b   18.97280373
_cell_length_c   18.97555937
_cell_angle_alpha   90.00226022
_cell_angle_beta   90.00045328
_cell_angle_gamma   90.00002591
_symmetry_Int_Tables_number   1
_chemical_formula_structural   Cs27Sn14Pb13I81
_chemical_formula_sum   'Cs27 Sn14 Pb13 I81'
_cell_volume   6831.62006418
_cell_formula_units_Z   1
loop_
 _symmetry_equiv_pos_site_id
 _symmetry_equiv_pos_as_xyz
  1  'x, y, z'
loop_
 _atom_site_type_symbol
 _atom_site_label
 _atom_site_symmetry_multiplicity
 _atom_site_fract_x
 _atom_site_fract_y
 _atom_site_fract_z
 _atom_site_occupancy
  Cs  Cs0  1  -0.00167732  -0.00164748  -0.00256471  1
  Cs  Cs1  1  -0.00064854  -0.00080421  0.33284378  1
  Cs  Cs2  1  -0.00133660  -0.00344681  0.67104656  1
  Cs  Cs3  1  0.00312848  0.33761117  0.00030815  1
  Cs  Cs4  1  0.00088647  0.33338769  0.33532641  1
  Cs  Cs5  1  0.00084929  0.33375199  0.66440376  1
  Cs  Cs6  1  -0.00048329  0.66464435  0.00172907  1
  Cs  Cs7  1  -0.00140292  0.66694223  0.33168234  1
  Cs  Cs8  1  0.00068091  0.66873458  0.66981897  1
  Cs  Cs9  1  0.33440322  0.00240804  0.00009982  1
  Cs  Cs10  1  0.33329451  0.00059713  0.33481409  1
  Cs  Cs11  1  0.33363044  -0.00701815  0.66259627  1
  Cs  Cs12  1  0.33201944  0.33395175  -0.00042536  1
  Cs  Cs13  1  0.33085075  0.33100263  0.33331751  1
  Cs  Cs14  1  0.33272966  0.33378675  0.66626819  1
  Cs  Cs15  1  0.33339417  0.66487246  0.00288688  1
  Cs  Cs16  1  0.33443085  0.66844943  0.33166015  1
  Cs  Cs17  1  0.34163594  0.67425761  0.66468261  1
  Cs  Cs18  1  0.66700202  0.00832371  -0.00631388  1
  Cs  Cs19  1  0.66965593  0.00173922  0.33105236  1
  Cs  Cs20  1  0.66876739  0.00024044  0.67819846  1
  Cs  Cs21  1  0.66359042  0.32706078  -0.00125629  1
  Cs  Cs22  1  0.67046279  0.33029200  0.33702666  1
  Cs  Cs23  1  0.66523413  0.33459978  0.66350060  1
  Cs  Cs24  1  0.66885337  0.66669397  0.00203713  1
  Cs  Cs25  1  0.66799802  0.66648007  0.33379037  1
  Cs  Cs26  1  0.65621985  0.66552422  0.66492096  1
  Sn  Sn27  1  0.16634463  0.16660929  0.16656082  1
  Sn  Sn28  1  0.16630582  0.49970748  0.83277383  1
  Sn  Sn29  1  0.83374863  0.50021017  0.83387541  1
  Sn  Sn30  1  0.50031668  0.50005103  0.16696456  1
  Sn  Sn31  1  0.16732356  0.16700959  0.50038179  1
  Sn  Sn32  1  0.49957507  0.16645958  0.49990919  1
  Sn  Sn33  1  0.83329750  0.83314904  0.49964888  1
  Sn  Sn34  1  0.83310498  0.50024368  0.16603044  1
  Sn  Sn35  1  0.16683964  0.50030761  0.50031004  1
  Sn  Sn36  1  0.16660060  0.50004751  0.16700837  1
  Sn  Sn37  1  0.83288021  0.83286049  0.16734908  1
  Sn  Sn38  1  0.16673430  0.16725676  0.83293867  1
  Sn  Sn39  1  0.50059669  0.83316225  0.16677255  1
  Sn  Sn40  1  0.16664571  0.83334692  0.16679912  1
  Pb  Pb41  1  0.16518044  0.83330067  0.49789331  1
  Pb  Pb42  1  0.49950789  0.49993867  0.83577263  1
  Pb  Pb43  1  0.49780647  0.16684412  0.16813281  1
  Pb  Pb44  1  0.83615289  0.17028483  0.83328365  1
  Pb  Pb45  1  0.83411482  0.16405764  0.50020041  1
  Pb  Pb46  1  0.83327614  0.83023659  0.83412722  1
  Pb  Pb47  1  0.49664389  0.16702680  0.83015310  1
  Pb  Pb48  1  0.50298097  0.83600201  0.49737223  1
  Pb  Pb49  1  0.16691635  0.83251276  0.83618221  1
  Pb  Pb50  1  0.83544045  0.50190801  0.50014286  1
  Pb  Pb51  1  0.50002012  0.83324611  0.83685752  1
  Pb  Pb52  1  0.49724120  0.49834225  0.49707506  1
  Pb  Pb53  1  0.83602571  0.16711349  0.16654863  1
  I  I54  1  0.16696717  0.00000154  0.16761211  1
  I  I55  1  0.16924702  0.00292871  0.49887741  1
  I  I56  1  0.16780933  0.00286280  0.83354738  1
  I  I57  1  0.16694319  0.33442090  0.16668800  1
  I  I58  1  0.16865348  0.33335454  0.49492580  1
  I  I59  1  0.16310489  0.33414004  0.83831634  1
  I  I60  1  0.16649582  0.66555731  0.16673395  1
  I  I61  1  0.16341776  0.66387487  0.49859221  1
  I  I62  1  0.16174799  0.66285582  0.83462602  1
  I  I63  1  0.49871212  -0.00265154  0.16920075  1
  I  I64  1  0.48929804  0.00321869  0.49614025  1
  I  I65  1  0.49911905  0.00033552  0.83616457  1
  I  I66  1  0.49896316  0.33621366  0.16728656  1
  I  I67  1  0.49795678  0.33055994  0.49684074  1
  I  I68  1  0.50247297  0.33343797  0.83737963  1
  I  I69  1  0.49442284  0.66633087  0.16699706  1
  I  I70  1  0.49895427  0.66685943  0.50144103  1
  I  I71  1  0.49663397  0.66633995  0.82910224  1
  I  I72  1  0.83430745  -0.00310326  0.17187580  1
  I  I73  1  0.83615409  -0.00358992  0.49033553  1
  I  I74  1  0.83414933  -0.00004882  0.83348803  1
  I  I75  1  0.83373246  0.33706929  0.16309575  1
  I  I76  1  0.83212192  0.33351738  0.49916063  1
  I  I77  1  0.83593906  0.33799257  0.84074828  1
  I  I78  1  0.83826912  0.66616238  0.16677919  1
  I  I79  1  0.83660740  0.66945822  0.49557322  1
  I  I80  1  0.84323601  0.66267473  0.83675734  1
  I  I81  1  0.16532373  0.16965679  0.00069674  1
  I  I82  1  0.17001829  0.16972027  0.33308946  1
  I  I83  1  0.16965175  0.17566919  0.66622389  1
  I  I84  1  0.16609980  0.49776106  0.00153589  1
  I  I85  1  0.16640503  0.49715719  0.33180107  1
  I  I86  1  0.15965616  0.49069544  0.66697545  1
  I  I87  1  0.16368766  0.83313309  0.00496212  1
  I  I88  1  0.16800482  0.83262580  0.32921532  1
  I  I89  1  0.16384540  0.83352433  0.66656792  1
  I  I90  1  0.49902827  0.16560880  0.00002127  1
  I  I91  1  0.49158488  0.16715762  0.33566556  1
  I  I92  1  0.49442730  0.16722579  0.66253220  1
  I  I93  1  0.49457411  0.50338546  0.00427338  1
  I  I94  1  0.49986273  0.50413344  0.32896144  1
  I  I95  1  0.50064938  0.49850466  0.66630404  1
  I  I96  1  0.50069257  0.82950971  0.00543897  1
  I  I97  1  0.49621375  0.82910411  0.32931076  1
  I  I98  1  0.50131413  0.83432850  0.66617306  1
  I  I99  1  0.83344148  0.16085133  0.00006339  1
  I  I100  1  0.83658470  0.17086362  0.33327750  1
  I  I101  1  0.83524886  0.16505194  0.66670763  1
  I  I102  1  0.84000141  0.50617102  0.00194863  1
  I  I103  1  0.83509780  0.50221592  0.33001180  1
  I  I104  1  0.84075668  0.50046167  0.66919583  1
  I  I105  1  0.83496976  0.83058199  0.00395622  1
  I  I106  1  0.83469897  0.82782591  0.33074713  1
  I  I107  1  0.83627658  0.83428376  0.66442378  1
  I  I108  1  0.00474968  0.16715266  0.17007493  1
  I  I109  1  0.00404074  0.17044410  0.49859610  1
  I  I110  1  0.00443743  0.16742665  0.83171547  1
  I  I111  1  0.00128723  0.50211233  0.16591099  1
  I  I112  1  0.00370951  0.49340791  0.49441697  1
  I  I113  1  0.00156848  0.49658493  0.83938409  1
  I  I114  1  0.00013823  0.83070082  0.17034694  1
  I  I115  1  -0.00235267  0.83443483  0.49211995  1
  I  I116  1  0.00014931  0.83659542  0.83501284  1
  I  I117  1  0.32911197  0.16742380  0.16503188  1
  I  I118  1  0.33075963  0.17052172  0.49844392  1
  I  I119  1  0.32853115  0.17476017  0.83849606  1
  I  I120  1  0.33158305  0.50255487  0.16665821  1
  I  I121  1  0.32881344  0.49881371  0.49970184  1
  I  I122  1  0.32949177  0.49497395  0.83583739  1
  I  I123  1  0.33259135  0.82973571  0.16575931  1
  I  I124  1  0.33346547  0.83190267  0.49871225  1
  I  I125  1  0.33306699  0.83142494  0.83371024  1
  I  I126  1  0.66658363  0.16686160  0.16968743  1
  I  I127  1  0.66428785  0.16562040  0.49623478  1
  I  I128  1  0.66655519  0.16654919  0.83217033  1
  I  I129  1  0.66741762  0.50838087  0.16229927  1
  I  I130  1  0.66659174  0.49842635  0.50017457  1
  I  I131  1  0.66959554  0.50268782  0.83858787  1
  I  I132  1  0.66730392  0.82400230  0.17185240  1
  I  I133  1  0.67023640  0.83276734  0.49235708  1
  I  I134  1  0.66694195  0.83208019  0.83382541  1
