# generated using pymatgen
data_Cs27Sn13Pb14I81
_symmetry_space_group_name_H-M   'P 1'
_cell_length_a   18.98454274
_cell_length_b   19.00735682
_cell_length_c   18.98415098
_cell_angle_alpha   89.99924405
_cell_angle_beta   90.00424480
_cell_angle_gamma   90.00070167
_symmetry_Int_Tables_number   1
_chemical_formula_structural   Cs27Sn13Pb14I81
_chemical_formula_sum   'Cs27 Sn13 Pb14 I81'
_cell_volume   6850.35450309
_cell_formula_units_Z   1
loop_
 _symmetry_equiv_pos_site_id
 _symmetry_equiv_pos_as_xyz
  1  'x, y, z'
loop_
 _atom_site_type_symbol
 _atom_site_label
 _atom_site_symmetry_multiplicity
 _atom_site_fract_x
 _atom_site_fract_y
 _atom_site_fract_z
 _atom_site_occupancy
  Cs  Cs0  1  0.00051367  -0.00467965  -0.00053590  1
  Cs  Cs1  1  0.00145813  0.00503224  0.33102187  1
  Cs  Cs2  1  -0.00222589  -0.00436459  0.67015140  1
  Cs  Cs3  1  -0.00237702  0.33307833  -0.00041015  1
  Cs  Cs4  1  0.00191395  0.32856918  0.33111946  1
  Cs  Cs5  1  -0.00010551  0.33590835  0.66872282  1
  Cs  Cs6  1  0.00230954  0.67203526  -0.00019796  1
  Cs  Cs7  1  0.00087451  0.66686488  0.33401244  1
  Cs  Cs8  1  -0.00208396  0.66780626  0.66507299  1
  Cs  Cs9  1  0.33631526  -0.00179962  -0.00171276  1
  Cs  Cs10  1  0.33094544  0.00472594  0.33820691  1
  Cs  Cs11  1  0.33465499  0.00216598  0.66558290  1
  Cs  Cs12  1  0.33472175  0.33521534  -0.00227966  1
  Cs  Cs13  1  0.33091562  0.33447811  0.33592471  1
  Cs  Cs14  1  0.33213232  0.33235941  0.66778274  1
  Cs  Cs15  1  0.33288690  0.66636789  -0.00033264  1
  Cs  Cs16  1  0.33267167  0.66094743  0.33376686  1
  Cs  Cs17  1  0.33106754  0.66615217  0.66751982  1
  Cs  Cs18  1  0.66436072  0.00192322  0.00261666  1
  Cs  Cs19  1  0.66783906  -0.00056848  0.33126548  1
  Cs  Cs20  1  0.66680767  -0.00288328  0.66398857  1
  Cs  Cs21  1  0.66691459  0.33062523  -0.00029915  1
  Cs  Cs22  1  0.66642947  0.33449275  0.33267140  1
  Cs  Cs23  1  0.66997594  0.33617528  0.66717253  1
  Cs  Cs24  1  0.66372946  0.66735814  0.00228761  1
  Cs  Cs25  1  0.66673157  0.66596239  0.33777397  1
  Cs  Cs26  1  0.67425059  0.66660831  0.65653589  1
  Sn  Sn27  1  0.16713491  0.16710885  0.83380789  1
  Sn  Sn28  1  0.49946259  0.16668853  0.83389810  1
  Sn  Sn29  1  0.83338843  0.50012589  0.16626097  1
  Sn  Sn30  1  0.50019485  0.16616310  0.16633817  1
  Sn  Sn31  1  0.50040224  0.83310167  0.83330622  1
  Sn  Sn32  1  0.83259847  0.83340897  0.16662032  1
  Sn  Sn33  1  0.16701734  0.83279267  0.49989313  1
  Sn  Sn34  1  0.16660742  0.50050714  0.50065971  1
  Sn  Sn35  1  0.83246255  0.16653903  0.16721358  1
  Sn  Sn36  1  0.50037984  0.83405951  0.16644054  1
  Sn  Sn37  1  0.16716705  0.49941288  0.83279387  1
  Sn  Sn38  1  0.50006605  0.50021579  0.83308715  1
  Sn  Sn39  1  0.83304755  0.16671642  0.49968712  1
  Pb  Pb40  1  0.49805911  0.83334007  0.49919582  1
  Pb  Pb41  1  0.16892465  0.83311707  0.83177825  1
  Pb  Pb42  1  0.83550207  0.83546808  0.49705071  1
  Pb  Pb43  1  0.82998009  0.83319108  0.83564945  1
  Pb  Pb44  1  0.50224096  0.16675362  0.50003369  1
  Pb  Pb45  1  0.83601061  0.49783303  0.49743520  1
  Pb  Pb46  1  0.49777560  0.49980169  0.50301404  1
  Pb  Pb47  1  0.16451790  0.16699734  0.50286183  1
  Pb  Pb48  1  0.83285965  0.16654233  0.83391211  1
  Pb  Pb49  1  0.16452586  0.49990632  0.16582556  1
  Pb  Pb50  1  0.16745358  0.16662900  0.16369951  1
  Pb  Pb51  1  0.50165028  0.49984330  0.16489316  1
  Pb  Pb52  1  0.16802835  0.83350758  0.16894611  1
  Pb  Pb53  1  0.83351752  0.50036704  0.83538551  1
  I  I54  1  0.16082014  0.00011012  0.16777760  1
  I  I55  1  0.16574920  -0.00162036  0.49998249  1
  I  I56  1  0.16996802  0.00235918  0.83215068  1
  I  I57  1  0.16541154  0.33324582  0.17167207  1
  I  I58  1  0.16480680  0.33580820  0.50277514  1
  I  I59  1  0.17467206  0.33378126  0.82799872  1
  I  I60  1  0.16553101  0.66669408  0.16271497  1
  I  I61  1  0.16659525  0.66573031  0.50616894  1
  I  I62  1  0.17085004  0.66385016  0.83185568  1
  I  I63  1  0.50905888  0.00040471  0.15710159  1
  I  I64  1  0.49609947  0.00008379  0.50537482  1
  I  I65  1  0.49570751  0.00065665  0.83835189  1
  I  I66  1  0.50514266  0.33032501  0.16184501  1
  I  I67  1  0.49798517  0.33320677  0.49827627  1
  I  I68  1  0.49517282  0.33269272  0.83778410  1
  I  I69  1  0.50433439  0.66945480  0.16175095  1
  I  I70  1  0.50226644  0.66661826  0.49920579  1
  I  I71  1  0.49457729  0.66669285  0.83960669  1
  I  I72  1  0.82892125  0.00048824  0.17072166  1
  I  I73  1  0.83588575  0.00298833  0.49497410  1
  I  I74  1  0.83700688  0.00008900  0.83367911  1
  I  I75  1  0.83020940  0.33197810  0.17006141  1
  I  I76  1  0.83485968  0.33033864  0.49386549  1
  I  I77  1  0.82979839  0.33325927  0.83619281  1
  I  I78  1  0.82979669  0.66742682  0.16381507  1
  I  I79  1  0.83276370  0.66664740  0.49869840  1
  I  I80  1  0.83436215  0.66674625  0.83599147  1
  I  I81  1  0.16582403  0.17311610  -0.00410379  1
  I  I82  1  0.16860715  0.16746860  0.33340013  1
  I  I83  1  0.17218145  0.16798887  0.67042438  1
  I  I84  1  0.17002652  0.49543591  -0.00365638  1
  I  I85  1  0.16396508  0.50453977  0.33592687  1
  I  I86  1  0.17106754  0.49932476  0.66775818  1
  I  I87  1  0.16350433  0.83290872  -0.00002259  1
  I  I88  1  0.16730085  0.82671918  0.33664583  1
  I  I89  1  0.16815034  0.83272050  0.66408218  1
  I  I90  1  0.50248706  0.16602703  -0.00021044  1
  I  I91  1  0.50279873  0.16039402  0.32982979  1
  I  I92  1  0.49671052  0.16583161  0.67032914  1
  I  I93  1  0.49323006  0.49989369  -0.00328200  1
  I  I94  1  0.49895938  0.50016057  0.33317502  1
  I  I95  1  0.49933961  0.49855680  0.67166784  1
  I  I96  1  0.50305707  0.83464830  0.00007619  1
  I  I97  1  0.50392936  0.83934835  0.32947074  1
  I  I98  1  0.49615786  0.83532092  0.66968366  1
  I  I99  1  0.83203567  0.16680103  0.00344684  1
  I  I100  1  0.82927588  0.16654164  0.33116583  1
  I  I101  1  0.83452284  0.16766162  0.66463662  1
  I  I102  1  0.83516050  0.49555539  0.00340299  1
  I  I103  1  0.83364399  0.50210133  0.32956229  1
  I  I104  1  0.83092106  0.49726860  0.66651625  1
  I  I105  1  0.83504551  0.83758951  0.00409989  1
  I  I106  1  0.82571545  0.83104203  0.32915823  1
  I  I107  1  0.83256362  0.83533368  0.66624946  1
  I  I108  1  -0.00303482  0.16618946  0.16974452  1
  I  I109  1  -0.00296336  0.16669225  0.49238717  1
  I  I110  1  0.00248668  0.17310991  0.83244690  1
  I  I111  1  -0.00366458  0.49904614  0.16521459  1
  I  I112  1  0.00355552  0.50408784  0.50834960  1
  I  I113  1  0.00342368  0.49359928  0.83069319  1
  I  I114  1  -0.00278060  0.83440736  0.16879933  1
  I  I115  1  0.00310402  0.82910100  0.50058360  1
  I  I116  1  0.00016271  0.83378154  0.83424006  1
  I  I117  1  0.33706370  0.16082612  0.16409252  1
  I  I118  1  0.33314891  0.16686464  0.49689336  1
  I  I119  1  0.33463914  0.16750344  0.83824649  1
  I  I120  1  0.33340382  0.50014787  0.16902478  1
  I  I121  1  0.32954223  0.50236009  0.49893547  1
  I  I122  1  0.33343348  0.49850853  0.83075816  1
  I  I123  1  0.33736397  0.83859395  0.16242421  1
  I  I124  1  0.33027442  0.83043971  0.49851759  1
  I  I125  1  0.33681390  0.83360084  0.84064995  1
  I  I126  1  0.66667393  0.16598133  0.16392411  1
  I  I127  1  0.67003430  0.16580599  0.49979207  1
  I  I128  1  0.66313119  0.16766416  0.83528832  1
  I  I129  1  0.66966333  0.49890907  0.16401862  1
  I  I130  1  0.66708907  0.49946094  0.50163594  1
  I  I131  1  0.66342796  0.49712989  0.83736436  1
  I  I132  1  0.66642443  0.83504732  0.16164056  1
  I  I133  1  0.66676187  0.83455567  0.50313687  1
  I  I134  1  0.66168356  0.83553625  0.83425508  1
