# generated using pymatgen
data_Cs27Sn14Pb13I81
_symmetry_space_group_name_H-M   'P 1'
_cell_length_a   18.97646235
_cell_length_b   18.98036729
_cell_length_c   18.97019749
_cell_angle_alpha   89.99935463
_cell_angle_beta   89.99994883
_cell_angle_gamma   90.00016518
_symmetry_Int_Tables_number   1
_chemical_formula_structural   Cs27Sn14Pb13I81
_chemical_formula_sum   'Cs27 Sn14 Pb13 I81'
_cell_volume   6832.69000481
_cell_formula_units_Z   1
loop_
 _symmetry_equiv_pos_site_id
 _symmetry_equiv_pos_as_xyz
  1  'x, y, z'
loop_
 _atom_site_type_symbol
 _atom_site_label
 _atom_site_symmetry_multiplicity
 _atom_site_fract_x
 _atom_site_fract_y
 _atom_site_fract_z
 _atom_site_occupancy
  Cs  Cs0  1  0.00043627  -0.00306554  -0.00011501  1
  Cs  Cs1  1  0.00132356  -0.00049179  0.33463055  1
  Cs  Cs2  1  -0.00083849  -0.00115466  0.66546723  1
  Cs  Cs3  1  0.00018649  0.33554657  -0.00739939  1
  Cs  Cs4  1  0.00122318  0.33184333  0.33481922  1
  Cs  Cs5  1  -0.00705605  0.33317333  0.67362378  1
  Cs  Cs6  1  -0.00279404  0.66856485  -0.00022298  1
  Cs  Cs7  1  0.00063997  0.66776004  0.33254141  1
  Cs  Cs8  1  0.00180938  0.67092868  0.66761491  1
  Cs  Cs9  1  0.33427976  0.00129977  0.00208632  1
  Cs  Cs10  1  0.33213844  0.00176499  0.33220451  1
  Cs  Cs11  1  0.33479637  -0.00169767  0.66638838  1
  Cs  Cs12  1  0.33254019  0.33270205  -0.00034403  1
  Cs  Cs13  1  0.33194322  0.33075084  0.33061377  1
  Cs  Cs14  1  0.33277917  0.33526310  0.67452101  1
  Cs  Cs15  1  0.33236999  0.66595987  0.00100088  1
  Cs  Cs16  1  0.33232532  0.66608634  0.33375269  1
  Cs  Cs17  1  0.34004061  0.66623188  0.66573182  1
  Cs  Cs18  1  0.66420873  -0.00009096  0.00142197  1
  Cs  Cs19  1  0.66517360  0.00216708  0.33188930  1
  Cs  Cs20  1  0.66691887  -0.00024156  0.66990511  1
  Cs  Cs21  1  0.66787325  0.33391292  -0.00458953  1
  Cs  Cs22  1  0.66740209  0.33233725  0.33565936  1
  Cs  Cs23  1  0.67584528  0.34037812  0.67111854  1
  Cs  Cs24  1  0.67174287  0.66555347  0.00206452  1
  Cs  Cs25  1  0.66796349  0.66221051  0.33376740  1
  Cs  Cs26  1  0.65539623  0.66250520  0.66426881  1
  Sn  Sn27  1  0.49998090  0.16713866  0.16742042  1
  Sn  Sn28  1  0.49931989  0.16702269  0.49986973  1
  Sn  Sn29  1  0.83390104  0.16683593  0.16674629  1
  Sn  Sn30  1  0.49927700  0.83296823  0.16716045  1
  Sn  Sn31  1  0.83331958  0.83334655  0.50074707  1
  Sn  Sn32  1  0.49917498  0.49966857  0.16711246  1
  Sn  Sn33  1  0.16721121  0.49992438  0.16755335  1
  Sn  Sn34  1  0.16737565  0.83316727  0.16670088  1
  Sn  Sn35  1  0.16651833  0.83360696  0.83323666  1
  Sn  Sn36  1  0.16750987  0.16732872  0.49970900  1
  Sn  Sn37  1  0.16619532  0.16693082  0.16708063  1
  Sn  Sn38  1  0.16656991  0.49944916  0.49949542  1
  Sn  Sn39  1  0.83357150  0.83351242  0.83173929  1
  Sn  Sn40  1  0.16630168  0.83328011  0.50011013  1
  Pb  Pb41  1  0.49967876  0.83514345  0.49751958  1
  Pb  Pb42  1  0.49965823  0.49999681  0.83650445  1
  Pb  Pb43  1  0.49990883  0.16668101  0.83270661  1
  Pb  Pb44  1  0.83351418  0.50377275  0.83318621  1
  Pb  Pb45  1  0.83346920  0.16387668  0.83607364  1
  Pb  Pb46  1  0.49733415  0.49650968  0.49777537  1
  Pb  Pb47  1  0.16675606  0.50299037  0.83331198  1
  Pb  Pb48  1  0.83630747  0.50297237  0.49969433  1
  Pb  Pb49  1  0.49994113  0.83340053  0.83619044  1
  Pb  Pb50  1  0.83410808  0.49681131  0.16689663  1
  Pb  Pb51  1  0.83348775  0.83480071  0.16721305  1
  Pb  Pb52  1  0.83357296  0.16480806  0.49849904  1
  Pb  Pb53  1  0.16681387  0.16412828  0.83284412  1
  I  I54  1  0.16863906  -0.00015634  0.16827946  1
  I  I55  1  0.16608758  -0.00034631  0.49656113  1
  I  I56  1  0.16291754  -0.00403250  0.83527906  1
  I  I57  1  0.16964652  0.33272693  0.17391682  1
  I  I58  1  0.17238617  0.33249823  0.48922481  1
  I  I59  1  0.16722023  0.33341671  0.83437793  1
  I  I60  1  0.17294561  0.66753440  0.16870835  1
  I  I61  1  0.16109611  0.66766381  0.49617989  1
  I  I62  1  0.16191371  0.67111336  0.83548184  1
  I  I63  1  0.49738139  0.00054755  0.16889521  1
  I  I64  1  0.49414177  0.00285807  0.49201998  1
  I  I65  1  0.49977762  -0.00022680  0.83788612  1
  I  I66  1  0.49639190  0.33246767  0.17020866  1
  I  I67  1  0.49508846  0.32873506  0.49152985  1
  I  I68  1  0.49924809  0.33330536  0.83611209  1
  I  I69  1  0.49249711  0.66695014  0.16529413  1
  I  I70  1  0.50048351  0.66647297  0.49860329  1
  I  I71  1  0.49994947  0.66701511  0.83377731  1
  I  I72  1  0.83338836  0.00255631  0.16673225  1
  I  I73  1  0.84062151  -0.00318540  0.50166741  1
  I  I74  1  0.83887160  -0.00383651  0.82990937  1
  I  I75  1  0.83328019  0.32890603  0.16865813  1
  I  I76  1  0.83357917  0.33319921  0.49776066  1
  I  I77  1  0.83247539  0.33333272  0.83466482  1
  I  I78  1  0.83229111  0.66676098  0.16519530  1
  I  I79  1  0.83885039  0.67133556  0.50127391  1
  I  I80  1  0.84027668  0.67165751  0.83401355  1
  I  I81  1  0.16809354  0.16650616  0.00377765  1
  I  I82  1  0.16724798  0.16203256  0.33212723  1
  I  I83  1  0.17177692  0.16600659  0.66279781  1
  I  I84  1  0.17067506  0.49911837  0.00374607  1
  I  I85  1  0.16982431  0.50459408  0.33211212  1
  I  I86  1  0.16564762  0.49966249  0.66334695  1
  I  I87  1  0.16615809  0.83377646  0.00153713  1
  I  I88  1  0.16597524  0.83380159  0.33304131  1
  I  I89  1  0.16083323  0.83434154  0.66558330  1
  I  I90  1  0.49870230  0.16584657  0.00439598  1
  I  I91  1  0.49842040  0.16525716  0.33122568  1
  I  I92  1  0.49261805  0.16309913  0.66291945  1
  I  I93  1  0.49242527  0.49762539  0.00539064  1
  I  I94  1  0.49785858  0.50300376  0.32939358  1
  I  I95  1  0.49866708  0.49955530  0.66612580  1
  I  I96  1  0.49605635  0.83678751  0.00472964  1
  I  I97  1  0.49605964  0.83298325  0.32921469  1
  I  I98  1  0.49791527  0.83584387  0.66636177  1
  I  I99  1  0.83315582  0.16406635  0.00440849  1
  I  I100  1  0.83359362  0.16231727  0.33034139  1
  I  I101  1  0.83329883  0.16686340  0.66658060  1
  I  I102  1  0.83463482  0.50200142  0.00039368  1
  I  I103  1  0.83167828  0.50480579  0.33309842  1
  I  I104  1  0.83538202  0.49515014  0.66640033  1
  I  I105  1  0.83694145  0.83550193  -0.00161308  1
  I  I106  1  0.83828407  0.83520466  0.33571110  1
  I  I107  1  0.84452107  0.83528376  0.66616968  1
  I  I108  1  0.00186414  0.16417524  0.17101723  1
  I  I109  1  0.00360545  0.16660836  0.49405201  1
  I  I110  1  0.00025096  0.16766026  0.83496260  1
  I  I111  1  0.00404848  0.50214293  0.17000212  1
  I  I112  1  0.00483804  0.49547905  0.49155968  1
  I  I113  1  0.00041491  0.49779054  0.83710027  1
  I  I114  1  0.00341692  0.83368126  0.16664118  1
  I  I115  1  0.00250402  0.83547182  0.49787242  1
  I  I116  1  0.00135405  0.83390700  0.83588126  1
  I  I117  1  0.33272416  0.16542998  0.16992794  1
  I  I118  1  0.33169129  0.16270775  0.49019314  1
  I  I119  1  0.33313612  0.16342544  0.83825405  1
  I  I120  1  0.33206469  0.49757858  0.16990541  1
  I  I121  1  0.32923028  0.50772610  0.49745031  1
  I  I122  1  0.33288681  0.50316836  0.83181989  1
  I  I123  1  0.33158669  0.83726582  0.16643093  1
  I  I124  1  0.32959805  0.83172937  0.50197917  1
  I  I125  1  0.33013170  0.83335613  0.83144252  1
  I  I126  1  0.66530046  0.16415622  0.17028160  1
  I  I127  1  0.66414960  0.16222062  0.49221511  1
  I  I128  1  0.66673586  0.16233412  0.83519950  1
  I  I129  1  0.66366657  0.50189366  0.16537608  1
  I  I130  1  0.66632447  0.50072928  0.49870210  1
  I  I131  1  0.66663541  0.50211915  0.83531732  1
  I  I132  1  0.66419217  0.83487619  0.16598466  1
  I  I133  1  0.66879803  0.83711328  0.50259262  1
  I  I134  1  0.66951428  0.83467664  0.83079238  1
