# generated using pymatgen
data_Cs27Sn13Pb14I81
_symmetry_space_group_name_H-M   'P 1'
_cell_length_a   18.97588206
_cell_length_b   18.97433459
_cell_length_c   18.97973414
_cell_angle_alpha   89.99929886
_cell_angle_beta   89.99903688
_cell_angle_gamma   89.99976523
_symmetry_Int_Tables_number   1
_chemical_formula_structural   Cs27Sn13Pb14I81
_chemical_formula_sum   'Cs27 Sn13 Pb14 I81'
_cell_volume   6833.74315150
_cell_formula_units_Z   1
loop_
 _symmetry_equiv_pos_site_id
 _symmetry_equiv_pos_as_xyz
  1  'x, y, z'
loop_
 _atom_site_type_symbol
 _atom_site_label
 _atom_site_symmetry_multiplicity
 _atom_site_fract_x
 _atom_site_fract_y
 _atom_site_fract_z
 _atom_site_occupancy
  Cs  Cs0  1  -0.00143826  -0.01128955  0.00220802  1
  Cs  Cs1  1  -0.00179439  0.00346155  0.32886633  1
  Cs  Cs2  1  -0.00115105  0.00031668  0.67044681  1
  Cs  Cs3  1  0.00056795  0.33357931  -0.00105947  1
  Cs  Cs4  1  -0.00006977  0.33077194  0.33405130  1
  Cs  Cs5  1  0.00027683  0.33525091  0.66723383  1
  Cs  Cs6  1  -0.00025985  0.67402971  -0.00003381  1
  Cs  Cs7  1  0.00310487  0.66803950  0.33409684  1
  Cs  Cs8  1  0.00464500  0.66483969  0.66581362  1
  Cs  Cs9  1  0.33337814  0.00259776  -0.00529424  1
  Cs  Cs10  1  0.33382137  0.00015009  0.33385508  1
  Cs  Cs11  1  0.33689373  -0.00318553  0.67239169  1
  Cs  Cs12  1  0.33357116  0.33112649  0.00108243  1
  Cs  Cs13  1  0.33412210  0.33287858  0.33165963  1
  Cs  Cs14  1  0.32997384  0.33194716  0.66857981  1
  Cs  Cs15  1  0.33053330  0.66685318  0.00365222  1
  Cs  Cs16  1  0.33284158  0.67031144  0.33492878  1
  Cs  Cs17  1  0.32639676  0.67222568  0.66286881  1
  Cs  Cs18  1  0.66797559  -0.00389473  -0.00216481  1
  Cs  Cs19  1  0.66768777  0.00295796  0.33370959  1
  Cs  Cs20  1  0.66332539  -0.00352129  0.66795957  1
  Cs  Cs21  1  0.66585269  0.33636082  -0.00098860  1
  Cs  Cs22  1  0.66625289  0.33290461  0.33378765  1
  Cs  Cs23  1  0.66804824  0.33367864  0.66641834  1
  Cs  Cs24  1  0.66798243  0.66266531  -0.00089020  1
  Cs  Cs25  1  0.66397748  0.66334896  0.33590240  1
  Cs  Cs26  1  0.66732179  0.66714238  0.66524107  1
  Sn  Sn27  1  0.16723043  0.16757525  0.16733357  1
  Sn  Sn28  1  0.83332255  0.83253231  0.49956503  1
  Sn  Sn29  1  0.16545751  0.49910986  0.16692774  1
  Sn  Sn30  1  0.16771359  0.16686181  0.49962770  1
  Sn  Sn31  1  0.83326211  0.16729526  0.83368509  1
  Sn  Sn32  1  0.83269809  0.49905092  0.83308827  1
  Sn  Sn33  1  0.49997096  0.49992605  0.83159065  1
  Sn  Sn34  1  0.50036878  0.83470481  0.16675143  1
  Sn  Sn35  1  0.83290524  0.50078546  0.49996037  1
  Sn  Sn36  1  0.49908525  0.16761279  0.49963149  1
  Sn  Sn37  1  0.50012524  0.49916689  0.50141378  1
  Sn  Sn38  1  0.49970825  0.16567899  0.16710669  1
  Sn  Sn39  1  0.83469562  0.49955823  0.16695881  1
  Pb  Pb40  1  0.83312877  0.83211627  0.83084952  1
  Pb  Pb41  1  0.50138332  0.83348499  0.49854877  1
  Pb  Pb42  1  0.16658412  0.50000501  0.83599526  1
  Pb  Pb43  1  0.49988071  0.49934847  0.16709028  1
  Pb  Pb44  1  0.16906776  0.83415552  0.16693134  1
  Pb  Pb45  1  0.83298252  0.16716179  0.50167939  1
  Pb  Pb46  1  0.83088501  0.83025651  0.16905778  1
  Pb  Pb47  1  0.16690940  0.49819301  0.49791510  1
  Pb  Pb48  1  0.16398091  0.16672473  0.83397943  1
  Pb  Pb49  1  0.50016136  0.82952784  0.83593107  1
  Pb  Pb50  1  0.50186060  0.16857198  0.83328006  1
  Pb  Pb51  1  0.16389328  0.83722363  0.49964881  1
  Pb  Pb52  1  0.83312432  0.16839590  0.16436322  1
  Pb  Pb53  1  0.16686855  0.83331187  0.83315677  1
  I  I54  1  0.16819842  0.00375596  0.17074568  1
  I  I55  1  0.17072268  0.00512225  0.49277079  1
  I  I56  1  0.16372058  0.00064091  0.83518560  1
  I  I57  1  0.16910855  0.33268876  0.17007435  1
  I  I58  1  0.16555190  0.33028957  0.49702484  1
  I  I59  1  0.16700436  0.33336716  0.83260408  1
  I  I60  1  0.16447452  0.66393995  0.16518991  1
  I  I61  1  0.16881154  0.66656043  0.49870392  1
  I  I62  1  0.16497060  0.66603930  0.83535365  1
  I  I63  1  0.49535257  0.00211767  0.17275090  1
  I  I64  1  0.49896385  0.00324533  0.49682325  1
  I  I65  1  0.50207983  0.00010643  0.83138645  1
  I  I66  1  0.49901996  0.33085464  0.16803402  1
  I  I67  1  0.50347024  0.33355141  0.49656642  1
  I  I68  1  0.50382691  0.33657784  0.83502735  1
  I  I69  1  0.50143154  0.66772301  0.16623903  1
  I  I70  1  0.50386570  0.66346312  0.50078405  1
  I  I71  1  0.50843920  0.66149104  0.83026474  1
  I  I72  1  0.83559109  -0.00001061  0.16628152  1
  I  I73  1  0.83333561  -0.00148143  0.50200008  1
  I  I74  1  0.83434654  0.00224697  0.83138263  1
  I  I75  1  0.83143314  0.33680613  0.17163639  1
  I  I76  1  0.83180473  0.33649389  0.49862030  1
  I  I77  1  0.82982340  0.33543091  0.83100697  1
  I  I78  1  0.83646267  0.66189903  0.16138743  1
  I  I79  1  0.82692982  0.66398067  0.50089940  1
  I  I80  1  0.82890933  0.66254762  0.83611991  1
  I  I81  1  0.17156590  0.17172215  0.00368288  1
  I  I82  1  0.16956380  0.17120191  0.33256981  1
  I  I83  1  0.16950521  0.16699887  0.66382471  1
  I  I84  1  0.16511743  0.49364736  0.00417472  1
  I  I85  1  0.16319209  0.49729045  0.32998994  1
  I  I86  1  0.16427769  0.49821181  0.66638421  1
  I  I87  1  0.16560279  0.83393549  0.00063983  1
  I  I88  1  0.16624271  0.82998139  0.33325896  1
  I  I89  1  0.16677152  0.83381298  0.66597475  1
  I  I90  1  0.49652692  0.16563980  0.00289550  1
  I  I91  1  0.49766745  0.16953227  0.33350882  1
  I  I92  1  0.49767376  0.16960867  0.66360764  1
  I  I93  1  0.50419993  0.50019354  -0.00156319  1
  I  I94  1  0.50430569  0.49863759  0.33584504  1
  I  I95  1  0.50986537  0.49382398  0.66539033  1
  I  I96  1  0.50026742  0.83853547  0.00386207  1
  I  I97  1  0.50132564  0.83135412  0.33069384  1
  I  I98  1  0.50168315  0.83593941  0.66651604  1
  I  I99  1  0.83233586  0.17416828  -0.00307658  1
  I  I100  1  0.83342148  0.16760592  0.33328629  1
  I  I101  1  0.83348827  0.17263560  0.66916404  1
  I  I102  1  0.83128044  0.49421844  -0.00019695  1
  I  I103  1  0.83150523  0.50373680  0.33391311  1
  I  I104  1  0.82767964  0.49954937  0.66623256  1
  I  I105  1  0.83327292  0.83315830  0.00022001  1
  I  I106  1  0.83236952  0.82903259  0.33656861  1
  I  I107  1  0.83127771  0.82898408  0.66320369  1
  I  I108  1  0.00257259  0.17059974  0.17110717  1
  I  I109  1  0.00199618  0.16666406  0.49610898  1
  I  I110  1  -0.00375894  0.17470406  0.83098676  1
  I  I111  1  -0.00066043  0.49398311  0.16714176  1
  I  I112  1  -0.00299726  0.50182166  0.50222083  1
  I  I113  1  -0.00360619  0.49594279  0.83026694  1
  I  I114  1  -0.00024258  0.83523401  0.16668774  1
  I  I115  1  -0.00391202  0.82593928  0.50021990  1
  I  I116  1  -0.00063715  0.83301636  0.83446526  1
  I  I117  1  0.33370506  0.17012467  0.17039165  1
  I  I118  1  0.33462600  0.17319563  0.49524397  1
  I  I119  1  0.33348236  0.16834888  0.83363640  1
  I  I120  1  0.33143733  0.49900612  0.16634429  1
  I  I121  1  0.33646066  0.49729226  0.50203163  1
  I  I122  1  0.33638685  0.49942508  0.83111661  1
  I  I123  1  0.33677009  0.82974641  0.16876530  1
  I  I124  1  0.33342088  0.82977033  0.49843412  1
  I  I125  1  0.33398207  0.83261163  0.83282753  1
  I  I126  1  0.66374720  0.16569537  0.17118507  1
  I  I127  1  0.66384157  0.16855842  0.49578145  1
  I  I128  1  0.66959137  0.17067895  0.83281470  1
  I  I129  1  0.66887366  0.49998569  0.16643352  1
  I  I130  1  0.66696635  0.49792115  0.49776069  1
  I  I131  1  0.66778544  0.49608213  0.83574565  1
  I  I132  1  0.66342444  0.83861600  0.16742134  1
  I  I133  1  0.66930453  0.83261828  0.49884561  1
  I  I134  1  0.66671331  0.83592994  0.83419070  1
