# generated using pymatgen
data_Cs27Sn14Pb13I81
_symmetry_space_group_name_H-M   'P 1'
_cell_length_a   18.97092529
_cell_length_b   18.97387650
_cell_length_c   18.98679389
_cell_angle_alpha   90.00116336
_cell_angle_beta   90.00003736
_cell_angle_gamma   90.00056554
_symmetry_Int_Tables_number   1
_chemical_formula_structural   Cs27Sn14Pb13I81
_chemical_formula_sum   'Cs27 Sn14 Pb13 I81'
_cell_volume   6834.33430583
_cell_formula_units_Z   1
loop_
 _symmetry_equiv_pos_site_id
 _symmetry_equiv_pos_as_xyz
  1  'x, y, z'
loop_
 _atom_site_type_symbol
 _atom_site_label
 _atom_site_symmetry_multiplicity
 _atom_site_fract_x
 _atom_site_fract_y
 _atom_site_fract_z
 _atom_site_occupancy
  Cs  Cs0  1  0.00005170  0.00156878  0.00041475  1
  Cs  Cs1  1  0.00147285  0.00296345  0.33197217  1
  Cs  Cs2  1  0.00092424  -0.00096293  0.66696171  1
  Cs  Cs3  1  -0.00054345  0.33238704  -0.00052861  1
  Cs  Cs4  1  -0.00071444  0.33177652  0.33526570  1
  Cs  Cs5  1  -0.00180408  0.33068475  0.66310378  1
  Cs  Cs6  1  0.00197035  0.66557823  -0.00157883  1
  Cs  Cs7  1  -0.00066940  0.66388906  0.33302609  1
  Cs  Cs8  1  0.00155827  0.67247848  0.66778617  1
  Cs  Cs9  1  0.33620823  0.00048359  0.00184447  1
  Cs  Cs10  1  0.33231051  -0.00044579  0.33347284  1
  Cs  Cs11  1  0.33261946  -0.00081447  0.66348074  1
  Cs  Cs12  1  0.33896659  0.34143655  -0.00231559  1
  Cs  Cs13  1  0.33684895  0.33579945  0.33307935  1
  Cs  Cs14  1  0.33936798  0.33424598  0.66811753  1
  Cs  Cs15  1  0.33223571  0.66086475  -0.00189139  1
  Cs  Cs16  1  0.33610842  0.66510474  0.33425805  1
  Cs  Cs17  1  0.33219113  0.66710183  0.66797371  1
  Cs  Cs18  1  0.66526871  -0.00151425  0.00106119  1
  Cs  Cs19  1  0.66470994  -0.00069713  0.33185547  1
  Cs  Cs20  1  0.66489603  -0.00279295  0.66575513  1
  Cs  Cs21  1  0.66578803  0.33250426  -0.00204087  1
  Cs  Cs22  1  0.66666463  0.33401488  0.33433826  1
  Cs  Cs23  1  0.66513995  0.33394986  0.66756868  1
  Cs  Cs24  1  0.66790135  0.67094328  0.00073439  1
  Cs  Cs25  1  0.66680514  0.66700242  0.33511038  1
  Cs  Cs26  1  0.66723340  0.66902084  0.66277824  1
  Sn  Sn27  1  0.83372606  0.16715079  0.49994480  1
  Sn  Sn28  1  0.83371189  0.49947070  0.16644510  1
  Sn  Sn29  1  0.16632051  0.16692081  0.83379776  1
  Sn  Sn30  1  0.83391065  0.16681415  0.16659416  1
  Sn  Sn31  1  0.16547521  0.49895292  0.50006728  1
  Sn  Sn32  1  0.83403122  0.16715383  0.83336455  1
  Sn  Sn33  1  0.16661160  0.83353808  0.16657106  1
  Sn  Sn34  1  0.83380873  0.49954835  0.83305681  1
  Sn  Sn35  1  0.16591890  0.16787855  0.49986803  1
  Sn  Sn36  1  0.49981664  0.83351748  0.83401478  1
  Sn  Sn37  1  0.83453803  0.49915877  0.50035278  1
  Sn  Sn38  1  0.83396337  0.83358758  0.16668196  1
  Sn  Sn39  1  0.16626388  0.16666566  0.16612781  1
  Sn  Sn40  1  0.49960642  0.83337843  0.16580144  1
  Pb  Pb41  1  0.49977894  0.16514525  0.16665632  1
  Pb  Pb42  1  0.50314824  0.50266776  0.83326261  1
  Pb  Pb43  1  0.16637957  0.83358319  0.49754410  1
  Pb  Pb44  1  0.50022090  0.16488789  0.83344057  1
  Pb  Pb45  1  0.50000151  0.16676303  0.49991267  1
  Pb  Pb46  1  0.50311355  0.50273886  0.16659961  1
  Pb  Pb47  1  0.49983045  0.83343047  0.49978099  1
  Pb  Pb48  1  0.50029894  0.49976052  0.50008672  1
  Pb  Pb49  1  0.83363479  0.83382762  0.49738622  1
  Pb  Pb50  1  0.16409154  0.49731443  0.83066109  1
  Pb  Pb51  1  0.16862443  0.83582488  0.83608659  1
  Pb  Pb52  1  0.16460927  0.49909395  0.16831488  1
  Pb  Pb53  1  0.83239705  0.83389786  0.83550708  1
  I  I54  1  0.16204678  0.00100986  0.16878507  1
  I  I55  1  0.16221949  0.00381200  0.50150850  1
  I  I56  1  0.15911278  0.00400490  0.82806168  1
  I  I57  1  0.16040794  0.32969140  0.16574658  1
  I  I58  1  0.16076749  0.33188170  0.49701477  1
  I  I59  1  0.16539202  0.32908413  0.84056129  1
  I  I60  1  0.16553900  0.66898204  0.16917277  1
  I  I61  1  0.16195822  0.66365352  0.49763716  1
  I  I62  1  0.16659089  0.66648197  0.83270902  1
  I  I63  1  0.50564189  -0.00322481  0.16301457  1
  I  I64  1  0.50100021  0.00002368  0.49989098  1
  I  I65  1  0.50327666  -0.00281189  0.83933936  1
  I  I66  1  0.49973775  0.33359608  0.16754086  1
  I  I67  1  0.50048675  0.33331144  0.50011656  1
  I  I68  1  0.49858854  0.33342235  0.83227132  1
  I  I69  1  0.49901445  0.67112172  0.16293355  1
  I  I70  1  0.50110311  0.66659046  0.49897467  1
  I  I71  1  0.50115429  0.67035665  0.83979237  1
  I  I72  1  0.83310802  0.00077786  0.16653669  1
  I  I73  1  0.83759232  0.00381234  0.50072742  1
  I  I74  1  0.83543775  0.00355393  0.83315372  1
  I  I75  1  0.83864441  0.33242614  0.16704992  1
  I  I76  1  0.83692756  0.33277871  0.49529850  1
  I  I77  1  0.83641207  0.33231649  0.83797455  1
  I  I78  1  0.83206311  0.66673564  0.16705293  1
  I  I79  1  0.83618183  0.66334989  0.49994518  1
  I  I80  1  0.82998327  0.66412234  0.83333312  1
  I  I81  1  0.15866685  0.15933533  0.00073303  1
  I  I82  1  0.16014731  0.16483010  0.33299047  1
  I  I83  1  0.16009749  0.17049981  0.66632226  1
  I  I84  1  0.16565435  0.50051681  -0.00010226  1
  I  I85  1  0.16001333  0.49577781  0.33613981  1
  I  I86  1  0.16091070  0.49587964  0.66275832  1
  I  I87  1  0.16278799  0.83839443  0.00423225  1
  I  I88  1  0.16796555  0.83954260  0.32930985  1
  I  I89  1  0.17021515  0.83397556  0.66682425  1
  I  I90  1  0.50093525  0.16658850  0.00007333  1
  I  I91  1  0.50110603  0.16253509  0.33321467  1
  I  I92  1  0.50049450  0.16178223  0.66674896  1
  I  I93  1  0.50033517  0.49821068  -0.00001550  1
  I  I94  1  0.50251809  0.50344543  0.33322692  1
  I  I95  1  0.50217948  0.50394613  0.66675844  1
  I  I96  1  0.50221507  0.83514261  0.00164063  1
  I  I97  1  0.50116474  0.83372092  0.32954003  1
  I  I98  1  0.50217603  0.83409324  0.66958493  1
  I  I99  1  0.83833561  0.16840033  0.00054235  1
  I  I100  1  0.83823003  0.16804853  0.33284979  1
  I  I101  1  0.83878686  0.17380514  0.66660266  1
  I  I102  1  0.83165516  0.49766121  0.00041220  1
  I  I103  1  0.83647389  0.49857430  0.33337094  1
  I  I104  1  0.83564592  0.49235498  0.66617372  1
  I  I105  1  0.83458104  0.83345005  0.00396574  1
  I  I106  1  0.83034914  0.83338171  0.32876658  1
  I  I107  1  0.82884572  0.83296596  0.66678559  1
  I  I108  1  -0.00103764  0.16145678  0.16700352  1
  I  I109  1  -0.00065522  0.17041838  0.49882730  1
  I  I110  1  -0.00117722  0.16897040  0.83402167  1
  I  I111  1  -0.00396156  0.50536485  0.16491192  1
  I  I112  1  -0.00158616  0.49503602  0.49823135  1
  I  I113  1  -0.00411281  0.50051725  0.83747026  1
  I  I114  1  -0.00055352  0.83523195  0.16838726  1
  I  I115  1  -0.00007723  0.83228893  0.49986761  1
  I  I116  1  0.00010862  0.83141803  0.83433718  1
  I  I117  1  0.32958754  0.16063394  0.16812356  1
  I  I118  1  0.32923625  0.16966756  0.49945159  1
  I  I119  1  0.33004326  0.16321902  0.83275203  1
  I  I120  1  0.33313642  0.50024894  0.16937280  1
  I  I121  1  0.32993436  0.49543263  0.49824498  1
  I  I122  1  0.33306110  0.49913741  0.83169796  1
  I  I123  1  0.33268600  0.84050114  0.16412485  1
  I  I124  1  0.33299856  0.83384388  0.49688510  1
  I  I125  1  0.33637098  0.83544547  0.83963750  1
  I  I126  1  0.67061195  0.16609732  0.16678162  1
  I  I127  1  0.67085237  0.17047493  0.49938792  1
  I  I128  1  0.67059029  0.16949061  0.83394141  1
  I  I129  1  0.67201734  0.49825087  0.16986080  1
  I  I130  1  0.67093200  0.49635384  0.49921973  1
  I  I131  1  0.67156687  0.49233660  0.83168629  1
  I  I132  1  0.66762951  0.83301104  0.16290766  1
  I  I133  1  0.66699640  0.83328333  0.49691235  1
  I  I134  1  0.66458401  0.83490620  0.84082946  1
