# generated using pymatgen
data_Cs27Sn13Pb14I81
_symmetry_space_group_name_H-M   'P 1'
_cell_length_a   18.97635801
_cell_length_b   18.97573742
_cell_length_c   18.97529511
_cell_angle_alpha   90.00369265
_cell_angle_beta   90.00015602
_cell_angle_gamma   89.99980752
_symmetry_Int_Tables_number   1
_chemical_formula_structural   Cs27Sn13Pb14I81
_chemical_formula_sum   'Cs27 Sn13 Pb14 I81'
_cell_volume   6832.82134109
_cell_formula_units_Z   1
loop_
 _symmetry_equiv_pos_site_id
 _symmetry_equiv_pos_as_xyz
  1  'x, y, z'
loop_
 _atom_site_type_symbol
 _atom_site_label
 _atom_site_symmetry_multiplicity
 _atom_site_fract_x
 _atom_site_fract_y
 _atom_site_fract_z
 _atom_site_occupancy
  Cs  Cs0  1  -0.00028015  -0.00350702  0.00039337  1
  Cs  Cs1  1  -0.00363172  -0.00122633  0.33194137  1
  Cs  Cs2  1  -0.00100497  0.00065965  0.66765562  1
  Cs  Cs3  1  -0.00020749  0.33679828  -0.00303808  1
  Cs  Cs4  1  0.00017099  0.32951762  0.33700242  1
  Cs  Cs5  1  0.00913848  0.33381888  0.66589080  1
  Cs  Cs6  1  -0.00359378  0.67023044  0.00160796  1
  Cs  Cs7  1  0.00171007  0.67067713  0.33313228  1
  Cs  Cs8  1  -0.00091219  0.66617413  0.66567172  1
  Cs  Cs9  1  0.33299313  0.00175366  0.00214890  1
  Cs  Cs10  1  0.33553209  -0.00087235  0.32961867  1
  Cs  Cs11  1  0.33491516  -0.00162790  0.66848563  1
  Cs  Cs12  1  0.33314645  0.33259552  0.00087742  1
  Cs  Cs13  1  0.33351121  0.33438681  0.33261296  1
  Cs  Cs14  1  0.32358912  0.33310738  0.66602158  1
  Cs  Cs15  1  0.33690524  0.66443830  0.00089887  1
  Cs  Cs16  1  0.33199041  0.66684522  0.33340743  1
  Cs  Cs17  1  0.33484535  0.66833638  0.66733767  1
  Cs  Cs18  1  0.66662271  0.00134047  -0.00205846  1
  Cs  Cs19  1  0.66657585  0.00295466  0.33331830  1
  Cs  Cs20  1  0.66632080  -0.00179661  0.66768215  1
  Cs  Cs21  1  0.66753893  0.33977517  0.00117772  1
  Cs  Cs22  1  0.66713298  0.33242092  0.33316050  1
  Cs  Cs23  1  0.66777157  0.33260348  0.66506141  1
  Cs  Cs24  1  0.66644572  0.65449972  -0.00063630  1
  Cs  Cs25  1  0.66670677  0.66363438  0.33592330  1
  Cs  Cs26  1  0.66658167  0.66891521  0.66636434  1
  Sn  Sn27  1  0.16618921  0.83381134  0.50070797  1
  Sn  Sn28  1  0.83301542  0.50036263  0.50030200  1
  Sn  Sn29  1  0.49981332  0.16761809  0.50029086  1
  Sn  Sn30  1  0.16637199  0.83352072  0.83265876  1
  Sn  Sn31  1  0.50025793  0.49895992  0.50030290  1
  Sn  Sn32  1  0.16630993  0.49903708  0.16671723  1
  Sn  Sn33  1  0.16674551  0.16751525  0.16671543  1
  Sn  Sn34  1  0.83366802  0.83398843  0.83263357  1
  Sn  Sn35  1  0.83398286  0.83291160  0.50059438  1
  Sn  Sn36  1  0.49966731  0.16598593  0.16636680  1
  Sn  Sn37  1  0.83275534  0.16630406  0.83320211  1
  Sn  Sn38  1  0.50089345  0.83343971  0.16638176  1
  Sn  Sn39  1  0.50068271  0.16681459  0.83330855  1
  Pb  Pb40  1  0.49872247  0.49917716  0.16876773  1
  Pb  Pb41  1  0.83634628  0.49984207  0.16983081  1
  Pb  Pb42  1  0.16661980  0.50218291  0.49845882  1
  Pb  Pb43  1  0.82998863  0.83326421  0.16631502  1
  Pb  Pb44  1  0.16658067  0.50340176  0.83599211  1
  Pb  Pb45  1  0.49971862  0.49642450  0.83007885  1
  Pb  Pb46  1  0.16917599  0.16367657  0.49770602  1
  Pb  Pb47  1  0.50050478  0.83356508  0.49856055  1
  Pb  Pb48  1  0.50068439  0.83478395  0.83584139  1
  Pb  Pb49  1  0.83346040  0.50006452  0.83056301  1
  Pb  Pb50  1  0.83302943  0.16671712  0.16384044  1
  Pb  Pb51  1  0.83162072  0.16636743  0.50223664  1
  Pb  Pb52  1  0.16654804  0.16469554  0.83547064  1
  Pb  Pb53  1  0.16816616  0.83367907  0.16639976  1
  I  I54  1  0.17127467  0.00229803  0.16648713  1
  I  I55  1  0.16205741  -0.00405599  0.50121047  1
  I  I56  1  0.16575332  -0.00316072  0.83209451  1
  I  I57  1  0.17392199  0.33223019  0.16735464  1
  I  I58  1  0.16465245  0.33307091  0.49997776  1
  I  I59  1  0.16637129  0.33306576  0.83277335  1
  I  I60  1  0.16917940  0.66521266  0.16791705  1
  I  I61  1  0.16807877  0.67007109  0.49994156  1
  I  I62  1  0.16083003  0.67142388  0.83141852  1
  I  I63  1  0.49365438  0.00181189  0.16949541  1
  I  I64  1  0.49955521  0.00270795  0.50015842  1
  I  I65  1  0.50086510  0.00313183  0.82898258  1
  I  I66  1  0.49721663  0.32992123  0.16542022  1
  I  I67  1  0.50617449  0.33276363  0.49720000  1
  I  I68  1  0.50632023  0.32817733  0.84016481  1
  I  I69  1  0.49725555  0.66844217  0.16888570  1
  I  I70  1  0.50057895  0.66489849  0.49600954  1
  I  I71  1  0.49999043  0.66665643  0.83478250  1
  I  I72  1  0.83716851  -0.00008137  0.17161989  1
  I  I73  1  0.83552997  -0.00295671  0.50192476  1
  I  I74  1  0.83295496  -0.00097894  0.82758013  1
  I  I75  1  0.82935844  0.33322047  0.16639073  1
  I  I76  1  0.82964352  0.33549078  0.49983037  1
  I  I77  1  0.82740145  0.33040989  0.83426430  1
  I  I78  1  0.83307302  0.66675719  0.16250660  1
  I  I79  1  0.83059563  0.66779336  0.50487620  1
  I  I80  1  0.83791810  0.67004016  0.83164105  1
  I  I81  1  0.17324993  0.16728677  0.00323418  1
  I  I82  1  0.17248565  0.16780463  0.32988995  1
  I  I83  1  0.16817229  0.16718019  0.66667271  1
  I  I84  1  0.16917239  0.49715114  0.00373702  1
  I  I85  1  0.16787729  0.49883266  0.33074499  1
  I  I86  1  0.16671249  0.49912678  0.66640112  1
  I  I87  1  0.16304170  0.83418145  -0.00234923  1
  I  I88  1  0.16410850  0.83286405  0.33550644  1
  I  I89  1  0.16420352  0.83348172  0.66642708  1
  I  I90  1  0.49900798  0.15972425  0.00048724  1
  I  I91  1  0.49550444  0.16594939  0.33303798  1
  I  I92  1  0.50542647  0.16966900  0.66668237  1
  I  I93  1  0.49889742  0.50105184  0.00010402  1
  I  I94  1  0.50315142  0.49554524  0.33653978  1
  I  I95  1  0.50324764  0.49831083  0.66203280  1
  I  I96  1  0.49719201  0.83980867  0.00337023  1
  I  I97  1  0.49801692  0.83904343  0.33088957  1
  I  I98  1  0.49871199  0.83432033  0.66677833  1
  I  I99  1  0.82834461  0.15892299  -0.00406232  1
  I  I100  1  0.83232186  0.16609240  0.33362095  1
  I  I101  1  0.82718938  0.16401154  0.66998968  1
  I  I102  1  0.83361911  0.50118163  -0.00013055  1
  I  I103  1  0.82852317  0.50604870  0.33767698  1
  I  I104  1  0.82927304  0.50241599  0.66271890  1
  I  I105  1  0.83842433  0.83887298  -0.00337211  1
  I  I106  1  0.83728032  0.82951317  0.33651053  1
  I  I107  1  0.83657309  0.83356106  0.66637291  1
  I  I108  1  0.00284278  0.16963697  0.16572295  1
  I  I109  1  0.00013529  0.16914368  0.49962715  1
  I  I110  1  -0.00247363  0.16376523  0.83473538  1
  I  I111  1  0.00410023  0.49545151  0.16779483  1
  I  I112  1  -0.00250863  0.50340502  0.49842114  1
  I  I113  1  -0.00003098  0.49397571  0.83129549  1
  I  I114  1  -0.00011092  0.83362069  0.16715141  1
  I  I115  1  -0.00072460  0.82763872  0.50222489  1
  I  I116  1  -0.00071599  0.83936647  0.83039651  1
  I  I117  1  0.33473430  0.16569435  0.16513110  1
  I  I118  1  0.33744400  0.17107023  0.50424307  1
  I  I119  1  0.33611155  0.16470639  0.83247911  1
  I  I120  1  0.33101400  0.49981375  0.17011657  1
  I  I121  1  0.33573760  0.49731672  0.49757225  1
  I  I122  1  0.33328046  0.50124841  0.83070568  1
  I  I123  1  0.33586345  0.83566866  0.16787540  1
  I  I124  1  0.33139095  0.83352530  0.50203617  1
  I  I125  1  0.33120229  0.83479608  0.83013619  1
  I  I126  1  0.66308804  0.16167216  0.16907307  1
  I  I127  1  0.66322219  0.16554103  0.49514911  1
  I  I128  1  0.66604800  0.15955861  0.83395597  1
  I  I129  1  0.66667178  0.50066034  0.16603890  1
  I  I130  1  0.66655579  0.50276395  0.49903244  1
  I  I131  1  0.66654019  0.50451321  0.83637419  1
  I  I132  1  0.66240077  0.84131335  0.16853434  1
  I  I133  1  0.66935620  0.83224306  0.50340856  1
  I  I134  1  0.66968822  0.83701153  0.82844478  1
