# generated using pymatgen
data_Cs27Sn13Pb14I81
_symmetry_space_group_name_H-M   'P 1'
_cell_length_a   18.97594033
_cell_length_b   18.97521460
_cell_length_c   18.97908929
_cell_angle_alpha   89.99918697
_cell_angle_beta   90.00108329
_cell_angle_gamma   90.00002613
_symmetry_Int_Tables_number   1
_chemical_formula_structural   Cs27Sn13Pb14I81
_chemical_formula_sum   'Cs27 Sn13 Pb14 I81'
_cell_volume   6833.84888564
_cell_formula_units_Z   1
loop_
 _symmetry_equiv_pos_site_id
 _symmetry_equiv_pos_as_xyz
  1  'x, y, z'
loop_
 _atom_site_type_symbol
 _atom_site_label
 _atom_site_symmetry_multiplicity
 _atom_site_fract_x
 _atom_site_fract_y
 _atom_site_fract_z
 _atom_site_occupancy
  Cs  Cs0  1  0.00167091  0.00259080  0.00244548  1
  Cs  Cs1  1  0.00128282  0.00017327  0.33274154  1
  Cs  Cs2  1  0.00026201  -0.00375031  0.66686653  1
  Cs  Cs3  1  0.00034721  0.33458021  -0.00595808  1
  Cs  Cs4  1  0.00188686  0.33356492  0.33254407  1
  Cs  Cs5  1  -0.00770418  0.33348470  0.67287511  1
  Cs  Cs6  1  -0.00108210  0.66348215  -0.00177910  1
  Cs  Cs7  1  0.00044482  0.66631068  0.33300694  1
  Cs  Cs8  1  0.00442979  0.66938344  0.67138451  1
  Cs  Cs9  1  0.33303196  0.00565230  0.00206167  1
  Cs  Cs10  1  0.33059756  -0.00054376  0.33062051  1
  Cs  Cs11  1  0.33205106  -0.00031779  0.66855259  1
  Cs  Cs12  1  0.33207138  0.33158048  0.00063618  1
  Cs  Cs13  1  0.33199321  0.33434941  0.33366405  1
  Cs  Cs14  1  0.33796777  0.33206974  0.66529454  1
  Cs  Cs15  1  0.33700901  0.66573709  0.00032742  1
  Cs  Cs16  1  0.33339633  0.66536674  0.33295838  1
  Cs  Cs17  1  0.33093090  0.66716578  0.66716313  1
  Cs  Cs18  1  0.66566639  -0.00275249  0.00093392  1
  Cs  Cs19  1  0.66726544  -0.00216258  0.33159705  1
  Cs  Cs20  1  0.66693688  0.00404163  0.66701348  1
  Cs  Cs21  1  0.66787824  0.33401243  -0.00098815  1
  Cs  Cs22  1  0.66817290  0.33564228  0.33952292  1
  Cs  Cs23  1  0.67006320  0.32447447  0.65893550  1
  Cs  Cs24  1  0.66488530  0.66849290  0.00111254  1
  Cs  Cs25  1  0.66648109  0.66649600  0.33312319  1
  Cs  Cs26  1  0.66509939  0.66679236  0.66577952  1
  Sn  Sn27  1  0.83237373  0.83320434  0.83362108  1
  Sn  Sn28  1  0.49953022  0.49876840  0.16618519  1
  Sn  Sn29  1  0.50047648  0.83333480  0.50095729  1
  Sn  Sn30  1  0.16645680  0.49873307  0.49968120  1
  Sn  Sn31  1  0.16569285  0.83218799  0.16649605  1
  Sn  Sn32  1  0.83235598  0.16643584  0.16686054  1
  Sn  Sn33  1  0.83454338  0.83377832  0.16658647  1
  Sn  Sn34  1  0.50131727  0.16831285  0.16713310  1
  Sn  Sn35  1  0.16648921  0.16796392  0.50023515  1
  Sn  Sn36  1  0.50069171  0.83267517  0.83226826  1
  Sn  Sn37  1  0.16731287  0.50088944  0.16716108  1
  Sn  Sn38  1  0.83247999  0.83305621  0.49988651  1
  Sn  Sn39  1  0.50041099  0.50019825  0.83352931  1
  Pb  Pb40  1  0.16670017  0.83292408  0.49818932  1
  Pb  Pb41  1  0.49829937  0.16381987  0.49727427  1
  Pb  Pb42  1  0.83636676  0.50262642  0.50009705  1
  Pb  Pb43  1  0.16626704  0.16754741  0.16750711  1
  Pb  Pb44  1  0.49848639  0.50184991  0.50000949  1
  Pb  Pb45  1  0.50011697  0.83298647  0.16645595  1
  Pb  Pb46  1  0.83314668  0.16389593  0.83603034  1
  Pb  Pb47  1  0.16728434  0.83337126  0.83678783  1
  Pb  Pb48  1  0.16918355  0.49990826  0.83342313  1
  Pb  Pb49  1  0.16668086  0.16687173  0.82962256  1
  Pb  Pb50  1  0.50016487  0.16659887  0.83547950  1
  Pb  Pb51  1  0.82979852  0.50224776  0.83310987  1
  Pb  Pb52  1  0.83325055  0.49992645  0.16669817  1
  Pb  Pb53  1  0.83556617  0.16425940  0.49760572  1
  I  I54  1  0.16653926  -0.00199769  0.16893977  1
  I  I55  1  0.16668838  0.00128112  0.49632826  1
  I  I56  1  0.16953308  -0.00042019  0.83414725  1
  I  I57  1  0.16878609  0.33628581  0.16978581  1
  I  I58  1  0.16899136  0.33425037  0.49080261  1
  I  I59  1  0.16846152  0.33361614  0.83993590  1
  I  I60  1  0.16761569  0.66628880  0.17284585  1
  I  I61  1  0.16706125  0.66453789  0.49618292  1
  I  I62  1  0.16457428  0.66685938  0.82906615  1
  I  I63  1  0.49982483  0.00144056  0.16738979  1
  I  I64  1  0.50108025  -0.00421971  0.50348023  1
  I  I65  1  0.50405837  -0.00350993  0.83128657  1
  I  I66  1  0.49793879  0.33439004  0.16110133  1
  I  I67  1  0.49959649  0.33328712  0.50209406  1
  I  I68  1  0.49594131  0.33638515  0.83769238  1
  I  I69  1  0.49823969  0.66457062  0.16595421  1
  I  I70  1  0.50095605  0.67000729  0.49774147  1
  I  I71  1  0.50322826  0.66766696  0.83713138  1
  I  I72  1  0.83315573  -0.00175740  0.16668677  1
  I  I73  1  0.83242483  -0.00413691  0.50095584  1
  I  I74  1  0.82618027  -0.00465514  0.83138620  1
  I  I75  1  0.83258142  0.33055335  0.16764328  1
  I  I76  1  0.83233318  0.33307750  0.49801347  1
  I  I77  1  0.83392394  0.33320599  0.83549158  1
  I  I78  1  0.83414125  0.67014371  0.16667759  1
  I  I79  1  0.83108467  0.67135442  0.49517829  1
  I  I80  1  0.83260846  0.67101384  0.83734815  1
  I  I81  1  0.16696050  0.16525531  0.00037035  1
  I  I82  1  0.16716766  0.16626085  0.33513063  1
  I  I83  1  0.16800623  0.17016483  0.66163570  1
  I  I84  1  0.16859235  0.50508408  0.00340501  1
  I  I85  1  0.17287364  0.50137116  0.33188813  1
  I  I86  1  0.16793746  0.49780606  0.66368489  1
  I  I87  1  0.16364183  0.82852934  0.00489040  1
  I  I88  1  0.16406878  0.83251410  0.33022441  1
  I  I89  1  0.16436152  0.83345897  0.66665748  1
  I  I90  1  0.50137203  0.16395219  0.00393595  1
  I  I91  1  0.50288910  0.17003902  0.32926053  1
  I  I92  1  0.49767641  0.16828858  0.66630879  1
  I  I93  1  0.49460785  0.50364847  0.00132098  1
  I  I94  1  0.49710743  0.49903795  0.33039131  1
  I  I95  1  0.49718878  0.50585299  0.66905670  1
  I  I96  1  0.50287890  0.83198298  -0.00200780  1
  I  I97  1  0.50215196  0.83357817  0.33490357  1
  I  I98  1  0.50622595  0.82786796  0.66715713  1
  I  I99  1  0.83107834  0.16043413  0.00427239  1
  I  I100  1  0.82996065  0.15908637  0.32975063  1
  I  I101  1  0.83524621  0.16570261  0.66643507  1
  I  I102  1  0.83784053  0.50216951  0.00018372  1
  I  I103  1  0.82881744  0.50406925  0.33311496  1
  I  I104  1  0.83468213  0.50194867  0.66663846  1
  I  I105  1  0.83210325  0.83694677  0.00065769  1
  I  I106  1  0.83316810  0.83715043  0.33260042  1
  I  I107  1  0.82895367  0.83138997  0.66655183  1
  I  I108  1  -0.00231679  0.16245734  0.16915914  1
  I  I109  1  0.00316772  0.16759388  0.49493943  1
  I  I110  1  -0.00025970  0.16481769  0.83722591  1
  I  I111  1  0.00298168  0.50221839  0.17172018  1
  I  I112  1  0.00445093  0.49890422  0.49082906  1
  I  I113  1  -0.00007871  0.50133446  0.83416754  1
  I  I114  1  -0.00098621  0.83461959  0.16811643  1
  I  I115  1  -0.00255729  0.83366547  0.50101420  1
  I  I116  1  -0.00299415  0.83460342  0.83016529  1
  I  I117  1  0.33540889  0.16548782  0.16778390  1
  I  I118  1  0.33059231  0.16729668  0.49568865  1
  I  I119  1  0.33372931  0.16240659  0.83748772  1
  I  I120  1  0.33345895  0.50151804  0.16691290  1
  I  I121  1  0.33048568  0.50044849  0.49692971  1
  I  I122  1  0.33698784  0.50877359  0.83579680  1
  I  I123  1  0.33153229  0.83305105  0.16837255  1
  I  I124  1  0.33558970  0.83305417  0.50211935  1
  I  I125  1  0.33682274  0.82927245  0.82925822  1
  I  I126  1  0.66664636  0.16343099  0.16621849  1
  I  I127  1  0.66678313  0.16684778  0.50016615  1
  I  I128  1  0.66660072  0.16855530  0.83164060  1
  I  I129  1  0.66349958  0.50083828  0.16228574  1
  I  I130  1  0.66650529  0.50081833  0.49869827  1
  I  I131  1  0.66193432  0.50407316  0.84227670  1
  I  I132  1  0.66904956  0.83440600  0.16692317  1
  I  I133  1  0.66689636  0.83302482  0.49706796  1
  I  I134  1  0.66648224  0.82908291  0.83600248  1
