# generated using pymatgen
data_Cs27Sn14Pb13I81
_symmetry_space_group_name_H-M   'P 1'
_cell_length_a   18.98267471
_cell_length_b   18.97180179
_cell_length_c   18.97292114
_cell_angle_alpha   89.99861231
_cell_angle_beta   89.99851143
_cell_angle_gamma   89.99952357
_symmetry_Int_Tables_number   1
_chemical_formula_structural   Cs27Sn14Pb13I81
_chemical_formula_sum   'Cs27 Sn14 Pb13 I81'
_cell_volume   6832.82323238
_cell_formula_units_Z   1
loop_
 _symmetry_equiv_pos_site_id
 _symmetry_equiv_pos_as_xyz
  1  'x, y, z'
loop_
 _atom_site_type_symbol
 _atom_site_label
 _atom_site_symmetry_multiplicity
 _atom_site_fract_x
 _atom_site_fract_y
 _atom_site_fract_z
 _atom_site_occupancy
  Cs  Cs0  1  -0.01002687  0.00331131  0.00574614  1
  Cs  Cs1  1  0.00648559  0.00357080  0.33016686  1
  Cs  Cs2  1  -0.00203519  -0.00181628  0.66502040  1
  Cs  Cs3  1  0.00067585  0.33481770  0.00112283  1
  Cs  Cs4  1  -0.00107939  0.33205686  0.33180207  1
  Cs  Cs5  1  0.00082327  0.33647224  0.66731158  1
  Cs  Cs6  1  -0.00103736  0.66387287  -0.00308066  1
  Cs  Cs7  1  0.00181067  0.66606171  0.33612086  1
  Cs  Cs8  1  0.00072866  0.66657108  0.66757272  1
  Cs  Cs9  1  0.33471818  -0.00129427  0.00132029  1
  Cs  Cs10  1  0.32403985  -0.00190398  0.33258162  1
  Cs  Cs11  1  0.33376515  0.00152799  0.66491219  1
  Cs  Cs12  1  0.33424069  0.33529223  -0.00113706  1
  Cs  Cs13  1  0.33540205  0.33086235  0.33391230  1
  Cs  Cs14  1  0.33563782  0.33020462  0.66725631  1
  Cs  Cs15  1  0.33438026  0.66434507  -0.00185142  1
  Cs  Cs16  1  0.33377470  0.66985709  0.33156266  1
  Cs  Cs17  1  0.33272705  0.66764755  0.67006332  1
  Cs  Cs18  1  0.67501897  0.00129535  0.00136783  1
  Cs  Cs19  1  0.66889373  -0.00393814  0.33124545  1
  Cs  Cs20  1  0.66773418  0.00131716  0.66748291  1
  Cs  Cs21  1  0.66490068  0.33162578  0.00003939  1
  Cs  Cs22  1  0.66498097  0.33522627  0.33692371  1
  Cs  Cs23  1  0.66355804  0.32957809  0.66183043  1
  Cs  Cs24  1  0.66478054  0.66808100  0.00084850  1
  Cs  Cs25  1  0.66558997  0.66678484  0.33599616  1
  Cs  Cs26  1  0.66683398  0.66769314  0.66330735  1
  Sn  Sn27  1  0.50011773  0.49906186  0.16590644  1
  Sn  Sn28  1  0.16703397  0.50003152  0.16686519  1
  Sn  Sn29  1  0.50027035  0.83336124  0.50080638  1
  Sn  Sn30  1  0.16640377  0.16608946  0.83360563  1
  Sn  Sn31  1  0.83285482  0.50019578  0.16588254  1
  Sn  Sn32  1  0.83345311  0.16567076  0.50006077  1
  Sn  Sn33  1  0.49963198  0.83285028  0.83258699  1
  Sn  Sn34  1  0.16697781  0.49998657  0.83334769  1
  Sn  Sn35  1  0.83249407  0.49983550  0.83365057  1
  Sn  Sn36  1  0.49990989  0.16702260  0.16664438  1
  Sn  Sn37  1  0.83313524  0.83445070  0.50012663  1
  Sn  Sn38  1  0.50043766  0.50046693  0.83359227  1
  Sn  Sn39  1  0.16696047  0.83402436  0.83368757  1
  Sn  Sn40  1  0.16739042  0.49981456  0.50014033  1
  Pb  Pb41  1  0.49997542  0.83309235  0.16594179  1
  Pb  Pb42  1  0.16679432  0.83162737  0.50200461  1
  Pb  Pb43  1  0.16485830  0.16907380  0.50210622  1
  Pb  Pb44  1  0.83490986  0.50032050  0.50008950  1
  Pb  Pb45  1  0.83295654  0.83127052  0.83183950  1
  Pb  Pb46  1  0.16859518  0.16897289  0.16414372  1
  Pb  Pb47  1  0.83126206  0.16945396  0.16888113  1
  Pb  Pb48  1  0.83361822  0.83050265  0.16954949  1
  Pb  Pb49  1  0.49750476  0.50168059  0.50010982  1
  Pb  Pb50  1  0.16645659  0.83099020  0.16297824  1
  Pb  Pb51  1  0.83551973  0.16959654  0.83161566  1
  Pb  Pb52  1  0.49847260  0.16611446  0.83489042  1
  Pb  Pb53  1  0.50139865  0.16343436  0.49743635  1
  I  I54  1  0.16917597  0.00026547  0.16639822  1
  I  I55  1  0.16785323  -0.00006049  0.50217680  1
  I  I56  1  0.17399139  -0.00079031  0.83008437  1
  I  I57  1  0.16413798  0.33774530  0.16373610  1
  I  I58  1  0.16421027  0.33728046  0.50277092  1
  I  I59  1  0.16621828  0.33577134  0.83349318  1
  I  I60  1  0.17033962  0.66195252  0.16513863  1
  I  I61  1  0.16354324  0.66348162  0.50223315  1
  I  I62  1  0.16748756  0.66479028  0.83321166  1
  I  I63  1  0.50022347  0.00234555  0.16676263  1
  I  I64  1  0.50092813  -0.00433091  0.50640378  1
  I  I65  1  0.49379577  -0.00319822  0.83056143  1
  I  I66  1  0.49954328  0.33613300  0.16092447  1
  I  I67  1  0.50113463  0.33338965  0.50221683  1
  I  I68  1  0.49843189  0.33662986  0.83586325  1
  I  I69  1  0.49928850  0.66307396  0.16529294  1
  I  I70  1  0.50662046  0.66935298  0.49973667  1
  I  I71  1  0.49507081  0.66521202  0.83517435  1
  I  I72  1  0.83059017  0.00027267  0.16530837  1
  I  I73  1  0.82867668  -0.00083378  0.50264961  1
  I  I74  1  0.83406798  0.00003153  0.83327168  1
  I  I75  1  0.83669655  0.33765022  0.16507107  1
  I  I76  1  0.83650253  0.33201404  0.49987785  1
  I  I77  1  0.83399358  0.33800552  0.83450918  1
  I  I78  1  0.83062493  0.66199339  0.16425442  1
  I  I79  1  0.83068374  0.66863515  0.50005008  1
  I  I80  1  0.83849272  0.66288621  0.83421558  1
  I  I81  1  0.16686286  0.17003142  -0.00374777  1
  I  I82  1  0.16656456  0.16872804  0.33314350  1
  I  I83  1  0.16795909  0.17162794  0.67007639  1
  I  I84  1  0.16664828  0.50034616  -0.00114620  1
  I  I85  1  0.16503942  0.50064917  0.33260550  1
  I  I86  1  0.16478445  0.50065935  0.66868296  1
  I  I87  1  0.17484690  0.82940045  -0.00513665  1
  I  I88  1  0.16749407  0.83018750  0.33335179  1
  I  I89  1  0.16754256  0.82780881  0.67007745  1
  I  I90  1  0.49891360  0.16906865  0.00265240  1
  I  I91  1  0.50088610  0.17579016  0.32994714  1
  I  I92  1  0.49989507  0.16969798  0.66665665  1
  I  I93  1  0.49606082  0.50201823  -0.00083557  1
  I  I94  1  0.50029916  0.49804574  0.33049971  1
  I  I95  1  0.49978152  0.50251643  0.66983471  1
  I  I96  1  0.49390762  0.82989382  -0.00343428  1
  I  I97  1  0.50549138  0.83151161  0.33570302  1
  I  I98  1  0.49979613  0.82646972  0.66791512  1
  I  I99  1  0.83366652  0.16549526  0.00009568  1
  I  I100  1  0.83363062  0.16531099  0.33652269  1
  I  I101  1  0.83291684  0.16620082  0.66389722  1
  I  I102  1  0.83836294  0.50018955  -0.00050971  1
  I  I103  1  0.83392018  0.50010531  0.33078505  1
  I  I104  1  0.83540706  0.50069324  0.66925818  1
  I  I105  1  0.83289405  0.83410873  -0.00017698  1
  I  I106  1  0.82590345  0.83324650  0.33762571  1
  I  I107  1  0.83241024  0.83252889  0.66394140  1
  I  I108  1  -0.00003453  0.16794141  0.16701531  1
  I  I109  1  -0.00291102  0.16094587  0.50002710  1
  I  I110  1  0.00356309  0.16807090  0.83264122  1
  I  I111  1  0.00043533  0.50180426  0.16334424  1
  I  I112  1  0.00277436  0.50215490  0.50173503  1
  I  I113  1  0.00128095  0.50033570  0.83521933  1
  I  I114  1  0.00005683  0.83147780  0.16720485  1
  I  I115  1  -0.00221531  0.83365395  0.50191951  1
  I  I116  1  0.00253232  0.82925397  0.83101502  1
  I  I117  1  0.33624842  0.17340255  0.16693380  1
  I  I118  1  0.33327258  0.16667119  0.49953254  1
  I  I119  1  0.33051898  0.17330050  0.83334612  1
  I  I120  1  0.33353880  0.49682947  0.16295119  1
  I  I121  1  0.32975019  0.50206288  0.50144396  1
  I  I122  1  0.33290804  0.50119383  0.83577485  1
  I  I123  1  0.33339214  0.83194896  0.17275973  1
  I  I124  1  0.33575664  0.82956461  0.50201311  1
  I  I125  1  0.33374535  0.82638443  0.82740712  1
  I  I126  1  0.66363837  0.17332332  0.16505538  1
  I  I127  1  0.66932151  0.16894143  0.50117723  1
  I  I128  1  0.66676507  0.16741498  0.83357181  1
  I  I129  1  0.66599583  0.49666052  0.15995107  1
  I  I130  1  0.66646272  0.49903830  0.50004423  1
  I  I131  1  0.66570563  0.50526683  0.84014038  1
  I  I132  1  0.66660512  0.83070587  0.16291479  1
  I  I133  1  0.66628791  0.83446303  0.50604075  1
  I  I134  1  0.66368024  0.82704629  0.83121337  1
