# generated using pymatgen
data_Cs27Sn13Pb14I81
_symmetry_space_group_name_H-M   'P 1'
_cell_length_a   18.97246628
_cell_length_b   18.98222847
_cell_length_c   18.97778875
_cell_angle_alpha   89.99859206
_cell_angle_beta   90.00116319
_cell_angle_gamma   90.00205787
_symmetry_Int_Tables_number   1
_chemical_formula_structural   Cs27Sn13Pb14I81
_chemical_formula_sum   'Cs27 Sn13 Pb14 I81'
_cell_volume   6834.65494146
_cell_formula_units_Z   1
loop_
 _symmetry_equiv_pos_site_id
 _symmetry_equiv_pos_as_xyz
  1  'x, y, z'
loop_
 _atom_site_type_symbol
 _atom_site_label
 _atom_site_symmetry_multiplicity
 _atom_site_fract_x
 _atom_site_fract_y
 _atom_site_fract_z
 _atom_site_occupancy
  Cs  Cs0  1  0.00094159  0.00142573  0.00039211  1
  Cs  Cs1  1  0.00384143  0.00363860  0.33018958  1
  Cs  Cs2  1  -0.00215660  -0.00053275  0.66779246  1
  Cs  Cs3  1  -0.00313098  0.33397441  0.00432353  1
  Cs  Cs4  1  0.00340944  0.33030953  0.32934430  1
  Cs  Cs5  1  0.00182832  0.33431551  0.66670274  1
  Cs  Cs6  1  0.00074966  0.66345184  -0.00491085  1
  Cs  Cs7  1  0.00133835  0.66704500  0.33571316  1
  Cs  Cs8  1  0.00467355  0.66577448  0.66903513  1
  Cs  Cs9  1  0.33251710  -0.00225384  0.00149785  1
  Cs  Cs10  1  0.32902324  0.00059623  0.32979600  1
  Cs  Cs11  1  0.33440732  0.00095579  0.66752790  1
  Cs  Cs12  1  0.33971964  0.33567350  -0.00421008  1
  Cs  Cs13  1  0.32998883  0.33144497  0.33478561  1
  Cs  Cs14  1  0.33360732  0.33408992  0.66869975  1
  Cs  Cs15  1  0.33116125  0.66574996  0.00462772  1
  Cs  Cs16  1  0.33301783  0.66780940  0.32932225  1
  Cs  Cs17  1  0.32418424  0.66647334  0.66719642  1
  Cs  Cs18  1  0.66720936  -0.00007842  -0.00281314  1
  Cs  Cs19  1  0.66690984  -0.00054593  0.33496436  1
  Cs  Cs20  1  0.66741145  0.00011325  0.66627190  1
  Cs  Cs21  1  0.66530848  0.34032431  0.00113276  1
  Cs  Cs22  1  0.66770169  0.33318627  0.33371693  1
  Cs  Cs23  1  0.66511164  0.33125118  0.66656285  1
  Cs  Cs24  1  0.66591823  0.66185341  0.00305452  1
  Cs  Cs25  1  0.66531116  0.66758326  0.33473287  1
  Cs  Cs26  1  0.66883622  0.67083503  0.66296116  1
  Sn  Sn27  1  0.83278845  0.16668109  0.50059218  1
  Sn  Sn28  1  0.83219309  0.83397678  0.83338039  1
  Sn  Sn29  1  0.50082884  0.16641596  0.16745954  1
  Sn  Sn30  1  0.16557027  0.16652269  0.83309830  1
  Sn  Sn31  1  0.50082325  0.83310054  0.83266539  1
  Sn  Sn32  1  0.50019705  0.83340601  0.50085741  1
  Sn  Sn33  1  0.50074187  0.16640414  0.49892902  1
  Sn  Sn34  1  0.16660469  0.49984795  0.16672309  1
  Sn  Sn35  1  0.83286599  0.49976035  0.50018579  1
  Sn  Sn36  1  0.83322962  0.83346122  0.16664376  1
  Sn  Sn37  1  0.83306409  0.83360829  0.49990684  1
  Sn  Sn38  1  0.83392106  0.16636471  0.83274371  1
  Sn  Sn39  1  0.50046076  0.50023966  0.50029077  1
  Pb  Pb40  1  0.16674722  0.83367152  0.49993404  1
  Pb  Pb41  1  0.16660788  0.16656293  0.50187649  1
  Pb  Pb42  1  0.83467308  0.50254061  0.16961850  1
  Pb  Pb43  1  0.83296021  0.50004937  0.83077556  1
  Pb  Pb44  1  0.50110255  0.16505793  0.83278384  1
  Pb  Pb45  1  0.16647646  0.83520228  0.83327430  1
  Pb  Pb46  1  0.16670298  0.49983302  0.49859533  1
  Pb  Pb47  1  0.16354652  0.83149353  0.16648113  1
  Pb  Pb48  1  0.16932567  0.16830548  0.16380120  1
  Pb  Pb49  1  0.49863739  0.49781558  0.16948499  1
  Pb  Pb50  1  0.50187538  0.83494626  0.16696669  1
  Pb  Pb51  1  0.50030718  0.50389984  0.83026919  1
  Pb  Pb52  1  0.16656384  0.49714851  0.83569352  1
  Pb  Pb53  1  0.83151528  0.16512213  0.16650853  1
  I  I54  1  0.16723345  0.00027927  0.16618086  1
  I  I55  1  0.16713310  0.00019022  0.49885805  1
  I  I56  1  0.16486058  0.00294036  0.83372593  1
  I  I57  1  0.16516918  0.33571909  0.16810463  1
  I  I58  1  0.16656907  0.33316765  0.50032497  1
  I  I59  1  0.16144676  0.32930375  0.83194644  1
  I  I60  1  0.16835350  0.66388301  0.16791995  1
  I  I61  1  0.16596610  0.66668790  0.50000760  1
  I  I62  1  0.16649172  0.66663539  0.83391928  1
  I  I63  1  0.50003345  0.00269330  0.17254778  1
  I  I64  1  0.50636710  -0.00005266  0.50069120  1
  I  I65  1  0.50170597  -0.00278381  0.82771749  1
  I  I66  1  0.50052543  0.32986660  0.17036424  1
  I  I67  1  0.50596711  0.33258049  0.49511198  1
  I  I68  1  0.49898116  0.33327195  0.83334556  1
  I  I69  1  0.49896883  0.66673682  0.16673261  1
  I  I70  1  0.50723081  0.66745952  0.50410564  1
  I  I71  1  0.50709416  0.67188162  0.82987808  1
  I  I72  1  0.83222205  -0.00281301  0.17122086  1
  I  I73  1  0.82734728  -0.00013114  0.50152756  1
  I  I74  1  0.83358306  -0.00040362  0.82823086  1
  I  I75  1  0.83371317  0.33336159  0.16656117  1
  I  I76  1  0.82717995  0.33227090  0.50457030  1
  I  I77  1  0.83746691  0.33001966  0.82870058  1
  I  I78  1  0.83272067  0.67052881  0.16585388  1
  I  I79  1  0.82748596  0.66769431  0.49883077  1
  I  I80  1  0.82952320  0.67034394  0.83275729  1
  I  I81  1  0.16084323  0.16635206  -0.00364813  1
  I  I82  1  0.16487472  0.16784732  0.33306404  1
  I  I83  1  0.16684873  0.16631755  0.66963055  1
  I  I84  1  0.16634825  0.50061851  0.00318933  1
  I  I85  1  0.16624937  0.49884142  0.33105325  1
  I  I86  1  0.16690271  0.50005710  0.66670658  1
  I  I87  1  0.16791525  0.83341368  -0.00017602  1
  I  I88  1  0.16659554  0.83362689  0.33321120  1
  I  I89  1  0.16373826  0.83210632  0.66670699  1
  I  I90  1  0.49869636  0.16370291  0.00150139  1
  I  I91  1  0.50522054  0.16489300  0.33579344  1
  I  I92  1  0.50081365  0.16817017  0.66336316  1
  I  I93  1  0.49773848  0.49864765  0.00013089  1
  I  I94  1  0.50413898  0.50528422  0.33762689  1
  I  I95  1  0.50357509  0.49273179  0.66205155  1
  I  I96  1  0.50437911  0.83790677  -0.00250232  1
  I  I97  1  0.50486634  0.83163212  0.33687280  1
  I  I98  1  0.50815028  0.83613081  0.66532537  1
  I  I99  1  0.83569367  0.16052959  -0.00286407  1
  I  I100  1  0.83042757  0.16557964  0.33665793  1
  I  I101  1  0.83163821  0.16225314  0.66562107  1
  I  I102  1  0.83582024  0.50025119  0.00015872  1
  I  I103  1  0.82945788  0.49952892  0.33780490  1
  I  I104  1  0.82998875  0.50372107  0.66242885  1
  I  I105  1  0.83004908  0.83933777  -0.00141056  1
  I  I106  1  0.82924049  0.83264436  0.33518710  1
  I  I107  1  0.82895278  0.83482133  0.66604120  1
  I  I108  1  -0.00019478  0.16646175  0.16891516  1
  I  I109  1  -0.00377699  0.16601843  0.50187777  1
  I  I110  1  -0.00226678  0.16077066  0.82816026  1
  I  I111  1  0.00230094  0.49933590  0.16904920  1
  I  I112  1  -0.00339678  0.50102415  0.49903543  1
  I  I113  1  -0.00032228  0.50462599  0.83008483  1
  I  I114  1  -0.00466893  0.83506589  0.16819254  1
  I  I115  1  -0.00441310  0.83276956  0.50128357  1
  I  I116  1  -0.00388047  0.83500007  0.83168262  1
  I  I117  1  0.33705153  0.16560062  0.17269433  1
  I  I118  1  0.33695040  0.16687199  0.49804555  1
  I  I119  1  0.33213957  0.16540435  0.83378818  1
  I  I120  1  0.33095742  0.49969488  0.16869581  1
  I  I121  1  0.33673215  0.49970458  0.49887016  1
  I  I122  1  0.33353533  0.49845058  0.83050278  1
  I  I123  1  0.33358614  0.83363131  0.16647809  1
  I  I124  1  0.33741436  0.83306701  0.50495308  1
  I  I125  1  0.33646067  0.83563850  0.82753106  1
  I  I126  1  0.66374482  0.16620219  0.16761681  1
  I  I127  1  0.66710608  0.16629137  0.50213846  1
  I  I128  1  0.66981035  0.16298546  0.83077364  1
  I  I129  1  0.66666498  0.49978245  0.16535123  1
  I  I130  1  0.66687721  0.50032623  0.49929919  1
  I  I131  1  0.66663974  0.49367252  0.83828649  1
  I  I132  1  0.66985903  0.83361901  0.16764704  1
  I  I133  1  0.66733888  0.83338418  0.50086210  1
  I  I134  1  0.66807694  0.84041880  0.83097363  1
