# generated using pymatgen
data_Cs27Sn14Pb13I81
_symmetry_space_group_name_H-M   'P 1'
_cell_length_a   18.98142578
_cell_length_b   18.97759401
_cell_length_c   18.96969410
_cell_angle_alpha   90.00084260
_cell_angle_beta   90.00066801
_cell_angle_gamma   90.00133664
_symmetry_Int_Tables_number   1
_chemical_formula_structural   Cs27Sn14Pb13I81
_chemical_formula_sum   'Cs27 Sn14 Pb13 I81'
_cell_volume   6833.29720133
_cell_formula_units_Z   1
loop_
 _symmetry_equiv_pos_site_id
 _symmetry_equiv_pos_as_xyz
  1  'x, y, z'
loop_
 _atom_site_type_symbol
 _atom_site_label
 _atom_site_symmetry_multiplicity
 _atom_site_fract_x
 _atom_site_fract_y
 _atom_site_fract_z
 _atom_site_occupancy
  Cs  Cs0  1  0.00091680  0.00076875  0.00007370  1
  Cs  Cs1  1  0.00094758  0.00093136  0.33659611  1
  Cs  Cs2  1  -0.00090381  -0.00158829  0.65946528  1
  Cs  Cs3  1  0.00255632  0.33337687  -0.00000273  1
  Cs  Cs4  1  -0.00208078  0.33356839  0.33199826  1
  Cs  Cs5  1  -0.00224961  0.33412411  0.66804010  1
  Cs  Cs6  1  -0.00247257  0.66635905  -0.00239219  1
  Cs  Cs7  1  0.00217018  0.66576469  0.33326626  1
  Cs  Cs8  1  0.00120625  0.66722005  0.66820404  1
  Cs  Cs9  1  0.33414974  0.00339992  -0.00391235  1
  Cs  Cs10  1  0.33261306  -0.00033117  0.33451303  1
  Cs  Cs11  1  0.33357651  -0.00034949  0.66587442  1
  Cs  Cs12  1  0.32980357  0.32853385  -0.00343784  1
  Cs  Cs13  1  0.33482664  0.33482270  0.33194882  1
  Cs  Cs14  1  0.33667388  0.33503864  0.67365142  1
  Cs  Cs15  1  0.33312398  0.66928041  0.00026147  1
  Cs  Cs16  1  0.33156901  0.66542418  0.33427904  1
  Cs  Cs17  1  0.33369128  0.66287327  0.66480551  1
  Cs  Cs18  1  0.66539140  -0.00801027  -0.00146914  1
  Cs  Cs19  1  0.66654312  0.00122847  0.33337471  1
  Cs  Cs20  1  0.66650820  0.00272806  0.66641661  1
  Cs  Cs21  1  0.66823068  0.33271660  0.00274823  1
  Cs  Cs22  1  0.66696603  0.33334439  0.33425135  1
  Cs  Cs23  1  0.66407489  0.33419321  0.66723218  1
  Cs  Cs24  1  0.66989588  0.67846794  -0.00403014  1
  Cs  Cs25  1  0.66549279  0.66503590  0.33136187  1
  Cs  Cs26  1  0.66507678  0.66373919  0.67242101  1
  Sn  Sn27  1  0.16655293  0.83280570  0.16561841  1
  Sn  Sn28  1  0.16807801  0.16865142  0.49980550  1
  Sn  Sn29  1  0.50024325  0.49952425  0.16672807  1
  Sn  Sn30  1  0.49880046  0.16618374  0.49903452  1
  Sn  Sn31  1  0.83295051  0.49960810  0.16730023  1
  Sn  Sn32  1  0.50137247  0.83370588  0.49938131  1
  Sn  Sn33  1  0.83398905  0.50112760  0.49926497  1
  Sn  Sn34  1  0.16659384  0.83338694  0.83448587  1
  Sn  Sn35  1  0.16663378  0.50077472  0.16732140  1
  Sn  Sn36  1  0.83166607  0.83158371  0.49940844  1
  Sn  Sn37  1  0.83334744  0.16675638  0.83487716  1
  Sn  Sn38  1  0.83248564  0.16699299  0.16563287  1
  Sn  Sn39  1  0.16587140  0.49843893  0.49928703  1
  Sn  Sn40  1  0.50088666  0.16730126  0.16749202  1
  Pb  Pb41  1  0.83333795  0.49813996  0.83376978  1
  Pb  Pb42  1  0.49773249  0.83375045  0.16852402  1
  Pb  Pb43  1  0.16439427  0.16467940  0.82991269  1
  Pb  Pb44  1  0.83542076  0.83341462  0.16867178  1
  Pb  Pb45  1  0.50018832  0.49992063  0.83816131  1
  Pb  Pb46  1  0.49746967  0.83341379  0.83002867  1
  Pb  Pb47  1  0.50228750  0.16670717  0.83384041  1
  Pb  Pb48  1  0.83282989  0.16751208  0.49920233  1
  Pb  Pb49  1  0.50016423  0.49961551  0.49863416  1
  Pb  Pb50  1  0.16690856  0.83264543  0.49961282  1
  Pb  Pb51  1  0.83523401  0.83567836  0.83026714  1
  Pb  Pb52  1  0.16657850  0.50176124  0.83354484  1
  Pb  Pb53  1  0.16670990  0.16708621  0.16821502  1
  I  I54  1  0.16621899  -0.00186886  0.16656877  1
  I  I55  1  0.16599154  0.00162694  0.49952575  1
  I  I56  1  0.16581857  -0.00294035  0.83841329  1
  I  I57  1  0.16612028  0.33628914  0.17062212  1
  I  I58  1  0.16462715  0.33430473  0.49308499  1
  I  I59  1  0.16615136  0.33312214  0.83485764  1
  I  I60  1  0.16683061  0.66513077  0.17036976  1
  I  I61  1  0.16580341  0.66401831  0.49852902  1
  I  I62  1  0.16538337  0.66959459  0.83127137  1
  I  I63  1  0.50361081  0.00306477  0.16977372  1
  I  I64  1  0.49924067  0.00113848  0.49417569  1
  I  I65  1  0.49986818  0.00003742  0.83737830  1
  I  I66  1  0.49972630  0.33292065  0.17412158  1
  I  I67  1  0.49962680  0.33063857  0.49715039  1
  I  I68  1  0.49926746  0.33306587  0.82590880  1
  I  I69  1  0.50129306  0.66389547  0.16959360  1
  I  I70  1  0.49920632  0.66848464  0.49806034  1
  I  I71  1  0.50052395  0.66687963  0.83171562  1
  I  I72  1  0.83037540  0.00284050  0.16562535  1
  I  I73  1  0.83464718  -0.00138506  0.50035281  1
  I  I74  1  0.83412003  0.00328369  0.83807950  1
  I  I75  1  0.83503038  0.33390086  0.16961315  1
  I  I76  1  0.83525412  0.33605838  0.49851764  1
  I  I77  1  0.83431976  0.33026881  0.83133312  1
  I  I78  1  0.83152888  0.66358244  0.17039126  1
  I  I79  1  0.83556907  0.66552263  0.49386191  1
  I  I80  1  0.83406574  0.66692977  0.83496618  1
  I  I81  1  0.16864355  0.16780592  0.00008654  1
  I  I82  1  0.16490971  0.16429468  0.33625804  1
  I  I83  1  0.16991818  0.16943523  0.66169919  1
  I  I84  1  0.16581158  0.50205973  0.00385629  1
  I  I85  1  0.16538342  0.50298496  0.33291015  1
  I  I86  1  0.16171562  0.49867622  0.66315217  1
  I  I87  1  0.16590366  0.82757710  0.00141396  1
  I  I88  1  0.16666762  0.83164273  0.33139214  1
  I  I89  1  0.16574862  0.83531891  0.66789358  1
  I  I90  1  0.50092828  0.17207191  0.00375239  1
  I  I91  1  0.50260975  0.16649590  0.33324968  1
  I  I92  1  0.49779897  0.16184021  0.66341991  1
  I  I93  1  0.49843514  0.49246118  0.00639249  1
  I  I94  1  0.49961267  0.49858208  0.33039006  1
  I  I95  1  0.49941032  0.50024531  0.66637817  1
  I  I96  1  0.50020025  0.83294582  0.00023652  1
  I  I97  1  0.50041618  0.83557693  0.33646486  1
  I  I98  1  0.50140202  0.84001234  0.66179064  1
  I  I99  1  0.82948912  0.17242618  0.00234588  1
  I  I100  1  0.83253175  0.16819607  0.33069990  1
  I  I101  1  0.83541705  0.16482927  0.66771237  1
  I  I102  1  0.83482558  0.49677741  0.00399641  1
  I  I103  1  0.83515721  0.49718611  0.33277330  1
  I  I104  1  0.83910305  0.50205574  0.66324403  1
  I  I105  1  0.83344100  0.83136789  0.00016646  1
  I  I106  1  0.83358553  0.83533516  0.33666822  1
  I  I107  1  0.83364450  0.83035024  0.66217974  1
  I  I108  1  -0.00246766  0.16939970  0.16575898  1
  I  I109  1  0.00167115  0.16544154  0.49956819  1
  I  I110  1  -0.00307482  0.16678362  0.83861585  1
  I  I111  1  -0.00020222  0.49949850  0.17162401  1
  I  I112  1  0.00012910  0.50005517  0.49212808  1
  I  I113  1  -0.00000106  0.49963110  0.83608151  1
  I  I114  1  0.00327727  0.82999910  0.16745162  1
  I  I115  1  -0.00170911  0.83417371  0.49988676  1
  I  I116  1  0.00282590  0.83362088  0.83436515  1
  I  I117  1  0.33575739  0.16919339  0.17071378  1
  I  I118  1  0.33399805  0.16394219  0.49365835  1
  I  I119  1  0.33320884  0.16541681  0.83503561  1
  I  I120  1  0.33271018  0.50075921  0.17249270  1
  I  I121  1  0.33082226  0.50092383  0.49520707  1
  I  I122  1  0.33315676  0.50033393  0.83020840  1
  I  I123  1  0.32988028  0.82921057  0.16729236  1
  I  I124  1  0.33518992  0.83527001  0.49957109  1
  I  I125  1  0.32974036  0.83432358  0.83585151  1
  I  I126  1  0.66673413  0.17478153  0.17005377  1
  I  I127  1  0.66428603  0.16501991  0.49904710  1
  I  I128  1  0.67001368  0.16647669  0.83084940  1
  I  I129  1  0.66750607  0.49305506  0.17306177  1
  I  I130  1  0.66930642  0.50024114  0.49534303  1
  I  I131  1  0.66690528  0.49945708  0.82892281  1
  I  I132  1  0.66667463  0.83091115  0.16677867  1
  I  I133  1  0.66688256  0.83539194  0.49830092  1
  I  I134  1  0.66682353  0.83390528  0.83418501  1
