# generated using pymatgen
data_Cs27Sn13Pb14I81
_symmetry_space_group_name_H-M   'P 1'
_cell_length_a   18.98339420
_cell_length_b   18.97874511
_cell_length_c   18.96904902
_cell_angle_alpha   89.99805499
_cell_angle_beta   90.00123711
_cell_angle_gamma   90.00054479
_symmetry_Int_Tables_number   1
_chemical_formula_structural   Cs27Sn13Pb14I81
_chemical_formula_sum   'Cs27 Sn13 Pb14 I81'
_cell_volume   6834.18794224
_cell_formula_units_Z   1
loop_
 _symmetry_equiv_pos_site_id
 _symmetry_equiv_pos_as_xyz
  1  'x, y, z'
loop_
 _atom_site_type_symbol
 _atom_site_label
 _atom_site_symmetry_multiplicity
 _atom_site_fract_x
 _atom_site_fract_y
 _atom_site_fract_z
 _atom_site_occupancy
  Cs  Cs0  1  0.00284176  -0.00010828  -0.00012204  1
  Cs  Cs1  1  0.00914816  -0.00268605  0.32948342  1
  Cs  Cs2  1  -0.00478198  -0.00018903  0.66849519  1
  Cs  Cs3  1  -0.00266778  0.33382710  0.00201373  1
  Cs  Cs4  1  -0.00238522  0.33279728  0.33427749  1
  Cs  Cs5  1  0.00086584  0.33124372  0.66441610  1
  Cs  Cs6  1  -0.00202594  0.66672241  0.00049096  1
  Cs  Cs7  1  0.00427835  0.66808879  0.33489843  1
  Cs  Cs8  1  -0.00256011  0.66963828  0.66401322  1
  Cs  Cs9  1  0.33260128  -0.00147772  0.00001810  1
  Cs  Cs10  1  0.33001165  0.00583718  0.33836631  1
  Cs  Cs11  1  0.33600820  0.00124795  0.66683388  1
  Cs  Cs12  1  0.33479039  0.33492881  -0.00258350  1
  Cs  Cs13  1  0.33350574  0.33037099  0.33635258  1
  Cs  Cs14  1  0.33151203  0.33422689  0.66748368  1
  Cs  Cs15  1  0.33486538  0.66694907  0.00081495  1
  Cs  Cs16  1  0.33257936  0.66634095  0.33214894  1
  Cs  Cs17  1  0.33330148  0.66450158  0.66580837  1
  Cs  Cs18  1  0.66503754  -0.00062631  0.00137009  1
  Cs  Cs19  1  0.66238392  0.00022843  0.33475394  1
  Cs  Cs20  1  0.66836428  -0.00167804  0.66449635  1
  Cs  Cs21  1  0.66871700  0.33639985  0.00253663  1
  Cs  Cs22  1  0.66826738  0.33268110  0.33145066  1
  Cs  Cs23  1  0.66773342  0.33493216  0.66735910  1
  Cs  Cs24  1  0.66641718  0.66531561  0.00047137  1
  Cs  Cs25  1  0.66549559  0.66682743  0.33260498  1
  Cs  Cs26  1  0.66931132  0.66774905  0.66693675  1
  Sn  Sn27  1  0.16640219  0.50027563  0.83420976  1
  Sn  Sn28  1  0.16747331  0.83307051  0.83343242  1
  Sn  Sn29  1  0.50042518  0.16601406  0.83366777  1
  Sn  Sn30  1  0.49917443  0.50051056  0.16753420  1
  Sn  Sn31  1  0.16662593  0.16668724  0.83350256  1
  Sn  Sn32  1  0.83244164  0.83346147  0.16666239  1
  Sn  Sn33  1  0.50089961  0.50011788  0.49912479  1
  Sn  Sn34  1  0.16756909  0.49967175  0.16584004  1
  Sn  Sn35  1  0.50040045  0.83296338  0.16625796  1
  Sn  Sn36  1  0.83236300  0.49957110  0.49995366  1
  Sn  Sn37  1  0.49947066  0.83387030  0.83396098  1
  Sn  Sn38  1  0.83323074  0.16709811  0.50021995  1
  Sn  Sn39  1  0.83295147  0.16696659  0.83316302  1
  Pb  Pb40  1  0.16700542  0.83348467  0.50326620  1
  Pb  Pb41  1  0.83317676  0.83400416  0.49700383  1
  Pb  Pb42  1  0.49984743  0.83120287  0.49996524  1
  Pb  Pb43  1  0.50211575  0.16921518  0.50268556  1
  Pb  Pb44  1  0.16686244  0.16971609  0.16429359  1
  Pb  Pb45  1  0.16783015  0.83146135  0.16471375  1
  Pb  Pb46  1  0.49876433  0.50035981  0.83350988  1
  Pb  Pb47  1  0.16404547  0.16660807  0.50255235  1
  Pb  Pb48  1  0.83284406  0.83539201  0.83505581  1
  Pb  Pb49  1  0.49990082  0.16669081  0.16468880  1
  Pb  Pb50  1  0.83323631  0.16396226  0.16710333  1
  Pb  Pb51  1  0.83334295  0.50174569  0.16889492  1
  Pb  Pb52  1  0.16668062  0.49996746  0.49981881  1
  Pb  Pb53  1  0.83619051  0.49794836  0.83132398  1
  I  I54  1  0.16555301  -0.00023462  0.16550772  1
  I  I55  1  0.16464867  0.00024546  0.49931602  1
  I  I56  1  0.16692258  0.00012601  0.83222038  1
  I  I57  1  0.17154337  0.33784318  0.16094048  1
  I  I58  1  0.16840704  0.33349597  0.50310210  1
  I  I59  1  0.16733822  0.33320703  0.83663477  1
  I  I60  1  0.16740423  0.66354258  0.16041316  1
  I  I61  1  0.16293960  0.66621245  0.50386453  1
  I  I62  1  0.17247086  0.66662124  0.83715028  1
  I  I63  1  0.50506940  -0.00323829  0.16253082  1
  I  I64  1  0.50151791  0.00026495  0.49825690  1
  I  I65  1  0.49532835  -0.00045330  0.83848198  1
  I  I66  1  0.49640749  0.33677158  0.16838102  1
  I  I67  1  0.50110668  0.33716967  0.49565076  1
  I  I68  1  0.49859442  0.33113377  0.83249007  1
  I  I69  1  0.50047673  0.66646689  0.16364109  1
  I  I70  1  0.50615861  0.66296128  0.50195276  1
  I  I71  1  0.49488910  0.66928611  0.83424626  1
  I  I72  1  0.82713584  -0.00372721  0.16634136  1
  I  I73  1  0.83399404  0.00311650  0.50616329  1
  I  I74  1  0.83763537  0.00350940  0.82755769  1
  I  I75  1  0.83335434  0.33341934  0.16483461  1
  I  I76  1  0.82995195  0.33357896  0.50443592  1
  I  I77  1  0.83200930  0.32969377  0.83294141  1
  I  I78  1  0.83180663  0.66935033  0.16649867  1
  I  I79  1  0.83043973  0.66397015  0.49898054  1
  I  I80  1  0.83397375  0.66669457  0.83202788  1
  I  I81  1  0.16350969  0.16426057  -0.00461594  1
  I  I82  1  0.16459698  0.16767980  0.33338062  1
  I  I83  1  0.16953761  0.17058821  0.67140729  1
  I  I84  1  0.17259028  0.49942435  -0.00068763  1
  I  I85  1  0.16749479  0.50213963  0.33041137  1
  I  I86  1  0.16745171  0.49913796  0.66986340  1
  I  I87  1  0.16774464  0.83587619  -0.00367750  1
  I  I88  1  0.16530834  0.83054488  0.33277084  1
  I  I89  1  0.17138013  0.82990618  0.67225338  1
  I  I90  1  0.50178229  0.16797411  -0.00417564  1
  I  I91  1  0.50241332  0.16445787  0.33359833  1
  I  I92  1  0.49698203  0.16254286  0.67108246  1
  I  I93  1  0.49715539  0.50094445  0.00244508  1
  I  I94  1  0.49800014  0.50604141  0.33216805  1
  I  I95  1  0.50187918  0.49903892  0.66479566  1
  I  I96  1  0.50017599  0.83096634  -0.00047119  1
  I  I97  1  0.50554990  0.82951384  0.32995116  1
  I  I98  1  0.49560773  0.83608605  0.67019303  1
  I  I99  1  0.83461699  0.16504143  -0.00323470  1
  I  I100  1  0.83212358  0.17160894  0.33640793  1
  I  I101  1  0.83438253  0.17021159  0.66786452  1
  I  I102  1  0.83166493  0.49884860  0.00007279  1
  I  I103  1  0.83385892  0.49334391  0.33667536  1
  I  I104  1  0.82812120  0.49969809  0.66345915  1
  I  I105  1  0.83187128  0.83358064  0.00268013  1
  I  I106  1  0.82659531  0.83344256  0.32934489  1
  I  I107  1  0.83419867  0.83170807  0.66674500  1
  I  I108  1  -0.00004418  0.16612726  0.16397699  1
  I  I109  1  -0.00393554  0.17474343  0.50632615  1
  I  I110  1  0.00026838  0.16702630  0.82893371  1
  I  I111  1  0.00237293  0.50143693  0.16285839  1
  I  I112  1  -0.00265187  0.49580038  0.50111379  1
  I  I113  1  0.00435817  0.50105971  0.83817032  1
  I  I114  1  -0.00138503  0.83247772  0.16571902  1
  I  I115  1  -0.00023794  0.82994915  0.49922096  1
  I  I116  1  0.00249536  0.83382797  0.83502880  1
  I  I117  1  0.33340946  0.16293668  0.16493985  1
  I  I118  1  0.33354343  0.16795753  0.50115040  1
  I  I119  1  0.33318889  0.16624384  0.83539295  1
  I  I120  1  0.33437302  0.50611745  0.16741990  1
  I  I121  1  0.33600411  0.50176046  0.49971492  1
  I  I122  1  0.33068545  0.49569851  0.83234597  1
  I  I123  1  0.33659286  0.82908187  0.16221967  1
  I  I124  1  0.33362001  0.83039124  0.49627241  1
  I  I125  1  0.33381878  0.83764519  0.83877088  1
  I  I126  1  0.66660891  0.17095746  0.16191156  1
  I  I127  1  0.66988739  0.16869989  0.50707463  1
  I  I128  1  0.66649215  0.16167422  0.82933681  1
  I  I129  1  0.66380522  0.50223443  0.16823971  1
  I  I130  1  0.66630852  0.49625726  0.49523408  1
  I  I131  1  0.66679342  0.49929949  0.83504746  1
  I  I132  1  0.66488485  0.82761493  0.16025337  1
  I  I133  1  0.66659097  0.83374950  0.50512342  1
  I  I134  1  0.66359457  0.83746938  0.83533837  1
