# generated using pymatgen
data_Cs27Sn14Pb13I81
_symmetry_space_group_name_H-M   'P 1'
_cell_length_a   18.97760976
_cell_length_b   18.97194458
_cell_length_c   18.97790784
_cell_angle_alpha   89.99845817
_cell_angle_beta   90.00103794
_cell_angle_gamma   89.99955547
_symmetry_Int_Tables_number   1
_chemical_formula_structural   Cs27Sn14Pb13I81
_chemical_formula_sum   'Cs27 Sn14 Pb13 I81'
_cell_volume   6832.84694183
_cell_formula_units_Z   1
loop_
 _symmetry_equiv_pos_site_id
 _symmetry_equiv_pos_as_xyz
  1  'x, y, z'
loop_
 _atom_site_type_symbol
 _atom_site_label
 _atom_site_symmetry_multiplicity
 _atom_site_fract_x
 _atom_site_fract_y
 _atom_site_fract_z
 _atom_site_occupancy
  Cs  Cs0  1  -0.00200965  -0.00082129  0.00191344  1
  Cs  Cs1  1  0.00067785  -0.00046123  0.33244301  1
  Cs  Cs2  1  0.00152271  -0.00295810  0.66655649  1
  Cs  Cs3  1  -0.00087310  0.33247334  -0.00006427  1
  Cs  Cs4  1  -0.00254221  0.33440126  0.33480909  1
  Cs  Cs5  1  -0.00188212  0.33777302  0.66647694  1
  Cs  Cs6  1  -0.00028432  0.66746858  -0.00288338  1
  Cs  Cs7  1  0.00095101  0.66624240  0.33724765  1
  Cs  Cs8  1  0.00216443  0.66533823  0.66503066  1
  Cs  Cs9  1  0.33090645  0.00616625  -0.00173584  1
  Cs  Cs10  1  0.33035834  0.00065735  0.33635783  1
  Cs  Cs11  1  0.33568006  -0.00031209  0.66450515  1
  Cs  Cs12  1  0.33486190  0.33209026  -0.00000852  1
  Cs  Cs13  1  0.33247927  0.33307588  0.32927334  1
  Cs  Cs14  1  0.33418851  0.33383499  0.66819758  1
  Cs  Cs15  1  0.33467926  0.66775864  0.00077638  1
  Cs  Cs16  1  0.33564053  0.66696170  0.33031315  1
  Cs  Cs17  1  0.33192144  0.66600805  0.66984731  1
  Cs  Cs18  1  0.67229756  -0.00547083  0.00025233  1
  Cs  Cs19  1  0.67002983  -0.00152859  0.33710732  1
  Cs  Cs20  1  0.66108811  -0.00164977  0.66397130  1
  Cs  Cs21  1  0.66557009  0.33471958  -0.00237997  1
  Cs  Cs22  1  0.67008780  0.33249675  0.33686165  1
  Cs  Cs23  1  0.66697448  0.33333418  0.66741518  1
  Cs  Cs24  1  0.66613629  0.66929290  0.00291000  1
  Cs  Cs25  1  0.66143298  0.66726877  0.32933139  1
  Cs  Cs26  1  0.66583029  0.66698400  0.66729285  1
  Sn  Sn27  1  0.16693878  0.16677916  0.16685924  1
  Sn  Sn28  1  0.50054387  0.16727384  0.83443244  1
  Sn  Sn29  1  0.49972785  0.49961388  0.50084377  1
  Sn  Sn30  1  0.16591179  0.83394010  0.49922715  1
  Sn  Sn31  1  0.50022255  0.16656488  0.16629057  1
  Sn  Sn32  1  0.16626761  0.16699930  0.83304758  1
  Sn  Sn33  1  0.83318831  0.16701060  0.83320994  1
  Sn  Sn34  1  0.83419775  0.49967360  0.16596530  1
  Sn  Sn35  1  0.16671115  0.83351356  0.16710646  1
  Sn  Sn36  1  0.83379565  0.83325597  0.50007181  1
  Sn  Sn37  1  0.83266424  0.49938553  0.83426786  1
  Sn  Sn38  1  0.16559059  0.49988325  0.16633732  1
  Sn  Sn39  1  0.50082854  0.49936735  0.83261193  1
  Sn  Sn40  1  0.16636707  0.16669354  0.49998339  1
  Pb  Pb41  1  0.50017963  0.49806411  0.16586456  1
  Pb  Pb42  1  0.83335705  0.16829533  0.16495040  1
  Pb  Pb43  1  0.83341014  0.83277778  0.83115866  1
  Pb  Pb44  1  0.83579584  0.83056348  0.16869428  1
  Pb  Pb45  1  0.49724795  0.83736750  0.16659060  1
  Pb  Pb46  1  0.49791501  0.16841558  0.49995173  1
  Pb  Pb47  1  0.83130561  0.50195637  0.50028139  1
  Pb  Pb48  1  0.16678179  0.49789695  0.83569500  1
  Pb  Pb49  1  0.16866963  0.50006546  0.49772096  1
  Pb  Pb50  1  0.16674954  0.83600400  0.83331512  1
  Pb  Pb51  1  0.49998924  0.83356176  0.83372342  1
  Pb  Pb52  1  0.49893742  0.83083362  0.49997244  1
  Pb  Pb53  1  0.83590942  0.16486579  0.50286663  1
  I  I54  1  0.17212235  0.00115972  0.16729194  1
  I  I55  1  0.16397315  0.00053617  0.49559801  1
  I  I56  1  0.16701776  0.00473722  0.83776328  1
  I  I57  1  0.16763575  0.33219809  0.16645669  1
  I  I58  1  0.16935783  0.33054037  0.49928982  1
  I  I59  1  0.16712814  0.32944008  0.83288366  1
  I  I60  1  0.16202476  0.66651217  0.17226754  1
  I  I61  1  0.16433886  0.66933387  0.49507536  1
  I  I62  1  0.16657663  0.66637610  0.83334746  1
  I  I63  1  0.49458604  0.00536425  0.16047213  1
  I  I64  1  0.50126955  0.00015739  0.50042974  1
  I  I65  1  0.49941855  0.00425170  0.83693332  1
  I  I66  1  0.49196133  0.33041356  0.16495770  1
  I  I67  1  0.49885626  0.33608492  0.50161250  1
  I  I68  1  0.49996438  0.33260255  0.83316654  1
  I  I69  1  0.49877081  0.66653700  0.16678898  1
  I  I70  1  0.49838562  0.66294497  0.50570247  1
  I  I71  1  0.50460628  0.66295448  0.82916958  1
  I  I72  1  0.83322252  -0.00000926  0.16527670  1
  I  I73  1  0.83459289  -0.00290808  0.50061915  1
  I  I74  1  0.83342196  0.00319055  0.83254652  1
  I  I75  1  0.83953397  0.33629690  0.16630377  1
  I  I76  1  0.83408578  0.33343207  0.49847391  1
  I  I77  1  0.83305655  0.33340550  0.83635745  1
  I  I78  1  0.83708240  0.66253481  0.15991634  1
  I  I79  1  0.84185239  0.66943735  0.50186608  1
  I  I80  1  0.82814530  0.66298323  0.83656287  1
  I  I81  1  0.16832402  0.16715254  0.00040936  1
  I  I82  1  0.17229960  0.16582107  0.33227318  1
  I  I83  1  0.16721650  0.16155659  0.66695731  1
  I  I84  1  0.16763360  0.50019170  0.00382894  1
  I  I85  1  0.16320578  0.49478749  0.32967228  1
  I  I86  1  0.16491765  0.49999758  0.66683169  1
  I  I87  1  0.16783876  0.83382045  0.00324188  1
  I  I88  1  0.16291287  0.83880960  0.33322357  1
  I  I89  1  0.16349484  0.83774532  0.66346109  1
  I  I90  1  0.49250215  0.17350059  -0.00106315  1
  I  I91  1  0.49309679  0.16931896  0.33081972  1
  I  I92  1  0.49882961  0.16875738  0.66982475  1
  I  I93  1  0.50067885  0.49638640  -0.00284270  1
  I  I94  1  0.49894288  0.49930462  0.33455029  1
  I  I95  1  0.50471968  0.49439840  0.66840875  1
  I  I96  1  0.49869519  0.82743915  0.00034618  1
  I  I97  1  0.50255281  0.83089343  0.33328042  1
  I  I98  1  0.49741175  0.83742485  0.66657281  1
  I  I99  1  0.83798584  0.16814950  -0.00334812  1
  I  I100  1  0.83278478  0.16795213  0.33346599  1
  I  I101  1  0.83252815  0.17370395  0.67104157  1
  I  I102  1  0.83192237  0.49589765  -0.00082126  1
  I  I103  1  0.83621094  0.50127741  0.33094918  1
  I  I104  1  0.83092251  0.49676341  0.66973488  1
  I  I105  1  0.83460861  0.83469786  0.00010848  1
  I  I106  1  0.83573235  0.83257093  0.33640406  1
  I  I107  1  0.84195462  0.83178135  0.66354276  1
  I  I108  1  0.00344561  0.16501710  0.16556149  1
  I  I109  1  0.00426105  0.16646142  0.49781800  1
  I  I110  1  0.00035896  0.17025663  0.83360533  1
  I  I111  1  0.00073231  0.49740425  0.16203143  1
  I  I112  1  0.00018873  0.49890911  0.50180820  1
  I  I113  1  -0.00251857  0.49545628  0.83572641  1
  I  I114  1  0.00393886  0.83994690  0.16803534  1
  I  I115  1  0.00169687  0.83653269  0.49648550  1
  I  I116  1  0.00017878  0.83368698  0.83452262  1
  I  I117  1  0.33143279  0.16893411  0.16192643  1
  I  I118  1  0.32965129  0.16075629  0.50332041  1
  I  I119  1  0.33329087  0.16996695  0.83489649  1
  I  I120  1  0.33072027  0.50101600  0.16765994  1
  I  I121  1  0.33621056  0.50062931  0.50556983  1
  I  I122  1  0.33596468  0.49584268  0.83067879  1
  I  I123  1  0.32886207  0.82702015  0.17378279  1
  I  I124  1  0.32964492  0.83755590  0.49574865  1
  I  I125  1  0.33311044  0.83170366  0.83069346  1
  I  I126  1  0.66416716  0.17095259  0.16185013  1
  I  I127  1  0.66671693  0.16519176  0.49900840  1
  I  I128  1  0.66601062  0.17185849  0.83810836  1
  I  I129  1  0.66887841  0.49774247  0.16626098  1
  I  I130  1  0.66367650  0.50082796  0.49901379  1
  I  I131  1  0.66679171  0.49135418  0.83428253  1
  I  I132  1  0.66687617  0.83261501  0.16860364  1
  I  I133  1  0.66885069  0.83141561  0.50229284  1
  I  I134  1  0.66685821  0.83857105  0.82984682  1
