# generated using pymatgen
data_Cs27Sn14Pb13I81
_symmetry_space_group_name_H-M   'P 1'
_cell_length_a   18.96912355
_cell_length_b   18.97862133
_cell_length_c   18.97833358
_cell_angle_alpha   89.99999041
_cell_angle_beta   89.99873985
_cell_angle_gamma   89.99837751
_symmetry_Int_Tables_number   1
_chemical_formula_structural   Cs27Sn14Pb13I81
_chemical_formula_sum   'Cs27 Sn14 Pb13 I81'
_cell_volume   6832.34835709
_cell_formula_units_Z   1
loop_
 _symmetry_equiv_pos_site_id
 _symmetry_equiv_pos_as_xyz
  1  'x, y, z'
loop_
 _atom_site_type_symbol
 _atom_site_label
 _atom_site_symmetry_multiplicity
 _atom_site_fract_x
 _atom_site_fract_y
 _atom_site_fract_z
 _atom_site_occupancy
  Cs  Cs0  1  -0.00094327  0.00378487  0.00031595  1
  Cs  Cs1  1  0.00221785  0.00120063  0.33613639  1
  Cs  Cs2  1  0.00188068  0.00230345  0.66276006  1
  Cs  Cs3  1  0.00078947  0.33189495  0.00060117  1
  Cs  Cs4  1  -0.00083765  0.33351785  0.33371278  1
  Cs  Cs5  1  -0.00158092  0.33220108  0.66484612  1
  Cs  Cs6  1  0.00226792  0.66475117  -0.00026026  1
  Cs  Cs7  1  -0.00209541  0.66611235  0.33468462  1
  Cs  Cs8  1  0.00138734  0.66599509  0.66559090  1
  Cs  Cs9  1  0.33433291  0.00081849  0.00126492  1
  Cs  Cs10  1  0.33157136  0.00089270  0.33237989  1
  Cs  Cs11  1  0.32999444  -0.00137968  0.66606536  1
  Cs  Cs12  1  0.32987281  0.33263573  0.00013610  1
  Cs  Cs13  1  0.34531696  0.33361234  0.33486179  1
  Cs  Cs14  1  0.33549598  0.33364837  0.66604322  1
  Cs  Cs15  1  0.32431603  0.66559394  0.00489527  1
  Cs  Cs16  1  0.33346845  0.66559409  0.32418681  1
  Cs  Cs17  1  0.33299620  0.66740605  0.66867786  1
  Cs  Cs18  1  0.66617486  -0.00091873  -0.00181043  1
  Cs  Cs19  1  0.66458258  -0.00144291  0.33206730  1
  Cs  Cs20  1  0.66867683  -0.00297102  0.66979339  1
  Cs  Cs21  1  0.66786475  0.33244653  -0.00288495  1
  Cs  Cs22  1  0.65901819  0.33443676  0.33553121  1
  Cs  Cs23  1  0.66647846  0.33294333  0.66753869  1
  Cs  Cs24  1  0.66815710  0.66904619  -0.00248033  1
  Cs  Cs25  1  0.66889497  0.66655510  0.33558851  1
  Cs  Cs26  1  0.66698595  0.66745673  0.66687736  1
  Sn  Sn27  1  0.50034540  0.50084329  0.83367240  1
  Sn  Sn28  1  0.83332177  0.83258740  0.83320106  1
  Sn  Sn29  1  0.16606965  0.16711565  0.16650066  1
  Sn  Sn30  1  0.83367421  0.16682015  0.16691132  1
  Sn  Sn31  1  0.83340284  0.83350436  0.16647169  1
  Sn  Sn32  1  0.16657697  0.50001329  0.49992592  1
  Sn  Sn33  1  0.49901510  0.16635540  0.83331784  1
  Sn  Sn34  1  0.16730829  0.16663131  0.83354785  1
  Sn  Sn35  1  0.50051185  0.83301092  0.50061367  1
  Sn  Sn36  1  0.83269134  0.83271665  0.50037973  1
  Sn  Sn37  1  0.50026890  0.83271339  0.83275763  1
  Sn  Sn38  1  0.83401541  0.50049980  0.50027350  1
  Sn  Sn39  1  0.83286999  0.50073394  0.83325535  1
  Sn  Sn40  1  0.83318169  0.49968121  0.16656065  1
  Pb  Pb41  1  0.16610921  0.49794022  0.83183750  1
  Pb  Pb42  1  0.16631137  0.83562059  0.83334289  1
  Pb  Pb43  1  0.50026339  0.16327413  0.50304725  1
  Pb  Pb44  1  0.16434441  0.49734815  0.16922973  1
  Pb  Pb45  1  0.50277429  0.50024624  0.16335661  1
  Pb  Pb46  1  0.16355215  0.83576488  0.16668570  1
  Pb  Pb47  1  0.50203849  0.83320659  0.16613894  1
  Pb  Pb48  1  0.16688036  0.83082760  0.49996880  1
  Pb  Pb49  1  0.50057006  0.50258200  0.50220871  1
  Pb  Pb50  1  0.83330961  0.16658239  0.83470751  1
  Pb  Pb51  1  0.83302361  0.16660269  0.49694709  1
  Pb  Pb52  1  0.16679524  0.16936637  0.49947814  1
  Pb  Pb53  1  0.50019051  0.16663005  0.16437758  1
  I  I54  1  0.16081287  0.00375929  0.16292377  1
  I  I55  1  0.16599154  0.00004614  0.50014284  1
  I  I56  1  0.16930321  0.00367284  0.83661463  1
  I  I57  1  0.15860072  0.32980277  0.16106408  1
  I  I58  1  0.15763773  0.33690147  0.50139604  1
  I  I59  1  0.16974499  0.33010365  0.83684659  1
  I  I60  1  0.16683975  0.66622869  0.16733588  1
  I  I61  1  0.16223552  0.66328527  0.50224387  1
  I  I62  1  0.16887291  0.66644762  0.83203447  1
  I  I63  1  0.50356210  -0.00005314  0.16463283  1
  I  I64  1  0.50743046  -0.00453532  0.50491375  1
  I  I65  1  0.50160585  -0.00080051  0.83020381  1
  I  I66  1  0.50338454  0.33340401  0.16597810  1
  I  I67  1  0.50008943  0.33370431  0.50099672  1
  I  I68  1  0.50159686  0.33370419  0.83490986  1
  I  I69  1  0.50003240  0.66668407  0.16509736  1
  I  I70  1  0.50320106  0.67015334  0.50698589  1
  I  I71  1  0.50773349  0.66725124  0.82818822  1
  I  I72  1  0.83674089  -0.00048891  0.16520656  1
  I  I73  1  0.82951815  -0.00361717  0.50164982  1
  I  I74  1  0.83040018  -0.00279163  0.83366963  1
  I  I75  1  0.83814959  0.33380150  0.16457226  1
  I  I76  1  0.83792721  0.33676689  0.50156078  1
  I  I77  1  0.83063357  0.33607421  0.83341648  1
  I  I78  1  0.83110882  0.66660768  0.16675708  1
  I  I79  1  0.83342065  0.66670202  0.49625412  1
  I  I80  1  0.82610041  0.66659314  0.83696874  1
  I  I81  1  0.16580064  0.16750653  -0.00028814  1
  I  I82  1  0.15892516  0.16633966  0.33027145  1
  I  I83  1  0.17086465  0.16709757  0.66937745  1
  I  I84  1  0.16652459  0.50017038  0.00014059  1
  I  I85  1  0.15991021  0.49969905  0.33679560  1
  I  I86  1  0.15921673  0.49764294  0.66429423  1
  I  I87  1  0.16682421  0.83063498  -0.00007892  1
  I  I88  1  0.16757238  0.83628297  0.33338325  1
  I  I89  1  0.16156819  0.83714047  0.66672790  1
  I  I90  1  0.50020012  0.16356270  -0.00397734  1
  I  I91  1  0.49907778  0.16594022  0.33334849  1
  I  I92  1  0.49496958  0.16978289  0.67134084  1
  I  I93  1  0.50532387  0.50208479  -0.00498655  1
  I  I94  1  0.49982309  0.50033489  0.33353383  1
  I  I95  1  0.50598117  0.49701015  0.67027794  1
  I  I96  1  0.50568650  0.83490204  -0.00388276  1
  I  I97  1  0.50514746  0.83285047  0.33608173  1
  I  I98  1  0.50907176  0.83405830  0.66804201  1
  I  I99  1  0.83401724  0.16653418  0.00276819  1
  I  I100  1  0.84106002  0.16585574  0.32866839  1
  I  I101  1  0.83396336  0.16687878  0.66677035  1
  I  I102  1  0.82821426  0.50223292  -0.00049448  1
  I  I103  1  0.83930248  0.50292231  0.33356256  1
  I  I104  1  0.83348458  0.50613530  0.66707959  1
  I  I105  1  0.82945422  0.83155869  -0.00065618  1
  I  I106  1  0.82987239  0.83070612  0.33376942  1
  I  I107  1  0.82867289  0.82659109  0.66704127  1
  I  I108  1  -0.00110484  0.16627506  0.15906201  1
  I  I109  1  -0.00018368  0.16235826  0.50552705  1
  I  I110  1  0.00189470  0.16710856  0.83635495  1
  I  I111  1  -0.00438341  0.50268689  0.16100038  1
  I  I112  1  -0.00288610  0.50502366  0.50213592  1
  I  I113  1  -0.00373266  0.50323488  0.83526874  1
  I  I114  1  -0.00523734  0.83042085  0.16635623  1
  I  I115  1  -0.00373862  0.83184523  0.50061489  1
  I  I116  1  -0.00393894  0.82950306  0.83299942  1
  I  I117  1  0.33060528  0.16678657  0.16377678  1
  I  I118  1  0.33349856  0.16777249  0.49557551  1
  I  I119  1  0.33389017  0.16686808  0.83920402  1
  I  I120  1  0.33319197  0.49789504  0.16776042  1
  I  I121  1  0.33155341  0.49929996  0.50349488  1
  I  I122  1  0.33599910  0.50180918  0.82956371  1
  I  I123  1  0.33327098  0.83565300  0.16712229  1
  I  I124  1  0.33644982  0.83326862  0.50785663  1
  I  I125  1  0.33676630  0.83160991  0.82731409  1
  I  I126  1  0.67005887  0.16630798  0.16538545  1
  I  I127  1  0.66675486  0.17233783  0.49933325  1
  I  I128  1  0.66438398  0.16647960  0.83476775  1
  I  I129  1  0.67163300  0.49704644  0.17264400  1
  I  I130  1  0.67016881  0.50195588  0.49765929  1
  I  I131  1  0.66797204  0.49772615  0.83191959  1
  I  I132  1  0.67109622  0.83609131  0.16607768  1
  I  I133  1  0.66856207  0.82795427  0.50092086  1
  I  I134  1  0.66755005  0.83546326  0.83299392  1
