# generated using pymatgen
data_Cs27Sn14Pb13I81
_symmetry_space_group_name_H-M   'P 1'
_cell_length_a   18.96536222
_cell_length_b   18.96491833
_cell_length_c   18.95374895
_cell_angle_alpha   89.99971015
_cell_angle_beta   90.00088106
_cell_angle_gamma   90.00054245
_symmetry_Int_Tables_number   1
_chemical_formula_structural   Cs27Sn14Pb13I81
_chemical_formula_sum   'Cs27 Sn14 Pb13 I81'
_cell_volume   6817.21894925
_cell_formula_units_Z   1
loop_
 _symmetry_equiv_pos_site_id
 _symmetry_equiv_pos_as_xyz
  1  'x, y, z'
loop_
 _atom_site_type_symbol
 _atom_site_label
 _atom_site_symmetry_multiplicity
 _atom_site_fract_x
 _atom_site_fract_y
 _atom_site_fract_z
 _atom_site_occupancy
  Cs  Cs0  1  0.00018162  -0.00159129  0.00116617  1
  Cs  Cs1  1  0.00119142  -0.00042746  0.33585579  1
  Cs  Cs2  1  -0.00366709  0.00352385  0.66267080  1
  Cs  Cs3  1  0.00261375  0.33470749  0.00172770  1
  Cs  Cs4  1  -0.00118535  0.33419921  0.33100444  1
  Cs  Cs5  1  0.00068356  0.32654802  0.66762015  1
  Cs  Cs6  1  0.00197801  0.66626420  0.00113265  1
  Cs  Cs7  1  0.00063784  0.66594786  0.33293222  1
  Cs  Cs8  1  -0.00222169  0.67022473  0.66418402  1
  Cs  Cs9  1  0.33431882  -0.00280825  0.00001318  1
  Cs  Cs10  1  0.33396060  -0.00015390  0.33286623  1
  Cs  Cs11  1  0.32914470  0.00419486  0.66615617  1
  Cs  Cs12  1  0.32982256  0.33456843  -0.00609633  1
  Cs  Cs13  1  0.33646519  0.33423622  0.33278184  1
  Cs  Cs14  1  0.33297377  0.33254371  0.67325378  1
  Cs  Cs15  1  0.33095423  0.66835164  -0.00344449  1
  Cs  Cs16  1  0.33493807  0.66630318  0.33433618  1
  Cs  Cs17  1  0.33438096  0.66487426  0.66478653  1
  Cs  Cs18  1  0.66569967  -0.00314536  -0.00293904  1
  Cs  Cs19  1  0.66425821  0.00206482  0.33157741  1
  Cs  Cs20  1  0.67455199  -0.00011087  0.67450102  1
  Cs  Cs21  1  0.66754811  0.33282617  0.00150421  1
  Cs  Cs22  1  0.66567301  0.33439275  0.33306586  1
  Cs  Cs23  1  0.66550519  0.33409964  0.66739032  1
  Cs  Cs24  1  0.66609957  0.66930836  -0.00082625  1
  Cs  Cs25  1  0.66492561  0.66445992  0.33322171  1
  Cs  Cs26  1  0.66748167  0.66611697  0.66810788  1
  Sn  Sn27  1  0.49981915  0.49966784  0.49921761  1
  Sn  Sn28  1  0.50035987  0.16660175  0.49962503  1
  Sn  Sn29  1  0.50040429  0.49938319  0.16669593  1
  Sn  Sn30  1  0.16613231  0.83389854  0.16632144  1
  Sn  Sn31  1  0.83241329  0.50020589  0.16667300  1
  Sn  Sn32  1  0.50047788  0.83390341  0.50021796  1
  Sn  Sn33  1  0.83310020  0.16647629  0.16699530  1
  Sn  Sn34  1  0.16644893  0.83345883  0.83315163  1
  Sn  Sn35  1  0.16676483  0.49962682  0.49983709  1
  Sn  Sn36  1  0.49963005  0.16773024  0.16683037  1
  Sn  Sn37  1  0.83397375  0.83316710  0.16718654  1
  Sn  Sn38  1  0.83352857  0.49988766  0.50008236  1
  Sn  Sn39  1  0.83344985  0.49987899  0.83361004  1
  Sn  Sn40  1  0.16716882  0.16593850  0.16704540  1
  Pb  Pb41  1  0.16819801  0.83201328  0.49946512  1
  Pb  Pb42  1  0.16717415  0.50021061  0.16782395  1
  Pb  Pb43  1  0.16883378  0.16912534  0.49756525  1
  Pb  Pb44  1  0.83538805  0.83138970  0.83570403  1
  Pb  Pb45  1  0.83103115  0.83162078  0.49761034  1
  Pb  Pb46  1  0.16392251  0.50189540  0.83015257  1
  Pb  Pb47  1  0.83337442  0.16902146  0.83625057  1
  Pb  Pb48  1  0.49766420  0.83330583  0.82983605  1
  Pb  Pb49  1  0.16641845  0.16406432  0.83601788  1
  Pb  Pb50  1  0.83095608  0.16886431  0.49783809  1
  Pb  Pb51  1  0.50008502  0.16664406  0.83382871  1
  Pb  Pb52  1  0.49976446  0.83315070  0.16777560  1
  Pb  Pb53  1  0.50187146  0.50015268  0.83369781  1
  I  I54  1  0.16432730  -0.00009925  0.16369359  1
  I  I55  1  0.16972379  0.00027276  0.50116390  1
  I  I56  1  0.16719566  -0.00376745  0.83466451  1
  I  I57  1  0.16462896  0.33109781  0.17022213  1
  I  I58  1  0.16724080  0.33725744  0.49722751  1
  I  I59  1  0.16645499  0.33342569  0.83382296  1
  I  I60  1  0.16358139  0.66910260  0.16527281  1
  I  I61  1  0.16911876  0.66370135  0.49680062  1
  I  I62  1  0.16648409  0.66937505  0.84218688  1
  I  I63  1  0.50201024  0.00260594  0.17159386  1
  I  I64  1  0.49755662  0.00079382  0.49276295  1
  I  I65  1  0.50063129  -0.00004782  0.83477248  1
  I  I66  1  0.50365500  0.33374714  0.17465395  1
  I  I67  1  0.50084829  0.33454452  0.49415689  1
  I  I68  1  0.49927812  0.33355932  0.83029698  1
  I  I69  1  0.50349131  0.66385745  0.17200652  1
  I  I70  1  0.49967548  0.66475952  0.49541508  1
  I  I71  1  0.50006556  0.66656437  0.83426016  1
  I  I72  1  0.83330014  0.00023016  0.16677399  1
  I  I73  1  0.83196186  0.00017620  0.49848784  1
  I  I74  1  0.83362199  -0.00015936  0.83456544  1
  I  I75  1  0.83272609  0.33422966  0.16721543  1
  I  I76  1  0.83174610  0.33766933  0.49707707  1
  I  I77  1  0.83306555  0.33730297  0.83437860  1
  I  I78  1  0.83357294  0.66542217  0.16724159  1
  I  I79  1  0.83098843  0.66272620  0.49678240  1
  I  I80  1  0.83330692  0.66329304  0.83508678  1
  I  I81  1  0.16890882  0.16811117  0.00482145  1
  I  I82  1  0.16443533  0.16033297  0.32918556  1
  I  I83  1  0.16864756  0.16648155  0.66630397  1
  I  I84  1  0.16670116  0.49853424  0.00005649  1
  I  I85  1  0.16393876  0.50235588  0.33571451  1
  I  I86  1  0.16975449  0.50259750  0.66223397  1
  I  I87  1  0.16341347  0.83566902  0.00214071  1
  I  I88  1  0.16391384  0.83561704  0.33015878  1
  I  I89  1  0.17044095  0.82794508  0.66850115  1
  I  I90  1  0.50039639  0.17162579  0.00463733  1
  I  I91  1  0.50024553  0.16856718  0.33215823  1
  I  I92  1  0.49881360  0.16942862  0.66321488  1
  I  I93  1  0.50436444  0.49555004  0.00370120  1
  I  I94  1  0.50421806  0.49950354  0.33368530  1
  I  I95  1  0.50070816  0.49967782  0.66290209  1
  I  I96  1  0.50160291  0.83285476  0.00016980  1
  I  I97  1  0.49791783  0.83114085  0.33563960  1
  I  I98  1  0.49842756  0.82972950  0.66168372  1
  I  I99  1  0.83037147  0.16900280  0.00516509  1
  I  I100  1  0.83503909  0.16910814  0.32910974  1
  I  I101  1  0.83182874  0.16822395  0.66641523  1
  I  I102  1  0.82903360  0.49981516  0.00217439  1
  I  I103  1  0.83186953  0.50005247  0.33237120  1
  I  I104  1  0.83224358  0.50169734  0.66549185  1
  I  I105  1  0.83312256  0.83104850  0.00438509  1
  I  I106  1  0.83985186  0.83081308  0.32910979  1
  I  I107  1  0.83373584  0.83065203  0.66648492  1
  I  I108  1  -0.00046572  0.16767110  0.16508634  1
  I  I109  1  -0.00013437  0.16882092  0.49834704  1
  I  I110  1  -0.00007232  0.16822110  0.83439821  1
  I  I111  1  -0.00281985  0.49812754  0.16831050  1
  I  I112  1  -0.00107364  0.50213823  0.49760887  1
  I  I113  1  -0.00381148  0.50096348  0.83738322  1
  I  I114  1  -0.00011370  0.83458729  0.16372078  1
  I  I115  1  -0.00018059  0.82973784  0.50056192  1
  I  I116  1  0.00309434  0.83064466  0.83575331  1
  I  I117  1  0.33403547  0.16618620  0.17139367  1
  I  I118  1  0.33703489  0.16866097  0.49319768  1
  I  I119  1  0.33317822  0.16763119  0.83522550  1
  I  I120  1  0.33615369  0.49773176  0.17303386  1
  I  I121  1  0.33502215  0.50122852  0.49376081  1
  I  I122  1  0.33299442  0.50092569  0.83339678  1
  I  I123  1  0.33081444  0.83570599  0.16521727  1
  I  I124  1  0.33632935  0.82921986  0.49664590  1
  I  I125  1  0.33000104  0.83192037  0.84259845  1
  I  I126  1  0.66642971  0.16865180  0.17092952  1
  I  I127  1  0.66273757  0.16910317  0.49294041  1
  I  I128  1  0.66678935  0.16619608  0.83511950  1
  I  I129  1  0.66739351  0.49795843  0.17091498  1
  I  I130  1  0.66613681  0.50018522  0.49805927  1
  I  I131  1  0.66992399  0.50105588  0.83080968  1
  I  I132  1  0.66909830  0.83362290  0.16952116  1
  I  I133  1  0.66301393  0.83007719  0.49618504  1
  I  I134  1  0.66702014  0.83244728  0.83407555  1
