# generated using pymatgen
data_Cs27Sn14Pb13I81
_symmetry_space_group_name_H-M   'P 1'
_cell_length_a   18.98425769
_cell_length_b   18.96756584
_cell_length_c   18.97462460
_cell_angle_alpha   90.00186286
_cell_angle_beta   89.99888116
_cell_angle_gamma   90.00006660
_symmetry_Int_Tables_number   1
_chemical_formula_structural   Cs27Sn14Pb13I81
_chemical_formula_sum   'Cs27 Sn14 Pb13 I81'
_cell_volume   6832.48068458
_cell_formula_units_Z   1
loop_
 _symmetry_equiv_pos_site_id
 _symmetry_equiv_pos_as_xyz
  1  'x, y, z'
loop_
 _atom_site_type_symbol
 _atom_site_label
 _atom_site_symmetry_multiplicity
 _atom_site_fract_x
 _atom_site_fract_y
 _atom_site_fract_z
 _atom_site_occupancy
  Cs  Cs0  1  0.00463124  -0.00109184  -0.00089600  1
  Cs  Cs1  1  -0.00271302  0.00642369  0.33180566  1
  Cs  Cs2  1  -0.00090172  -0.00228835  0.66941518  1
  Cs  Cs3  1  -0.00257551  0.33356394  -0.00016092  1
  Cs  Cs4  1  0.00073128  0.32881005  0.33685343  1
  Cs  Cs5  1  0.00260609  0.33596590  0.66455092  1
  Cs  Cs6  1  0.00001920  0.66765882  0.00166652  1
  Cs  Cs7  1  0.00378149  0.66572486  0.33041804  1
  Cs  Cs8  1  -0.00106518  0.66640226  0.66674891  1
  Cs  Cs9  1  0.32930154  -0.00135598  -0.00164391  1
  Cs  Cs10  1  0.33584907  0.00154301  0.33585391  1
  Cs  Cs11  1  0.33380854  0.00291401  0.66733506  1
  Cs  Cs12  1  0.33664666  0.33226651  0.00053883  1
  Cs  Cs13  1  0.33406360  0.32549265  0.33468625  1
  Cs  Cs14  1  0.32994327  0.33515513  0.66601585  1
  Cs  Cs15  1  0.33404413  0.66718740  0.00191186  1
  Cs  Cs16  1  0.33017101  0.66722797  0.33102725  1
  Cs  Cs17  1  0.33409760  0.66513806  0.66479095  1
  Cs  Cs18  1  0.66667458  0.00052471  -0.00030470  1
  Cs  Cs19  1  0.66786128  0.00552527  0.34324804  1
  Cs  Cs20  1  0.66696255  -0.00172421  0.65965221  1
  Cs  Cs21  1  0.66584581  0.33465025  -0.00180083  1
  Cs  Cs22  1  0.66590091  0.32759644  0.33084936  1
  Cs  Cs23  1  0.66677445  0.33658629  0.67179960  1
  Cs  Cs24  1  0.66671139  0.66478928  0.00073837  1
  Cs  Cs25  1  0.66616182  0.66672437  0.33239208  1
  Cs  Cs26  1  0.66693222  0.66654274  0.66643023  1
  Sn  Sn27  1  0.49979305  0.50033103  0.83275301  1
  Sn  Sn28  1  0.50046482  0.83328597  0.16638081  1
  Sn  Sn29  1  0.50063538  0.50037989  0.50000795  1
  Sn  Sn30  1  0.83268624  0.16705642  0.83359104  1
  Sn  Sn31  1  0.50028636  0.83324648  0.83385689  1
  Sn  Sn32  1  0.83230917  0.50050873  0.49944092  1
  Sn  Sn33  1  0.83409023  0.50060495  0.16715570  1
  Sn  Sn34  1  0.50102341  0.16660799  0.83353849  1
  Sn  Sn35  1  0.83356218  0.49965663  0.83348570  1
  Sn  Sn36  1  0.16666188  0.50051429  0.83459791  1
  Sn  Sn37  1  0.83306145  0.83291500  0.16666640  1
  Sn  Sn38  1  0.16655190  0.83261550  0.16793841  1
  Sn  Sn39  1  0.16612482  0.49990165  0.16593356  1
  Sn  Sn40  1  0.16648775  0.83310361  0.49920369  1
  Pb  Pb41  1  0.83556498  0.83088114  0.49709485  1
  Pb  Pb42  1  0.49852836  0.83121438  0.49986411  1
  Pb  Pb43  1  0.16886595  0.83099363  0.83364002  1
  Pb  Pb44  1  0.16667197  0.50098763  0.49924865  1
  Pb  Pb45  1  0.50010085  0.17007273  0.50319404  1
  Pb  Pb46  1  0.83327594  0.16700961  0.16418189  1
  Pb  Pb47  1  0.83112457  0.83300940  0.83513147  1
  Pb  Pb48  1  0.16646844  0.16971610  0.83353023  1
  Pb  Pb49  1  0.16653597  0.16284835  0.50023858  1
  Pb  Pb50  1  0.50014929  0.16285167  0.16407208  1
  Pb  Pb51  1  0.49990376  0.50118070  0.16692298  1
  Pb  Pb52  1  0.83332073  0.16976000  0.50342854  1
  Pb  Pb53  1  0.16664002  0.16694046  0.16648497  1
  I  I54  1  0.16614649  -0.00392048  0.17014638  1
  I  I55  1  0.16846329  -0.00516791  0.49320548  1
  I  I56  1  0.16706189  -0.00025733  0.83307913  1
  I  I57  1  0.16158570  0.33730102  0.16184018  1
  I  I58  1  0.16705567  0.33364585  0.50051787  1
  I  I59  1  0.17090073  0.33827594  0.83786523  1
  I  I60  1  0.16571627  0.66662472  0.16586980  1
  I  I61  1  0.16751515  0.66856249  0.49784302  1
  I  I62  1  0.16552359  0.66270178  0.83491045  1
  I  I63  1  0.49843733  -0.00553831  0.16118161  1
  I  I64  1  0.49734478  -0.00005228  0.50051631  1
  I  I65  1  0.50355902  -0.00037327  0.83989818  1
  I  I66  1  0.49959852  0.33338348  0.16670451  1
  I  I67  1  0.50228611  0.33824838  0.50403328  1
  I  I68  1  0.50064340  0.33485227  0.82865642  1
  I  I69  1  0.49960265  0.66929466  0.16041611  1
  I  I70  1  0.50343452  0.66342028  0.50782058  1
  I  I71  1  0.49995186  0.66546038  0.83353843  1
  I  I72  1  0.83489846  -0.00317753  0.16351259  1
  I  I73  1  0.83527039  -0.00014984  0.50006204  1
  I  I74  1  0.82865181  0.00218401  0.83619465  1
  I  I75  1  0.83815296  0.33731738  0.16795461  1
  I  I76  1  0.83096825  0.33828626  0.49433685  1
  I  I77  1  0.82839519  0.33587462  0.83555382  1
  I  I78  1  0.83440476  0.66545660  0.16329806  1
  I  I79  1  0.82964471  0.66270281  0.50717878  1
  I  I80  1  0.83251954  0.66302432  0.83210926  1
  I  I81  1  0.16703218  0.16137696  -0.00029537  1
  I  I82  1  0.16682098  0.17318653  0.33329927  1
  I  I83  1  0.16709800  0.16719234  0.66716116  1
  I  I84  1  0.16407376  0.50577717  0.00005203  1
  I  I85  1  0.16354058  0.50417793  0.33026097  1
  I  I86  1  0.16519556  0.50147184  0.66906164  1
  I  I87  1  0.16540709  0.83115753  0.00309505  1
  I  I88  1  0.16914290  0.82478109  0.33113518  1
  I  I89  1  0.16931744  0.83035867  0.66498761  1
  I  I90  1  0.50368436  0.17443944  -0.00414015  1
  I  I91  1  0.49874584  0.16732014  0.33357745  1
  I  I92  1  0.50437907  0.16066818  0.67131703  1
  I  I93  1  0.50182704  0.49874032  -0.00313742  1
  I  I94  1  0.50253820  0.50470109  0.33553358  1
  I  I95  1  0.50239794  0.50200994  0.66887779  1
  I  I96  1  0.49771162  0.83013431  -0.00027457  1
  I  I97  1  0.50027110  0.82863516  0.33041567  1
  I  I98  1  0.49788855  0.83394792  0.66962803  1
  I  I99  1  0.82879306  0.17409223  -0.00357813  1
  I  I100  1  0.83415301  0.16691165  0.33342135  1
  I  I101  1  0.82846465  0.17141453  0.67134688  1
  I  I102  1  0.83357112  0.49993455  -0.00046710  1
  I  I103  1  0.83365492  0.50708587  0.33244102  1
  I  I104  1  0.83299560  0.49518765  0.66786669  1
  I  I105  1  0.83807336  0.82730482  0.00319259  1
  I  I106  1  0.82815347  0.82696717  0.32882114  1
  I  I107  1  0.83393172  0.83298123  0.66664439  1
  I  I108  1  -0.00014563  0.16219619  0.16285331  1
  I  I109  1  -0.00027003  0.17017319  0.50251257  1
  I  I110  1  -0.00311979  0.17181343  0.83385994  1
  I  I111  1  -0.00046483  0.50822475  0.16231594  1
  I  I112  1  -0.00254453  0.50187570  0.50367922  1
  I  I113  1  -0.00087194  0.49554805  0.83324683  1
  I  I114  1  0.00017485  0.82773927  0.17035268  1
  I  I115  1  0.00327179  0.82896189  0.49652206  1
  I  I116  1  -0.00000136  0.83402243  0.83355293  1
  I  I117  1  0.33347440  0.16892589  0.16365179  1
  I  I118  1  0.33357024  0.17062358  0.50258770  1
  I  I119  1  0.33656201  0.16714302  0.83337699  1
  I  I120  1  0.33086013  0.50571418  0.16268953  1
  I  I121  1  0.33549135  0.50242173  0.50544807  1
  I  I122  1  0.33422586  0.50082423  0.83254789  1
  I  I123  1  0.33293249  0.82806559  0.16557285  1
  I  I124  1  0.33089344  0.82843869  0.49463145  1
  I  I125  1  0.33691527  0.83268998  0.83872270  1
  I  I126  1  0.66668715  0.16807736  0.16659009  1
  I  I127  1  0.66668450  0.16210917  0.49736729  1
  I  I128  1  0.66620213  0.17371221  0.83513232  1
  I  I129  1  0.66940797  0.50469986  0.16366862  1
  I  I130  1  0.66699479  0.50180111  0.50479278  1
  I  I131  1  0.66658879  0.49934167  0.83312814  1
  I  I132  1  0.66683809  0.82689506  0.15925923  1
  I  I133  1  0.66680459  0.83392165  0.49926731  1
  I  I134  1  0.66308836  0.82795635  0.83867736  1
