# generated using pymatgen
data_Cs27Sn14Pb13I81
_symmetry_space_group_name_H-M   'P 1'
_cell_length_a   18.97181314
_cell_length_b   18.97980622
_cell_length_c   18.97568872
_cell_angle_alpha   89.99955677
_cell_angle_beta   89.99910662
_cell_angle_gamma   90.00018579
_symmetry_Int_Tables_number   1
_chemical_formula_structural   Cs27Sn14Pb13I81
_chemical_formula_sum   'Cs27 Sn14 Pb13 I81'
_cell_volume   6832.79136380
_cell_formula_units_Z   1
loop_
 _symmetry_equiv_pos_site_id
 _symmetry_equiv_pos_as_xyz
  1  'x, y, z'
loop_
 _atom_site_type_symbol
 _atom_site_label
 _atom_site_symmetry_multiplicity
 _atom_site_fract_x
 _atom_site_fract_y
 _atom_site_fract_z
 _atom_site_occupancy
  Cs  Cs0  1  -0.00007982  0.00151064  -0.00197534  1
  Cs  Cs1  1  0.00182255  -0.00023719  0.33325595  1
  Cs  Cs2  1  -0.00278384  -0.00130773  0.66963579  1
  Cs  Cs3  1  -0.00125624  0.33309595  0.00226348  1
  Cs  Cs4  1  -0.00098946  0.33241532  0.33246352  1
  Cs  Cs5  1  -0.00104806  0.33293301  0.66317426  1
  Cs  Cs6  1  0.00284155  0.66797573  0.00072670  1
  Cs  Cs7  1  -0.00159294  0.66865935  0.33062987  1
  Cs  Cs8  1  0.00424475  0.66978139  0.66903061  1
  Cs  Cs9  1  0.33448071  0.00178520  0.00067622  1
  Cs  Cs10  1  0.33665987  0.00188602  0.33484413  1
  Cs  Cs11  1  0.33323545  0.00314715  0.66616488  1
  Cs  Cs12  1  0.33455190  0.33249517  0.00033793  1
  Cs  Cs13  1  0.33356398  0.32994423  0.33998528  1
  Cs  Cs14  1  0.33128458  0.33323368  0.65971152  1
  Cs  Cs15  1  0.33176288  0.66568819  -0.00254289  1
  Cs  Cs16  1  0.33320800  0.66740922  0.33597759  1
  Cs  Cs17  1  0.33136381  0.66352167  0.66853303  1
  Cs  Cs18  1  0.66524639  -0.00165261  -0.00085696  1
  Cs  Cs19  1  0.65954726  -0.00850789  0.33357903  1
  Cs  Cs20  1  0.67066139  -0.00436535  0.66884209  1
  Cs  Cs21  1  0.66680175  0.33427407  -0.00080412  1
  Cs  Cs22  1  0.66940938  0.33391211  0.33266733  1
  Cs  Cs23  1  0.66866683  0.33423282  0.66874594  1
  Cs  Cs24  1  0.66534147  0.66223152  0.00161652  1
  Cs  Cs25  1  0.66662985  0.67217565  0.33577606  1
  Cs  Cs26  1  0.66478857  0.66617702  0.66328667  1
  Sn  Sn27  1  0.49991328  0.49956637  0.16657130  1
  Sn  Sn28  1  0.83343815  0.16684634  0.16777438  1
  Sn  Sn29  1  0.16625679  0.16685598  0.16611602  1
  Sn  Sn30  1  0.83301385  0.16673388  0.49837262  1
  Sn  Sn31  1  0.16705908  0.49951826  0.16669310  1
  Sn  Sn32  1  0.83359514  0.49956098  0.49971329  1
  Sn  Sn33  1  0.16656329  0.83343353  0.49944436  1
  Sn  Sn34  1  0.50041487  0.49956756  0.83395810  1
  Sn  Sn35  1  0.16681894  0.83372504  0.16728504  1
  Sn  Sn36  1  0.16732738  0.16741178  0.83393384  1
  Sn  Sn37  1  0.83323337  0.50003693  0.83349214  1
  Sn  Sn38  1  0.49987510  0.83299276  0.83365982  1
  Sn  Sn39  1  0.83313083  0.49935041  0.16675487  1
  Sn  Sn40  1  0.49925799  0.16714280  0.83341627  1
  Pb  Pb41  1  0.83327699  0.16844675  0.83392576  1
  Pb  Pb42  1  0.50235377  0.49979842  0.49987570  1
  Pb  Pb43  1  0.16395905  0.50176150  0.49700701  1
  Pb  Pb44  1  0.83515450  0.83370727  0.16638876  1
  Pb  Pb45  1  0.83088522  0.82975665  0.83370373  1
  Pb  Pb46  1  0.83523798  0.83342107  0.49988023  1
  Pb  Pb47  1  0.49708502  0.83056886  0.16474671  1
  Pb  Pb48  1  0.16858094  0.83581392  0.83390223  1
  Pb  Pb49  1  0.16685613  0.49755621  0.83507614  1
  Pb  Pb50  1  0.50358701  0.16669649  0.50295650  1
  Pb  Pb51  1  0.49709198  0.83327392  0.50268754  1
  Pb  Pb52  1  0.50043643  0.16866388  0.16528952  1
  Pb  Pb53  1  0.16456217  0.16502237  0.49952293  1
  I  I54  1  0.16098288  0.00112910  0.16574009  1
  I  I55  1  0.16404842  -0.00253911  0.49499282  1
  I  I56  1  0.17068021  0.00360606  0.83855136  1
  I  I57  1  0.16451770  0.33317884  0.16039914  1
  I  I58  1  0.16763678  0.33329558  0.50055063  1
  I  I59  1  0.17102067  0.32981085  0.83870570  1
  I  I60  1  0.16602682  0.66581512  0.17063069  1
  I  I61  1  0.16462909  0.66950170  0.49593217  1
  I  I62  1  0.16690682  0.66645573  0.83394318  1
  I  I63  1  0.50054262  -0.00000046  0.16404144  1
  I  I64  1  0.50284685  0.00002193  0.50124943  1
  I  I65  1  0.49387069  0.00075553  0.83252867  1
  I  I66  1  0.49728783  0.33687197  0.15947122  1
  I  I67  1  0.49542869  0.33333525  0.50276392  1
  I  I68  1  0.50155861  0.33427203  0.83848783  1
  I  I69  1  0.50205641  0.66235632  0.16050643  1
  I  I70  1  0.50257466  0.66647537  0.50207139  1
  I  I71  1  0.50483999  0.66520926  0.83754538  1
  I  I72  1  0.83863242  0.00365428  0.17061957  1
  I  I73  1  0.83542232  0.00306795  0.49644970  1
  I  I74  1  0.83250642  0.00023815  0.83222678  1
  I  I75  1  0.83824141  0.33445897  0.16669955  1
  I  I76  1  0.83451610  0.33407328  0.49948626  1
  I  I77  1  0.82782757  0.33645750  0.83428599  1
  I  I78  1  0.83391838  0.66290868  0.16673926  1
  I  I79  1  0.83380391  0.66341094  0.49911976  1
  I  I80  1  0.82974522  0.66135086  0.83412850  1
  I  I81  1  0.16412999  0.16466594  0.00145570  1
  I  I82  1  0.16368203  0.16889034  0.32985480  1
  I  I83  1  0.16927934  0.16431175  0.66905103  1
  I  I84  1  0.16210730  0.50475011  0.00347640  1
  I  I85  1  0.16776420  0.49470795  0.32848436  1
  I  I86  1  0.16633597  0.50134730  0.66660102  1
  I  I87  1  0.16753878  0.83089691  0.00302136  1
  I  I88  1  0.16501419  0.83397440  0.33168624  1
  I  I89  1  0.16731376  0.83476389  0.66486834  1
  I  I90  1  0.50052588  0.16579356  -0.00313539  1
  I  I91  1  0.49701692  0.16851405  0.33325527  1
  I  I92  1  0.49363876  0.17032356  0.67149253  1
  I  I93  1  0.50506220  0.50009007  -0.00049882  1
  I  I94  1  0.49979166  0.49984360  0.32994530  1
  I  I95  1  0.50501411  0.50060160  0.67022050  1
  I  I96  1  0.49767928  0.83505508  -0.00313463  1
  I  I97  1  0.50142863  0.83151293  0.33308077  1
  I  I98  1  0.49837327  0.83016960  0.67074839  1
  I  I99  1  0.83543017  0.17157199  0.00285615  1
  I  I100  1  0.84134615  0.17703681  0.33191118  1
  I  I101  1  0.83333269  0.17147598  0.66501550  1
  I  I102  1  0.83192522  0.49607928  0.00106202  1
  I  I103  1  0.83462804  0.49544673  0.33205504  1
  I  I104  1  0.82755878  0.49565650  0.66692192  1
  I  I105  1  0.83712448  0.83473700  -0.00000865  1
  I  I106  1  0.83140132  0.82857612  0.33310709  1
  I  I107  1  0.83713411  0.83459916  0.66680568  1
  I  I108  1  0.00054184  0.17127904  0.16419443  1
  I  I109  1  -0.00317107  0.17122285  0.50138402  1
  I  I110  1  0.00214034  0.16762772  0.83485466  1
  I  I111  1  -0.00045817  0.49974120  0.16641428  1
  I  I112  1  -0.00409151  0.49600564  0.50174753  1
  I  I113  1  -0.00260910  0.49725590  0.83439509  1
  I  I114  1  0.00357995  0.82824734  0.16879534  1
  I  I115  1  0.00296656  0.83265786  0.49650015  1
  I  I116  1  0.00043038  0.83353697  0.83247342  1
  I  I117  1  0.33038358  0.16731929  0.16311361  1
  I  I118  1  0.33325191  0.16477350  0.49874604  1
  I  I119  1  0.33324595  0.16773638  0.83992914  1
  I  I120  1  0.33311534  0.50133596  0.15918365  1
  I  I121  1  0.33301320  0.50213236  0.50067098  1
  I  I122  1  0.33631455  0.50215534  0.83892368  1
  I  I123  1  0.32899853  0.83461542  0.16964279  1
  I  I124  1  0.32946395  0.83396056  0.49391005  1
  I  I125  1  0.33628498  0.82687984  0.83396482  1
  I  I126  1  0.66976134  0.17320910  0.16784405  1
  I  I127  1  0.67148446  0.17177926  0.49478136  1
  I  I128  1  0.66412987  0.16592980  0.83295789  1
  I  I129  1  0.66766606  0.49457502  0.16428166  1
  I  I130  1  0.67059000  0.49674140  0.49646752  1
  I  I131  1  0.66627847  0.49789978  0.83839146  1
  I  I132  1  0.66619154  0.83357865  0.16540477  1
  I  I133  1  0.66663543  0.83332027  0.50180238  1
  I  I134  1  0.66288705  0.84027539  0.83326625  1
