# generated using pymatgen
data_Cs27Sn13Pb14I81
_symmetry_space_group_name_H-M   'P 1'
_cell_length_a   18.98665278
_cell_length_b   18.99845036
_cell_length_c   18.99102187
_cell_angle_alpha   90.00084761
_cell_angle_beta   90.00106576
_cell_angle_gamma   90.00103828
_symmetry_Int_Tables_number   1
_chemical_formula_structural   Cs27Sn13Pb14I81
_chemical_formula_sum   'Cs27 Sn13 Pb14 I81'
_cell_volume   6850.38405911
_cell_formula_units_Z   1
loop_
 _symmetry_equiv_pos_site_id
 _symmetry_equiv_pos_as_xyz
  1  'x, y, z'
loop_
 _atom_site_type_symbol
 _atom_site_label
 _atom_site_symmetry_multiplicity
 _atom_site_fract_x
 _atom_site_fract_y
 _atom_site_fract_z
 _atom_site_occupancy
  Cs  Cs0  1  -0.00195766  -0.00178401  0.00263804  1
  Cs  Cs1  1  0.00015141  -0.00104103  0.33268621  1
  Cs  Cs2  1  0.00023115  -0.00026192  0.66470012  1
  Cs  Cs3  1  0.00099762  0.34582520  0.00297349  1
  Cs  Cs4  1  -0.00218829  0.33582740  0.33226936  1
  Cs  Cs5  1  -0.00479480  0.33330796  0.66517726  1
  Cs  Cs6  1  -0.00137295  0.66256877  -0.00060342  1
  Cs  Cs7  1  0.00020172  0.67162126  0.33291962  1
  Cs  Cs8  1  0.00232847  0.66820142  0.66862411  1
  Cs  Cs9  1  0.33429414  0.00193810  -0.00111911  1
  Cs  Cs10  1  0.33364025  0.00054727  0.33234788  1
  Cs  Cs11  1  0.33237430  0.00110716  0.66753691  1
  Cs  Cs12  1  0.33169781  0.33204304  0.00333472  1
  Cs  Cs13  1  0.33291326  0.33070469  0.32651237  1
  Cs  Cs14  1  0.33296151  0.32951760  0.66913202  1
  Cs  Cs15  1  0.33273080  0.66511884  -0.00294431  1
  Cs  Cs16  1  0.34170450  0.66813719  0.33702538  1
  Cs  Cs17  1  0.33320014  0.66633504  0.66682112  1
  Cs  Cs18  1  0.66807690  -0.00059670  -0.00016801  1
  Cs  Cs19  1  0.66754851  -0.00145573  0.33021961  1
  Cs  Cs20  1  0.66763054  0.00333106  0.66938552  1
  Cs  Cs21  1  0.66724492  0.33585738  0.00201908  1
  Cs  Cs22  1  0.66920411  0.34378708  0.33444976  1
  Cs  Cs23  1  0.67129507  0.32989098  0.66366249  1
  Cs  Cs24  1  0.66905895  0.66513300  -0.00011224  1
  Cs  Cs25  1  0.65876060  0.66062045  0.33453770  1
  Cs  Cs26  1  0.66432314  0.66399394  0.66594862  1
  Sn  Sn27  1  0.83395324  0.83421522  0.16801017  1
  Sn  Sn28  1  0.16736800  0.83440788  0.83356784  1
  Sn  Sn29  1  0.16696626  0.49966064  0.49997352  1
  Sn  Sn30  1  0.83333740  0.83368801  0.49929253  1
  Sn  Sn31  1  0.16729391  0.16686448  0.50049208  1
  Sn  Sn32  1  0.49977272  0.49921211  0.83294416  1
  Sn  Sn33  1  0.16646312  0.16603240  0.83306869  1
  Sn  Sn34  1  0.49928996  0.16680891  0.83255530  1
  Sn  Sn35  1  0.49927819  0.83364809  0.83316281  1
  Sn  Sn36  1  0.16654212  0.83358208  0.16660657  1
  Sn  Sn37  1  0.83360245  0.16603234  0.16663082  1
  Sn  Sn38  1  0.16636720  0.83346923  0.49983750  1
  Sn  Sn39  1  0.49948548  0.16616177  0.50014190  1
  Pb  Pb40  1  0.83440609  0.16661707  0.83577902  1
  Pb  Pb41  1  0.49989253  0.83551309  0.50229292  1
  Pb  Pb42  1  0.83392981  0.83349064  0.83322125  1
  Pb  Pb43  1  0.49944368  0.49998541  0.16397033  1
  Pb  Pb44  1  0.16701227  0.50371465  0.16988781  1
  Pb  Pb45  1  0.16478200  0.16485635  0.16642419  1
  Pb  Pb46  1  0.16815641  0.49959015  0.83131476  1
  Pb  Pb47  1  0.83348611  0.50141600  0.16694755  1
  Pb  Pb48  1  0.83596482  0.50352450  0.50016754  1
  Pb  Pb49  1  0.83364546  0.16461603  0.49803532  1
  Pb  Pb50  1  0.83039810  0.49988100  0.83277755  1
  Pb  Pb51  1  0.49721272  0.49665774  0.50225759  1
  Pb  Pb52  1  0.50247919  0.16652339  0.16669188  1
  Pb  Pb53  1  0.50004268  0.83345627  0.16395407  1
  I  I54  1  0.16453776  -0.00331675  0.17033270  1
  I  I55  1  0.16626440  -0.00041150  0.50125447  1
  I  I56  1  0.17490769  -0.00073423  0.82857146  1
  I  I57  1  0.16450963  0.33333129  0.16568847  1
  I  I58  1  0.17187900  0.33172942  0.50633028  1
  I  I59  1  0.17091208  0.32995234  0.82882539  1
  I  I60  1  0.15875543  0.67198467  0.16306805  1
  I  I61  1  0.16080247  0.66856415  0.50048068  1
  I  I62  1  0.17021855  0.66988177  0.83257195  1
  I  I63  1  0.49917581  -0.00006195  0.16366040  1
  I  I64  1  0.49447292  0.00302841  0.50637892  1
  I  I65  1  0.49560924  0.00042611  0.83005311  1
  I  I66  1  0.50239724  0.33299351  0.16494052  1
  I  I67  1  0.49618712  0.32894281  0.50596792  1
  I  I68  1  0.49578939  0.33183854  0.82961320  1
  I  I69  1  0.50224880  0.66701222  0.16595496  1
  I  I70  1  0.50024445  0.66674045  0.50157913  1
  I  I71  1  0.49575284  0.66762228  0.83493002  1
  I  I72  1  0.83699632  -0.00169302  0.16976506  1
  I  I73  1  0.84009319  -0.00308171  0.49864823  1
  I  I74  1  0.82753144  -0.00009529  0.83245666  1
  I  I75  1  0.83213573  0.33100763  0.16519600  1
  I  I76  1  0.83331370  0.33321625  0.49808950  1
  I  I77  1  0.83448328  0.33300598  0.83594163  1
  I  I78  1  0.83840678  0.67085236  0.16903461  1
  I  I79  1  0.83782758  0.67165397  0.49412645  1
  I  I80  1  0.83350702  0.66708900  0.83588093  1
  I  I81  1  0.17151481  0.16097939  -0.00321853  1
  I  I82  1  0.17046035  0.16539715  0.33657587  1
  I  I83  1  0.17090771  0.16114138  0.66637139  1
  I  I84  1  0.16760302  0.49969135  -0.00008326  1
  I  I85  1  0.16616320  0.49703668  0.33770108  1
  I  I86  1  0.16790780  0.50611880  0.66375692  1
  I  I87  1  0.16703463  0.83890543  -0.00099455  1
  I  I88  1  0.16046131  0.83372611  0.33427123  1
  I  I89  1  0.16625594  0.83351446  0.66631464  1
  I  I90  1  0.49586257  0.16650344  -0.00379269  1
  I  I91  1  0.49405938  0.16473777  0.33643743  1
  I  I92  1  0.49610444  0.16583622  0.66777890  1
  I  I93  1  0.49857550  0.49793753  -0.00454650  1
  I  I94  1  0.50066813  0.49933850  0.33402158  1
  I  I95  1  0.49857279  0.50437214  0.66989427  1
  I  I96  1  0.49605918  0.83652084  -0.00440691  1
  I  I97  1  0.49758075  0.83503449  0.33358143  1
  I  I98  1  0.49605209  0.83169529  0.67031218  1
  I  I99  1  0.83229589  0.15747336  0.00324275  1
  I  I100  1  0.83422252  0.16206227  0.33052537  1
  I  I101  1  0.83232022  0.16537046  0.66651507  1
  I  I102  1  0.83373473  0.50183203  0.00010775  1
  I  I103  1  0.83230090  0.49702718  0.33357054  1
  I  I104  1  0.83377157  0.50124234  0.66619815  1
  I  I105  1  0.83583035  0.83687756  0.00283205  1
  I  I106  1  0.84402758  0.83846072  0.33334644  1
  I  I107  1  0.83787378  0.83314546  0.66397523  1
  I  I108  1  -0.00272427  0.16194541  0.16734877  1
  I  I109  1  0.00366082  0.16744720  0.50444750  1
  I  I110  1  0.00402174  0.15894273  0.82775428  1
  I  I111  1  0.00031840  0.49697877  0.16428360  1
  I  I112  1  0.00392692  0.49386629  0.50181894  1
  I  I113  1  0.00050221  0.50037849  0.83376909  1
  I  I114  1  0.00065160  0.83799811  0.16605032  1
  I  I115  1  0.00214519  0.83529953  0.50162549  1
  I  I116  1  0.00382406  0.83866433  0.83226418  1
  I  I117  1  0.33311668  0.16560819  0.16669547  1
  I  I118  1  0.33180500  0.16373284  0.50434035  1
  I  I119  1  0.33317452  0.16503294  0.82954631  1
  I  I120  1  0.33288360  0.50052831  0.16710010  1
  I  I121  1  0.32983894  0.50868105  0.50084641  1
  I  I122  1  0.33602264  0.50133444  0.83163058  1
  I  I123  1  0.32999651  0.83311685  0.17001094  1
  I  I124  1  0.32974802  0.83127188  0.49731072  1
  I  I125  1  0.33209910  0.83380376  0.83306121  1
  I  I126  1  0.67005860  0.15777755  0.16564643  1
  I  I127  1  0.66416089  0.16378379  0.50546306  1
  I  I128  1  0.66334054  0.16568690  0.82952623  1
  I  I129  1  0.66670426  0.50180390  0.16624970  1
  I  I130  1  0.66628958  0.50020249  0.50076447  1
  I  I131  1  0.66187198  0.50132127  0.83329799  1
  I  I132  1  0.66988897  0.83714380  0.16955703  1
  I  I133  1  0.66894345  0.83629375  0.49662029  1
  I  I134  1  0.66372098  0.83399747  0.83336201  1
