# generated using pymatgen
data_Cs27Sn14Pb13I81
_symmetry_space_group_name_H-M   'P 1'
_cell_length_a   18.96532757
_cell_length_b   18.95527614
_cell_length_c   18.96194460
_cell_angle_alpha   89.99991292
_cell_angle_beta   90.00009164
_cell_angle_gamma   90.00168804
_symmetry_Int_Tables_number   1
_chemical_formula_structural   Cs27Sn14Pb13I81
_chemical_formula_sum   'Cs27 Sn14 Pb13 I81'
_cell_volume   6816.68674818
_cell_formula_units_Z   1
loop_
 _symmetry_equiv_pos_site_id
 _symmetry_equiv_pos_as_xyz
  1  'x, y, z'
loop_
 _atom_site_type_symbol
 _atom_site_label
 _atom_site_symmetry_multiplicity
 _atom_site_fract_x
 _atom_site_fract_y
 _atom_site_fract_z
 _atom_site_occupancy
  Cs  Cs0  1  0.00061968  0.00609971  0.00240287  1
  Cs  Cs1  1  0.00133539  0.00312779  0.33244866  1
  Cs  Cs2  1  -0.00093617  -0.00297284  0.66604084  1
  Cs  Cs3  1  0.00111851  0.32734914  0.00010690  1
  Cs  Cs4  1  -0.00212070  0.33464524  0.33333687  1
  Cs  Cs5  1  0.00544471  0.33516324  0.66629477  1
  Cs  Cs6  1  -0.00400923  0.66679248  -0.00187515  1
  Cs  Cs7  1  -0.00273679  0.66459627  0.33552873  1
  Cs  Cs8  1  0.00050547  0.66707570  0.66533671  1
  Cs  Cs9  1  0.32979721  -0.00162072  0.00303006  1
  Cs  Cs10  1  0.33128689  -0.00214147  0.33333992  1
  Cs  Cs11  1  0.33440852  -0.00011964  0.66486070  1
  Cs  Cs12  1  0.33237379  0.33360445  -0.00137463  1
  Cs  Cs13  1  0.33619156  0.33516084  0.33390044  1
  Cs  Cs14  1  0.33180808  0.33118507  0.66790586  1
  Cs  Cs15  1  0.33531425  0.66776730  0.00093882  1
  Cs  Cs16  1  0.33465143  0.66767261  0.33186544  1
  Cs  Cs17  1  0.33290295  0.66672143  0.66694295  1
  Cs  Cs18  1  0.66861673  -0.00097891  -0.00192423  1
  Cs  Cs19  1  0.66812657  0.00290555  0.33645619  1
  Cs  Cs20  1  0.66603049  0.00441104  0.66517747  1
  Cs  Cs21  1  0.66663272  0.33597863  0.00146884  1
  Cs  Cs22  1  0.66561291  0.33245083  0.33303277  1
  Cs  Cs23  1  0.66450058  0.32509853  0.66573494  1
  Cs  Cs24  1  0.66653377  0.66588840  -0.00069674  1
  Cs  Cs25  1  0.66670819  0.66646461  0.33183226  1
  Cs  Cs26  1  0.66685834  0.66803165  0.66981067  1
  Sn  Sn27  1  0.16682757  0.16614109  0.50000591  1
  Sn  Sn28  1  0.49947968  0.83226063  0.50074412  1
  Sn  Sn29  1  0.83259087  0.50033789  0.83383834  1
  Sn  Sn30  1  0.16743827  0.83387320  0.50050963  1
  Sn  Sn31  1  0.83324713  0.83273846  0.16610331  1
  Sn  Sn32  1  0.49993563  0.83266882  0.83260147  1
  Sn  Sn33  1  0.16680166  0.83299132  0.83305507  1
  Sn  Sn34  1  0.83322230  0.83264595  0.83432619  1
  Sn  Sn35  1  0.49994681  0.16698224  0.16620866  1
  Sn  Sn36  1  0.16645321  0.50048875  0.16641009  1
  Sn  Sn37  1  0.50004457  0.49929675  0.16647854  1
  Sn  Sn38  1  0.83347882  0.50092453  0.16573008  1
  Sn  Sn39  1  0.50077417  0.50059750  0.83292853  1
  Sn  Sn40  1  0.50024876  0.50087342  0.50054536  1
  Pb  Pb41  1  0.16892408  0.16935298  0.16866371  1
  Pb  Pb42  1  0.50193608  0.83297122  0.16668162  1
  Pb  Pb43  1  0.49850106  0.16620318  0.49816244  1
  Pb  Pb44  1  0.83333167  0.16721795  0.83329417  1
  Pb  Pb45  1  0.16687925  0.16349930  0.83111293  1
  Pb  Pb46  1  0.83118272  0.16718256  0.16656252  1
  Pb  Pb47  1  0.16892342  0.50087446  0.49818330  1
  Pb  Pb48  1  0.16666279  0.50198374  0.83532503  1
  Pb  Pb49  1  0.83657473  0.16691111  0.50005734  1
  Pb  Pb50  1  0.16395518  0.83146352  0.16698610  1
  Pb  Pb51  1  0.83304587  0.83324139  0.50040881  1
  Pb  Pb52  1  0.49988944  0.16641700  0.83571275  1
  Pb  Pb53  1  0.83032524  0.49994437  0.50085244  1
  I  I54  1  0.16708875  -0.00025750  0.16522352  1
  I  I55  1  0.17286190  -0.00204524  0.50298083  1
  I  I56  1  0.16733184  -0.00513068  0.83381054  1
  I  I57  1  0.16274713  0.33744741  0.16810688  1
  I  I58  1  0.16828503  0.33174106  0.49647554  1
  I  I59  1  0.16627084  0.33364145  0.83247299  1
  I  I60  1  0.17322248  0.66361049  0.16888867  1
  I  I61  1  0.16889678  0.66984626  0.50293288  1
  I  I62  1  0.16692073  0.67028111  0.82694920  1
  I  I63  1  0.50173840  0.00154664  0.16739918  1
  I  I64  1  0.49863326  -0.00332906  0.50268873  1
  I  I65  1  0.50100163  -0.00389200  0.82985341  1
  I  I66  1  0.50169651  0.33629330  0.16789524  1
  I  I67  1  0.49899921  0.33621766  0.50100434  1
  I  I68  1  0.50492956  0.33710256  0.83129765  1
  I  I69  1  0.49876277  0.66354482  0.16720789  1
  I  I70  1  0.49422285  0.66702617  0.49810588  1
  I  I71  1  0.50054307  0.66660118  0.83472204  1
  I  I72  1  0.83164416  -0.00289594  0.16259507  1
  I  I73  1  0.82781126  -0.00049696  0.49929767  1
  I  I74  1  0.83260245  -0.00402046  0.83711845  1
  I  I75  1  0.83451029  0.33736962  0.16265281  1
  I  I76  1  0.83286648  0.33380899  0.49899698  1
  I  I77  1  0.82757942  0.33756842  0.83857002  1
  I  I78  1  0.83063734  0.66543041  0.16318599  1
  I  I79  1  0.83853799  0.66668062  0.49789613  1
  I  I80  1  0.83167097  0.66719626  0.83815676  1
  I  I81  1  0.16690955  0.16584025  0.00023012  1
  I  I82  1  0.16819803  0.15836514  0.33629066  1
  I  I83  1  0.16912720  0.16755732  0.66312572  1
  I  I84  1  0.17181371  0.50243032  0.00324960  1
  I  I85  1  0.16692172  0.50186210  0.33013514  1
  I  I86  1  0.16611903  0.49783808  0.66671759  1
  I  I87  1  0.17044366  0.82988834  -0.00264455  1
  I  I88  1  0.17108729  0.83526503  0.33610621  1
  I  I89  1  0.16570293  0.83593089  0.66675506  1
  I  I90  1  0.50005012  0.17160680  0.00350849  1
  I  I91  1  0.49958802  0.17165800  0.33042992  1
  I  I92  1  0.49888135  0.16929400  0.66652975  1
  I  I93  1  0.50070899  0.50038879  0.00006542  1
  I  I94  1  0.49912783  0.50008442  0.33268312  1
  I  I95  1  0.50364558  0.50547572  0.66752520  1
  I  I96  1  0.49778230  0.83068764  -0.00291219  1
  I  I97  1  0.49647179  0.83044513  0.33577400  1
  I  I98  1  0.50048067  0.82641038  0.66715838  1
  I  I99  1  0.83416264  0.16503971  0.00008431  1
  I  I100  1  0.83218581  0.16570467  0.33295213  1
  I  I101  1  0.83089904  0.16612597  0.66680675  1
  I  I102  1  0.82782257  0.50524594  0.00055346  1
  I  I103  1  0.83269903  0.50386399  0.33003416  1
  I  I104  1  0.83030562  0.50601153  0.67056140  1
  I  I105  1  0.83205613  0.82871040  -0.00102305  1
  I  I106  1  0.83254014  0.82869633  0.33066854  1
  I  I107  1  0.83403426  0.82831131  0.67021745  1
  I  I108  1  0.00014873  0.16744905  0.16845188  1
  I  I109  1  0.00454686  0.15972214  0.49893801  1
  I  I110  1  0.00014084  0.16764284  0.83308729  1
  I  I111  1  -0.00123171  0.50549584  0.16360270  1
  I  I112  1  0.00015263  0.49924197  0.49844808  1
  I  I113  1  -0.00285910  0.50464586  0.83841072  1
  I  I114  1  -0.00381373  0.82753144  0.16333899  1
  I  I115  1  0.00285265  0.83744570  0.50247563  1
  I  I116  1  -0.00048250  0.82905871  0.83238823  1
  I  I117  1  0.33671234  0.17159494  0.16691878  1
  I  I118  1  0.33090268  0.16438742  0.49833926  1
  I  I119  1  0.33349330  0.16823298  0.83459398  1
  I  I120  1  0.33491764  0.49588448  0.16724582  1
  I  I121  1  0.33725603  0.50140336  0.49949183  1
  I  I122  1  0.33654821  0.50391022  0.83467210  1
  I  I123  1  0.33344522  0.83249747  0.16460588  1
  I  I124  1  0.33391118  0.83316887  0.50646210  1
  I  I125  1  0.33423360  0.82943824  0.82875889  1
  I  I126  1  0.66340641  0.17241058  0.16835915  1
  I  I127  1  0.66619770  0.16615696  0.49852653  1
  I  I128  1  0.66643687  0.16200756  0.83258544  1
  I  I129  1  0.66610272  0.49999024  0.16622650  1
  I  I130  1  0.66199944  0.50634776  0.49480535  1
  I  I131  1  0.66575712  0.50859615  0.83875196  1
  I  I132  1  0.66967143  0.82816492  0.16337385  1
  I  I133  1  0.66334373  0.82855211  0.50172098  1
  I  I134  1  0.66623477  0.82895714  0.83394066  1
