# generated using pymatgen
data_Cs27Sn13Pb14I81
_symmetry_space_group_name_H-M   'P 1'
_cell_length_a   18.98299804
_cell_length_b   18.97397098
_cell_length_c   18.97494514
_cell_angle_alpha   89.99621090
_cell_angle_beta   90.00194410
_cell_angle_gamma   90.00093640
_symmetry_Int_Tables_number   1
_chemical_formula_structural   Cs27Sn13Pb14I81
_chemical_formula_sum   'Cs27 Sn13 Pb14 I81'
_cell_volume   6834.44987379
_cell_formula_units_Z   1
loop_
 _symmetry_equiv_pos_site_id
 _symmetry_equiv_pos_as_xyz
  1  'x, y, z'
loop_
 _atom_site_type_symbol
 _atom_site_label
 _atom_site_symmetry_multiplicity
 _atom_site_fract_x
 _atom_site_fract_y
 _atom_site_fract_z
 _atom_site_occupancy
  Cs  Cs0  1  -0.00225383  0.00064813  0.00142457  1
  Cs  Cs1  1  -0.00012886  -0.00111997  0.33237418  1
  Cs  Cs2  1  0.00349190  -0.00091767  0.66594302  1
  Cs  Cs3  1  0.00407690  0.33048492  0.00143181  1
  Cs  Cs4  1  -0.00234028  0.33757674  0.33067221  1
  Cs  Cs5  1  0.00007853  0.33366408  0.66720107  1
  Cs  Cs6  1  -0.00672904  0.66931101  0.00049336  1
  Cs  Cs7  1  -0.00210800  0.66252735  0.33288658  1
  Cs  Cs8  1  0.00004714  0.66726923  0.66739667  1
  Cs  Cs9  1  0.33369517  0.00052200  0.00059759  1
  Cs  Cs10  1  0.33446609  -0.00040915  0.33483060  1
  Cs  Cs11  1  0.33060861  -0.00037911  0.66464480  1
  Cs  Cs12  1  0.33174780  0.33428599  0.00062678  1
  Cs  Cs13  1  0.33353498  0.33355032  0.33335776  1
  Cs  Cs14  1  0.33184340  0.33057357  0.66511335  1
  Cs  Cs15  1  0.33661785  0.66438515  0.00099683  1
  Cs  Cs16  1  0.33443818  0.66671919  0.33153760  1
  Cs  Cs17  1  0.33250451  0.66947041  0.66761865  1
  Cs  Cs18  1  0.66825373  -0.00024299  0.00215360  1
  Cs  Cs19  1  0.66535556  -0.00131415  0.33246124  1
  Cs  Cs20  1  0.66540429  0.00158293  0.66534943  1
  Cs  Cs21  1  0.66528139  0.33524354  -0.00027412  1
  Cs  Cs22  1  0.66951260  0.33553495  0.33432428  1
  Cs  Cs23  1  0.66857661  0.33348825  0.66562893  1
  Cs  Cs24  1  0.66944976  0.66217520  -0.01042727  1
  Cs  Cs25  1  0.66628286  0.66813077  0.33545811  1
  Cs  Cs26  1  0.66738950  0.66421788  0.66972580  1
  Sn  Sn27  1  0.49889229  0.50092397  0.50006085  1
  Sn  Sn28  1  0.16688082  0.49967878  0.83256664  1
  Sn  Sn29  1  0.16693762  0.16698840  0.83381555  1
  Sn  Sn30  1  0.16774898  0.16562727  0.16625086  1
  Sn  Sn31  1  0.16745783  0.83402358  0.16664562  1
  Sn  Sn32  1  0.49947400  0.83377579  0.16688978  1
  Sn  Sn33  1  0.16778971  0.49997642  0.50084775  1
  Sn  Sn34  1  0.83259124  0.83441213  0.50002996  1
  Sn  Sn35  1  0.83351687  0.16561324  0.50047249  1
  Sn  Sn36  1  0.50054920  0.83259453  0.49964609  1
  Sn  Sn37  1  0.49911703  0.16603056  0.16600583  1
  Sn  Sn38  1  0.83349165  0.16645812  0.83241454  1
  Sn  Sn39  1  0.49967255  0.16634608  0.83404608  1
  Pb  Pb40  1  0.50015572  0.50016108  0.16858146  1
  Pb  Pb41  1  0.50153448  0.16645302  0.49950693  1
  Pb  Pb42  1  0.49763075  0.49723621  0.83067602  1
  Pb  Pb43  1  0.83331656  0.83603557  0.83043788  1
  Pb  Pb44  1  0.83283606  0.50026132  0.16618432  1
  Pb  Pb45  1  0.16681553  0.83340583  0.83630584  1
  Pb  Pb46  1  0.83239042  0.83334557  0.16866331  1
  Pb  Pb47  1  0.83625635  0.49713058  0.83324297  1
  Pb  Pb48  1  0.16676798  0.50015991  0.16613101  1
  Pb  Pb49  1  0.49989289  0.83555777  0.83348443  1
  Pb  Pb50  1  0.83302775  0.16672014  0.16655676  1
  Pb  Pb51  1  0.16682649  0.83101130  0.49779457  1
  Pb  Pb52  1  0.16431075  0.16844571  0.49926400  1
  Pb  Pb53  1  0.83324503  0.50028519  0.50018068  1
  I  I54  1  0.17009622  0.00133657  0.16222445  1
  I  I55  1  0.16819045  -0.00000010  0.50226890  1
  I  I56  1  0.16625568  0.00376890  0.83491445  1
  I  I57  1  0.17010911  0.33011370  0.16536288  1
  I  I58  1  0.17126117  0.33625892  0.49946261  1
  I  I59  1  0.16624692  0.33151168  0.83489750  1
  I  I60  1  0.17109792  0.66955496  0.16867816  1
  I  I61  1  0.16574419  0.66317665  0.50430945  1
  I  I62  1  0.16713365  0.66381453  0.82927091  1
  I  I63  1  0.49564171  0.00046641  0.16956652  1
  I  I64  1  0.50301714  -0.00240220  0.49859966  1
  I  I65  1  0.49698632  0.00420780  0.83152164  1
  I  I66  1  0.49550377  0.32987096  0.16403408  1
  I  I67  1  0.49787786  0.33517334  0.50062481  1
  I  I68  1  0.50227153  0.32897170  0.83783436  1
  I  I69  1  0.49412611  0.67019123  0.17152939  1
  I  I70  1  0.50182652  0.66776985  0.49359130  1
  I  I71  1  0.49854479  0.66640078  0.83574058  1
  I  I72  1  0.83469041  0.00023195  0.16569909  1
  I  I73  1  0.82784180  0.00013395  0.50349023  1
  I  I74  1  0.83669124  0.00445463  0.83217485  1
  I  I75  1  0.83431013  0.33253301  0.17144329  1
  I  I76  1  0.83287325  0.33063708  0.50356418  1
  I  I77  1  0.83065977  0.32874597  0.82560701  1
  I  I78  1  0.83651239  0.66731493  0.17069343  1
  I  I79  1  0.83229869  0.66954525  0.49674798  1
  I  I80  1  0.83484416  0.66657146  0.83322498  1
  I  I81  1  0.16498197  0.16924123  -0.00051384  1
  I  I82  1  0.17051341  0.16455808  0.33032945  1
  I  I83  1  0.16866196  0.16951317  0.66929573  1
  I  I84  1  0.16581771  0.49607801  -0.00283983  1
  I  I85  1  0.16916835  0.49963965  0.33584623  1
  I  I86  1  0.17002408  0.49335785  0.66666263  1
  I  I87  1  0.17320876  0.83367842  0.00425321  1
  I  I88  1  0.16802830  0.83932054  0.33011291  1
  I  I89  1  0.16664903  0.83543665  0.66647862  1
  I  I90  1  0.50092995  0.16139107  0.00037898  1
  I  I91  1  0.49625698  0.16584218  0.33064230  1
  I  I92  1  0.49808268  0.16748297  0.66894071  1
  I  I93  1  0.49895446  0.50220865  -0.00034832  1
  I  I94  1  0.49378708  0.49814287  0.33688276  1
  I  I95  1  0.49867483  0.50453209  0.66275609  1
  I  I96  1  0.49450234  0.83688460  0.00339845  1
  I  I97  1  0.49976266  0.83624078  0.33351169  1
  I  I98  1  0.50438839  0.83099453  0.66337234  1
  I  I99  1  0.83432662  0.16837121  -0.00302471  1
  I  I100  1  0.83293527  0.16374926  0.33607664  1
  I  I101  1  0.83278126  0.16328536  0.66703409  1
  I  I102  1  0.83493663  0.49875957  -0.00069605  1
  I  I103  1  0.83716921  0.49565038  0.33417398  1
  I  I104  1  0.83209304  0.50081751  0.66653467  1
  I  I105  1  0.83385690  0.83368804  -0.00000236  1
  I  I106  1  0.83209439  0.84055209  0.33684822  1
  I  I107  1  0.82771885  0.83473420  0.66231183  1
  I  I108  1  0.00309924  0.16369587  0.16384565  1
  I  I109  1  -0.00343132  0.16256310  0.50381957  1
  I  I110  1  0.00087560  0.17104489  0.83335784  1
  I  I111  1  0.00072361  0.49917235  0.17083898  1
  I  I112  1  0.00271136  0.49894298  0.50287500  1
  I  I113  1  0.00422848  0.49420044  0.82628725  1
  I  I114  1  0.00270972  0.83770210  0.16715877  1
  I  I115  1  -0.00218695  0.83641771  0.49899829  1
  I  I116  1  0.00017277  0.83502494  0.83329132  1
  I  I117  1  0.33320134  0.16324779  0.15964698  1
  I  I118  1  0.33327077  0.16533408  0.50264108  1
  I  I119  1  0.33278210  0.17072570  0.83801830  1
  I  I120  1  0.33327517  0.49940840  0.16660083  1
  I  I121  1  0.33347346  0.50398024  0.50291625  1
  I  I122  1  0.32993207  0.49301191  0.83167098  1
  I  I123  1  0.33414630  0.83837303  0.17313056  1
  I  I124  1  0.33617802  0.83143807  0.49748546  1
  I  I125  1  0.33331098  0.83654532  0.82742025  1
  I  I126  1  0.66334904  0.16228687  0.16439258  1
  I  I127  1  0.66934378  0.16773029  0.50370996  1
  I  I128  1  0.66640589  0.16437269  0.83283489  1
  I  I129  1  0.66598894  0.49758980  0.17058881  1
  I  I130  1  0.66392022  0.50030803  0.49781005  1
  I  I131  1  0.66646845  0.49879943  0.83246772  1
  I  I132  1  0.66283650  0.84028948  0.17106964  1
  I  I133  1  0.66547058  0.83241308  0.49368796  1
  I  I134  1  0.66656190  0.83523988  0.83769228  1
