# generated using pymatgen
data_Cs27Sn13Pb14I81
_symmetry_space_group_name_H-M   'P 1'
_cell_length_a   18.97598419
_cell_length_b   18.97034726
_cell_length_c   18.98379969
_cell_angle_alpha   90.00148507
_cell_angle_beta   89.99982403
_cell_angle_gamma   90.00027565
_symmetry_Int_Tables_number   1
_chemical_formula_structural   Cs27Sn13Pb14I81
_chemical_formula_sum   'Cs27 Sn13 Pb14 I81'
_cell_volume   6833.80737989
_cell_formula_units_Z   1
loop_
 _symmetry_equiv_pos_site_id
 _symmetry_equiv_pos_as_xyz
  1  'x, y, z'
loop_
 _atom_site_type_symbol
 _atom_site_label
 _atom_site_symmetry_multiplicity
 _atom_site_fract_x
 _atom_site_fract_y
 _atom_site_fract_z
 _atom_site_occupancy
  Cs  Cs0  1  0.00132720  0.00282439  0.00223782  1
  Cs  Cs1  1  0.00074776  -0.00282068  0.33012200  1
  Cs  Cs2  1  -0.00114080  -0.00001597  0.66765017  1
  Cs  Cs3  1  0.00167804  0.33027703  -0.00105972  1
  Cs  Cs4  1  -0.00072005  0.33439173  0.33553960  1
  Cs  Cs5  1  0.00197007  0.33299972  0.66528911  1
  Cs  Cs6  1  0.00012327  0.66640162  -0.00203954  1
  Cs  Cs7  1  0.00049466  0.66755326  0.33668752  1
  Cs  Cs8  1  -0.00487276  0.66885302  0.66604215  1
  Cs  Cs9  1  0.33092222  0.00155699  0.00220663  1
  Cs  Cs10  1  0.33522371  -0.00439889  0.33244351  1
  Cs  Cs11  1  0.33823631  -0.00194125  0.66388651  1
  Cs  Cs12  1  0.33246098  0.33325798  -0.00110844  1
  Cs  Cs13  1  0.33397700  0.33499912  0.33694783  1
  Cs  Cs14  1  0.33077521  0.33327924  0.66298095  1
  Cs  Cs15  1  0.33531032  0.66495850  -0.00189678  1
  Cs  Cs16  1  0.32984331  0.66558670  0.33360577  1
  Cs  Cs17  1  0.33378332  0.66727990  0.66838702  1
  Cs  Cs18  1  0.66694817  0.00015562  0.00184010  1
  Cs  Cs19  1  0.66436161  0.00222953  0.33101097  1
  Cs  Cs20  1  0.66349769  -0.00342317  0.66654331  1
  Cs  Cs21  1  0.66546573  0.33573146  0.00144274  1
  Cs  Cs22  1  0.66692585  0.33242908  0.33168682  1
  Cs  Cs23  1  0.66708253  0.33161655  0.66661822  1
  Cs  Cs24  1  0.66434668  0.66254449  -0.00457673  1
  Cs  Cs25  1  0.67232344  0.66384514  0.33034111  1
  Cs  Cs26  1  0.67374817  0.67441181  0.67516972  1
  Sn  Sn27  1  0.83415215  0.16665087  0.49975566  1
  Sn  Sn28  1  0.83225031  0.16674261  0.83350490  1
  Sn  Sn29  1  0.16612774  0.16646863  0.49960239  1
  Sn  Sn30  1  0.50056941  0.16695554  0.83411840  1
  Sn  Sn31  1  0.16655293  0.49964468  0.16675310  1
  Sn  Sn32  1  0.50076318  0.83338109  0.16669240  1
  Sn  Sn33  1  0.16680459  0.83290274  0.83326951  1
  Sn  Sn34  1  0.50035263  0.50083121  0.50052508  1
  Sn  Sn35  1  0.16750798  0.49938235  0.50014168  1
  Sn  Sn36  1  0.50036150  0.16634899  0.16585755  1
  Sn  Sn37  1  0.16666750  0.50086784  0.83288501  1
  Sn  Sn38  1  0.83245104  0.83376253  0.16641856  1
  Sn  Sn39  1  0.83273479  0.16621264  0.16664170  1
  Pb  Pb40  1  0.83564961  0.49967426  0.16647364  1
  Pb  Pb41  1  0.16674061  0.83300173  0.50236042  1
  Pb  Pb42  1  0.49817686  0.49974627  0.16819715  1
  Pb  Pb43  1  0.83309669  0.83638983  0.49745239  1
  Pb  Pb44  1  0.50028525  0.82959467  0.49740597  1
  Pb  Pb45  1  0.50024300  0.16770417  0.49957737  1
  Pb  Pb46  1  0.16662066  0.83096569  0.16492442  1
  Pb  Pb47  1  0.83319147  0.49838175  0.50025494  1
  Pb  Pb48  1  0.83568318  0.49743017  0.83334482  1
  Pb  Pb49  1  0.16703337  0.16673182  0.83121303  1
  Pb  Pb50  1  0.49819212  0.83571247  0.83573073  1
  Pb  Pb51  1  0.49816744  0.49775486  0.83074976  1
  Pb  Pb52  1  0.16699809  0.16832043  0.16915400  1
  Pb  Pb53  1  0.83514313  0.83604795  0.83599103  1
  I  I54  1  0.16670624  0.00007143  0.16600265  1
  I  I55  1  0.16247123  0.00289959  0.50181758  1
  I  I56  1  0.16588469  -0.00158600  0.83317723  1
  I  I57  1  0.16676151  0.33621840  0.16250488  1
  I  I58  1  0.16647622  0.33395601  0.50212291  1
  I  I59  1  0.16624601  0.33570242  0.83393125  1
  I  I60  1  0.16681378  0.66309635  0.17164962  1
  I  I61  1  0.17113201  0.66306392  0.49746249  1
  I  I62  1  0.16756488  0.66545669  0.83270363  1
  I  I63  1  0.50282020  0.00141111  0.16395769  1
  I  I64  1  0.49876349  0.00009996  0.50152850  1
  I  I65  1  0.50060114  0.00390604  0.83289876  1
  I  I66  1  0.50358541  0.33020290  0.16473205  1
  I  I67  1  0.49625700  0.33536940  0.49787279  1
  I  I68  1  0.50166614  0.32959462  0.84010042  1
  I  I69  1  0.50261053  0.66915691  0.16944730  1
  I  I70  1  0.48891422  0.66201655  0.49771132  1
  I  I71  1  0.49921250  0.66666127  0.83441181  1
  I  I72  1  0.83085374  0.00171678  0.16710122  1
  I  I73  1  0.83954812  0.00501338  0.50246227  1
  I  I74  1  0.83347100  0.00429299  0.83096801  1
  I  I75  1  0.83009725  0.32948379  0.16720581  1
  I  I76  1  0.83564554  0.32949304  0.49675156  1
  I  I77  1  0.83258745  0.32879251  0.83649355  1
  I  I78  1  0.83041361  0.66957286  0.16696512  1
  I  I79  1  0.83507640  0.66685909  0.49728099  1
  I  I80  1  0.83355734  0.66701679  0.83477240  1
  I  I81  1  0.16457965  0.16870178  0.00001055  1
  I  I82  1  0.16337095  0.17283251  0.33685258  1
  I  I83  1  0.16319304  0.17253670  0.66361302  1
  I  I84  1  0.16558876  0.50362581  -0.00041300  1
  I  I85  1  0.17014031  0.49479382  0.33430783  1
  I  I86  1  0.17082273  0.49777914  0.66603053  1
  I  I87  1  0.16642376  0.82905346  -0.00270396  1
  I  I88  1  0.16628816  0.83249215  0.33306616  1
  I  I89  1  0.16658654  0.82958477  0.67010617  1
  I  I90  1  0.50623318  0.16433992  0.00088300  1
  I  I91  1  0.50262033  0.16503728  0.33050306  1
  I  I92  1  0.50165172  0.16967773  0.66860866  1
  I  I93  1  0.49690396  0.50037774  -0.00007017  1
  I  I94  1  0.49191595  0.49650577  0.33588203  1
  I  I95  1  0.49215663  0.49497777  0.66324284  1
  I  I96  1  0.50290644  0.83443373  0.00369877  1
  I  I97  1  0.50129607  0.84220511  0.32925891  1
  I  I98  1  0.49747502  0.83514565  0.66703807  1
  I  I99  1  0.83018896  0.16307764  0.00066454  1
  I  I100  1  0.83341592  0.16401150  0.33258214  1
  I  I101  1  0.83467557  0.17008347  0.66665878  1
  I  I102  1  0.83642324  0.49680562  0.00007632  1
  I  I103  1  0.83652458  0.49752233  0.33326218  1
  I  I104  1  0.83563195  0.49715249  0.66671551  1
  I  I105  1  0.83149672  0.83996923  0.00371176  1
  I  I106  1  0.83187617  0.83850799  0.32930454  1
  I  I107  1  0.83547285  0.83401849  0.66708453  1
  I  I108  1  -0.00276527  0.16389531  0.16422376  1
  I  I109  1  -0.00004051  0.17312121  0.50049606  1
  I  I110  1  -0.00227296  0.16704976  0.83592219  1
  I  I111  1  0.00383942  0.49908017  0.16953521  1
  I  I112  1  0.00347205  0.49658491  0.49968135  1
  I  I113  1  0.00436512  0.50096639  0.83085178  1
  I  I114  1  -0.00250735  0.83853476  0.16501259  1
  I  I115  1  0.00002033  0.83025583  0.49710478  1
  I  I116  1  0.00296688  0.83084005  0.83535829  1
  I  I117  1  0.33615151  0.16384000  0.16294719  1
  I  I118  1  0.33112694  0.17058886  0.50109654  1
  I  I119  1  0.33559273  0.16716610  0.83725063  1
  I  I120  1  0.33007328  0.49935021  0.16573615  1
  I  I121  1  0.33120517  0.49235276  0.49934615  1
  I  I122  1  0.32967314  0.50003274  0.83534197  1
  I  I123  1  0.33585180  0.83804312  0.16530517  1
  I  I124  1  0.33333791  0.83948230  0.49715488  1
  I  I125  1  0.33036899  0.83174604  0.83567427  1
  I  I126  1  0.66702484  0.16365946  0.16845629  1
  I  I127  1  0.66931733  0.16915892  0.49934067  1
  I  I128  1  0.66707090  0.16665328  0.83188719  1
  I  I129  1  0.66655954  0.49958594  0.16992665  1
  I  I130  1  0.66402307  0.49574813  0.49624861  1
  I  I131  1  0.66648180  0.50037891  0.83201217  1
  I  I132  1  0.66671213  0.83925756  0.16778015  1
  I  I133  1  0.66668314  0.83306752  0.50330369  1
  I  I134  1  0.66671440  0.83258064  0.83200242  1
