# generated using pymatgen
data_Cs27Sn13Pb14I81
_symmetry_space_group_name_H-M   'P 1'
_cell_length_a   18.98118711
_cell_length_b   18.97263600
_cell_length_c   18.97551003
_cell_angle_alpha   90.00074965
_cell_angle_beta   90.00065649
_cell_angle_gamma   90.00191834
_symmetry_Int_Tables_number   1
_chemical_formula_structural   Cs27Sn13Pb14I81
_chemical_formula_sum   'Cs27 Sn13 Pb14 I81'
_cell_volume   6833.52051769
_cell_formula_units_Z   1
loop_
 _symmetry_equiv_pos_site_id
 _symmetry_equiv_pos_as_xyz
  1  'x, y, z'
loop_
 _atom_site_type_symbol
 _atom_site_label
 _atom_site_symmetry_multiplicity
 _atom_site_fract_x
 _atom_site_fract_y
 _atom_site_fract_z
 _atom_site_occupancy
  Cs  Cs0  1  -0.00228065  -0.00026485  -0.00152436  1
  Cs  Cs1  1  0.00653821  0.00104840  0.33817334  1
  Cs  Cs2  1  0.00234887  -0.00122573  0.66538055  1
  Cs  Cs3  1  0.00167966  0.33349541  -0.00017637  1
  Cs  Cs4  1  -0.00450945  0.33300009  0.32947779  1
  Cs  Cs5  1  -0.00552938  0.33286735  0.66929770  1
  Cs  Cs6  1  0.00044350  0.66602849  0.00448150  1
  Cs  Cs7  1  -0.00322526  0.66563589  0.33204525  1
  Cs  Cs8  1  0.00294695  0.66812432  0.66555331  1
  Cs  Cs9  1  0.33482789  -0.00081625  0.00218666  1
  Cs  Cs10  1  0.33059607  0.00737387  0.33208352  1
  Cs  Cs11  1  0.32979273  -0.00134630  0.66524342  1
  Cs  Cs12  1  0.33066691  0.33462129  -0.00010355  1
  Cs  Cs13  1  0.33449101  0.32749817  0.32960612  1
  Cs  Cs14  1  0.33650624  0.33742014  0.66959002  1
  Cs  Cs15  1  0.33272538  0.66573280  0.00040801  1
  Cs  Cs16  1  0.33414310  0.66741405  0.33925445  1
  Cs  Cs17  1  0.33391741  0.66555251  0.66458207  1
  Cs  Cs18  1  0.66788454  -0.00585473  0.00076676  1
  Cs  Cs19  1  0.66326336  0.00219043  0.33100145  1
  Cs  Cs20  1  0.66754252  -0.00036966  0.66835274  1
  Cs  Cs21  1  0.66755051  0.33189538  -0.00326546  1
  Cs  Cs22  1  0.66822560  0.33352460  0.33700121  1
  Cs  Cs23  1  0.66702921  0.33268435  0.66655891  1
  Cs  Cs24  1  0.66694313  0.67444886  0.00206352  1
  Cs  Cs25  1  0.66862352  0.66548735  0.33244368  1
  Cs  Cs26  1  0.66510336  0.66721940  0.66641568  1
  Sn  Sn27  1  0.16695416  0.83311699  0.16598766  1
  Sn  Sn28  1  0.16687938  0.83363003  0.83442595  1
  Sn  Sn29  1  0.49913349  0.50049957  0.49958301  1
  Sn  Sn30  1  0.83304953  0.16707570  0.83430991  1
  Sn  Sn31  1  0.83210821  0.83342004  0.50013046  1
  Sn  Sn32  1  0.50013490  0.16684145  0.83331196  1
  Sn  Sn33  1  0.50122578  0.49974396  0.83392573  1
  Sn  Sn34  1  0.83240712  0.50023282  0.83349292  1
  Sn  Sn35  1  0.50011222  0.50011336  0.16644686  1
  Sn  Sn36  1  0.16688455  0.49919139  0.49983024  1
  Sn  Sn37  1  0.50095404  0.83324090  0.50009763  1
  Sn  Sn38  1  0.83318839  0.16659842  0.16600331  1
  Sn  Sn39  1  0.16680434  0.16588927  0.83323125  1
  Pb  Pb40  1  0.83325783  0.16427552  0.50051504  1
  Pb  Pb41  1  0.16667334  0.17042466  0.50255732  1
  Pb  Pb42  1  0.16475217  0.16497078  0.16410021  1
  Pb  Pb43  1  0.16667937  0.49993342  0.83224397  1
  Pb  Pb44  1  0.83278784  0.50152225  0.50206222  1
  Pb  Pb45  1  0.49799835  0.83148073  0.16951107  1
  Pb  Pb46  1  0.83525709  0.83575041  0.16935331  1
  Pb  Pb47  1  0.49990312  0.16709732  0.50230399  1
  Pb  Pb48  1  0.49781790  0.83305466  0.83174557  1
  Pb  Pb49  1  0.83099094  0.49834378  0.16385041  1
  Pb  Pb50  1  0.83542395  0.83329105  0.83202412  1
  Pb  Pb51  1  0.50203561  0.16880819  0.16370057  1
  Pb  Pb52  1  0.16723397  0.83199674  0.49994599  1
  Pb  Pb53  1  0.16869929  0.50162002  0.16943538  1
  I  I54  1  0.16715202  -0.00304135  0.16731996  1
  I  I55  1  0.16671022  0.00003862  0.49914935  1
  I  I56  1  0.16614164  0.00049317  0.83530942  1
  I  I57  1  0.16668429  0.33325247  0.16668074  1
  I  I58  1  0.17406696  0.33796009  0.50215240  1
  I  I59  1  0.16640739  0.33080356  0.83029229  1
  I  I60  1  0.16588980  0.66950685  0.15911603  1
  I  I61  1  0.16918399  0.66433659  0.50415124  1
  I  I62  1  0.16666246  0.66879137  0.83370883  1
  I  I63  1  0.49980228  0.00010903  0.16723182  1
  I  I64  1  0.50363217  -0.00269761  0.50275939  1
  I  I65  1  0.50230990  0.00260860  0.83090127  1
  I  I66  1  0.49908343  0.33688016  0.17211163  1
  I  I67  1  0.49589838  0.33700289  0.49966265  1
  I  I68  1  0.49881925  0.33422076  0.83073393  1
  I  I69  1  0.50020422  0.66333296  0.16083350  1
  I  I70  1  0.49915200  0.66531411  0.50337911  1
  I  I71  1  0.50273608  0.66336125  0.83331675  1
  I  I72  1  0.83227955  0.00327671  0.15776863  1
  I  I73  1  0.82915473  -0.00359912  0.50278466  1
  I  I74  1  0.83113275  0.00307024  0.83531429  1
  I  I75  1  0.83429046  0.33039975  0.16513007  1
  I  I76  1  0.83362369  0.33335498  0.49955331  1
  I  I77  1  0.83493641  0.33267543  0.83477103  1
  I  I78  1  0.83394364  0.66674815  0.16599120  1
  I  I79  1  0.83295418  0.66928190  0.50254115  1
  I  I80  1  0.82948241  0.66416589  0.82987773  1
  I  I81  1  0.16874755  0.16697213  -0.00429637  1
  I  I82  1  0.16475870  0.16450948  0.33308018  1
  I  I83  1  0.16385243  0.15911253  0.67106418  1
  I  I84  1  0.16769369  0.49946627  -0.00005646  1
  I  I85  1  0.17136958  0.50455060  0.33726333  1
  I  I86  1  0.17261584  0.50299638  0.66456186  1
  I  I87  1  0.16637174  0.83633010  -0.00120237  1
  I  I88  1  0.16591586  0.83009776  0.33158789  1
  I  I89  1  0.16625527  0.83627899  0.66882003  1
  I  I90  1  0.49722510  0.17217586  -0.00452629  1
  I  I91  1  0.50197119  0.16728286  0.33307042  1
  I  I92  1  0.50290270  0.17243077  0.67077062  1
  I  I93  1  0.50352764  0.49462143  -0.00149832  1
  I  I94  1  0.49500185  0.50587215  0.33449090  1
  I  I95  1  0.49926317  0.49978971  0.66704435  1
  I  I96  1  0.49980381  0.83213001  -0.00003369  1
  I  I97  1  0.50179007  0.82685953  0.33745459  1
  I  I98  1  0.50048728  0.82740254  0.66392614  1
  I  I99  1  0.83382951  0.17051001  -0.00235799  1
  I  I100  1  0.83355961  0.16515280  0.33084468  1
  I  I101  1  0.83327908  0.16997124  0.67052296  1
  I  I102  1  0.82993676  0.49883385  -0.00434364  1
  I  I103  1  0.83343163  0.49876918  0.33329470  1
  I  I104  1  0.82892622  0.49365162  0.67006939  1
  I  I105  1  0.83366769  0.83176855  -0.00001247  1
  I  I106  1  0.83193756  0.83269921  0.33694985  1
  I  I107  1  0.83246509  0.83420873  0.66424686  1
  I  I108  1  -0.00301762  0.16726590  0.16058565  1
  I  I109  1  -0.00001135  0.16511484  0.50294648  1
  I  I110  1  -0.00054108  0.16742513  0.83634007  1
  I  I111  1  -0.00019521  0.50022800  0.16719322  1
  I  I112  1  0.00178487  0.50326981  0.50406549  1
  I  I113  1  -0.00213663  0.49681279  0.82979870  1
  I  I114  1  0.00299166  0.83257090  0.16441649  1
  I  I115  1  -0.00139523  0.83209753  0.50113776  1
  I  I116  1  0.00325559  0.83643356  0.83237676  1
  I  I117  1  0.33341953  0.16633865  0.16596241  1
  I  I118  1  0.33333500  0.16113774  0.50132119  1
  I  I119  1  0.33359449  0.16789603  0.83091245  1
  I  I120  1  0.33671990  0.49995770  0.16080523  1
  I  I121  1  0.33528606  0.50736449  0.50424481  1
  I  I122  1  0.33636469  0.49719013  0.83328032  1
  I  I123  1  0.33029818  0.83319244  0.16364457  1
  I  I124  1  0.33579444  0.82874388  0.50183234  1
  I  I125  1  0.33001189  0.83651490  0.83318722  1
  I  I126  1  0.66970106  0.16615495  0.16048964  1
  I  I127  1  0.66659010  0.16983846  0.50275497  1
  I  I128  1  0.66690158  0.17276410  0.83545083  1
  I  I129  1  0.66310036  0.50014209  0.17229606  1
  I  I130  1  0.66332786  0.50237627  0.49968789  1
  I  I131  1  0.66549281  0.49174796  0.83009645  1
  I  I132  1  0.66657893  0.83339144  0.16643575  1
  I  I133  1  0.66572467  0.82707834  0.50200685  1
  I  I134  1  0.66651076  0.83531113  0.83242871  1
