# generated using pymatgen
data_Cs27Sn13Pb14I81
_symmetry_space_group_name_H-M   'P 1'
_cell_length_a   18.98630091
_cell_length_b   18.97312765
_cell_length_c   18.97389904
_cell_angle_alpha   89.99912532
_cell_angle_beta   89.99951471
_cell_angle_gamma   90.00040807
_symmetry_Int_Tables_number   1
_chemical_formula_structural   Cs27Sn13Pb14I81
_chemical_formula_sum   'Cs27 Sn13 Pb14 I81'
_cell_volume   6834.95836403
_cell_formula_units_Z   1
loop_
 _symmetry_equiv_pos_site_id
 _symmetry_equiv_pos_as_xyz
  1  'x, y, z'
loop_
 _atom_site_type_symbol
 _atom_site_label
 _atom_site_symmetry_multiplicity
 _atom_site_fract_x
 _atom_site_fract_y
 _atom_site_fract_z
 _atom_site_occupancy
  Cs  Cs0  1  -0.00397028  0.00259926  0.00088496  1
  Cs  Cs1  1  0.00257641  0.00037886  0.33325867  1
  Cs  Cs2  1  -0.00505695  -0.00034318  0.66546566  1
  Cs  Cs3  1  -0.00012432  0.32692836  -0.00151434  1
  Cs  Cs4  1  -0.00216160  0.33316161  0.33310587  1
  Cs  Cs5  1  0.00297577  0.33427728  0.66751262  1
  Cs  Cs6  1  0.00103445  0.66791615  -0.00038482  1
  Cs  Cs7  1  0.00102332  0.66603718  0.33191861  1
  Cs  Cs8  1  -0.00135355  0.66584109  0.66881504  1
  Cs  Cs9  1  0.33496778  -0.00017114  0.00143051  1
  Cs  Cs10  1  0.33147115  -0.00125787  0.33413817  1
  Cs  Cs11  1  0.33500058  0.00019279  0.66442118  1
  Cs  Cs12  1  0.33472053  0.32556831  -0.00288845  1
  Cs  Cs13  1  0.33507019  0.33346331  0.33274751  1
  Cs  Cs14  1  0.33140300  0.33278781  0.66897093  1
  Cs  Cs15  1  0.33303203  0.66750588  -0.00110564  1
  Cs  Cs16  1  0.33315604  0.66787814  0.33272325  1
  Cs  Cs17  1  0.33363795  0.66605607  0.66891216  1
  Cs  Cs18  1  0.66740578  0.00382622  -0.00275449  1
  Cs  Cs19  1  0.66624301  -0.00152185  0.33651919  1
  Cs  Cs20  1  0.67043723  -0.00068921  0.66673858  1
  Cs  Cs21  1  0.66615726  0.32985885  0.00664407  1
  Cs  Cs22  1  0.66758866  0.34181056  0.32725767  1
  Cs  Cs23  1  0.66603057  0.33405064  0.66679107  1
  Cs  Cs24  1  0.66595357  0.66597039  -0.00071962  1
  Cs  Cs25  1  0.66657445  0.65931586  0.33739501  1
  Cs  Cs26  1  0.66794992  0.66595310  0.66449624  1
  Sn  Sn27  1  0.16709314  0.83342953  0.83352508  1
  Sn  Sn28  1  0.49942961  0.83259653  0.83381800  1
  Sn  Sn29  1  0.50038169  0.83295344  0.16627615  1
  Sn  Sn30  1  0.16689939  0.50029834  0.49911186  1
  Sn  Sn31  1  0.16692564  0.50036633  0.16671250  1
  Sn  Sn32  1  0.50022194  0.16691514  0.49969142  1
  Sn  Sn33  1  0.16667857  0.83287788  0.50038352  1
  Sn  Sn34  1  0.83230192  0.50005113  0.83371602  1
  Sn  Sn35  1  0.83291364  0.83289825  0.16694753  1
  Sn  Sn36  1  0.16675193  0.16674165  0.49991281  1
  Sn  Sn37  1  0.83312476  0.16702518  0.49963804  1
  Sn  Sn38  1  0.50099108  0.50052171  0.83358049  1
  Sn  Sn39  1  0.16668084  0.83266927  0.16621726  1
  Pb  Pb40  1  0.16677289  0.16654284  0.16871489  1
  Pb  Pb41  1  0.50006978  0.16605806  0.83143838  1
  Pb  Pb42  1  0.16662927  0.16291466  0.83084970  1
  Pb  Pb43  1  0.83584570  0.50199853  0.16440969  1
  Pb  Pb44  1  0.83315247  0.16956617  0.83137624  1
  Pb  Pb45  1  0.49731349  0.50219314  0.16425452  1
  Pb  Pb46  1  0.49837938  0.83436569  0.50030156  1
  Pb  Pb47  1  0.49755070  0.49793271  0.50207414  1
  Pb  Pb48  1  0.83577288  0.83440910  0.49772912  1
  Pb  Pb49  1  0.83288508  0.83201236  0.83518239  1
  Pb  Pb50  1  0.16710454  0.50157363  0.83397528  1
  Pb  Pb51  1  0.83576506  0.49799088  0.50163807  1
  Pb  Pb52  1  0.83321927  0.16431852  0.16922280  1
  Pb  Pb53  1  0.50000672  0.16392335  0.16938548  1
  I  I54  1  0.16707130  -0.00392593  0.16770377  1
  I  I55  1  0.16710591  -0.00048803  0.50004414  1
  I  I56  1  0.17251623  -0.00545261  0.83518688  1
  I  I57  1  0.16606494  0.33636642  0.17133164  1
  I  I58  1  0.16640958  0.33338303  0.49601471  1
  I  I59  1  0.16701822  0.33339009  0.83273836  1
  I  I60  1  0.16659714  0.66858021  0.17238801  1
  I  I61  1  0.16709027  0.66740168  0.49903630  1
  I  I62  1  0.16779865  0.66985364  0.82882227  1
  I  I63  1  0.49549448  -0.00467367  0.16033457  1
  I  I64  1  0.49626680  0.00246694  0.50115483  1
  I  I65  1  0.49444758  -0.00368905  0.83636584  1
  I  I66  1  0.49815797  0.33365251  0.16567386  1
  I  I67  1  0.49625761  0.32995656  0.50284123  1
  I  I68  1  0.50238645  0.33610799  0.82979374  1
  I  I69  1  0.49990096  0.67062766  0.16661885  1
  I  I70  1  0.49787435  0.66656700  0.49880023  1
  I  I71  1  0.49843908  0.66791088  0.83592870  1
  I  I72  1  0.83816194  -0.00404523  0.16541446  1
  I  I73  1  0.83633595  0.00265441  0.50022157  1
  I  I74  1  0.83391333  -0.00013563  0.83331496  1
  I  I75  1  0.83541870  0.33364571  0.16634371  1
  I  I76  1  0.83686137  0.32997463  0.50151532  1
  I  I77  1  0.82947532  0.33749639  0.83268464  1
  I  I78  1  0.83348650  0.67014287  0.16729750  1
  I  I79  1  0.83517418  0.66642339  0.50015151  1
  I  I80  1  0.83352524  0.66428395  0.83236702  1
  I  I81  1  0.16653056  0.16810036  -0.00002139  1
  I  I82  1  0.16681377  0.16107114  0.33743053  1
  I  I83  1  0.16705772  0.16841326  0.66211192  1
  I  I84  1  0.16626651  0.50811609  0.00247245  1
  I  I85  1  0.16619080  0.50511415  0.33399413  1
  I  I86  1  0.16653827  0.50022462  0.66418095  1
  I  I87  1  0.16758663  0.82654885  0.00080638  1
  I  I88  1  0.16680916  0.83401130  0.33316900  1
  I  I89  1  0.17176932  0.83359535  0.66643917  1
  I  I90  1  0.49984783  0.16818242  0.00000884  1
  I  I91  1  0.49696003  0.16405042  0.33745108  1
  I  I92  1  0.49752971  0.16400186  0.66333202  1
  I  I93  1  0.50086801  0.50225561  -0.00366266  1
  I  I94  1  0.50049580  0.50018007  0.33319823  1
  I  I95  1  0.50090646  0.50719641  0.66992066  1
  I  I96  1  0.49359320  0.82973865  -0.00022319  1
  I  I97  1  0.49738638  0.83727795  0.33071045  1
  I  I98  1  0.49412270  0.83161420  0.66959979  1
  I  I99  1  0.83378339  0.16650421  0.00015979  1
  I  I100  1  0.83632960  0.16592485  0.33733908  1
  I  I101  1  0.83541203  0.16404870  0.66308060  1
  I  I102  1  0.83214293  0.50196257  -0.00325379  1
  I  I103  1  0.83314827  0.49956403  0.33317330  1
  I  I104  1  0.83240332  0.50147189  0.66948400  1
  I  I105  1  0.83979912  0.83215266  0.00301582  1
  I  I106  1  0.83378848  0.83448392  0.32973091  1
  I  I107  1  0.83432758  0.83419992  0.66662122  1
  I  I108  1  0.00019698  0.16391119  0.16919694  1
  I  I109  1  0.00132529  0.16547661  0.50013139  1
  I  I110  1  0.00010342  0.16761484  0.83032610  1
  I  I111  1  0.00373071  0.50705964  0.16923902  1
  I  I112  1  0.00410669  0.49916702  0.49961541  1
  I  I113  1  -0.00123160  0.50205591  0.83177311  1
  I  I114  1  0.00182289  0.83000782  0.16762444  1
  I  I115  1  0.00457395  0.83566740  0.50100451  1
  I  I116  1  0.00282957  0.83121823  0.83294199  1
  I  I117  1  0.33324034  0.16461731  0.16946469  1
  I  I118  1  0.33203709  0.16515108  0.50052929  1
  I  I119  1  0.33322510  0.17168811  0.82968343  1
  I  I120  1  0.32951566  0.50683878  0.17001260  1
  I  I121  1  0.32923525  0.49908989  0.49918899  1
  I  I122  1  0.33545971  0.50345738  0.83182248  1
  I  I123  1  0.33217479  0.83027012  0.16637601  1
  I  I124  1  0.32964670  0.83598763  0.49637429  1
  I  I125  1  0.33303915  0.82773349  0.83644363  1
  I  I126  1  0.66657906  0.16477830  0.17012915  1
  I  I127  1  0.66659430  0.16343463  0.50173765  1
  I  I128  1  0.66655895  0.16123893  0.82805211  1
  I  I129  1  0.66650768  0.50189558  0.16766915  1
  I  I130  1  0.66658757  0.49780755  0.49974974  1
  I  I131  1  0.66573029  0.50723934  0.83138915  1
  I  I132  1  0.66591378  0.83632515  0.16068480  1
  I  I133  1  0.66671105  0.83737588  0.49993888  1
  I  I134  1  0.66352366  0.83187247  0.83768060  1
