# generated using pymatgen
data_Cs27Sn13Pb14I81
_symmetry_space_group_name_H-M   'P 1'
_cell_length_a   18.99153478
_cell_length_b   18.97945816
_cell_length_c   19.00549963
_cell_angle_alpha   90.00050742
_cell_angle_beta   90.00049073
_cell_angle_gamma   89.99866323
_symmetry_Int_Tables_number   1
_chemical_formula_structural   Cs27Sn13Pb14I81
_chemical_formula_sum   'Cs27 Sn13 Pb14 I81'
_cell_volume   6850.51408753
_cell_formula_units_Z   1
loop_
 _symmetry_equiv_pos_site_id
 _symmetry_equiv_pos_as_xyz
  1  'x, y, z'
loop_
 _atom_site_type_symbol
 _atom_site_label
 _atom_site_symmetry_multiplicity
 _atom_site_fract_x
 _atom_site_fract_y
 _atom_site_fract_z
 _atom_site_occupancy
  Cs  Cs0  1  0.00285327  0.00339373  0.00086860  1
  Cs  Cs1  1  0.00048461  0.00103370  0.33470099  1
  Cs  Cs2  1  0.00291960  0.00000203  0.66568992  1
  Cs  Cs3  1  -0.00132312  0.33538124  -0.00375526  1
  Cs  Cs4  1  -0.00181409  0.33254036  0.33517891  1
  Cs  Cs5  1  0.00187256  0.33426526  0.66712123  1
  Cs  Cs6  1  -0.00827554  0.65983715  0.00810208  1
  Cs  Cs7  1  0.00209709  0.66644824  0.32515551  1
  Cs  Cs8  1  -0.00057527  0.66621933  0.66832027  1
  Cs  Cs9  1  0.33233030  -0.00112806  -0.00022176  1
  Cs  Cs10  1  0.33332942  -0.00061838  0.33442451  1
  Cs  Cs11  1  0.33126041  -0.00142822  0.66616093  1
  Cs  Cs12  1  0.33638800  0.33210604  -0.00322145  1
  Cs  Cs13  1  0.33627775  0.33388436  0.33470965  1
  Cs  Cs14  1  0.33406406  0.33463763  0.66781145  1
  Cs  Cs15  1  0.33453839  0.67146093  0.00580702  1
  Cs  Cs16  1  0.32888519  0.66575452  0.32818050  1
  Cs  Cs17  1  0.33188127  0.66584850  0.66679246  1
  Cs  Cs18  1  0.66605647  -0.00136263  -0.00175059  1
  Cs  Cs19  1  0.66658887  -0.00252156  0.33777634  1
  Cs  Cs20  1  0.66592592  -0.00583472  0.66448817  1
  Cs  Cs21  1  0.66519210  0.33319502  0.00006248  1
  Cs  Cs22  1  0.66499978  0.33176482  0.33408281  1
  Cs  Cs23  1  0.66478414  0.33258057  0.66511911  1
  Cs  Cs24  1  0.67286617  0.67163461  -0.00302051  1
  Cs  Cs25  1  0.66911264  0.67236606  0.33434087  1
  Cs  Cs26  1  0.66885547  0.67333983  0.66835102  1
  Sn  Sn27  1  0.16654004  0.83378994  0.50090777  1
  Sn  Sn28  1  0.83390472  0.16734767  0.50038203  1
  Sn  Sn29  1  0.50014672  0.16695115  0.16607269  1
  Sn  Sn30  1  0.50057026  0.49926768  0.16646571  1
  Sn  Sn31  1  0.83286182  0.16706698  0.16680223  1
  Sn  Sn32  1  0.16608744  0.83261978  0.83326042  1
  Sn  Sn33  1  0.16701865  0.16723663  0.16756118  1
  Sn  Sn34  1  0.50085293  0.16702784  0.83363447  1
  Sn  Sn35  1  0.83238255  0.49920664  0.50007975  1
  Sn  Sn36  1  0.83230111  0.16675035  0.83273088  1
  Sn  Sn37  1  0.50113470  0.50002729  0.49998039  1
  Sn  Sn38  1  0.16625784  0.16640584  0.49941772  1
  Sn  Sn39  1  0.49998911  0.49973883  0.83351450  1
  Pb  Pb40  1  0.16887594  0.49647635  0.16643500  1
  Pb  Pb41  1  0.50027454  0.83388268  0.16669269  1
  Pb  Pb42  1  0.16699655  0.16593501  0.83310078  1
  Pb  Pb43  1  0.16892537  0.50314779  0.83361801  1
  Pb  Pb44  1  0.49990375  0.16759976  0.50022200  1
  Pb  Pb45  1  0.16652299  0.83573305  0.16662363  1
  Pb  Pb46  1  0.49706519  0.82947622  0.49991085  1
  Pb  Pb47  1  0.83329427  0.83646297  0.16668669  1
  Pb  Pb48  1  0.83609422  0.83319281  0.49998475  1
  Pb  Pb49  1  0.83092575  0.49769222  0.83099714  1
  Pb  Pb50  1  0.16620904  0.49976857  0.50003083  1
  Pb  Pb51  1  0.83640341  0.83615634  0.83336617  1
  Pb  Pb52  1  0.49820529  0.83362051  0.83327219  1
  Pb  Pb53  1  0.83044383  0.49738734  0.16904829  1
  I  I54  1  0.16930905  0.00433142  0.16794040  1
  I  I55  1  0.16140405  0.00194880  0.49972631  1
  I  I56  1  0.16880752  -0.00161187  0.83135782  1
  I  I57  1  0.16442445  0.32826440  0.17380977  1
  I  I58  1  0.16542289  0.33012972  0.49543288  1
  I  I59  1  0.16567384  0.33315407  0.83276432  1
  I  I60  1  0.16954588  0.66660280  0.16803547  1
  I  I61  1  0.16902586  0.66922059  0.50575899  1
  I  I62  1  0.16987267  0.67093108  0.82285335  1
  I  I63  1  0.49938201  0.00454579  0.16110068  1
  I  I64  1  0.50218159  -0.00004941  0.49994682  1
  I  I65  1  0.50266793  0.00363301  0.83895021  1
  I  I66  1  0.49920261  0.33191420  0.16605646  1
  I  I67  1  0.49816040  0.33570242  0.49993935  1
  I  I68  1  0.50217326  0.33231805  0.83450077  1
  I  I69  1  0.49772567  0.66320622  0.16682804  1
  I  I70  1  0.50593583  0.66121310  0.50071779  1
  I  I71  1  0.49645876  0.66341339  0.83299411  1
  I  I72  1  0.83063622  0.00577031  0.17026116  1
  I  I73  1  0.83540760  0.00371304  0.49890872  1
  I  I74  1  0.82552165  0.00494494  0.83082392  1
  I  I75  1  0.83602391  0.32889093  0.16501356  1
  I  I76  1  0.83574268  0.33139790  0.49938771  1
  I  I77  1  0.83388143  0.32913984  0.83592916  1
  I  I78  1  0.83259333  0.66598843  0.16843044  1
  I  I79  1  0.82829824  0.66356140  0.50103254  1
  I  I80  1  0.83211686  0.66647038  0.83105510  1
  I  I81  1  0.16515536  0.16460131  0.00234255  1
  I  I82  1  0.16439774  0.16112505  0.33395312  1
  I  I83  1  0.16372612  0.16455731  0.66398824  1
  I  I84  1  0.16780884  0.50002174  0.00005077  1
  I  I85  1  0.17019495  0.50489682  0.33345988  1
  I  I86  1  0.17062221  0.49460980  0.66652546  1
  I  I87  1  0.16996085  0.83703626  -0.00236954  1
  I  I88  1  0.16703600  0.83588858  0.33615697  1
  I  I89  1  0.16785407  0.84178943  0.66550835  1
  I  I90  1  0.50150768  0.17387012  0.00021771  1
  I  I91  1  0.50082536  0.17099036  0.33081139  1
  I  I92  1  0.50167488  0.17135722  0.66918956  1
  I  I93  1  0.49636458  0.49301148  0.00007392  1
  I  I94  1  0.50235956  0.49361090  0.33316651  1
  I  I95  1  0.50229085  0.49423699  0.66678760  1
  I  I96  1  0.49511452  0.83045918  -0.00008508  1
  I  I97  1  0.49721195  0.83531129  0.33346699  1
  I  I98  1  0.50013951  0.83490728  0.66651802  1
  I  I99  1  0.83346167  0.16465770  0.00017338  1
  I  I100  1  0.83460309  0.17063443  0.33369911  1
  I  I101  1  0.83431087  0.17081146  0.66605212  1
  I  I102  1  0.83365888  0.49958577  0.00009083  1
  I  I103  1  0.82866676  0.49340935  0.33675449  1
  I  I104  1  0.82835733  0.49290881  0.66328886  1
  I  I105  1  0.83595006  0.83374025  -0.00018015  1
  I  I106  1  0.83538892  0.83499714  0.33363867  1
  I  I107  1  0.83179622  0.83637939  0.66658067  1
  I  I108  1  -0.00019288  0.16338297  0.16755915  1
  I  I109  1  -0.00044334  0.16837972  0.49713783  1
  I  I110  1  -0.00238468  0.16341088  0.83559963  1
  I  I111  1  -0.00053432  0.50052110  0.16905075  1
  I  I112  1  -0.00292570  0.49705011  0.50081283  1
  I  I113  1  -0.00048077  0.49868981  0.83032927  1
  I  I114  1  0.00024027  0.83411404  0.16700560  1
  I  I115  1  0.00364927  0.83530898  0.50456380  1
  I  I116  1  0.00386093  0.83762564  0.82662391  1
  I  I117  1  0.33386109  0.16999867  0.16659677  1
  I  I118  1  0.33086880  0.16461347  0.49712229  1
  I  I119  1  0.33618687  0.16903254  0.83643550  1
  I  I120  1  0.33739863  0.49438103  0.17057334  1
  I  I121  1  0.33632116  0.49928229  0.49993151  1
  I  I122  1  0.33770983  0.49089188  0.82927148  1
  I  I123  1  0.33318779  0.83555818  0.16721936  1
  I  I124  1  0.32953080  0.84108239  0.50353783  1
  I  I125  1  0.33064355  0.83708941  0.82829639  1
  I  I126  1  0.66628847  0.17165235  0.16600628  1
  I  I127  1  0.66931198  0.16992251  0.49764967  1
  I  I128  1  0.66617844  0.17104594  0.83672399  1
  I  I129  1  0.66256506  0.49180450  0.16484525  1
  I  I130  1  0.66635809  0.49073302  0.49947652  1
  I  I131  1  0.66267977  0.49742981  0.83600341  1
  I  I132  1  0.66663797  0.83565016  0.16670719  1
  I  I133  1  0.66685242  0.83630610  0.49951136  1
  I  I134  1  0.66683204  0.83212359  0.83391884  1
