# generated using pymatgen
data_Cs27Sn14Pb13I81
_symmetry_space_group_name_H-M   'P 1'
_cell_length_a   18.98259938
_cell_length_b   18.97829860
_cell_length_c   18.96834719
_cell_angle_alpha   90.00034700
_cell_angle_beta   89.99958427
_cell_angle_gamma   90.00001824
_symmetry_Int_Tables_number   1
_chemical_formula_structural   Cs27Sn14Pb13I81
_chemical_formula_sum   'Cs27 Sn14 Pb13 I81'
_cell_volume   6833.48818509
_cell_formula_units_Z   1
loop_
 _symmetry_equiv_pos_site_id
 _symmetry_equiv_pos_as_xyz
  1  'x, y, z'
loop_
 _atom_site_type_symbol
 _atom_site_label
 _atom_site_symmetry_multiplicity
 _atom_site_fract_x
 _atom_site_fract_y
 _atom_site_fract_z
 _atom_site_occupancy
  Cs  Cs0  1  -0.00390243  0.00242022  -0.00087482  1
  Cs  Cs1  1  -0.00077705  0.00482334  0.33368283  1
  Cs  Cs2  1  -0.00081508  0.00094219  0.66662145  1
  Cs  Cs3  1  0.00078138  0.33269277  -0.00111088  1
  Cs  Cs4  1  0.00186159  0.32562049  0.33526849  1
  Cs  Cs5  1  -0.00426239  0.33183158  0.66642717  1
  Cs  Cs6  1  0.00197875  0.66503866  -0.00011154  1
  Cs  Cs7  1  0.00419401  0.66883098  0.33153701  1
  Cs  Cs8  1  0.00116507  0.66646874  0.66906228  1
  Cs  Cs9  1  0.33543755  -0.00033510  -0.00346672  1
  Cs  Cs10  1  0.33328033  -0.00036871  0.33447079  1
  Cs  Cs11  1  0.33440555  -0.00150854  0.66782487  1
  Cs  Cs12  1  0.33427530  0.33245294  0.00081288  1
  Cs  Cs13  1  0.33213616  0.33346432  0.33168861  1
  Cs  Cs14  1  0.33707106  0.33439149  0.66931411  1
  Cs  Cs15  1  0.32974026  0.66770519  -0.00075804  1
  Cs  Cs16  1  0.33291948  0.66712837  0.33302224  1
  Cs  Cs17  1  0.33084065  0.66750240  0.66994567  1
  Cs  Cs18  1  0.66812638  0.00048606  -0.00139008  1
  Cs  Cs19  1  0.66652246  -0.00202060  0.33264995  1
  Cs  Cs20  1  0.66610220  -0.00056012  0.66832986  1
  Cs  Cs21  1  0.66412293  0.33405817  -0.00204625  1
  Cs  Cs22  1  0.66615573  0.33479405  0.33640913  1
  Cs  Cs23  1  0.66774663  0.34308262  0.66612057  1
  Cs  Cs24  1  0.66848162  0.66659941  0.00367677  1
  Cs  Cs25  1  0.66534760  0.66808589  0.33264777  1
  Cs  Cs26  1  0.66762122  0.65976456  0.66521836  1
  Sn  Sn27  1  0.16724104  0.83340557  0.16731193  1
  Sn  Sn28  1  0.50010170  0.16607920  0.49941382  1
  Sn  Sn29  1  0.16637629  0.50042167  0.16774477  1
  Sn  Sn30  1  0.49901522  0.83364261  0.16730038  1
  Sn  Sn31  1  0.49995733  0.83390138  0.49943359  1
  Sn  Sn32  1  0.16617368  0.16637431  0.83319543  1
  Sn  Sn33  1  0.49980202  0.50040253  0.16712797  1
  Sn  Sn34  1  0.83327469  0.83360142  0.83246239  1
  Sn  Sn35  1  0.16664750  0.83281325  0.49924571  1
  Sn  Sn36  1  0.16665692  0.50045920  0.49925185  1
  Sn  Sn37  1  0.50005744  0.16612913  0.16772774  1
  Sn  Sn38  1  0.83384521  0.16617027  0.83306632  1
  Sn  Sn39  1  0.83343872  0.83334259  0.50072120  1
  Sn  Sn40  1  0.83399129  0.49968509  0.16739945  1
  Pb  Pb41  1  0.16884127  0.16635350  0.50204702  1
  Pb  Pb42  1  0.83354815  0.50031720  0.83543301  1
  Pb  Pb43  1  0.83371953  0.83221480  0.16705122  1
  Pb  Pb44  1  0.16659862  0.49765432  0.83332322  1
  Pb  Pb45  1  0.49969283  0.50058906  0.83635558  1
  Pb  Pb46  1  0.16460704  0.83508594  0.83351754  1
  Pb  Pb47  1  0.50069533  0.16652463  0.83266877  1
  Pb  Pb48  1  0.49771126  0.50074963  0.49796606  1
  Pb  Pb49  1  0.50257256  0.83302605  0.83314383  1
  Pb  Pb50  1  0.83039360  0.16457797  0.50203019  1
  Pb  Pb51  1  0.83628404  0.50264500  0.49722055  1
  Pb  Pb52  1  0.16864449  0.16613682  0.16507934  1
  Pb  Pb53  1  0.83050456  0.16923682  0.16493110  1
  I  I54  1  0.17096689  -0.00326231  0.17013143  1
  I  I55  1  0.16530378  -0.00354335  0.49645754  1
  I  I56  1  0.16517349  0.00267291  0.83392402  1
  I  I57  1  0.16792843  0.33618736  0.16906353  1
  I  I58  1  0.16894769  0.33570706  0.49559395  1
  I  I59  1  0.16096174  0.32993809  0.83417989  1
  I  I60  1  0.17112170  0.66688874  0.16918883  1
  I  I61  1  0.16863343  0.66820428  0.49594743  1
  I  I62  1  0.16518685  0.66687148  0.83408832  1
  I  I63  1  0.49526324  -0.00111739  0.17016294  1
  I  I64  1  0.49818019  -0.00148531  0.49190099  1
  I  I65  1  0.49866455  -0.00010913  0.83911283  1
  I  I66  1  0.49999765  0.33347299  0.16907303  1
  I  I67  1  0.49775306  0.33132483  0.49660156  1
  I  I68  1  0.50203654  0.33312527  0.83283029  1
  I  I69  1  0.50015391  0.66729972  0.17014503  1
  I  I70  1  0.50241690  0.67013683  0.49584965  1
  I  I71  1  0.50186938  0.66708477  0.83263727  1
  I  I72  1  0.83321858  0.00004318  0.16697585  1
  I  I73  1  0.83847096  -0.00379751  0.49951884  1
  I  I74  1  0.83715804  -0.00033113  0.83116851  1
  I  I75  1  0.83466628  0.33716538  0.16419304  1
  I  I76  1  0.83279118  0.33351553  0.50138546  1
  I  I77  1  0.83640688  0.33069367  0.83661377  1
  I  I78  1  0.82878337  0.66432215  0.16461894  1
  I  I79  1  0.82700251  0.67081065  0.50647166  1
  I  I80  1  0.83236422  0.66961604  0.83030108  1
  I  I81  1  0.16530174  0.16666370  -0.00261636  1
  I  I82  1  0.16618875  0.16715537  0.33342928  1
  I  I83  1  0.16512778  0.16609428  0.66957566  1
  I  I84  1  0.16767374  0.50402076  0.00380425  1
  I  I85  1  0.16755143  0.50455958  0.33189585  1
  I  I86  1  0.16725680  0.50516100  0.66354025  1
  I  I87  1  0.17042285  0.82947490  0.00321413  1
  I  I88  1  0.16603544  0.82946006  0.33340763  1
  I  I89  1  0.16980082  0.83007464  0.66340686  1
  I  I90  1  0.49970524  0.16743885  0.00293358  1
  I  I91  1  0.49891447  0.16554634  0.33258653  1
  I  I92  1  0.49834719  0.15948016  0.66363427  1
  I  I93  1  0.49739677  0.49892785  0.00554908  1
  I  I94  1  0.50205248  0.49989904  0.32951580  1
  I  I95  1  0.49886634  0.49818488  0.66596196  1
  I  I96  1  0.49658717  0.83344795  0.00376035  1
  I  I97  1  0.50172638  0.83387911  0.33291766  1
  I  I98  1  0.49650902  0.84006516  0.66295135  1
  I  I99  1  0.83499163  0.15942159  -0.00294173  1
  I  I100  1  0.83432261  0.16604004  0.33343630  1
  I  I101  1  0.83592256  0.16512358  0.66998117  1
  I  I102  1  0.83435402  0.50291264  0.00357081  1
  I  I103  1  0.82895146  0.50236430  0.32945823  1
  I  I104  1  0.83451305  0.49817282  0.66619117  1
  I  I105  1  0.83303902  0.83556939  -0.00181974  1
  I  I106  1  0.83239959  0.83030701  0.33603631  1
  I  I107  1  0.83367309  0.83784710  0.66583381  1
  I  I108  1  -0.00002922  0.16704201  0.16595738  1
  I  I109  1  -0.00002852  0.16635145  0.50021574  1
  I  I110  1  -0.00052387  0.16260271  0.83425480  1
  I  I111  1  0.00149561  0.50707628  0.16839139  1
  I  I112  1  0.00399512  0.50473304  0.49418759  1
  I  I113  1  0.00007925  0.50103123  0.83747008  1
  I  I114  1  0.00282407  0.82737016  0.16877077  1
  I  I115  1  0.00081503  0.82794626  0.49995496  1
  I  I116  1  -0.00313696  0.83549642  0.83044294  1
  I  I117  1  0.33667729  0.17073951  0.16711343  1
  I  I118  1  0.33649260  0.16117759  0.49810377  1
  I  I119  1  0.33163723  0.16776152  0.83425627  1
  I  I120  1  0.33307646  0.50046229  0.17034651  1
  I  I121  1  0.33006617  0.50448286  0.49425705  1
  I  I122  1  0.33290601  0.49670865  0.83501609  1
  I  I123  1  0.33365823  0.82903402  0.17321884  1
  I  I124  1  0.33331368  0.83376519  0.49442531  1
  I  I125  1  0.33314764  0.83549012  0.83201839  1
  I  I126  1  0.66234022  0.16460334  0.16757743  1
  I  I127  1  0.66259340  0.16150126  0.49671938  1
  I  I128  1  0.66933405  0.16146778  0.83541371  1
  I  I129  1  0.66558225  0.50086364  0.16382247  1
  I  I130  1  0.66662280  0.49978623  0.49940794  1
  I  I131  1  0.66688009  0.49686636  0.83451474  1
  I  I132  1  0.66391428  0.83204090  0.16879215  1
  I  I133  1  0.66582032  0.83908699  0.49905937  1
  I  I134  1  0.67044465  0.84085403  0.83179897  1
