# generated using pymatgen
data_Cs27Sn14Pb13I81
_symmetry_space_group_name_H-M   'P 1'
_cell_length_a   18.97747722
_cell_length_b   18.98166627
_cell_length_c   18.96674879
_cell_angle_alpha   90.00103690
_cell_angle_beta   90.00285125
_cell_angle_gamma   90.00110771
_symmetry_Int_Tables_number   1
_chemical_formula_structural   Cs27Sn14Pb13I81
_chemical_formula_sum   'Cs27 Sn14 Pb13 I81'
_cell_volume   6832.28074823
_cell_formula_units_Z   1
loop_
 _symmetry_equiv_pos_site_id
 _symmetry_equiv_pos_as_xyz
  1  'x, y, z'
loop_
 _atom_site_type_symbol
 _atom_site_label
 _atom_site_symmetry_multiplicity
 _atom_site_fract_x
 _atom_site_fract_y
 _atom_site_fract_z
 _atom_site_occupancy
  Cs  Cs0  1  0.00329870  0.00442327  0.00173097  1
  Cs  Cs1  1  0.00020636  -0.00065301  0.33412125  1
  Cs  Cs2  1  -0.00071481  -0.00185570  0.66434568  1
  Cs  Cs3  1  -0.00173611  0.33216892  0.00068635  1
  Cs  Cs4  1  -0.00033003  0.33345511  0.33081029  1
  Cs  Cs5  1  0.00321420  0.33539180  0.67181042  1
  Cs  Cs6  1  -0.00197749  0.66421108  0.00051132  1
  Cs  Cs7  1  0.00093873  0.66739983  0.33194445  1
  Cs  Cs8  1  -0.00316523  0.66479175  0.67571448  1
  Cs  Cs9  1  0.33624518  -0.00175207  -0.00196301  1
  Cs  Cs10  1  0.33319734  -0.00115787  0.33250238  1
  Cs  Cs11  1  0.32906332  -0.00367268  0.66957018  1
  Cs  Cs12  1  0.33525741  0.33105804  -0.00051515  1
  Cs  Cs13  1  0.33472704  0.33413226  0.33633913  1
  Cs  Cs14  1  0.33326144  0.33692783  0.66556611  1
  Cs  Cs15  1  0.33769600  0.67109976  -0.00002373  1
  Cs  Cs16  1  0.33156167  0.66715286  0.33625273  1
  Cs  Cs17  1  0.33148841  0.66584732  0.66222833  1
  Cs  Cs18  1  0.66089616  0.00162531  0.00026293  1
  Cs  Cs19  1  0.66546741  0.00286319  0.33646357  1
  Cs  Cs20  1  0.67123728  -0.00061179  0.66319680  1
  Cs  Cs21  1  0.66675738  0.33352239  0.00005364  1
  Cs  Cs22  1  0.66586656  0.33238593  0.33579239  1
  Cs  Cs23  1  0.66415237  0.33144346  0.66607388  1
  Cs  Cs24  1  0.66519164  0.66632665  -0.00215055  1
  Cs  Cs25  1  0.66865342  0.66532029  0.33206303  1
  Cs  Cs26  1  0.67059783  0.66993993  0.66994671  1
  Sn  Sn27  1  0.83245789  0.16657763  0.83409898  1
  Sn  Sn28  1  0.16708975  0.49991994  0.16669317  1
  Sn  Sn29  1  0.50076826  0.16728297  0.83313369  1
  Sn  Sn30  1  0.49989221  0.49926898  0.83384834  1
  Sn  Sn31  1  0.16585738  0.83345201  0.16712935  1
  Sn  Sn32  1  0.83360864  0.49979800  0.49958492  1
  Sn  Sn33  1  0.49994256  0.49976286  0.16632580  1
  Sn  Sn34  1  0.83318674  0.49993243  0.16743176  1
  Sn  Sn35  1  0.16638820  0.16666467  0.16764432  1
  Sn  Sn36  1  0.16650166  0.16636782  0.49908273  1
  Sn  Sn37  1  0.49974986  0.83338267  0.49961887  1
  Sn  Sn38  1  0.83353061  0.16641803  0.16621375  1
  Sn  Sn39  1  0.16705927  0.83391798  0.49912793  1
  Sn  Sn40  1  0.83367910  0.83376656  0.16666295  1
  Pb  Pb41  1  0.49723969  0.16459019  0.50284269  1
  Pb  Pb42  1  0.16958615  0.50010377  0.83675565  1
  Pb  Pb43  1  0.16637433  0.83314890  0.83376023  1
  Pb  Pb44  1  0.83136988  0.49794450  0.83406478  1
  Pb  Pb45  1  0.50208630  0.50182147  0.50003548  1
  Pb  Pb46  1  0.49996324  0.83110606  0.16845401  1
  Pb  Pb47  1  0.83342207  0.83663943  0.83702053  1
  Pb  Pb48  1  0.49975503  0.16869250  0.16567071  1
  Pb  Pb49  1  0.16667276  0.16665807  0.83353730  1
  Pb  Pb50  1  0.83442712  0.83131632  0.49784691  1
  Pb  Pb51  1  0.16434078  0.50039001  0.49808180  1
  Pb  Pb52  1  0.50006469  0.83324625  0.83044047  1
  Pb  Pb53  1  0.83570164  0.16868376  0.49967526  1
  I  I54  1  0.15898766  0.00019756  0.17041202  1
  I  I55  1  0.16988814  -0.00033783  0.49206901  1
  I  I56  1  0.16979346  0.00020848  0.83794960  1
  I  I57  1  0.16345602  0.33297275  0.16977175  1
  I  I58  1  0.16435819  0.33110368  0.49579666  1
  I  I59  1  0.16533978  0.33327370  0.83182417  1
  I  I60  1  0.16395648  0.66684730  0.17033963  1
  I  I61  1  0.17072261  0.66951885  0.49447188  1
  I  I62  1  0.16848899  0.66647540  0.83213414  1
  I  I63  1  0.50034042  0.00001215  0.16512112  1
  I  I64  1  0.50001320  -0.00307583  0.49959686  1
  I  I65  1  0.50316587  0.00291605  0.83331812  1
  I  I66  1  0.50011955  0.33692994  0.16549860  1
  I  I67  1  0.49918334  0.33336797  0.49909503  1
  I  I68  1  0.50382864  0.33341330  0.83809372  1
  I  I69  1  0.50067765  0.66287945  0.16101259  1
  I  I70  1  0.49234767  0.66933167  0.50028719  1
  I  I71  1  0.49985017  0.66379570  0.83816090  1
  I  I72  1  0.84086742  0.00064016  0.16214505  1
  I  I73  1  0.83121010  0.00000439  0.50019192  1
  I  I74  1  0.82689804  0.00461304  0.83683702  1
  I  I75  1  0.83658231  0.33339300  0.16590732  1
  I  I76  1  0.83369452  0.33618199  0.49272286  1
  I  I77  1  0.83244915  0.33025979  0.83964012  1
  I  I78  1  0.83611060  0.66593286  0.17219367  1
  I  I79  1  0.83384367  0.66361981  0.49318150  1
  I  I80  1  0.83175520  0.66652438  0.83290160  1
  I  I81  1  0.16510777  0.16667166  0.00365641  1
  I  I82  1  0.16107110  0.16591185  0.33144487  1
  I  I83  1  0.16665764  0.16102263  0.66390160  1
  I  I84  1  0.15940647  0.49875747  0.00541560  1
  I  I85  1  0.17089615  0.49975663  0.32934537  1
  I  I86  1  0.16573103  0.49961690  0.66651769  1
  I  I87  1  0.16286460  0.83431663  0.00444617  1
  I  I88  1  0.16708206  0.83411758  0.33203182  1
  I  I89  1  0.17176375  0.83916767  0.66310794  1
  I  I90  1  0.49928779  0.16784225  -0.00242777  1
  I  I91  1  0.50256796  0.16778534  0.33355668  1
  I  I92  1  0.50580894  0.17419494  0.67058351  1
  I  I93  1  0.50158957  0.49723046  0.00124264  1
  I  I94  1  0.49888485  0.50183353  0.33028809  1
  I  I95  1  0.50262652  0.49676834  0.66916949  1
  I  I96  1  0.49952671  0.83392098  0.00015416  1
  I  I97  1  0.49778754  0.83131861  0.33594726  1
  I  I98  1  0.49282649  0.83126633  0.66280670  1
  I  I99  1  0.83605586  0.16909839  0.00204448  1
  I  I100  1  0.83604733  0.16579463  0.32980460  1
  I  I101  1  0.83056891  0.16991805  0.66892956  1
  I  I102  1  0.83565171  0.50154978  0.00383338  1
  I  I103  1  0.83098279  0.49794752  0.33029180  1
  I  I104  1  0.83188338  0.49926144  0.66475477  1
  I  I105  1  0.83885323  0.82612264  0.00521143  1
  I  I106  1  0.83475487  0.83719147  0.32949433  1
  I  I107  1  0.83320541  0.83162815  0.66656975  1
  I  I108  1  -0.00018445  0.17037273  0.16410863  1
  I  I109  1  0.00339375  0.15979578  0.49961443  1
  I  I110  1  -0.00257854  0.16682945  0.83615710  1
  I  I111  1  -0.00035538  0.50004637  0.17192758  1
  I  I112  1  -0.00320906  0.50076883  0.49302433  1
  I  I113  1  -0.00023536  0.49878853  0.83249353  1
  I  I114  1  0.00068979  0.82965966  0.17218447  1
  I  I115  1  0.00326202  0.83732232  0.49631522  1
  I  I116  1  -0.00027283  0.83413570  0.82734901  1
  I  I117  1  0.33020352  0.16653756  0.16838428  1
  I  I118  1  0.32946934  0.16703392  0.49359340  1
  I  I119  1  0.33593692  0.17078585  0.83361313  1
  I  I120  1  0.33285439  0.49990146  0.16179920  1
  I  I121  1  0.33308797  0.49881777  0.49961730  1
  I  I122  1  0.33754002  0.49271531  0.83719358  1
  I  I123  1  0.33025103  0.83347092  0.16832811  1
  I  I124  1  0.33175703  0.83577477  0.49417119  1
  I  I125  1  0.33345835  0.83625810  0.83868192  1
  I  I126  1  0.66958109  0.16682871  0.16375864  1
  I  I127  1  0.66679543  0.16557856  0.49810593  1
  I  I128  1  0.66711547  0.17076726  0.84008315  1
  I  I129  1  0.66752857  0.50044216  0.16646958  1
  I  I130  1  0.66965038  0.50128694  0.49262619  1
  I  I131  1  0.66369835  0.49816917  0.83954993  1
  I  I132  1  0.66939956  0.83267793  0.16817969  1
  I  I133  1  0.66524012  0.83012130  0.49935466  1
  I  I134  1  0.66673530  0.83146370  0.83240249  1
