# generated using pymatgen
data_Cs27Sn13Pb14I81
_symmetry_space_group_name_H-M   'P 1'
_cell_length_a   18.98190356
_cell_length_b   18.97409183
_cell_length_c   18.97664577
_cell_angle_alpha   89.99869017
_cell_angle_beta   89.99998627
_cell_angle_gamma   90.00127959
_symmetry_Int_Tables_number   1
_chemical_formula_structural   Cs27Sn13Pb14I81
_chemical_formula_sum   'Cs27 Sn13 Pb14 I81'
_cell_volume   6834.71187895
_cell_formula_units_Z   1
loop_
 _symmetry_equiv_pos_site_id
 _symmetry_equiv_pos_as_xyz
  1  'x, y, z'
loop_
 _atom_site_type_symbol
 _atom_site_label
 _atom_site_symmetry_multiplicity
 _atom_site_fract_x
 _atom_site_fract_y
 _atom_site_fract_z
 _atom_site_occupancy
  Cs  Cs0  1  -0.00036117  -0.00253247  0.00098476  1
  Cs  Cs1  1  0.00290844  0.00521069  0.33176782  1
  Cs  Cs2  1  -0.00371704  -0.00033673  0.66755597  1
  Cs  Cs3  1  -0.00068115  0.33400399  0.00145183  1
  Cs  Cs4  1  0.00051726  0.33179723  0.33461493  1
  Cs  Cs5  1  0.00122500  0.33474177  0.66471312  1
  Cs  Cs6  1  0.00147933  0.66840239  0.00018163  1
  Cs  Cs7  1  -0.00207597  0.66540141  0.33493960  1
  Cs  Cs8  1  0.00101764  0.66634067  0.66500848  1
  Cs  Cs9  1  0.32981080  -0.00193873  0.00503512  1
  Cs  Cs10  1  0.33659516  0.00369370  0.32738675  1
  Cs  Cs11  1  0.33798625  0.00367315  0.66483894  1
  Cs  Cs12  1  0.33584912  0.33398375  -0.00381312  1
  Cs  Cs13  1  0.33202328  0.32900704  0.33081053  1
  Cs  Cs14  1  0.33277973  0.33349944  0.66927184  1
  Cs  Cs15  1  0.33038499  0.66948211  0.00204961  1
  Cs  Cs16  1  0.33437927  0.66860025  0.33278574  1
  Cs  Cs17  1  0.33161726  0.66564470  0.66656656  1
  Cs  Cs18  1  0.67082719  0.00400062  -0.00444723  1
  Cs  Cs19  1  0.65971483  0.00363870  0.33446552  1
  Cs  Cs20  1  0.66547342  0.00160156  0.66839361  1
  Cs  Cs21  1  0.66556084  0.33348984  0.00076884  1
  Cs  Cs22  1  0.66659471  0.33155824  0.32966407  1
  Cs  Cs23  1  0.66667121  0.33501697  0.66772570  1
  Cs  Cs24  1  0.66698884  0.66513130  0.00197581  1
  Cs  Cs25  1  0.66890408  0.66614255  0.33389936  1
  Cs  Cs26  1  0.66719758  0.66629585  0.66521558  1
  Sn  Sn27  1  0.16604460  0.50022169  0.16760010  1
  Sn  Sn28  1  0.83317874  0.50037666  0.49980547  1
  Sn  Sn29  1  0.49888072  0.16674323  0.83320580  1
  Sn  Sn30  1  0.49990160  0.50015649  0.50039884  1
  Sn  Sn31  1  0.16680561  0.16648981  0.83310348  1
  Sn  Sn32  1  0.49990636  0.83269082  0.83346335  1
  Sn  Sn33  1  0.16640202  0.83308095  0.50010931  1
  Sn  Sn34  1  0.16694456  0.50068501  0.49891595  1
  Sn  Sn35  1  0.50055083  0.50074962  0.83259187  1
  Sn  Sn36  1  0.83441370  0.50073882  0.16696553  1
  Sn  Sn37  1  0.83404581  0.83278283  0.49881665  1
  Sn  Sn38  1  0.83291933  0.50034437  0.83325393  1
  Sn  Sn39  1  0.83298248  0.83261503  0.16799255  1
  Pb  Pb40  1  0.50002116  0.16980520  0.50196113  1
  Pb  Pb41  1  0.50310207  0.83306235  0.16417937  1
  Pb  Pb42  1  0.50020543  0.83139869  0.50140372  1
  Pb  Pb43  1  0.50002744  0.16663586  0.16362849  1
  Pb  Pb44  1  0.50000409  0.50012753  0.16681101  1
  Pb  Pb45  1  0.83181240  0.83090656  0.83288420  1
  Pb  Pb46  1  0.83333915  0.16625361  0.49992928  1
  Pb  Pb47  1  0.16878350  0.83580157  0.83070062  1
  Pb  Pb48  1  0.16646291  0.16951894  0.16400121  1
  Pb  Pb49  1  0.16664666  0.16644694  0.50181765  1
  Pb  Pb50  1  0.16670047  0.49921490  0.83322631  1
  Pb  Pb51  1  0.83343177  0.16648783  0.16684644  1
  Pb  Pb52  1  0.83345304  0.16944077  0.83317002  1
  Pb  Pb53  1  0.16446060  0.83115887  0.16940188  1
  I  I54  1  0.16509061  -0.00020481  0.16678114  1
  I  I55  1  0.16019160  -0.00328010  0.50406865  1
  I  I56  1  0.17179334  0.00346038  0.83135600  1
  I  I57  1  0.16012375  0.33782055  0.17337812  1
  I  I58  1  0.16548185  0.33713006  0.49816454  1
  I  I59  1  0.17221264  0.33161040  0.83203896  1
  I  I60  1  0.16514031  0.66290873  0.16529092  1
  I  I61  1  0.16540296  0.66477976  0.49861376  1
  I  I62  1  0.16804585  0.66665430  0.83481066  1
  I  I63  1  0.50157795  -0.00025200  0.16622989  1
  I  I64  1  0.50080245  -0.00017192  0.50298225  1
  I  I65  1  0.49608365  0.00021296  0.83353497  1
  I  I66  1  0.50244525  0.33390028  0.16491157  1
  I  I67  1  0.50061748  0.33853349  0.50590853  1
  I  I68  1  0.49992799  0.33456801  0.82932962  1
  I  I69  1  0.49791746  0.66628425  0.16156509  1
  I  I70  1  0.50033583  0.66291239  0.50740319  1
  I  I71  1  0.50562382  0.66511294  0.82909467  1
  I  I72  1  0.83241164  -0.00361380  0.17012677  1
  I  I73  1  0.83887200  -0.00404083  0.49642068  1
  I  I74  1  0.83146638  -0.00022816  0.83364696  1
  I  I75  1  0.83606255  0.33742595  0.16665145  1
  I  I76  1  0.83407274  0.33768931  0.50052796  1
  I  I77  1  0.82819616  0.33806868  0.83297295  1
  I  I78  1  0.83630685  0.66480177  0.16700044  1
  I  I79  1  0.83365416  0.66496430  0.50018291  1
  I  I80  1  0.82820433  0.66255227  0.83283023  1
  I  I81  1  0.17220888  0.16903526  -0.00377300  1
  I  I82  1  0.16578033  0.16616757  0.33328680  1
  I  I83  1  0.17156750  0.17096394  0.66959227  1
  I  I84  1  0.16310156  0.49695343  0.00202937  1
  I  I85  1  0.16353770  0.50308196  0.33456118  1
  I  I86  1  0.16433353  0.50145096  0.66379768  1
  I  I87  1  0.16634966  0.83291722  0.00007311  1
  I  I88  1  0.16632455  0.83052096  0.33744474  1
  I  I89  1  0.15934786  0.82439804  0.66307759  1
  I  I90  1  0.49713706  0.17201855  -0.00501290  1
  I  I91  1  0.50074161  0.16797172  0.33344636  1
  I  I92  1  0.49659969  0.16559292  0.67048952  1
  I  I93  1  0.50351096  0.49806959  -0.00349202  1
  I  I94  1  0.50256769  0.50175893  0.33655608  1
  I  I95  1  0.50318095  0.49944356  0.66745062  1
  I  I96  1  0.50084731  0.82972089  -0.00425891  1
  I  I97  1  0.49849817  0.83082157  0.33351406  1
  I  I98  1  0.50245221  0.83431062  0.66962503  1
  I  I99  1  0.83225463  0.16750026  -0.00025263  1
  I  I100  1  0.83413626  0.17254661  0.33334317  1
  I  I101  1  0.83314271  0.16699379  0.66688786  1
  I  I102  1  0.83302238  0.50269635  0.00021389  1
  I  I103  1  0.83348840  0.50385477  0.33400990  1
  I  I104  1  0.83256484  0.50268826  0.66589419  1
  I  I105  1  0.83050352  0.82822364  0.00211736  1
  I  I106  1  0.83691203  0.82221319  0.33425238  1
  I  I107  1  0.83583838  0.82832500  0.66357047  1
  I  I108  1  0.00006573  0.16639268  0.16198418  1
  I  I109  1  0.00010105  0.17182408  0.50470759  1
  I  I110  1  0.00247689  0.17001824  0.83282378  1
  I  I111  1  -0.00114468  0.50272899  0.16806703  1
  I  I112  1  -0.00049242  0.50312025  0.50084430  1
  I  I113  1  -0.00256617  0.49768686  0.83126591  1
  I  I114  1  -0.00357046  0.82976657  0.16515468  1
  I  I115  1  -0.00076128  0.82395334  0.49868235  1
  I  I116  1  -0.00013580  0.83407781  0.83482301  1
  I  I117  1  0.33308649  0.16866157  0.16798411  1
  I  I118  1  0.33335707  0.16733257  0.50078069  1
  I  I119  1  0.33460377  0.17152570  0.83178975  1
  I  I120  1  0.33052178  0.49875219  0.16889559  1
  I  I121  1  0.33288126  0.50367009  0.50217848  1
  I  I122  1  0.33623637  0.49984744  0.83008540  1
  I  I123  1  0.33317231  0.83204765  0.16640959  1
  I  I124  1  0.33087192  0.82711688  0.50455709  1
  I  I125  1  0.33676901  0.82650156  0.83097547  1
  I  I126  1  0.66681684  0.16995217  0.16384498  1
  I  I127  1  0.66658793  0.16634766  0.50354214  1
  I  I128  1  0.66355060  0.16571923  0.83318960  1
  I  I129  1  0.67000533  0.50318046  0.16786416  1
  I  I130  1  0.66753323  0.50350725  0.50213947  1
  I  I131  1  0.66619915  0.49793017  0.83033960  1
  I  I132  1  0.67110874  0.82401741  0.17333616  1
  I  I133  1  0.66983034  0.82783037  0.49803071  1
  I  I134  1  0.66378503  0.83716711  0.83144159  1
