# generated using pymatgen
data_Cs27Sn13Pb14I81
_symmetry_space_group_name_H-M   'P 1'
_cell_length_a   18.97518483
_cell_length_b   18.98510809
_cell_length_c   18.97190722
_cell_angle_alpha   90.00049530
_cell_angle_beta   90.00028694
_cell_angle_gamma   89.99937209
_symmetry_Int_Tables_number   1
_chemical_formula_structural   Cs27Sn13Pb14I81
_chemical_formula_sum   'Cs27 Sn13 Pb14 I81'
_cell_volume   6834.55245214
_cell_formula_units_Z   1
loop_
 _symmetry_equiv_pos_site_id
 _symmetry_equiv_pos_as_xyz
  1  'x, y, z'
loop_
 _atom_site_type_symbol
 _atom_site_label
 _atom_site_symmetry_multiplicity
 _atom_site_fract_x
 _atom_site_fract_y
 _atom_site_fract_z
 _atom_site_occupancy
  Cs  Cs0  1  -0.00129165  0.00153664  -0.00505471  1
  Cs  Cs1  1  -0.00035098  -0.00203794  0.33319411  1
  Cs  Cs2  1  0.00746561  -0.00102996  0.67229393  1
  Cs  Cs3  1  0.00966182  0.33255965  -0.00244848  1
  Cs  Cs4  1  -0.00024851  0.33486034  0.33142467  1
  Cs  Cs5  1  -0.00292107  0.33390235  0.67487239  1
  Cs  Cs6  1  0.00318272  0.66624568  -0.00209468  1
  Cs  Cs7  1  -0.00218082  0.66732722  0.33291226  1
  Cs  Cs8  1  -0.00102967  0.66662700  0.67283037  1
  Cs  Cs9  1  0.33582641  -0.00238122  -0.00052017  1
  Cs  Cs10  1  0.33309836  -0.00018179  0.33546274  1
  Cs  Cs11  1  0.32562705  -0.00084853  0.66264340  1
  Cs  Cs12  1  0.32751937  0.33626123  0.00105575  1
  Cs  Cs13  1  0.33319012  0.33388515  0.33318162  1
  Cs  Cs14  1  0.33570767  0.33337848  0.66554660  1
  Cs  Cs15  1  0.33507646  0.66624182  -0.00737405  1
  Cs  Cs16  1  0.33386461  0.66617786  0.33360761  1
  Cs  Cs17  1  0.33178836  0.66758571  0.67043631  1
  Cs  Cs18  1  0.66671609  -0.00095604  0.00096415  1
  Cs  Cs19  1  0.66667946  0.00011303  0.33267508  1
  Cs  Cs20  1  0.66746042  0.00310640  0.66456367  1
  Cs  Cs21  1  0.66621659  0.33063958  0.00158829  1
  Cs  Cs22  1  0.66648135  0.33300206  0.33422786  1
  Cs  Cs23  1  0.66673082  0.33421805  0.66579592  1
  Cs  Cs24  1  0.66325066  0.66994722  -0.00282409  1
  Cs  Cs25  1  0.66805892  0.66687989  0.33331607  1
  Cs  Cs26  1  0.66847196  0.66302051  0.66967308  1
  Sn  Sn27  1  0.50095472  0.49951030  0.16753353  1
  Sn  Sn28  1  0.49910532  0.50021242  0.49900814  1
  Sn  Sn29  1  0.50093066  0.83315696  0.49962888  1
  Sn  Sn30  1  0.50066128  0.16650954  0.49971397  1
  Sn  Sn31  1  0.83432959  0.83343283  0.16735571  1
  Sn  Sn32  1  0.16684787  0.49989471  0.49955006  1
  Sn  Sn33  1  0.50016181  0.16658849  0.83336303  1
  Sn  Sn34  1  0.16591572  0.83337454  0.16727485  1
  Sn  Sn35  1  0.83259201  0.83427321  0.49958766  1
  Sn  Sn36  1  0.83257265  0.49978241  0.16691672  1
  Sn  Sn37  1  0.50058189  0.16745304  0.16679675  1
  Sn  Sn38  1  0.83308885  0.16577807  0.49918776  1
  Sn  Sn39  1  0.83282071  0.16697011  0.16765037  1
  Pb  Pb40  1  0.16588858  0.83124525  0.49863053  1
  Pb  Pb41  1  0.16695722  0.49996773  0.82983159  1
  Pb  Pb42  1  0.16564696  0.16899516  0.49966373  1
  Pb  Pb43  1  0.83280732  0.49968897  0.83780817  1
  Pb  Pb44  1  0.83292181  0.83356363  0.83302126  1
  Pb  Pb45  1  0.17008020  0.16668325  0.83332065  1
  Pb  Pb46  1  0.50041618  0.83625519  0.82919373  1
  Pb  Pb47  1  0.83301827  0.49982433  0.49876661  1
  Pb  Pb48  1  0.16678449  0.83336270  0.83672073  1
  Pb  Pb49  1  0.50053025  0.83319744  0.16822294  1
  Pb  Pb50  1  0.83144207  0.16663927  0.83343312  1
  Pb  Pb51  1  0.16717835  0.50211252  0.16813992  1
  Pb  Pb52  1  0.50030677  0.49772862  0.83353268  1
  Pb  Pb53  1  0.16663864  0.16437329  0.16708723  1
  I  I54  1  0.16361408  -0.00333703  0.16899000  1
  I  I55  1  0.17010141  -0.00021684  0.49940147  1
  I  I56  1  0.16699332  -0.00002766  0.83154633  1
  I  I57  1  0.16449588  0.33356667  0.16663511  1
  I  I58  1  0.17251016  0.33662170  0.49732629  1
  I  I59  1  0.16573615  0.33338003  0.83535328  1
  I  I60  1  0.16207481  0.66958024  0.16999017  1
  I  I61  1  0.17200014  0.66375705  0.49680335  1
  I  I62  1  0.16804091  0.66666494  0.83352908  1
  I  I63  1  0.50210471  0.00294783  0.16739106  1
  I  I64  1  0.50440635  0.00085100  0.49914231  1
  I  I65  1  0.50163645  0.00403868  0.83761258  1
  I  I66  1  0.50691973  0.33276336  0.17114087  1
  I  I67  1  0.49978057  0.33268592  0.49974359  1
  I  I68  1  0.50157261  0.32996919  0.82860266  1
  I  I69  1  0.50279453  0.66409448  0.17261055  1
  I  I70  1  0.50001857  0.66620751  0.49326458  1
  I  I71  1  0.49873291  0.66674070  0.83450818  1
  I  I72  1  0.83243045  0.00043074  0.17074524  1
  I  I73  1  0.82398692  0.00027935  0.49120665  1
  I  I74  1  0.83161913  0.00012630  0.83784590  1
  I  I75  1  0.82712333  0.33260929  0.17200272  1
  I  I76  1  0.82965133  0.33052928  0.49550668  1
  I  I77  1  0.83207967  0.33306281  0.82987504  1
  I  I78  1  0.83318997  0.66698184  0.17219029  1
  I  I79  1  0.82995922  0.66911594  0.49436018  1
  I  I80  1  0.83304198  0.66668972  0.83100504  1
  I  I81  1  0.16615392  0.16656624  0.00037997  1
  I  I82  1  0.17215726  0.16678941  0.33333980  1
  I  I83  1  0.16627113  0.16656446  0.66630006  1
  I  I84  1  0.16652982  0.50144688  0.00020392  1
  I  I85  1  0.17013630  0.50028386  0.33578998  1
  I  I86  1  0.17371819  0.50107807  0.66177762  1
  I  I87  1  0.16081422  0.83240409  0.00486094  1
  I  I88  1  0.16464062  0.83293024  0.33089150  1
  I  I89  1  0.16716821  0.83214743  0.66646455  1
  I  I90  1  0.50410960  0.17080532  0.00187338  1
  I  I91  1  0.50382746  0.16782572  0.33365797  1
  I  I92  1  0.50399098  0.16700751  0.66459912  1
  I  I93  1  0.50430435  0.49648944  0.00380582  1
  I  I94  1  0.49988759  0.49513376  0.33369370  1
  I  I95  1  0.49592938  0.49938371  0.66300028  1
  I  I96  1  0.49907492  0.83321843  0.00010972  1
  I  I97  1  0.50088419  0.83697465  0.33644087  1
  I  I98  1  0.50521665  0.83121697  0.66083912  1
  I  I99  1  0.82851643  0.16549765  0.00390674  1
  I  I100  1  0.82514345  0.16556468  0.33283212  1
  I  I101  1  0.82866343  0.16273409  0.66295476  1
  I  I102  1  0.82677649  0.50044897  0.00631424  1
  I  I103  1  0.83173349  0.50033978  0.33037080  1
  I  I104  1  0.83415824  0.50013400  0.66643725  1
  I  I105  1  0.83728767  0.83408903  0.00400341  1
  I  I106  1  0.83295593  0.83446241  0.33292925  1
  I  I107  1  0.82853625  0.83770930  0.66253399  1
  I  I108  1  -0.00380421  0.16940036  0.17229534  1
  I  I109  1  -0.00399794  0.16327136  0.49332833  1
  I  I110  1  -0.00012532  0.16692789  0.83313027  1
  I  I111  1  -0.00285480  0.49789883  0.16953032  1
  I  I112  1  0.00149495  0.50061102  0.49637485  1
  I  I113  1  -0.00000314  0.49907844  0.83201350  1
  I  I114  1  -0.00234035  0.83273436  0.17360726  1
  I  I115  1  -0.00353363  0.83641157  0.49636313  1
  I  I116  1  -0.00011762  0.83413445  0.82837194  1
  I  I117  1  0.33723067  0.16993227  0.16776985  1
  I  I118  1  0.33697390  0.16402610  0.49934653  1
  I  I119  1  0.33834670  0.16698940  0.83278513  1
  I  I120  1  0.33678509  0.49597186  0.16939356  1
  I  I121  1  0.33611747  0.49944506  0.49387500  1
  I  I122  1  0.33372957  0.49866221  0.83858005  1
  I  I123  1  0.33205835  0.83369441  0.16944572  1
  I  I124  1  0.33609397  0.83645612  0.49777033  1
  I  I125  1  0.33370783  0.83455945  0.83454030  1
  I  I126  1  0.66623675  0.16552348  0.16770052  1
  I  I127  1  0.66545401  0.16759698  0.49908172  1
  I  I128  1  0.66342930  0.16712260  0.83284101  1
  I  I129  1  0.66600618  0.50036969  0.17342425  1
  I  I130  1  0.66350602  0.49944672  0.49773478  1
  I  I131  1  0.66632578  0.50035482  0.82731936  1
  I  I132  1  0.66965979  0.83351761  0.16916970  1
  I  I133  1  0.66671652  0.83316933  0.49325061  1
  I  I134  1  0.66647042  0.83268006  0.83942660  1
