# generated using pymatgen
data_Cs27Sn14Pb13I81
_symmetry_space_group_name_H-M   'P 1'
_cell_length_a   18.97947960
_cell_length_b   18.96491207
_cell_length_c   18.98015861
_cell_angle_alpha   90.00153833
_cell_angle_beta   89.99995781
_cell_angle_gamma   90.00199359
_symmetry_Int_Tables_number   1
_chemical_formula_structural   Cs27Sn14Pb13I81
_chemical_formula_sum   'Cs27 Sn14 Pb13 I81'
_cell_volume   6831.79727424
_cell_formula_units_Z   1
loop_
 _symmetry_equiv_pos_site_id
 _symmetry_equiv_pos_as_xyz
  1  'x, y, z'
loop_
 _atom_site_type_symbol
 _atom_site_label
 _atom_site_symmetry_multiplicity
 _atom_site_fract_x
 _atom_site_fract_y
 _atom_site_fract_z
 _atom_site_occupancy
  Cs  Cs0  1  0.00131363  0.00259794  -0.00067320  1
  Cs  Cs1  1  -0.00022520  -0.00175524  0.33396506  1
  Cs  Cs2  1  -0.00153503  -0.00037209  0.66656986  1
  Cs  Cs3  1  -0.00055368  0.33005303  0.00229886  1
  Cs  Cs4  1  -0.00018559  0.33290689  0.33456756  1
  Cs  Cs5  1  -0.00216199  0.33742176  0.66397615  1
  Cs  Cs6  1  0.00176578  0.66716860  -0.00130614  1
  Cs  Cs7  1  0.00340465  0.66838252  0.33608753  1
  Cs  Cs8  1  -0.00008983  0.66384548  0.66472642  1
  Cs  Cs9  1  0.33017807  0.00613423  -0.01101892  1
  Cs  Cs10  1  0.33251890  -0.00107920  0.33493472  1
  Cs  Cs11  1  0.33487953  0.00266789  0.67229366  1
  Cs  Cs12  1  0.33247924  0.32936667  0.00113172  1
  Cs  Cs13  1  0.33657886  0.33147201  0.33185946  1
  Cs  Cs14  1  0.33512254  0.33427439  0.66612465  1
  Cs  Cs15  1  0.33305330  0.66695229  -0.00152464  1
  Cs  Cs16  1  0.33214638  0.66678586  0.33300818  1
  Cs  Cs17  1  0.33348797  0.66555067  0.66835490  1
  Cs  Cs18  1  0.66851137  -0.00062753  -0.00360282  1
  Cs  Cs19  1  0.66799306  -0.00263757  0.33658057  1
  Cs  Cs20  1  0.66754544  0.00084057  0.66538551  1
  Cs  Cs21  1  0.66777142  0.33741530  0.01224607  1
  Cs  Cs22  1  0.66283300  0.33307070  0.32203073  1
  Cs  Cs23  1  0.66686508  0.33214252  0.66697794  1
  Cs  Cs24  1  0.66579330  0.66471544  0.00083784  1
  Cs  Cs25  1  0.66444657  0.66911346  0.33193111  1
  Cs  Cs26  1  0.66663578  0.66634961  0.66781074  1
  Sn  Sn27  1  0.83304476  0.16643883  0.83254145  1
  Sn  Sn28  1  0.16654504  0.50071546  0.16580676  1
  Sn  Sn29  1  0.49949538  0.50001025  0.83281591  1
  Sn  Sn30  1  0.83402916  0.16618984  0.50062098  1
  Sn  Sn31  1  0.83363067  0.83321661  0.16665887  1
  Sn  Sn32  1  0.83356305  0.83367948  0.83300687  1
  Sn  Sn33  1  0.50041196  0.50070336  0.50056322  1
  Sn  Sn34  1  0.49961700  0.83255953  0.49980338  1
  Sn  Sn35  1  0.16601160  0.16565080  0.50009450  1
  Sn  Sn36  1  0.16701804  0.83419623  0.49989992  1
  Sn  Sn37  1  0.49906812  0.83359610  0.16675350  1
  Sn  Sn38  1  0.16734396  0.83299888  0.16678976  1
  Sn  Sn39  1  0.83343845  0.83351111  0.50020287  1
  Sn  Sn40  1  0.16722504  0.50018056  0.83427204  1
  Pb  Pb41  1  0.50224920  0.83186714  0.83311882  1
  Pb  Pb42  1  0.83652537  0.50304184  0.16703400  1
  Pb  Pb43  1  0.50333690  0.17018735  0.83341856  1
  Pb  Pb44  1  0.16666508  0.16576792  0.16921349  1
  Pb  Pb45  1  0.16445792  0.83190855  0.83291711  1
  Pb  Pb46  1  0.16424009  0.16975061  0.83038662  1
  Pb  Pb47  1  0.49749749  0.50226198  0.16665064  1
  Pb  Pb48  1  0.16861622  0.50000169  0.49968882  1
  Pb  Pb49  1  0.83316568  0.49948519  0.83332082  1
  Pb  Pb50  1  0.83020739  0.49970425  0.49967210  1
  Pb  Pb51  1  0.49967632  0.16230122  0.16658828  1
  Pb  Pb52  1  0.83341655  0.16384755  0.16738771  1
  Pb  Pb53  1  0.50057104  0.16611318  0.49994532  1
  I  I54  1  0.16529005  -0.00410124  0.17006981  1
  I  I55  1  0.16693737  -0.00207821  0.49379330  1
  I  I56  1  0.16750720  0.00011397  0.83610374  1
  I  I57  1  0.16761457  0.33599075  0.16400411  1
  I  I58  1  0.16243842  0.33110781  0.50102829  1
  I  I59  1  0.16887441  0.33747848  0.83816776  1
  I  I60  1  0.16574776  0.66843717  0.16944939  1
  I  I61  1  0.16361881  0.66980029  0.49886081  1
  I  I62  1  0.16731535  0.66400882  0.83200194  1
  I  I63  1  0.49895552  -0.00592637  0.17581730  1
  I  I64  1  0.50085979  -0.00380160  0.49460142  1
  I  I65  1  0.49909208  -0.00002800  0.83368280  1
  I  I66  1  0.49944643  0.33374045  0.16754122  1
  I  I67  1  0.49850341  0.33600433  0.50527027  1
  I  I68  1  0.49666844  0.33803439  0.82512658  1
  I  I69  1  0.50332275  0.67041392  0.16891138  1
  I  I70  1  0.49993052  0.66845657  0.49991479  1
  I  I71  1  0.49888437  0.66401236  0.83146144  1
  I  I72  1  0.83626906  -0.00468074  0.16739021  1
  I  I73  1  0.83212045  -0.00191366  0.50017603  1
  I  I74  1  0.83340805  -0.00134128  0.83258520  1
  I  I75  1  0.83351255  0.33325795  0.16578634  1
  I  I76  1  0.83874795  0.32998094  0.50751533  1
  I  I77  1  0.83435694  0.33039700  0.82541023  1
  I  I78  1  0.83020299  0.67159374  0.16694273  1
  I  I79  1  0.83672858  0.67042281  0.50076265  1
  I  I80  1  0.83335164  0.66959249  0.83243055  1
  I  I81  1  0.16553207  0.16490800  -0.00028980  1
  I  I82  1  0.15967672  0.16727972  0.33719462  1
  I  I83  1  0.16516065  0.16052146  0.66273751  1
  I  I84  1  0.17133891  0.50729609  0.00013799  1
  I  I85  1  0.16728963  0.50265377  0.33121413  1
  I  I86  1  0.16866317  0.50023501  0.66844116  1
  I  I87  1  0.16611166  0.82937079  0.00262727  1
  I  I88  1  0.16268063  0.83078572  0.33379916  1
  I  I89  1  0.16655505  0.83479188  0.66337446  1
  I  I90  1  0.50158102  0.16682959  -0.00022346  1
  I  I91  1  0.50241060  0.17409675  0.33371238  1
  I  I92  1  0.49802665  0.16271899  0.66657728  1
  I  I93  1  0.49917889  0.50182225  -0.00221759  1
  I  I94  1  0.49941569  0.50231665  0.33573677  1
  I  I95  1  0.49426990  0.50652375  0.66622304  1
  I  I96  1  0.50124970  0.83074327  0.00262545  1
  I  I97  1  0.50425436  0.82742734  0.33457167  1
  I  I98  1  0.50020551  0.83091856  0.66351071  1
  I  I99  1  0.83238735  0.16253517  -0.00252118  1
  I  I100  1  0.83704689  0.16241379  0.33690850  1
  I  I101  1  0.83687427  0.15751011  0.66557035  1
  I  I102  1  0.82835840  0.50046517  0.00002962  1
  I  I103  1  0.83335763  0.49851679  0.33344619  1
  I  I104  1  0.83779536  0.50544653  0.66652299  1
  I  I105  1  0.83304190  0.83601062  0.00016441  1
  I  I106  1  0.83304931  0.83633432  0.33415751  1
  I  I107  1  0.83302868  0.83687078  0.66559077  1
  I  I108  1  -0.00001788  0.16627936  0.16459710  1
  I  I109  1  -0.00062857  0.15886415  0.50295193  1
  I  I110  1  -0.00339788  0.16317885  0.83178237  1
  I  I111  1  0.00433761  0.50548287  0.16102452  1
  I  I112  1  0.00018200  0.50235273  0.50100936  1
  I  I113  1  0.00250875  0.50119995  0.83709116  1
  I  I114  1  0.00026556  0.82912785  0.17020296  1
  I  I115  1  -0.00007034  0.83723020  0.49725034  1
  I  I116  1  -0.00360727  0.83381303  0.83309450  1
  I  I117  1  0.33294540  0.16578319  0.16950617  1
  I  I118  1  0.33078720  0.16364591  0.49809947  1
  I  I119  1  0.33318716  0.16547273  0.83239130  1
  I  I120  1  0.33003177  0.50756989  0.16648830  1
  I  I121  1  0.33623184  0.50480771  0.50126905  1
  I  I122  1  0.33318146  0.50282456  0.83231320  1
  I  I123  1  0.33266818  0.82739754  0.17674893  1
  I  I124  1  0.33306504  0.83241072  0.49221295  1
  I  I125  1  0.33327865  0.83284853  0.83346197  1
  I  I126  1  0.66685859  0.16810463  0.16858692  1
  I  I127  1  0.67003913  0.16213264  0.50483886  1
  I  I128  1  0.67103774  0.16173941  0.82463410  1
  I  I129  1  0.66632821  0.50026213  0.16583267  1
  I  I130  1  0.66243238  0.50536285  0.50705969  1
  I  I131  1  0.66410160  0.50158230  0.82763680  1
  I  I132  1  0.66684516  0.83432013  0.17046670  1
  I  I133  1  0.66717685  0.83314125  0.49733402  1
  I  I134  1  0.67034556  0.83410723  0.83294126  1
