# generated using pymatgen
data_Cs27Sn14Pb13I81
_symmetry_space_group_name_H-M   'P 1'
_cell_length_a   18.98547900
_cell_length_b   18.96494386
_cell_length_c   18.97679861
_cell_angle_alpha   89.99940425
_cell_angle_beta   90.00055568
_cell_angle_gamma   90.00039344
_symmetry_Int_Tables_number   1
_chemical_formula_structural   Cs27Sn14Pb13I81
_chemical_formula_sum   'Cs27 Sn14 Pb13 I81'
_cell_volume   6832.75846709
_cell_formula_units_Z   1
loop_
 _symmetry_equiv_pos_site_id
 _symmetry_equiv_pos_as_xyz
  1  'x, y, z'
loop_
 _atom_site_type_symbol
 _atom_site_label
 _atom_site_symmetry_multiplicity
 _atom_site_fract_x
 _atom_site_fract_y
 _atom_site_fract_z
 _atom_site_occupancy
  Cs  Cs0  1  0.00097927  0.00056924  0.00147634  1
  Cs  Cs1  1  0.00125559  0.00045418  0.33219868  1
  Cs  Cs2  1  0.00023502  -0.00018967  0.66629606  1
  Cs  Cs3  1  -0.00059322  0.33185818  -0.00154772  1
  Cs  Cs4  1  0.00093991  0.33716473  0.33151002  1
  Cs  Cs5  1  0.00123836  0.33048585  0.67031233  1
  Cs  Cs6  1  0.00083211  0.66743589  0.00073721  1
  Cs  Cs7  1  -0.00140644  0.66066233  0.33247606  1
  Cs  Cs8  1  -0.00397624  0.67083299  0.66683780  1
  Cs  Cs9  1  0.33295262  -0.00230096  0.00338531  1
  Cs  Cs10  1  0.33267532  0.00056546  0.33480056  1
  Cs  Cs11  1  0.33154774  0.00167546  0.66290486  1
  Cs  Cs12  1  0.33347433  0.33332349  -0.00049237  1
  Cs  Cs13  1  0.33177559  0.33869571  0.33297937  1
  Cs  Cs14  1  0.33294866  0.33263141  0.66677900  1
  Cs  Cs15  1  0.34328967  0.66877271  -0.00225030  1
  Cs  Cs16  1  0.33156092  0.66164037  0.33349743  1
  Cs  Cs17  1  0.33716735  0.66523393  0.66832142  1
  Cs  Cs18  1  0.66554470  -0.00066348  0.00408237  1
  Cs  Cs19  1  0.66535150  0.00029203  0.33291696  1
  Cs  Cs20  1  0.66879172  0.00090090  0.66401672  1
  Cs  Cs21  1  0.66793771  0.33303578  -0.00065607  1
  Cs  Cs22  1  0.66705368  0.33779661  0.33058799  1
  Cs  Cs23  1  0.66543749  0.33167866  0.66870566  1
  Cs  Cs24  1  0.65520729  0.66707202  -0.00082391  1
  Cs  Cs25  1  0.67029858  0.65780827  0.33452312  1
  Cs  Cs26  1  0.66698692  0.66696678  0.66591280  1
  Sn  Sn27  1  0.16577282  0.83395170  0.16775180  1
  Sn  Sn28  1  0.49929031  0.83418865  0.49935505  1
  Sn  Sn29  1  0.16726079  0.83398978  0.49902504  1
  Sn  Sn30  1  0.49981603  0.16626623  0.50050612  1
  Sn  Sn31  1  0.16587960  0.16611573  0.16685103  1
  Sn  Sn32  1  0.16555618  0.49969342  0.83338489  1
  Sn  Sn33  1  0.83442288  0.49961432  0.83358949  1
  Sn  Sn34  1  0.16654872  0.16635791  0.49958629  1
  Sn  Sn35  1  0.83432941  0.16588983  0.16678451  1
  Sn  Sn36  1  0.16688121  0.16695503  0.83356753  1
  Sn  Sn37  1  0.83404407  0.83396879  0.16664095  1
  Sn  Sn38  1  0.83328981  0.16658356  0.83352704  1
  Sn  Sn39  1  0.49982396  0.16607362  0.83287600  1
  Sn  Sn40  1  0.83363032  0.16653455  0.49958986  1
  Pb  Pb41  1  0.49984864  0.49986673  0.16665716  1
  Pb  Pb42  1  0.83352671  0.49984721  0.16366533  1
  Pb  Pb43  1  0.16667382  0.83358025  0.83325174  1
  Pb  Pb44  1  0.83325949  0.83384124  0.83611825  1
  Pb  Pb45  1  0.49968178  0.83365529  0.17006041  1
  Pb  Pb46  1  0.83377592  0.83527468  0.49759647  1
  Pb  Pb47  1  0.49989651  0.49947193  0.50022878  1
  Pb  Pb48  1  0.50004239  0.83678473  0.83024510  1
  Pb  Pb49  1  0.83371556  0.49670625  0.50306357  1
  Pb  Pb50  1  0.50008840  0.49720546  0.83308141  1
  Pb  Pb51  1  0.49966808  0.16683646  0.16740691  1
  Pb  Pb52  1  0.16667390  0.50039645  0.16369655  1
  Pb  Pb53  1  0.16639795  0.50026644  0.50277006  1
  I  I54  1  0.16265045  0.00149070  0.16483308  1
  I  I55  1  0.16744053  0.00192356  0.50182312  1
  I  I56  1  0.16516004  0.00388024  0.83283089  1
  I  I57  1  0.16279560  0.32969823  0.16948570  1
  I  I58  1  0.16759665  0.32938298  0.49750138  1
  I  I59  1  0.16614134  0.33039227  0.83298161  1
  I  I60  1  0.16198115  0.67024024  0.17151693  1
  I  I61  1  0.17203509  0.67020486  0.49632879  1
  I  I62  1  0.16066265  0.66394691  0.83283456  1
  I  I63  1  0.50121888  0.00034844  0.16207412  1
  I  I64  1  0.49864016  0.00184871  0.50471002  1
  I  I65  1  0.49974990  0.00490538  0.83251594  1
  I  I66  1  0.50023147  0.33246665  0.16878702  1
  I  I67  1  0.49922214  0.32895554  0.50473211  1
  I  I68  1  0.49985450  0.32892329  0.82634797  1
  I  I69  1  0.50027772  0.66736260  0.16707672  1
  I  I70  1  0.49400453  0.66996566  0.49812052  1
  I  I71  1  0.50007287  0.66671055  0.83319931  1
  I  I72  1  0.83736519  0.00208373  0.16394041  1
  I  I73  1  0.83339839  0.00409581  0.50633567  1
  I  I74  1  0.83515284  0.00428852  0.83083714  1
  I  I75  1  0.83722590  0.32949378  0.16865129  1
  I  I76  1  0.83327712  0.32779106  0.49447414  1
  I  I77  1  0.83385565  0.33049905  0.83458771  1
  I  I78  1  0.83831493  0.66965384  0.16683562  1
  I  I79  1  0.83228389  0.66676822  0.49994497  1
  I  I80  1  0.83975902  0.66390293  0.83445626  1
  I  I81  1  0.16400136  0.16681680  -0.00008504  1
  I  I82  1  0.16459847  0.16170933  0.33354857  1
  I  I83  1  0.16504246  0.16673716  0.66650765  1
  I  I84  1  0.16193601  0.49344197  -0.00393477  1
  I  I85  1  0.16813500  0.49695762  0.33329184  1
  I  I86  1  0.16350148  0.49345286  0.67045158  1
  I  I87  1  0.16130962  0.83758990  0.00300485  1
  I  I88  1  0.16722357  0.84294634  0.33351338  1
  I  I89  1  0.17068271  0.83745505  0.66356572  1
  I  I90  1  0.50023256  0.16943108  -0.00275824  1
  I  I91  1  0.50044962  0.16175910  0.33699269  1
  I  I92  1  0.50016162  0.16372070  0.66636951  1
  I  I93  1  0.49972678  0.49927324  -0.00072866  1
  I  I94  1  0.50045828  0.49668780  0.33379392  1
  I  I95  1  0.50009592  0.50249812  0.66683936  1
  I  I96  1  0.49969657  0.83227997  0.00028026  1
  I  I97  1  0.49835314  0.84439682  0.33744446  1
  I  I98  1  0.49306669  0.83528401  0.66243136  1
  I  I99  1  0.83579884  0.16725484  -0.00024780  1
  I  I100  1  0.83512698  0.16073865  0.33313708  1
  I  I101  1  0.83483794  0.17098371  0.66683150  1
  I  I102  1  0.83828046  0.49155129  -0.00382256  1
  I  I103  1  0.83135517  0.49911214  0.33315013  1
  I  I104  1  0.83721048  0.49438078  0.67090496  1
  I  I105  1  0.84124044  0.84037946  0.00392219  1
  I  I106  1  0.83430404  0.84100501  0.32985915  1
  I  I107  1  0.83354481  0.83348065  0.66644251  1
  I  I108  1  0.00031172  0.16307143  0.16590848  1
  I  I109  1  0.00062001  0.16299827  0.50331561  1
  I  I110  1  0.00016392  0.17074529  0.83124714  1
  I  I111  1  0.00009529  0.50003806  0.16809363  1
  I  I112  1  0.00006181  0.50107129  0.49872132  1
  I  I113  1  0.00011501  0.48940393  0.83323037  1
  I  I114  1  0.00103823  0.83900960  0.17150912  1
  I  I115  1  0.00310887  0.83844884  0.49949976  1
  I  I116  1  0.00004764  0.83675112  0.82792392  1
  I  I117  1  0.32962214  0.16248654  0.16514457  1
  I  I118  1  0.33253492  0.16272665  0.50394658  1
  I  I119  1  0.33229283  0.17033497  0.83047023  1
  I  I120  1  0.33267064  0.49878946  0.16372583  1
  I  I121  1  0.33303713  0.49532867  0.50273090  1
  I  I122  1  0.33043738  0.49526809  0.83346651  1
  I  I123  1  0.32981942  0.83908841  0.16711075  1
  I  I124  1  0.33204992  0.84326496  0.49542843  1
  I  I125  1  0.33320202  0.83176894  0.83913887  1
  I  I126  1  0.66998430  0.16327626  0.16563928  1
  I  I127  1  0.66671716  0.16291099  0.50414274  1
  I  I128  1  0.66752374  0.17008492  0.83050660  1
  I  I129  1  0.66725207  0.49960948  0.16425506  1
  I  I130  1  0.66686072  0.50115143  0.50193188  1
  I  I131  1  0.66963425  0.49442436  0.83415987  1
  I  I132  1  0.66951609  0.83907183  0.16551002  1
  I  I133  1  0.66453311  0.83928160  0.50046522  1
  I  I134  1  0.66670867  0.83273136  0.83394370  1
