# generated using pymatgen
data_Cs27Sn13Pb14I81
_symmetry_space_group_name_H-M   'P 1'
_cell_length_a   18.97751946
_cell_length_b   18.97268746
_cell_length_c   18.97813435
_cell_angle_alpha   90.00064813
_cell_angle_beta   90.00152551
_cell_angle_gamma   90.00149638
_symmetry_Int_Tables_number   1
_chemical_formula_structural   Cs27Sn13Pb14I81
_chemical_formula_sum   'Cs27 Sn13 Pb14 I81'
_cell_volume   6833.16353249
_cell_formula_units_Z   1
loop_
 _symmetry_equiv_pos_site_id
 _symmetry_equiv_pos_as_xyz
  1  'x, y, z'
loop_
 _atom_site_type_symbol
 _atom_site_label
 _atom_site_symmetry_multiplicity
 _atom_site_fract_x
 _atom_site_fract_y
 _atom_site_fract_z
 _atom_site_occupancy
  Cs  Cs0  1  -0.00174406  -0.00301575  -0.00195582  1
  Cs  Cs1  1  -0.00058744  0.00214554  0.33495877  1
  Cs  Cs2  1  0.00133857  0.00279138  0.66561739  1
  Cs  Cs3  1  0.00224120  0.33651209  0.00001656  1
  Cs  Cs4  1  0.00336363  0.33597068  0.33211993  1
  Cs  Cs5  1  -0.00093510  0.33383220  0.66748368  1
  Cs  Cs6  1  -0.00026221  0.66599648  -0.00039585  1
  Cs  Cs7  1  -0.00334996  0.66321020  0.33177099  1
  Cs  Cs8  1  0.00066076  0.66617905  0.66788211  1
  Cs  Cs9  1  0.33406802  -0.00139280  0.00175797  1
  Cs  Cs10  1  0.33214177  0.00662050  0.33831371  1
  Cs  Cs11  1  0.32692311  -0.00371684  0.65606272  1
  Cs  Cs12  1  0.33380009  0.32942941  0.00064050  1
  Cs  Cs13  1  0.33161249  0.32348449  0.33134596  1
  Cs  Cs14  1  0.34030576  0.33759375  0.66917746  1
  Cs  Cs15  1  0.33479243  0.66817164  -0.00067959  1
  Cs  Cs16  1  0.33720937  0.66766162  0.33481522  1
  Cs  Cs17  1  0.33329356  0.66555606  0.66375705  1
  Cs  Cs18  1  0.66752406  -0.00095862  0.00061221  1
  Cs  Cs19  1  0.66689439  -0.00059267  0.33260044  1
  Cs  Cs20  1  0.66922175  0.00708225  0.66665507  1
  Cs  Cs21  1  0.66367522  0.33034804  -0.00317141  1
  Cs  Cs22  1  0.66491156  0.33109862  0.33450816  1
  Cs  Cs23  1  0.66153763  0.32872113  0.66882219  1
  Cs  Cs24  1  0.66710878  0.66756308  0.00121862  1
  Cs  Cs25  1  0.66786754  0.66721670  0.33220294  1
  Cs  Cs26  1  0.66603692  0.66521139  0.66622004  1
  Sn  Sn27  1  0.83370292  0.16629429  0.16626525  1
  Sn  Sn28  1  0.50072852  0.83344571  0.83341509  1
  Sn  Sn29  1  0.16673265  0.83301002  0.16705922  1
  Sn  Sn30  1  0.83244908  0.83258207  0.83282210  1
  Sn  Sn31  1  0.16615469  0.49932397  0.83279036  1
  Sn  Sn32  1  0.49976460  0.83247181  0.16608637  1
  Sn  Sn33  1  0.49987066  0.50048250  0.16665622  1
  Sn  Sn34  1  0.83330073  0.83260084  0.50038223  1
  Sn  Sn35  1  0.83347569  0.83408026  0.16669863  1
  Sn  Sn36  1  0.83387399  0.50073029  0.50117843  1
  Sn  Sn37  1  0.16614371  0.50032535  0.50046132  1
  Sn  Sn38  1  0.83362967  0.50067291  0.83251118  1
  Sn  Sn39  1  0.16669022  0.16733372  0.83341845  1
  Pb  Pb40  1  0.83172261  0.50006473  0.16633695  1
  Pb  Pb41  1  0.50218432  0.16559922  0.16646121  1
  Pb  Pb42  1  0.50005802  0.16656824  0.50025703  1
  Pb  Pb43  1  0.50013460  0.50193298  0.83513643  1
  Pb  Pb44  1  0.16618604  0.17013354  0.50282951  1
  Pb  Pb45  1  0.16660533  0.83270074  0.83444051  1
  Pb  Pb46  1  0.83476636  0.16688010  0.83508358  1
  Pb  Pb47  1  0.83350162  0.16759346  0.49780418  1
  Pb  Pb48  1  0.16389310  0.83091318  0.49710156  1
  Pb  Pb49  1  0.16914812  0.50178616  0.16651079  1
  Pb  Pb50  1  0.16426695  0.16397816  0.16464097  1
  Pb  Pb51  1  0.50278390  0.83335241  0.50001535  1
  Pb  Pb52  1  0.49673387  0.16252050  0.83335434  1
  Pb  Pb53  1  0.50037491  0.50003765  0.49733320  1
  I  I54  1  0.17031754  -0.00412840  0.16360652  1
  I  I55  1  0.16651979  -0.00013127  0.50064476  1
  I  I56  1  0.16627329  0.00126197  0.83830205  1
  I  I57  1  0.16671900  0.33346213  0.16837775  1
  I  I58  1  0.15854667  0.33797089  0.49810897  1
  I  I59  1  0.15968660  0.33524952  0.83123536  1
  I  I60  1  0.16048848  0.66973333  0.16354562  1
  I  I61  1  0.16472262  0.66328550  0.50750796  1
  I  I62  1  0.16469595  0.66384981  0.83150378  1
  I  I63  1  0.49973995  -0.00409226  0.16216730  1
  I  I64  1  0.50091450  -0.00065732  0.49793962  1
  I  I65  1  0.50715109  -0.00522516  0.84234334  1
  I  I66  1  0.50218750  0.33563014  0.16739792  1
  I  I67  1  0.50287719  0.33393815  0.49729652  1
  I  I68  1  0.50240843  0.33332654  0.83535522  1
  I  I69  1  0.50301114  0.66873809  0.16337103  1
  I  I70  1  0.49795708  0.66672911  0.50034565  1
  I  I71  1  0.50021072  0.66993928  0.83723907  1
  I  I72  1  0.83155248  -0.00299613  0.16609008  1
  I  I73  1  0.83175191  -0.00317586  0.50150822  1
  I  I74  1  0.83151282  -0.00338798  0.83267212  1
  I  I75  1  0.83126289  0.33156358  0.16640752  1
  I  I76  1  0.83703418  0.33725828  0.50224894  1
  I  I77  1  0.83593500  0.33658178  0.83141359  1
  I  I78  1  0.83419803  0.66984001  0.16648908  1
  I  I79  1  0.83678113  0.66684680  0.49780909  1
  I  I80  1  0.83598428  0.66726183  0.83569543  1
  I  I81  1  0.16534423  0.17421146  -0.00282914  1
  I  I82  1  0.16659316  0.16711539  0.33332318  1
  I  I83  1  0.16392906  0.16379141  0.67050613  1
  I  I84  1  0.16199830  0.49861530  -0.00295129  1
  I  I85  1  0.16141163  0.50406455  0.33562880  1
  I  I86  1  0.16215579  0.49751218  0.66763475  1
  I  I87  1  0.16200889  0.83104228  0.00243146  1
  I  I88  1  0.16710373  0.83140062  0.32918075  1
  I  I89  1  0.16769865  0.83585221  0.66646525  1
  I  I90  1  0.50018442  0.16907253  -0.00006844  1
  I  I91  1  0.49997436  0.16604472  0.33273950  1
  I  I92  1  0.50244087  0.16691980  0.66737095  1
  I  I93  1  0.50124312  0.50412435  0.00285498  1
  I  I94  1  0.50196958  0.50813920  0.32960729  1
  I  I95  1  0.49948081  0.50159316  0.66683521  1
  I  I96  1  0.50488010  0.82934559  0.00111978  1
  I  I97  1  0.50175726  0.82904025  0.32988735  1
  I  I98  1  0.50334540  0.83294237  0.66979217  1
  I  I99  1  0.83389994  0.16116594  0.00280038  1
  I  I100  1  0.83289619  0.16133236  0.32984272  1
  I  I101  1  0.83465721  0.16321199  0.66689339  1
  I  I102  1  0.83710783  0.50375606  -0.00284711  1
  I  I103  1  0.83643065  0.50360798  0.33560812  1
  I  I104  1  0.83766700  0.50870770  0.66735222  1
  I  I105  1  0.83294925  0.83316852  0.00012170  1
  I  I106  1  0.83360878  0.83268982  0.33249230  1
  I  I107  1  0.82908442  0.82788757  0.66763003  1
  I  I108  1  -0.00340909  0.16108550  0.16615223  1
  I  I109  1  -0.00013911  0.16324838  0.49883852  1
  I  I110  1  0.00245353  0.16574647  0.83541908  1
  I  I111  1  -0.00004659  0.50113529  0.16661836  1
  I  I112  1  -0.00109747  0.50460476  0.50279429  1
  I  I113  1  -0.00075905  0.50264301  0.83126603  1
  I  I114  1  -0.00154631  0.83716183  0.16534786  1
  I  I115  1  -0.00426936  0.83158604  0.50083179  1
  I  I116  1  -0.00312353  0.83211858  0.83575729  1
  I  I117  1  0.33312376  0.16603141  0.16637024  1
  I  I118  1  0.33265781  0.16664661  0.49834190  1
  I  I119  1  0.32928199  0.17399700  0.83549333  1
  I  I120  1  0.33657396  0.50762783  0.16585099  1
  I  I121  1  0.33045414  0.50020274  0.50471125  1
  I  I122  1  0.33053776  0.49827638  0.83053379  1
  I  I123  1  0.33420032  0.82708497  0.15939235  1
  I  I124  1  0.33306338  0.83245567  0.49996548  1
  I  I125  1  0.33550687  0.83341592  0.84114054  1
  I  I126  1  0.67000825  0.16117286  0.16557340  1
  I  I127  1  0.66736933  0.16852961  0.49968844  1
  I  I128  1  0.66668431  0.16897831  0.83469375  1
  I  I129  1  0.66426866  0.50641501  0.16647142  1
  I  I130  1  0.67034315  0.50480972  0.50233783  1
  I  I131  1  0.66979822  0.50314149  0.83104568  1
  I  I132  1  0.66761476  0.83305786  0.16585473  1
  I  I133  1  0.67113710  0.82619999  0.49490054  1
  I  I134  1  0.66852555  0.82746463  0.83915654  1
