# generated using pymatgen
data_Cs27Sn13Pb14I81
_symmetry_space_group_name_H-M   'P 1'
_cell_length_a   18.97508535
_cell_length_b   19.00150510
_cell_length_c   18.99697725
_cell_angle_alpha   89.99955395
_cell_angle_beta   90.00030100
_cell_angle_gamma   90.00047450
_symmetry_Int_Tables_number   1
_chemical_formula_structural   Cs27Sn13Pb14I81
_chemical_formula_sum   'Cs27 Sn13 Pb14 I81'
_cell_volume   6849.45857170
_cell_formula_units_Z   1
loop_
 _symmetry_equiv_pos_site_id
 _symmetry_equiv_pos_as_xyz
  1  'x, y, z'
loop_
 _atom_site_type_symbol
 _atom_site_label
 _atom_site_symmetry_multiplicity
 _atom_site_fract_x
 _atom_site_fract_y
 _atom_site_fract_z
 _atom_site_occupancy
  Cs  Cs0  1  0.00789244  0.00130500  -0.00128744  1
  Cs  Cs1  1  -0.00292772  0.00044815  0.33483916  1
  Cs  Cs2  1  -0.00330154  0.00164783  0.66704632  1
  Cs  Cs3  1  0.00583693  0.33848906  -0.00547856  1
  Cs  Cs4  1  0.00114408  0.34460579  0.33168682  1
  Cs  Cs5  1  -0.00770112  0.33973684  0.67467508  1
  Cs  Cs6  1  0.00596020  0.66150659  -0.00031687  1
  Cs  Cs7  1  -0.00307823  0.65425010  0.33543519  1
  Cs  Cs8  1  0.00233381  0.65962008  0.66537477  1
  Cs  Cs9  1  0.32639872  -0.00173884  0.00203863  1
  Cs  Cs10  1  0.33350616  0.00020833  0.33375893  1
  Cs  Cs11  1  0.33415621  -0.00092839  0.66463091  1
  Cs  Cs12  1  0.33235715  0.32972596  0.00081673  1
  Cs  Cs13  1  0.33398827  0.33083582  0.33501755  1
  Cs  Cs14  1  0.33629547  0.33399815  0.66352275  1
  Cs  Cs15  1  0.32966785  0.67288654  0.00019012  1
  Cs  Cs16  1  0.33322940  0.66931610  0.33372475  1
  Cs  Cs17  1  0.33393948  0.66742226  0.66579207  1
  Cs  Cs18  1  0.66593315  -0.00202676  0.00228336  1
  Cs  Cs19  1  0.66837403  -0.00026551  0.33142566  1
  Cs  Cs20  1  0.66824822  -0.00074806  0.66654144  1
  Cs  Cs21  1  0.66666174  0.33377194  0.00072848  1
  Cs  Cs22  1  0.66552359  0.33105609  0.33069968  1
  Cs  Cs23  1  0.66611114  0.33064432  0.66936973  1
  Cs  Cs24  1  0.66624151  0.66906600  0.00103193  1
  Cs  Cs25  1  0.66760502  0.66889261  0.33133931  1
  Cs  Cs26  1  0.66547241  0.67058523  0.66780997  1
  Sn  Sn27  1  0.83294501  0.83350846  0.83471813  1
  Sn  Sn28  1  0.50018596  0.50029154  0.83374218  1
  Sn  Sn29  1  0.50006279  0.49938690  0.16649820  1
  Sn  Sn30  1  0.49987563  0.16627801  0.49994492  1
  Sn  Sn31  1  0.83331133  0.16606382  0.16649375  1
  Sn  Sn32  1  0.50051507  0.83378230  0.83279592  1
  Sn  Sn33  1  0.16659084  0.16619816  0.50018585  1
  Sn  Sn34  1  0.16703896  0.83446064  0.49966511  1
  Sn  Sn35  1  0.50052120  0.16701666  0.16653311  1
  Sn  Sn36  1  0.49952832  0.83369486  0.50057238  1
  Sn  Sn37  1  0.50012712  0.16594300  0.83360568  1
  Sn  Sn38  1  0.50020994  0.50007756  0.49975780  1
  Sn  Sn39  1  0.83367398  0.83418946  0.16540391  1
  Pb  Pb40  1  0.50069845  0.83374623  0.16672068  1
  Pb  Pb41  1  0.17016124  0.49992881  0.83312542  1
  Pb  Pb42  1  0.17050337  0.49986614  0.16663419  1
  Pb  Pb43  1  0.83050386  0.50294275  0.83362181  1
  Pb  Pb44  1  0.83102545  0.49963859  0.16622600  1
  Pb  Pb45  1  0.82977413  0.49967061  0.50029425  1
  Pb  Pb46  1  0.83127327  0.16449071  0.83619005  1
  Pb  Pb47  1  0.83366795  0.83339638  0.50020854  1
  Pb  Pb48  1  0.83355375  0.16685869  0.49785738  1
  Pb  Pb49  1  0.16921247  0.49938225  0.50019777  1
  Pb  Pb50  1  0.16246310  0.83339214  0.17013881  1
  Pb  Pb51  1  0.16650213  0.83347454  0.83065040  1
  Pb  Pb52  1  0.16638498  0.16662887  0.16924452  1
  Pb  Pb53  1  0.16909281  0.16661907  0.82997169  1
  I  I54  1  0.17288904  -0.00009957  0.16582913  1
  I  I55  1  0.17786052  -0.00011019  0.49956184  1
  I  I56  1  0.17039392  -0.00002265  0.83477533  1
  I  I57  1  0.16251352  0.33315654  0.17018119  1
  I  I58  1  0.17423389  0.33020613  0.49779772  1
  I  I59  1  0.16740647  0.33317822  0.83156356  1
  I  I60  1  0.16752912  0.66685300  0.16928981  1
  I  I61  1  0.17144905  0.66940509  0.50028292  1
  I  I62  1  0.16884270  0.66692970  0.83070924  1
  I  I63  1  0.50265734  0.00286173  0.16793682  1
  I  I64  1  0.49658928  0.00002957  0.50227432  1
  I  I65  1  0.50436975  -0.00028222  0.82922162  1
  I  I66  1  0.50534231  0.33223332  0.16769612  1
  I  I67  1  0.49675626  0.33264527  0.50156609  1
  I  I68  1  0.49854082  0.33296893  0.83006112  1
  I  I69  1  0.50216485  0.66459394  0.16782530  1
  I  I70  1  0.49695402  0.66730180  0.50250207  1
  I  I71  1  0.50414232  0.66722195  0.82972476  1
  I  I72  1  0.82401726  0.00014713  0.16510235  1
  I  I73  1  0.82774465  -0.00005552  0.50071282  1
  I  I74  1  0.82474723  -0.00325550  0.83322570  1
  I  I75  1  0.82823370  0.33020712  0.17042447  1
  I  I76  1  0.83365905  0.33314519  0.49735893  1
  I  I77  1  0.83232248  0.33331589  0.83320221  1
  I  I78  1  0.83045598  0.66951323  0.16454459  1
  I  I79  1  0.83337140  0.66691805  0.49655368  1
  I  I80  1  0.82551854  0.67090477  0.83863772  1
  I  I81  1  0.16849596  0.16673061  -0.00004338  1
  I  I82  1  0.17598808  0.16176879  0.33688557  1
  I  I83  1  0.17485013  0.16122671  0.66213444  1
  I  I84  1  0.16844482  0.50052917  -0.00007276  1
  I  I85  1  0.16815893  0.50085594  0.33371608  1
  I  I86  1  0.16872107  0.50119564  0.66632751  1
  I  I87  1  0.17010629  0.83270197  0.00002505  1
  I  I88  1  0.17637233  0.83779945  0.33763175  1
  I  I89  1  0.16915499  0.83736317  0.66296660  1
  I  I90  1  0.50589098  0.17036456  0.00018211  1
  I  I91  1  0.50003479  0.16944816  0.33365771  1
  I  I92  1  0.49544138  0.16890998  0.66631737  1
  I  I93  1  0.50170240  0.49684845  -0.00017136  1
  I  I94  1  0.50012323  0.49718732  0.33365667  1
  I  I95  1  0.49962533  0.49807716  0.66648434  1
  I  I96  1  0.50338494  0.83221804  -0.00264502  1
  I  I97  1  0.49837043  0.83280244  0.33608989  1
  I  I98  1  0.50214292  0.83284949  0.66653228  1
  I  I99  1  0.82418088  0.16447711  0.00388906  1
  I  I100  1  0.82401868  0.15826681  0.33002596  1
  I  I101  1  0.83197348  0.16470796  0.66689099  1
  I  I102  1  0.82874719  0.49872204  0.00000845  1
  I  I103  1  0.83097175  0.50347451  0.33300383  1
  I  I104  1  0.83175418  0.50183815  0.66703598  1
  I  I105  1  0.82225132  0.83708181  -0.00026175  1
  I  I106  1  0.83103161  0.83754761  0.33079212  1
  I  I107  1  0.82902746  0.83301130  0.66925640  1
  I  I108  1  -0.00319571  0.15931505  0.16967962  1
  I  I109  1  0.00314009  0.15742978  0.49717356  1
  I  I110  1  -0.00018203  0.16449983  0.83283618  1
  I  I111  1  -0.00020283  0.50012257  0.16840421  1
  I  I112  1  0.00034440  0.50120167  0.49876357  1
  I  I113  1  -0.00022620  0.50123407  0.83277952  1
  I  I114  1  -0.00524924  0.84179240  0.16040756  1
  I  I115  1  0.00300837  0.84064936  0.49935782  1
  I  I116  1  -0.00311374  0.83494107  0.83658236  1
  I  I117  1  0.33709337  0.17142420  0.16515162  1
  I  I118  1  0.33648838  0.16613626  0.49808349  1
  I  I119  1  0.33865982  0.16411713  0.83921738  1
  I  I120  1  0.33912079  0.49360159  0.16759515  1
  I  I121  1  0.33810580  0.50001319  0.50054629  1
  I  I122  1  0.33919604  0.50338320  0.83198678  1
  I  I123  1  0.33313880  0.83263460  0.16420324  1
  I  I124  1  0.33607274  0.83331236  0.50519696  1
  I  I125  1  0.33709614  0.83209585  0.83121265  1
  I  I126  1  0.66429901  0.16663902  0.16961809  1
  I  I127  1  0.66249503  0.16595326  0.50172429  1
  I  I128  1  0.66202286  0.16915979  0.82702243  1
  I  I129  1  0.66240388  0.49848140  0.16773499  1
  I  I130  1  0.66078563  0.50076349  0.49975302  1
  I  I131  1  0.66171753  0.49731196  0.83230792  1
  I  I132  1  0.66849064  0.83424030  0.16841464  1
  I  I133  1  0.66322997  0.83362702  0.50126308  1
  I  I134  1  0.66431797  0.83276595  0.83041134  1
