# generated using pymatgen
data_Cs27Sn13Pb14I81
_symmetry_space_group_name_H-M   'P 1'
_cell_length_a   18.98267045
_cell_length_b   18.97183287
_cell_length_c   18.97781141
_cell_angle_alpha   89.99940253
_cell_angle_beta   90.00146097
_cell_angle_gamma   89.99801461
_symmetry_Int_Tables_number   1
_chemical_formula_structural   Cs27Sn13Pb14I81
_chemical_formula_sum   'Cs27 Sn13 Pb14 I81'
_cell_volume   6834.59405403
_cell_formula_units_Z   1
loop_
 _symmetry_equiv_pos_site_id
 _symmetry_equiv_pos_as_xyz
  1  'x, y, z'
loop_
 _atom_site_type_symbol
 _atom_site_label
 _atom_site_symmetry_multiplicity
 _atom_site_fract_x
 _atom_site_fract_y
 _atom_site_fract_z
 _atom_site_occupancy
  Cs  Cs0  1  -0.00086120  0.00160506  0.00206177  1
  Cs  Cs1  1  -0.00288152  0.00244304  0.32808755  1
  Cs  Cs2  1  0.00177954  -0.00497998  0.66813151  1
  Cs  Cs3  1  -0.00010229  0.33179033  -0.00029517  1
  Cs  Cs4  1  0.00491408  0.32839307  0.33826350  1
  Cs  Cs5  1  -0.00061407  0.33439802  0.66258633  1
  Cs  Cs6  1  -0.00171754  0.66683412  -0.00311053  1
  Cs  Cs7  1  0.00244631  0.66717051  0.33701910  1
  Cs  Cs8  1  -0.00066995  0.66740949  0.66721554  1
  Cs  Cs9  1  0.33588843  0.00203290  -0.00322549  1
  Cs  Cs10  1  0.33268888  0.00102266  0.33684838  1
  Cs  Cs11  1  0.33605735  0.00453737  0.66767866  1
  Cs  Cs12  1  0.33095305  0.33226484  0.00380945  1
  Cs  Cs13  1  0.32672317  0.33328262  0.32960849  1
  Cs  Cs14  1  0.33477431  0.32506123  0.66628115  1
  Cs  Cs15  1  0.33583419  0.66596069  0.00192350  1
  Cs  Cs16  1  0.33361718  0.66477689  0.33173836  1
  Cs  Cs17  1  0.33345230  0.66858469  0.66657526  1
  Cs  Cs18  1  0.66535759  -0.00134846  0.00307036  1
  Cs  Cs19  1  0.66921467  0.00366458  0.32978393  1
  Cs  Cs20  1  0.66300681  0.00075832  0.66695677  1
  Cs  Cs21  1  0.66744953  0.33734512  -0.00015735  1
  Cs  Cs22  1  0.66798735  0.32912469  0.33565542  1
  Cs  Cs23  1  0.66687892  0.33381415  0.66477944  1
  Cs  Cs24  1  0.66566865  0.66575683  0.00135030  1
  Cs  Cs25  1  0.66458680  0.66714397  0.33151884  1
  Cs  Cs26  1  0.66721985  0.66587536  0.66734251  1
  Sn  Sn27  1  0.83385919  0.50012891  0.16700598  1
  Sn  Sn28  1  0.49962119  0.50025850  0.83248689  1
  Sn  Sn29  1  0.50005669  0.16682658  0.16642133  1
  Sn  Sn30  1  0.83318820  0.16649353  0.83309501  1
  Sn  Sn31  1  0.16674978  0.83298946  0.50007553  1
  Sn  Sn32  1  0.83350120  0.83353733  0.83283971  1
  Sn  Sn33  1  0.83299815  0.83308509  0.50053398  1
  Sn  Sn34  1  0.16635702  0.83236583  0.83369070  1
  Sn  Sn35  1  0.16674144  0.83291875  0.16606977  1
  Sn  Sn36  1  0.83357351  0.49991202  0.83395948  1
  Sn  Sn37  1  0.16673959  0.50060324  0.83303558  1
  Sn  Sn38  1  0.50023266  0.83244250  0.50022423  1
  Sn  Sn39  1  0.49991229  0.50060163  0.50069869  1
  Pb  Pb40  1  0.83334549  0.16357970  0.50267030  1
  Pb  Pb41  1  0.16639504  0.16365960  0.50026168  1
  Pb  Pb42  1  0.16916450  0.50185673  0.50265127  1
  Pb  Pb43  1  0.50005262  0.83166768  0.83184939  1
  Pb  Pb44  1  0.50157136  0.49852152  0.16708995  1
  Pb  Pb45  1  0.49771257  0.83487267  0.16941251  1
  Pb  Pb46  1  0.16856996  0.16410280  0.16630672  1
  Pb  Pb47  1  0.50005169  0.16708248  0.49802106  1
  Pb  Pb48  1  0.83177179  0.50187913  0.50022838  1
  Pb  Pb49  1  0.16397452  0.50194748  0.16447003  1
  Pb  Pb50  1  0.83210999  0.16942341  0.16448324  1
  Pb  Pb51  1  0.16432192  0.16656314  0.83327747  1
  Pb  Pb52  1  0.83498559  0.83150488  0.16636602  1
  Pb  Pb53  1  0.50240727  0.16978852  0.83508603  1
  I  I54  1  0.16497668  -0.00433560  0.16491492  1
  I  I55  1  0.17012921  -0.00563779  0.50420263  1
  I  I56  1  0.16221939  -0.00394836  0.83249385  1
  I  I57  1  0.16719555  0.33360384  0.16484079  1
  I  I58  1  0.16868901  0.33380683  0.50080310  1
  I  I59  1  0.16618337  0.33673480  0.83439221  1
  I  I60  1  0.16768405  0.67009833  0.16888777  1
  I  I61  1  0.16440277  0.67059483  0.49903704  1
  I  I62  1  0.16138836  0.66768834  0.83270722  1
  I  I63  1  0.50086909  0.00244162  0.16699943  1
  I  I64  1  0.49881353  -0.00333524  0.49894901  1
  I  I65  1  0.50011574  0.00002400  0.83262662  1
  I  I66  1  0.50188839  0.33105560  0.16670268  1
  I  I67  1  0.50232183  0.33657881  0.50446164  1
  I  I68  1  0.50012137  0.33806312  0.82722179  1
  I  I69  1  0.50005664  0.66657421  0.16575633  1
  I  I70  1  0.50016125  0.66746825  0.50365007  1
  I  I71  1  0.50455775  0.66346247  0.83293842  1
  I  I72  1  0.83335860  -0.00015496  0.16617451  1
  I  I73  1  0.83146211  -0.00514493  0.50400792  1
  I  I74  1  0.83840038  -0.00168194  0.82858505  1
  I  I75  1  0.83156038  0.33719095  0.15951548  1
  I  I76  1  0.82973565  0.33354130  0.50068651  1
  I  I77  1  0.83243246  0.33492309  0.83921770  1
  I  I78  1  0.83165677  0.66398646  0.15906896  1
  I  I79  1  0.83561835  0.67030610  0.50614302  1
  I  I80  1  0.83460583  0.66671911  0.83291177  1
  I  I81  1  0.16753766  0.16334320  -0.00031153  1
  I  I82  1  0.16681234  0.16560617  0.33319184  1
  I  I83  1  0.16812787  0.16476131  0.66707110  1
  I  I84  1  0.17096138  0.50656186  -0.00396436  1
  I  I85  1  0.16723119  0.50229935  0.33352096  1
  I  I86  1  0.16023211  0.50642389  0.67090102  1
  I  I87  1  0.16101210  0.82977505  -0.00163974  1
  I  I88  1  0.16719946  0.83447821  0.33430226  1
  I  I89  1  0.16429762  0.82904791  0.66729571  1
  I  I90  1  0.50047191  0.16699470  0.00242959  1
  I  I91  1  0.50164394  0.16700511  0.33061018  1
  I  I92  1  0.50052605  0.16528750  0.66678617  1
  I  I93  1  0.49984799  0.49863612  -0.00299213  1
  I  I94  1  0.50300620  0.50406813  0.33618843  1
  I  I95  1  0.50302784  0.50465754  0.66761418  1
  I  I96  1  0.49982923  0.83280524  0.00001830  1
  I  I97  1  0.50071127  0.82707404  0.33768653  1
  I  I98  1  0.49675432  0.83218298  0.66364640  1
  I  I99  1  0.83263579  0.16173132  -0.00351700  1
  I  I100  1  0.83162009  0.16650064  0.33323758  1
  I  I101  1  0.83220322  0.17280544  0.67075284  1
  I  I102  1  0.83061096  0.50262725  -0.00284905  1
  I  I103  1  0.82915010  0.50378382  0.33140075  1
  I  I104  1  0.83455715  0.49930638  0.67033969  1
  I  I105  1  0.83815006  0.83408860  -0.00356507  1
  I  I106  1  0.83419550  0.83031633  0.33600408  1
  I  I107  1  0.83790093  0.83119204  0.66792669  1
  I  I108  1  -0.00007465  0.16615702  0.16576730  1
  I  I109  1  -0.00030078  0.16751932  0.49886105  1
  I  I110  1  -0.00359784  0.16980259  0.83484090  1
  I  I111  1  -0.00368689  0.50142687  0.15979341  1
  I  I112  1  0.00011791  0.50169661  0.50028874  1
  I  I113  1  -0.00076018  0.50176622  0.83850297  1
  I  I114  1  0.00287948  0.83242301  0.17022497  1
  I  I115  1  0.00006823  0.83369635  0.50234774  1
  I  I116  1  -0.00037676  0.82919960  0.82873205  1
  I  I117  1  0.33625413  0.16841316  0.16631726  1
  I  I118  1  0.33351717  0.16390267  0.50078429  1
  I  I119  1  0.33354042  0.16603078  0.83416436  1
  I  I120  1  0.33313421  0.49935205  0.16546236  1
  I  I121  1  0.33711061  0.50646897  0.50376660  1
  I  I122  1  0.33316875  0.50664579  0.82928499  1
  I  I123  1  0.32976442  0.83292531  0.16446688  1
  I  I124  1  0.33314292  0.82925967  0.49965791  1
  I  I125  1  0.33035982  0.82864568  0.83280654  1
  I  I126  1  0.66440260  0.16549947  0.16658435  1
  I  I127  1  0.66665387  0.16321180  0.49965194  1
  I  I128  1  0.67018565  0.16480141  0.83390356  1
  I  I129  1  0.66925191  0.50141954  0.15925227  1
  I  I130  1  0.66386042  0.50680047  0.50565382  1
  I  I131  1  0.66754044  0.50038301  0.83358671  1
  I  I132  1  0.66668862  0.83369988  0.16687071  1
  I  I133  1  0.66688769  0.82936523  0.50574016  1
  I  I134  1  0.66979144  0.83216888  0.82889576  1
