# generated using pymatgen
data_Cs27Sn13Pb14I81
_symmetry_space_group_name_H-M   'P 1'
_cell_length_a   18.97858366
_cell_length_b   18.98139144
_cell_length_c   18.97155809
_cell_angle_alpha   90.00103400
_cell_angle_beta   89.99844575
_cell_angle_gamma   90.00058950
_symmetry_Int_Tables_number   1
_chemical_formula_structural   Cs27Sn13Pb14I81
_chemical_formula_sum   'Cs27 Sn13 Pb14 I81'
_cell_volume   6834.31266676
_cell_formula_units_Z   1
loop_
 _symmetry_equiv_pos_site_id
 _symmetry_equiv_pos_as_xyz
  1  'x, y, z'
loop_
 _atom_site_type_symbol
 _atom_site_label
 _atom_site_symmetry_multiplicity
 _atom_site_fract_x
 _atom_site_fract_y
 _atom_site_fract_z
 _atom_site_occupancy
  Cs  Cs0  1  -0.00034452  -0.00437180  -0.00038289  1
  Cs  Cs1  1  0.00115883  0.00140392  0.33492518  1
  Cs  Cs2  1  -0.00097996  -0.00031673  0.66459769  1
  Cs  Cs3  1  0.00209720  0.33548060  0.00160217  1
  Cs  Cs4  1  -0.00924409  0.33058126  0.33641233  1
  Cs  Cs5  1  0.00743723  0.33128909  0.66128614  1
  Cs  Cs6  1  -0.00011466  0.66795241  0.00004814  1
  Cs  Cs7  1  -0.00032613  0.66593426  0.33130095  1
  Cs  Cs8  1  0.00160790  0.66778894  0.66845355  1
  Cs  Cs9  1  0.33536732  0.00258247  0.00135433  1
  Cs  Cs10  1  0.33584391  -0.00265280  0.33352408  1
  Cs  Cs11  1  0.33171196  0.00448531  0.66356740  1
  Cs  Cs12  1  0.33230466  0.33309318  -0.00149141  1
  Cs  Cs13  1  0.33326159  0.33636746  0.33392203  1
  Cs  Cs14  1  0.32637145  0.33138533  0.66586452  1
  Cs  Cs15  1  0.33258062  0.66517586  0.00112874  1
  Cs  Cs16  1  0.33664161  0.66752050  0.33793349  1
  Cs  Cs17  1  0.33377570  0.66465098  0.66000305  1
  Cs  Cs18  1  0.66425943  0.00099060  -0.00064780  1
  Cs  Cs19  1  0.66275267  0.00266488  0.33142356  1
  Cs  Cs20  1  0.66826607  0.00021047  0.66979149  1
  Cs  Cs21  1  0.66569318  0.33285927  0.00142218  1
  Cs  Cs22  1  0.67505972  0.33268961  0.33626573  1
  Cs  Cs23  1  0.66559067  0.33329598  0.66478415  1
  Cs  Cs24  1  0.66724523  0.66678284  -0.00185139  1
  Cs  Cs25  1  0.66312892  0.66432274  0.33649580  1
  Cs  Cs26  1  0.66577322  0.66708980  0.66944658  1
  Sn  Sn27  1  0.50016083  0.16670904  0.50008543  1
  Sn  Sn28  1  0.16633258  0.83330674  0.16571440  1
  Sn  Sn29  1  0.83330678  0.83316891  0.83369990  1
  Sn  Sn30  1  0.16726646  0.83323817  0.83386081  1
  Sn  Sn31  1  0.49934239  0.83282415  0.83351799  1
  Sn  Sn32  1  0.50033969  0.50065730  0.83412722  1
  Sn  Sn33  1  0.83307815  0.49954235  0.83339918  1
  Sn  Sn34  1  0.49968424  0.50006539  0.16589935  1
  Sn  Sn35  1  0.83338157  0.83322469  0.16683407  1
  Sn  Sn36  1  0.83369603  0.16724003  0.83372876  1
  Sn  Sn37  1  0.83296984  0.83304670  0.49965891  1
  Sn  Sn38  1  0.16725051  0.50019952  0.16653640  1
  Sn  Sn39  1  0.16657491  0.16650676  0.16641269  1
  Pb  Pb40  1  0.50147274  0.16733636  0.83220672  1
  Pb  Pb41  1  0.83333957  0.50251076  0.50347001  1
  Pb  Pb42  1  0.49817119  0.16972093  0.16840510  1
  Pb  Pb43  1  0.50012540  0.49788612  0.50069562  1
  Pb  Pb44  1  0.16637308  0.50021621  0.49625895  1
  Pb  Pb45  1  0.16691076  0.50215264  0.83480987  1
  Pb  Pb46  1  0.83178296  0.16435271  0.50238042  1
  Pb  Pb47  1  0.16459202  0.83325454  0.49961003  1
  Pb  Pb48  1  0.83517151  0.16407169  0.16450057  1
  Pb  Pb49  1  0.49980498  0.83155191  0.16479663  1
  Pb  Pb50  1  0.83320252  0.50214558  0.16477450  1
  Pb  Pb51  1  0.50233123  0.83497341  0.50304941  1
  Pb  Pb52  1  0.16422121  0.16402081  0.83526260  1
  Pb  Pb53  1  0.16863211  0.16637365  0.49694883  1
  I  I54  1  0.16118559  -0.00151239  0.16274257  1
  I  I55  1  0.16697148  -0.00024015  0.49846455  1
  I  I56  1  0.16647859  -0.00432262  0.83918518  1
  I  I57  1  0.17295834  0.33402752  0.16595254  1
  I  I58  1  0.16707745  0.33315754  0.50088587  1
  I  I59  1  0.16615229  0.33341607  0.83535416  1
  I  I60  1  0.16535207  0.66762412  0.16151606  1
  I  I61  1  0.16734043  0.66701950  0.49916033  1
  I  I62  1  0.16115218  0.67032371  0.83955755  1
  I  I63  1  0.49941721  -0.00010743  0.16609206  1
  I  I64  1  0.50065600  0.00234906  0.50102718  1
  I  I65  1  0.50228469  -0.00279692  0.83201892  1
  I  I66  1  0.49474554  0.33752577  0.15935576  1
  I  I67  1  0.50085288  0.33052614  0.50153528  1
  I  I68  1  0.50573769  0.33670271  0.83612574  1
  I  I69  1  0.49529349  0.66373389  0.16487750  1
  I  I70  1  0.50079081  0.66667749  0.49877105  1
  I  I71  1  0.50589269  0.66700381  0.83695787  1
  I  I72  1  0.83803579  -0.00428750  0.16348715  1
  I  I73  1  0.83316420  -0.00352878  0.50347997  1
  I  I74  1  0.83323191  -0.00218966  0.83315370  1
  I  I75  1  0.83473154  0.33348169  0.16453883  1
  I  I76  1  0.83227894  0.33317075  0.50067472  1
  I  I77  1  0.82650145  0.33411708  0.83535673  1
  I  I78  1  0.83887528  0.67036886  0.16332067  1
  I  I79  1  0.83272761  0.67068552  0.50176674  1
  I  I80  1  0.83226539  0.66825703  0.83362635  1
  I  I81  1  0.16750845  0.16779105  0.00318486  1
  I  I82  1  0.16620735  0.16319245  0.32889608  1
  I  I83  1  0.16643802  0.16529448  0.66684359  1
  I  I84  1  0.16766109  0.49950661  0.00307994  1
  I  I85  1  0.17365736  0.50487930  0.32763733  1
  I  I86  1  0.16712890  0.50141982  0.66700990  1
  I  I87  1  0.16066182  0.83288207  0.00042166  1
  I  I88  1  0.16170603  0.83318677  0.32933296  1
  I  I89  1  0.16476401  0.83307576  0.66996733  1
  I  I90  1  0.50030653  0.16516682  -0.00000583  1
  I  I91  1  0.49984726  0.16574307  0.33596790  1
  I  I92  1  0.50199550  0.16620668  0.66458762  1
  I  I93  1  0.50016768  0.50360252  -0.00097443  1
  I  I94  1  0.49413538  0.50002086  0.33049089  1
  I  I95  1  0.50583409  0.50424442  0.67045325  1
  I  I96  1  0.50518292  0.83297028  -0.00351424  1
  I  I97  1  0.50072241  0.83261984  0.33331878  1
  I  I98  1  0.50080548  0.82729027  0.67145851  1
  I  I99  1  0.83172931  0.16289631  -0.00351002  1
  I  I100  1  0.83341375  0.16517927  0.33320625  1
  I  I101  1  0.83257565  0.16299815  0.67045774  1
  I  I102  1  0.83218408  0.50397285  -0.00344135  1
  I  I103  1  0.83317566  0.50170539  0.33313339  1
  I  I104  1  0.82613403  0.50322880  0.67184023  1
  I  I105  1  0.83527207  0.83301357  -0.00146319  1
  I  I106  1  0.83970354  0.83345907  0.33236919  1
  I  I107  1  0.83286040  0.83364567  0.66891095  1
  I  I108  1  0.00320999  0.17106062  0.16579189  1
  I  I109  1  -0.00015149  0.16598519  0.50015709  1
  I  I110  1  -0.00381876  0.16587600  0.83378883  1
  I  I111  1  0.00259820  0.50016144  0.16447802  1
  I  I112  1  -0.00029932  0.49923308  0.50053192  1
  I  I113  1  -0.00257893  0.50280721  0.83530502  1
  I  I114  1  0.00038745  0.83138202  0.16127459  1
  I  I115  1  -0.00343116  0.83467805  0.50572776  1
  I  I116  1  -0.00124611  0.83326127  0.83439576  1
  I  I117  1  0.33010635  0.16023233  0.16602461  1
  I  I118  1  0.33621271  0.16586007  0.50301470  1
  I  I119  1  0.33306520  0.16573555  0.83230861  1
  I  I120  1  0.33313322  0.50150117  0.16037604  1
  I  I121  1  0.33348559  0.50007621  0.50431224  1
  I  I122  1  0.33621151  0.50480757  0.83594293  1
  I  I123  1  0.33021432  0.83503924  0.16122621  1
  I  I124  1  0.33362178  0.83439824  0.50026073  1
  I  I125  1  0.33328412  0.82905035  0.83948717  1
  I  I126  1  0.66678822  0.16620736  0.16718546  1
  I  I127  1  0.66426102  0.16614940  0.49974584  1
  I  I128  1  0.66952615  0.16036423  0.83324214  1
  I  I129  1  0.66426981  0.50234617  0.16371858  1
  I  I130  1  0.66670806  0.49957836  0.49439556  1
  I  I131  1  0.66653962  0.50595799  0.83890803  1
  I  I132  1  0.66932759  0.83168372  0.16440267  1
  I  I133  1  0.67025387  0.83391528  0.50028584  1
  I  I134  1  0.66795573  0.83272343  0.83324330  1
