# generated using pymatgen
data_Cs27Sn14Pb13I81
_symmetry_space_group_name_H-M   'P 1'
_cell_length_a   18.96085552
_cell_length_b   18.95986115
_cell_length_c   18.96193288
_cell_angle_alpha   89.99872308
_cell_angle_beta   90.00061569
_cell_angle_gamma   90.00110569
_symmetry_Int_Tables_number   1
_chemical_formula_structural   Cs27Sn14Pb13I81
_chemical_formula_sum   'Cs27 Sn14 Pb13 I81'
_cell_volume   6816.72362158
_cell_formula_units_Z   1
loop_
 _symmetry_equiv_pos_site_id
 _symmetry_equiv_pos_as_xyz
  1  'x, y, z'
loop_
 _atom_site_type_symbol
 _atom_site_label
 _atom_site_symmetry_multiplicity
 _atom_site_fract_x
 _atom_site_fract_y
 _atom_site_fract_z
 _atom_site_occupancy
  Cs  Cs0  1  -0.00356228  0.00092575  -0.00480241  1
  Cs  Cs1  1  0.00241276  -0.00172372  0.33334391  1
  Cs  Cs2  1  0.00003962  -0.00094402  0.67319833  1
  Cs  Cs3  1  -0.00327376  0.33414335  0.00014686  1
  Cs  Cs4  1  -0.00064425  0.33483809  0.33307826  1
  Cs  Cs5  1  0.00238163  0.33220450  0.66472218  1
  Cs  Cs6  1  0.00183715  0.66450797  0.00214552  1
  Cs  Cs7  1  0.00050659  0.66582789  0.33296087  1
  Cs  Cs8  1  -0.00166322  0.66864194  0.66681564  1
  Cs  Cs9  1  0.33547349  -0.00283332  0.00158620  1
  Cs  Cs10  1  0.33198834  0.00024835  0.33214000  1
  Cs  Cs11  1  0.32869035  0.00466607  0.67041532  1
  Cs  Cs12  1  0.33417232  0.33453212  0.00108969  1
  Cs  Cs13  1  0.33288228  0.33254677  0.33348355  1
  Cs  Cs14  1  0.33406287  0.33250128  0.66901995  1
  Cs  Cs15  1  0.33362506  0.66822315  -0.00344127  1
  Cs  Cs16  1  0.33146317  0.66723300  0.33218969  1
  Cs  Cs17  1  0.33946805  0.66487672  0.67465976  1
  Cs  Cs18  1  0.66709765  0.00202002  -0.00198261  1
  Cs  Cs19  1  0.66615572  -0.00098445  0.33387097  1
  Cs  Cs20  1  0.66960212  -0.00630764  0.66531949  1
  Cs  Cs21  1  0.66875412  0.33150486  0.00154308  1
  Cs  Cs22  1  0.66756423  0.33339627  0.33321024  1
  Cs  Cs23  1  0.66402065  0.33512537  0.66379903  1
  Cs  Cs24  1  0.66523226  0.66770318  0.00109216  1
  Cs  Cs25  1  0.66652899  0.66817530  0.33531203  1
  Cs  Cs26  1  0.66290606  0.67205007  0.66485935  1
  Sn  Sn27  1  0.50036664  0.16690533  0.83341219  1
  Sn  Sn28  1  0.16695810  0.49998971  0.16741818  1
  Sn  Sn29  1  0.16549738  0.83320902  0.16728833  1
  Sn  Sn30  1  0.49990284  0.49941583  0.16717862  1
  Sn  Sn31  1  0.83314091  0.50092075  0.16696754  1
  Sn  Sn32  1  0.49934568  0.16749366  0.16691002  1
  Sn  Sn33  1  0.83325701  0.49998235  0.83278951  1
  Sn  Sn34  1  0.50085709  0.16671363  0.49993731  1
  Sn  Sn35  1  0.16696666  0.16681993  0.16679292  1
  Sn  Sn36  1  0.83388141  0.49947584  0.50017056  1
  Sn  Sn37  1  0.83412188  0.83266169  0.16704682  1
  Sn  Sn38  1  0.16633907  0.50117471  0.49948824  1
  Sn  Sn39  1  0.16696195  0.83198444  0.49962553  1
  Sn  Sn40  1  0.83291365  0.16701615  0.49963129  1
  Pb  Pb41  1  0.50014070  0.83618360  0.83328048  1
  Pb  Pb42  1  0.16470495  0.49988454  0.83308666  1
  Pb  Pb43  1  0.83337262  0.83049495  0.83645015  1
  Pb  Pb44  1  0.83528535  0.83298646  0.49807828  1
  Pb  Pb45  1  0.49982262  0.83337175  0.16685538  1
  Pb  Pb46  1  0.16643597  0.16695874  0.49837340  1
  Pb  Pb47  1  0.83118561  0.16887319  0.82998157  1
  Pb  Pb48  1  0.16654667  0.83307785  0.83359877  1
  Pb  Pb49  1  0.83330197  0.16659296  0.16819803  1
  Pb  Pb50  1  0.49632070  0.83633765  0.49984730  1
  Pb  Pb51  1  0.49953007  0.49863036  0.49810604  1
  Pb  Pb52  1  0.50256902  0.49824159  0.83609627  1
  Pb  Pb53  1  0.16857778  0.16709269  0.83700325  1
  I  I54  1  0.16765882  -0.00023534  0.17136550  1
  I  I55  1  0.16791547  -0.00184595  0.49377890  1
  I  I56  1  0.16700115  0.00016985  0.83232229  1
  I  I57  1  0.16741418  0.33440519  0.17043881  1
  I  I58  1  0.16481911  0.33613585  0.49484051  1
  I  I59  1  0.16643530  0.33348628  0.83273486  1
  I  I60  1  0.16542302  0.66568470  0.17051377  1
  I  I61  1  0.15959961  0.66530646  0.48991876  1
  I  I62  1  0.16715402  0.66638130  0.83778132  1
  I  I63  1  0.49685741  0.00351364  0.16651610  1
  I  I64  1  0.50543081  0.00485435  0.49586279  1
  I  I65  1  0.50015591  0.00461141  0.83780395  1
  I  I66  1  0.49730401  0.33286854  0.16686997  1
  I  I67  1  0.49944135  0.33015397  0.49983449  1
  I  I68  1  0.50014054  0.33022514  0.83225898  1
  I  I69  1  0.49893351  0.66344101  0.16696550  1
  I  I70  1  0.50283524  0.66659350  0.49765777  1
  I  I71  1  0.50022863  0.66623634  0.83527651  1
  I  I72  1  0.83636265  -0.00211229  0.16969161  1
  I  I73  1  0.83003649  0.00229734  0.49660446  1
  I  I74  1  0.83201822  0.00015023  0.83380972  1
  I  I75  1  0.83527687  0.33642424  0.16577045  1
  I  I76  1  0.83508249  0.33484411  0.49671390  1
  I  I77  1  0.83332349  0.33663543  0.84078993  1
  I  I78  1  0.83584316  0.66473700  0.16798991  1
  I  I79  1  0.83586710  0.66317391  0.50027805  1
  I  I80  1  0.83338168  0.66239102  0.82924512  1
  I  I81  1  0.17041475  0.16726188  0.00554544  1
  I  I82  1  0.17198683  0.16712207  0.33007083  1
  I  I83  1  0.16782364  0.16624038  0.66644995  1
  I  I84  1  0.16623051  0.50025801  0.00395574  1
  I  I85  1  0.16235618  0.49979702  0.33200003  1
  I  I86  1  0.16201403  0.50338457  0.66293723  1
  I  I87  1  0.16401435  0.83258812  0.00426122  1
  I  I88  1  0.16314460  0.83268988  0.33168654  1
  I  I89  1  0.16673601  0.82995608  0.66330804  1
  I  I90  1  0.49498484  0.17064198  0.00162909  1
  I  I91  1  0.49950329  0.17054274  0.33234416  1
  I  I92  1  0.50474320  0.16661412  0.66582713  1
  I  I93  1  0.49899787  0.49473343  0.00463258  1
  I  I94  1  0.50328028  0.49364925  0.32958085  1
  I  I95  1  0.49965618  0.49734463  0.66660213  1
  I  I96  1  0.49831481  0.83491144  0.00062016  1
  I  I97  1  0.50214417  0.83669199  0.33307163  1
  I  I98  1  0.49940392  0.83317411  0.66632791  1
  I  I99  1  0.83280552  0.16713341  0.00020262  1
  I  I100  1  0.82854171  0.17247500  0.33593136  1
  I  I101  1  0.82992276  0.17149915  0.66196179  1
  I  I102  1  0.83337819  0.50367709  0.00206365  1
  I  I103  1  0.83454914  0.49912962  0.33268400  1
  I  I104  1  0.83862789  0.49334224  0.66509840  1
  I  I105  1  0.83938742  0.82991002  0.00480353  1
  I  I106  1  0.83531082  0.82821322  0.32992640  1
  I  I107  1  0.83483378  0.83366771  0.66641305  1
  I  I108  1  0.00243308  0.16901366  0.17036006  1
  I  I109  1  -0.00228196  0.16914158  0.49620728  1
  I  I110  1  -0.00038052  0.16653154  0.83338090  1
  I  I111  1  0.00001157  0.50005340  0.16696775  1
  I  I112  1  -0.00059705  0.49708750  0.49488671  1
  I  I113  1  -0.00330010  0.49889620  0.83896457  1
  I  I114  1  0.00088841  0.83020554  0.17043615  1
  I  I115  1  0.00321555  0.83440202  0.49559511  1
  I  I116  1  -0.00014322  0.83572593  0.83246310  1
  I  I117  1  0.33379423  0.16958797  0.16889141  1
  I  I118  1  0.33575416  0.16641548  0.50020690  1
  I  I119  1  0.33681889  0.16800451  0.82748536  1
  I  I120  1  0.33236881  0.49841368  0.17139472  1
  I  I121  1  0.33024530  0.50128375  0.49372573  1
  I  I122  1  0.33373585  0.49900546  0.83348124  1
  I  I123  1  0.32992753  0.83214812  0.17021323  1
  I  I124  1  0.32846755  0.82865711  0.49061206  1
  I  I125  1  0.33321173  0.83275663  0.83568064  1
  I  I126  1  0.66390766  0.16996515  0.16571397  1
  I  I127  1  0.66665930  0.17301628  0.49691999  1
  I  I128  1  0.66335678  0.16857327  0.84119197  1
  I  I129  1  0.66757426  0.49891179  0.16645163  1
  I  I130  1  0.66960281  0.49638058  0.49784330  1
  I  I131  1  0.67043433  0.49795542  0.83370010  1
  I  I132  1  0.66944037  0.82979821  0.16625823  1
  I  I133  1  0.66677775  0.83218192  0.49868256  1
  I  I134  1  0.66700379  0.83312264  0.83532755  1
