# generated using pymatgen
data_Cs27Sn14Pb13I81
_symmetry_space_group_name_H-M   'P 1'
_cell_length_a   18.97719204
_cell_length_b   18.97231834
_cell_length_c   18.97611626
_cell_angle_alpha   89.99844230
_cell_angle_beta   89.99942180
_cell_angle_gamma   90.00142964
_symmetry_Int_Tables_number   1
_chemical_formula_structural   Cs27Sn14Pb13I81
_chemical_formula_sum   'Cs27 Sn14 Pb13 I81'
_cell_volume   6832.18610601
_cell_formula_units_Z   1
loop_
 _symmetry_equiv_pos_site_id
 _symmetry_equiv_pos_as_xyz
  1  'x, y, z'
loop_
 _atom_site_type_symbol
 _atom_site_label
 _atom_site_symmetry_multiplicity
 _atom_site_fract_x
 _atom_site_fract_y
 _atom_site_fract_z
 _atom_site_occupancy
  Cs  Cs0  1  -0.00438001  0.00215950  -0.00207771  1
  Cs  Cs1  1  0.00235760  -0.00065244  0.33557074  1
  Cs  Cs2  1  -0.00095480  -0.00227995  0.66402233  1
  Cs  Cs3  1  0.00135059  0.32997619  0.00042527  1
  Cs  Cs4  1  -0.00033456  0.33291058  0.33192347  1
  Cs  Cs5  1  0.00483217  0.33182118  0.66946808  1
  Cs  Cs6  1  -0.00087774  0.66650682  -0.00473628  1
  Cs  Cs7  1  0.00060838  0.66732922  0.33439023  1
  Cs  Cs8  1  -0.00106487  0.66818447  0.66883699  1
  Cs  Cs9  1  0.34005186  -0.00191540  0.00254314  1
  Cs  Cs10  1  0.32947803  0.00005447  0.33125486  1
  Cs  Cs11  1  0.33912069  0.00268887  0.66704748  1
  Cs  Cs12  1  0.33002500  0.33666407  0.00237363  1
  Cs  Cs13  1  0.33413475  0.33279769  0.33292067  1
  Cs  Cs14  1  0.33307058  0.33111518  0.66714868  1
  Cs  Cs15  1  0.33680163  0.66508748  0.00165822  1
  Cs  Cs16  1  0.32990962  0.66866897  0.33045257  1
  Cs  Cs17  1  0.33090189  0.66541944  0.66781324  1
  Cs  Cs18  1  0.66644529  -0.00028909  -0.00330861  1
  Cs  Cs19  1  0.66769456  -0.00038728  0.33494403  1
  Cs  Cs20  1  0.66482410  0.00045634  0.66672119  1
  Cs  Cs21  1  0.66989165  0.33285508  0.00364442  1
  Cs  Cs22  1  0.66563257  0.33707863  0.33362485  1
  Cs  Cs23  1  0.66108521  0.33350210  0.66203878  1
  Cs  Cs24  1  0.66497368  0.66805680  -0.00119161  1
  Cs  Cs25  1  0.66920343  0.66361786  0.33608756  1
  Cs  Cs26  1  0.66801661  0.66642372  0.66610326  1
  Sn  Sn27  1  0.16646369  0.49933334  0.49927695  1
  Sn  Sn28  1  0.83248408  0.83391988  0.49977601  1
  Sn  Sn29  1  0.16727267  0.16717138  0.16721586  1
  Sn  Sn30  1  0.16582454  0.16755351  0.49936613  1
  Sn  Sn31  1  0.16682139  0.49961664  0.16755093  1
  Sn  Sn32  1  0.83347886  0.83315544  0.16675666  1
  Sn  Sn33  1  0.16667376  0.83398014  0.83361390  1
  Sn  Sn34  1  0.83403379  0.83275090  0.83338728  1
  Sn  Sn35  1  0.50047248  0.83305576  0.49962663  1
  Sn  Sn36  1  0.83387766  0.16653027  0.50002324  1
  Sn  Sn37  1  0.83232088  0.49991352  0.83320233  1
  Sn  Sn38  1  0.50113126  0.49987460  0.83384752  1
  Sn  Sn39  1  0.49963377  0.49930832  0.16608523  1
  Sn  Sn40  1  0.49961658  0.16727019  0.16688949  1
  Pb  Pb41  1  0.16636701  0.83377552  0.50166128  1
  Pb  Pb42  1  0.83578609  0.49983631  0.50229826  1
  Pb  Pb43  1  0.16679326  0.16362904  0.83382134  1
  Pb  Pb44  1  0.83371233  0.50187469  0.16472048  1
  Pb  Pb45  1  0.50232588  0.83289824  0.16866988  1
  Pb  Pb46  1  0.49739847  0.50191743  0.49947806  1
  Pb  Pb47  1  0.16663919  0.50131286  0.83385502  1
  Pb  Pb48  1  0.83318403  0.16680881  0.83032432  1
  Pb  Pb49  1  0.50056820  0.83146737  0.83140812  1
  Pb  Pb50  1  0.83352612  0.16466476  0.16888842  1
  Pb  Pb51  1  0.49958200  0.16487892  0.49770324  1
  Pb  Pb52  1  0.49996740  0.16999449  0.83644313  1
  Pb  Pb53  1  0.16455523  0.83356458  0.16421225  1
  I  I54  1  0.16999718  0.00285350  0.17129671  1
  I  I55  1  0.16522031  0.00263471  0.49615329  1
  I  I56  1  0.15813597  -0.00410457  0.83194807  1
  I  I57  1  0.17013543  0.33366209  0.16999475  1
  I  I58  1  0.16130103  0.33273893  0.49726854  1
  I  I59  1  0.16608749  0.33330586  0.83229037  1
  I  I60  1  0.17036403  0.66385326  0.17002287  1
  I  I61  1  0.16746942  0.66464414  0.49710571  1
  I  I62  1  0.16387580  0.66907447  0.83173029  1
  I  I63  1  0.49535326  0.00219209  0.17014156  1
  I  I64  1  0.50011614  -0.00299959  0.49938460  1
  I  I65  1  0.49987461  -0.00010397  0.83384981  1
  I  I66  1  0.49631774  0.33415413  0.16336106  1
  I  I67  1  0.50275890  0.33343424  0.50207964  1
  I  I68  1  0.50508733  0.33809026  0.83172181  1
  I  I69  1  0.49583798  0.66362271  0.16359852  1
  I  I70  1  0.50584503  0.66955836  0.49893090  1
  I  I71  1  0.50048209  0.66370692  0.84000271  1
  I  I72  1  0.83340610  -0.00338939  0.16218984  1
  I  I73  1  0.83592682  -0.00128518  0.50134738  1
  I  I74  1  0.83809665  -0.00337336  0.83489005  1
  I  I75  1  0.83299937  0.33336299  0.16615533  1
  I  I76  1  0.83599595  0.33086348  0.50091862  1
  I  I77  1  0.83001583  0.33638407  0.83300492  1
  I  I78  1  0.83344086  0.66992891  0.17146666  1
  I  I79  1  0.83126151  0.66958384  0.49931573  1
  I  I80  1  0.83415750  0.66795996  0.83130626  1
  I  I81  1  0.17015102  0.17136338  0.00356640  1
  I  I82  1  0.16637589  0.16959341  0.33338481  1
  I  I83  1  0.16186080  0.17007275  0.66348586  1
  I  I84  1  0.16756467  0.49715867  0.00289365  1
  I  I85  1  0.17178982  0.49796398  0.33253202  1
  I  I86  1  0.16619239  0.49794132  0.66465183  1
  I  I87  1  0.16051160  0.83162640  -0.00323753  1
  I  I88  1  0.16550495  0.83240856  0.33318913  1
  I  I89  1  0.16082409  0.83094204  0.66917002  1
  I  I90  1  0.49365631  0.16494396  0.00450010  1
  I  I91  1  0.49915904  0.17315420  0.33004473  1
  I  I92  1  0.49978024  0.16633951  0.66632690  1
  I  I93  1  0.49709179  0.49829249  0.00091483  1
  I  I94  1  0.49780552  0.49743063  0.33025932  1
  I  I95  1  0.50259640  0.50436162  0.66870982  1
  I  I96  1  0.50081139  0.83509517  0.00019118  1
  I  I97  1  0.50531891  0.83148268  0.33630098  1
  I  I98  1  0.50446904  0.83237426  0.66366285  1
  I  I99  1  0.83377369  0.16454976  0.00017825  1
  I  I100  1  0.83539153  0.16009432  0.33668931  1
  I  I101  1  0.83995582  0.16054259  0.66242098  1
  I  I102  1  0.83408057  0.50686495  -0.00316918  1
  I  I103  1  0.83122433  0.50220391  0.33347246  1
  I  I104  1  0.82943831  0.50682165  0.67002346  1
  I  I105  1  0.83850193  0.82882259  -0.00103905  1
  I  I106  1  0.82892761  0.83753219  0.33455603  1
  I  I107  1  0.83417530  0.83295403  0.66657511  1
  I  I108  1  0.00293613  0.17031231  0.16871796  1
  I  I109  1  0.00078783  0.16365092  0.49460808  1
  I  I110  1  -0.00002818  0.17123237  0.83807716  1
  I  I111  1  0.00299595  0.49680376  0.16909067  1
  I  I112  1  0.00357433  0.50167538  0.49541624  1
  I  I113  1  -0.00213830  0.50458108  0.83217578  1
  I  I114  1  -0.00323959  0.83315580  0.17179483  1
  I  I115  1  -0.00280007  0.83442915  0.49959210  1
  I  I116  1  -0.00198202  0.82676676  0.83108278  1
  I  I117  1  0.33233937  0.16951966  0.17267924  1
  I  I118  1  0.33027461  0.16840139  0.49832285  1
  I  I119  1  0.33329679  0.16461319  0.82655211  1
  I  I120  1  0.33316252  0.49737872  0.16416425  1
  I  I121  1  0.32966008  0.49644911  0.50178380  1
  I  I122  1  0.33530333  0.50293263  0.83466043  1
  I  I123  1  0.33331797  0.83336638  0.16673626  1
  I  I124  1  0.33492618  0.83236772  0.50220775  1
  I  I125  1  0.33150288  0.83139056  0.83053581  1
  I  I126  1  0.66429736  0.17030239  0.16783871  1
  I  I127  1  0.66895492  0.16246568  0.49965219  1
  I  I128  1  0.66663651  0.16157211  0.83351172  1
  I  I129  1  0.66408746  0.49709686  0.16401380  1
  I  I130  1  0.66675102  0.49857952  0.49845907  1
  I  I131  1  0.66675986  0.50708159  0.83822994  1
  I  I132  1  0.67014743  0.83362845  0.16210780  1
  I  I133  1  0.66875015  0.83832592  0.50208505  1
  I  I134  1  0.66992363  0.83072936  0.83437193  1
