# generated using pymatgen
data_Cs27Sn13Pb14I81
_symmetry_space_group_name_H-M   'P 1'
_cell_length_a   18.98056249
_cell_length_b   18.97079456
_cell_length_c   18.98043425
_cell_angle_alpha   90.00010243
_cell_angle_beta   90.00075921
_cell_angle_gamma   89.99956203
_symmetry_Int_Tables_number   1
_chemical_formula_structural   Cs27Sn13Pb14I81
_chemical_formula_sum   'Cs27 Sn13 Pb14 I81'
_cell_volume   6834.40551566
_cell_formula_units_Z   1
loop_
 _symmetry_equiv_pos_site_id
 _symmetry_equiv_pos_as_xyz
  1  'x, y, z'
loop_
 _atom_site_type_symbol
 _atom_site_label
 _atom_site_symmetry_multiplicity
 _atom_site_fract_x
 _atom_site_fract_y
 _atom_site_fract_z
 _atom_site_occupancy
  Cs  Cs0  1  0.00043134  0.00070861  -0.00356573  1
  Cs  Cs1  1  -0.00124739  -0.00236353  0.33441198  1
  Cs  Cs2  1  0.00347891  0.00430694  0.66867677  1
  Cs  Cs3  1  -0.00055055  0.33124879  0.00030250  1
  Cs  Cs4  1  0.00254779  0.33333610  0.33590793  1
  Cs  Cs5  1  -0.00145661  0.33257340  0.66421254  1
  Cs  Cs6  1  -0.00183551  0.66735709  0.00009862  1
  Cs  Cs7  1  0.00015279  0.66838333  0.33607794  1
  Cs  Cs8  1  -0.00019360  0.66498287  0.66558240  1
  Cs  Cs9  1  0.33136114  0.00372822  -0.00447325  1
  Cs  Cs10  1  0.33364710  0.00236669  0.33419291  1
  Cs  Cs11  1  0.33767265  -0.00343868  0.66982609  1
  Cs  Cs12  1  0.33143041  0.33029960  0.00542963  1
  Cs  Cs13  1  0.33103942  0.33133063  0.33025637  1
  Cs  Cs14  1  0.33630748  0.33579193  0.66459333  1
  Cs  Cs15  1  0.33397800  0.66665631  -0.00047066  1
  Cs  Cs16  1  0.33092557  0.66532407  0.33136815  1
  Cs  Cs17  1  0.33410983  0.66852967  0.66951107  1
  Cs  Cs18  1  0.66839781  0.00335920  -0.00072933  1
  Cs  Cs19  1  0.66634425  -0.00272242  0.33526266  1
  Cs  Cs20  1  0.65717996  0.00144047  0.66624112  1
  Cs  Cs21  1  0.66804071  0.33529717  -0.00035837  1
  Cs  Cs22  1  0.66604079  0.33245926  0.33227180  1
  Cs  Cs23  1  0.66759440  0.33361651  0.66834790  1
  Cs  Cs24  1  0.66763579  0.66494199  0.00178867  1
  Cs  Cs25  1  0.66893397  0.66927200  0.33169110  1
  Cs  Cs26  1  0.66656161  0.66658650  0.66493003  1
  Sn  Sn27  1  0.83316513  0.49933724  0.16653949  1
  Sn  Sn28  1  0.83317038  0.83273762  0.83287578  1
  Sn  Sn29  1  0.16639381  0.49979273  0.83362608  1
  Sn  Sn30  1  0.49892134  0.83290586  0.16642701  1
  Sn  Sn31  1  0.16631408  0.16573136  0.49997240  1
  Sn  Sn32  1  0.16757348  0.83321079  0.16691824  1
  Sn  Sn33  1  0.16663531  0.83401673  0.49960584  1
  Sn  Sn34  1  0.50018694  0.50034743  0.49924817  1
  Sn  Sn35  1  0.83358706  0.16661464  0.49916076  1
  Sn  Sn36  1  0.83366906  0.50114972  0.83399405  1
  Sn  Sn37  1  0.83344013  0.16753422  0.16788216  1
  Sn  Sn38  1  0.50064838  0.50077316  0.16689563  1
  Sn  Sn39  1  0.49989821  0.50029198  0.83378870  1
  Pb  Pb40  1  0.16509884  0.83156290  0.83339493  1
  Pb  Pb41  1  0.83324240  0.16706437  0.83303834  1
  Pb  Pb42  1  0.49981540  0.16953654  0.83365212  1
  Pb  Pb43  1  0.49980635  0.16865403  0.49977634  1
  Pb  Pb44  1  0.49763507  0.83094654  0.49769641  1
  Pb  Pb45  1  0.83510481  0.83594981  0.50291323  1
  Pb  Pb46  1  0.16408397  0.16383060  0.16855922  1
  Pb  Pb47  1  0.83157746  0.49851023  0.49970420  1
  Pb  Pb48  1  0.83336216  0.83322650  0.16542948  1
  Pb  Pb49  1  0.16682131  0.16949478  0.83056418  1
  Pb  Pb50  1  0.16619977  0.50165971  0.16494263  1
  Pb  Pb51  1  0.50222404  0.16658647  0.16669279  1
  Pb  Pb52  1  0.50231477  0.83119819  0.83603069  1
  Pb  Pb53  1  0.16875356  0.50008568  0.50187287  1
  I  I54  1  0.17107059  -0.00410737  0.16709587  1
  I  I55  1  0.16129432  -0.00014592  0.49545084  1
  I  I56  1  0.16292914  -0.00018323  0.83515598  1
  I  I57  1  0.16888861  0.33333210  0.16697709  1
  I  I58  1  0.16364968  0.33107855  0.50299964  1
  I  I59  1  0.16419601  0.33783074  0.83289957  1
  I  I60  1  0.16532672  0.66952600  0.17263303  1
  I  I61  1  0.16864693  0.66908416  0.49749213  1
  I  I62  1  0.16817193  0.66341653  0.83099702  1
  I  I63  1  0.49805527  -0.00309788  0.16792806  1
  I  I64  1  0.50211776  -0.00026039  0.49841932  1
  I  I65  1  0.50242699  -0.00063082  0.83388339  1
  I  I66  1  0.50245752  0.33706326  0.16544556  1
  I  I67  1  0.49820526  0.33704633  0.49905600  1
  I  I68  1  0.50420943  0.33879451  0.83552652  1
  I  I69  1  0.50250741  0.66493958  0.16633618  1
  I  I70  1  0.49918775  0.66285177  0.50302001  1
  I  I71  1  0.49832680  0.66258855  0.83143497  1
  I  I72  1  0.83368712  0.00218695  0.16830597  1
  I  I73  1  0.83454213  0.00378912  0.49383349  1
  I  I74  1  0.83587903  -0.00232036  0.83541314  1
  I  I75  1  0.82774688  0.33493870  0.16385294  1
  I  I76  1  0.83933682  0.33060169  0.50043184  1
  I  I77  1  0.83188401  0.33701048  0.83451880  1
  I  I78  1  0.83149372  0.66382466  0.16301126  1
  I  I79  1  0.83432845  0.66667863  0.49814116  1
  I  I80  1  0.83340719  0.66427498  0.83962064  1
  I  I81  1  0.16536840  0.16578747  0.00017825  1
  I  I82  1  0.16472615  0.16774017  0.33648309  1
  I  I83  1  0.15847071  0.16100624  0.66260082  1
  I  I84  1  0.16966134  0.50312977  -0.00301634  1
  I  I85  1  0.16728184  0.49910259  0.33336312  1
  I  I86  1  0.16567811  0.50129585  0.66986109  1
  I  I87  1  0.16858549  0.82981208  0.00251937  1
  I  I88  1  0.16921575  0.83509540  0.33317434  1
  I  I89  1  0.16369008  0.83563703  0.66416872  1
  I  I90  1  0.50235219  0.16809041  0.00042172  1
  I  I91  1  0.49922070  0.17124685  0.33323813  1
  I  I92  1  0.50308297  0.16920667  0.66644006  1
  I  I93  1  0.50219414  0.50427799  0.00040493  1
  I  I94  1  0.50480342  0.50319540  0.33185745  1
  I  I95  1  0.49972278  0.49758652  0.66752303  1
  I  I96  1  0.49432398  0.82673838  0.00381961  1
  I  I97  1  0.50098106  0.82632798  0.32986171  1
  I  I98  1  0.49954642  0.83188800  0.66679507  1
  I  I99  1  0.83170389  0.16833292  0.00256259  1
  I  I100  1  0.83676211  0.17287478  0.33284262  1
  I  I101  1  0.83822055  0.16789890  0.66390812  1
  I  I102  1  0.82893778  0.49824172  0.00007810  1
  I  I103  1  0.82833934  0.49797957  0.33035647  1
  I  I104  1  0.83211326  0.50177431  0.66953609  1
  I  I105  1  0.83532581  0.83225438  -0.00228421  1
  I  I106  1  0.83243623  0.83125801  0.33336438  1
  I  I107  1  0.83546886  0.82541953  0.67036844  1
  I  I108  1  -0.00377260  0.17245413  0.16765670  1
  I  I109  1  -0.00022195  0.16502112  0.49640672  1
  I  I110  1  -0.00014921  0.16972867  0.83500429  1
  I  I111  1  -0.00304545  0.49803067  0.16133598  1
  I  I112  1  0.00009722  0.50076399  0.50097565  1
  I  I113  1  -0.00134095  0.50382658  0.83744294  1
  I  I114  1  0.00209796  0.83303368  0.16886192  1
  I  I115  1  0.00308694  0.83217012  0.49301225  1
  I  I116  1  -0.00267925  0.82611760  0.83627992  1
  I  I117  1  0.33310067  0.16996603  0.16838844  1
  I  I118  1  0.33032721  0.16468806  0.50098487  1
  I  I119  1  0.33310815  0.16743473  0.83157874  1
  I  I120  1  0.33614386  0.50264292  0.16534209  1
  I  I121  1  0.33666335  0.49832651  0.49976381  1
  I  I122  1  0.33420763  0.49953789  0.83206904  1
  I  I123  1  0.33358651  0.82564757  0.17035679  1
  I  I124  1  0.32968280  0.83920339  0.50009253  1
  I  I125  1  0.33348046  0.83107750  0.83178445  1
  I  I126  1  0.67039331  0.16670862  0.17202198  1
  I  I127  1  0.66945118  0.16963074  0.49707351  1
  I  I128  1  0.66702967  0.16724488  0.83068760  1
  I  I129  1  0.66653168  0.50149411  0.16234642  1
  I  I130  1  0.66365812  0.49774869  0.50395642  1
  I  I131  1  0.66701044  0.50321092  0.83467326  1
  I  I132  1  0.66458670  0.83078296  0.16414815  1
  I  I133  1  0.66652780  0.83422474  0.49952768  1
  I  I134  1  0.67007966  0.82785041  0.83533473  1
