# generated using pymatgen
data_Cs27Sn13Pb14I81
_symmetry_space_group_name_H-M   'P 1'
_cell_length_a   18.97313046
_cell_length_b   18.97691671
_cell_length_c   18.98443908
_cell_angle_alpha   90.00042062
_cell_angle_beta   90.00079972
_cell_angle_gamma   90.00087398
_symmetry_Int_Tables_number   1
_chemical_formula_structural   Cs27Sn13Pb14I81
_chemical_formula_sum   'Cs27 Sn13 Pb14 I81'
_cell_volume   6835.37607816
_cell_formula_units_Z   1
loop_
 _symmetry_equiv_pos_site_id
 _symmetry_equiv_pos_as_xyz
  1  'x, y, z'
loop_
 _atom_site_type_symbol
 _atom_site_label
 _atom_site_symmetry_multiplicity
 _atom_site_fract_x
 _atom_site_fract_y
 _atom_site_fract_z
 _atom_site_occupancy
  Cs  Cs0  1  0.00199857  -0.00597122  0.00095090  1
  Cs  Cs1  1  0.00876790  -0.00517696  0.33341213  1
  Cs  Cs2  1  0.00174489  -0.00465671  0.66579889  1
  Cs  Cs3  1  0.00068930  0.34045007  0.00086172  1
  Cs  Cs4  1  0.00229880  0.33402429  0.33506936  1
  Cs  Cs5  1  -0.00070581  0.33388546  0.66517124  1
  Cs  Cs6  1  0.00068777  0.66580730  0.00014430  1
  Cs  Cs7  1  -0.00211200  0.67104123  0.32531549  1
  Cs  Cs8  1  0.00029376  0.67082514  0.67452334  1
  Cs  Cs9  1  0.33659741  0.00051830  0.00008000  1
  Cs  Cs10  1  0.32624817  0.00007009  0.33385230  1
  Cs  Cs11  1  0.33130783  0.00006791  0.66683083  1
  Cs  Cs12  1  0.33423100  0.33362549  0.00001220  1
  Cs  Cs13  1  0.33074135  0.33374633  0.33403690  1
  Cs  Cs14  1  0.33336010  0.33378606  0.66625640  1
  Cs  Cs15  1  0.33094522  0.66598672  -0.00108601  1
  Cs  Cs16  1  0.33561515  0.66742336  0.33757502  1
  Cs  Cs17  1  0.33339919  0.66724208  0.66396730  1
  Cs  Cs18  1  0.66382410  0.00241823  0.00010608  1
  Cs  Cs19  1  0.66706194  0.00126778  0.33235634  1
  Cs  Cs20  1  0.66751762  0.00267556  0.66744881  1
  Cs  Cs21  1  0.66585420  0.33173187  -0.00012221  1
  Cs  Cs22  1  0.66719631  0.33277306  0.33461172  1
  Cs  Cs23  1  0.66722531  0.33234690  0.66580660  1
  Cs  Cs24  1  0.66978423  0.66616878  0.00118897  1
  Cs  Cs25  1  0.66684590  0.66931707  0.33597403  1
  Cs  Cs26  1  0.66711280  0.66909500  0.66265715  1
  Sn  Sn27  1  0.16485813  0.50003599  0.50009292  1
  Sn  Sn28  1  0.16624387  0.16712284  0.83361638  1
  Sn  Sn29  1  0.50024012  0.83343764  0.16579240  1
  Sn  Sn30  1  0.50035599  0.50005309  0.83387321  1
  Sn  Sn31  1  0.50026965  0.16682932  0.49980136  1
  Sn  Sn32  1  0.50042180  0.16682731  0.16715441  1
  Sn  Sn33  1  0.50035108  0.83318011  0.83408516  1
  Sn  Sn34  1  0.83294001  0.16687363  0.49952190  1
  Sn  Sn35  1  0.83392676  0.16699259  0.83363947  1
  Sn  Sn36  1  0.50029125  0.49983494  0.16598955  1
  Sn  Sn37  1  0.50010177  0.16689109  0.83305871  1
  Sn  Sn38  1  0.83309716  0.16684108  0.16696572  1
  Sn  Sn39  1  0.83470663  0.49947139  0.50009681  1
  Pb  Pb40  1  0.16632989  0.16693600  0.16397419  1
  Pb  Pb41  1  0.16652776  0.82952430  0.50023061  1
  Pb  Pb42  1  0.83092086  0.83605337  0.16649862  1
  Pb  Pb43  1  0.50005001  0.83690352  0.49989042  1
  Pb  Pb44  1  0.83328830  0.83388448  0.49997269  1
  Pb  Pb45  1  0.16926305  0.83552650  0.83349570  1
  Pb  Pb46  1  0.16879389  0.49811971  0.83165443  1
  Pb  Pb47  1  0.50061335  0.49799316  0.49997026  1
  Pb  Pb48  1  0.16907760  0.49984062  0.16880160  1
  Pb  Pb49  1  0.83100838  0.49788495  0.16871772  1
  Pb  Pb50  1  0.16959352  0.83313109  0.16631712  1
  Pb  Pb51  1  0.16597096  0.16767908  0.50202627  1
  Pb  Pb52  1  0.83102902  0.49819465  0.83153258  1
  Pb  Pb53  1  0.83075281  0.83573702  0.83352751  1
  I  I54  1  0.16884013  0.00040458  0.16802941  1
  I  I55  1  0.16792085  0.00001757  0.50072706  1
  I  I56  1  0.16920986  0.00416676  0.83141572  1
  I  I57  1  0.17155377  0.33312085  0.16651689  1
  I  I58  1  0.16734930  0.33534684  0.50124784  1
  I  I59  1  0.17116729  0.32985396  0.83246677  1
  I  I60  1  0.16876815  0.66650057  0.16796246  1
  I  I61  1  0.16524026  0.66168254  0.50106854  1
  I  I62  1  0.16997231  0.66654164  0.83041727  1
  I  I63  1  0.50408787  0.00148372  0.16311863  1
  I  I64  1  0.50587172  0.00524162  0.50136975  1
  I  I65  1  0.50021690  0.00193088  0.83565269  1
  I  I66  1  0.50304590  0.33199708  0.16372240  1
  I  I67  1  0.50122544  0.32977826  0.50106880  1
  I  I68  1  0.49996030  0.33158673  0.83533246  1
  I  I69  1  0.49804149  0.66644489  0.16007143  1
  I  I70  1  0.49956416  0.66659476  0.50025617  1
  I  I71  1  0.49918666  0.66635921  0.83957932  1
  I  I72  1  0.82604949  0.00497256  0.16825061  1
  I  I73  1  0.82645268  0.00445820  0.50120698  1
  I  I74  1  0.83000991  0.00517125  0.82994151  1
  I  I75  1  0.82543824  0.32930066  0.16427887  1
  I  I76  1  0.83170868  0.33141502  0.50066250  1
  I  I77  1  0.82872497  0.32905872  0.83450335  1
  I  I78  1  0.83030801  0.66648985  0.17048998  1
  I  I79  1  0.83498368  0.66338727  0.50009812  1
  I  I80  1  0.83053544  0.66649770  0.82962337  1
  I  I81  1  0.17068288  0.16710433  -0.00388259  1
  I  I82  1  0.16888342  0.16751036  0.33337922  1
  I  I83  1  0.17075835  0.16833509  0.66973246  1
  I  I84  1  0.16742923  0.49856834  -0.00017066  1
  I  I85  1  0.16649237  0.49578443  0.33679022  1
  I  I86  1  0.16690074  0.49646171  0.66379658  1
  I  I87  1  0.16614412  0.83428428  -0.00027143  1
  I  I88  1  0.17011056  0.83585434  0.33334545  1
  I  I89  1  0.17064135  0.83512551  0.66696976  1
  I  I90  1  0.50195852  0.16657214  -0.00043160  1
  I  I91  1  0.50676958  0.16771943  0.33273537  1
  I  I92  1  0.50224995  0.16748450  0.66783417  1
  I  I93  1  0.49952045  0.49425791  -0.00027675  1
  I  I94  1  0.49970023  0.49888824  0.33087346  1
  I  I95  1  0.49964252  0.49801429  0.66910704  1
  I  I96  1  0.50003203  0.83962029  -0.00027889  1
  I  I97  1  0.50066214  0.83249994  0.33015305  1
  I  I98  1  0.49973100  0.83376440  0.66976018  1
  I  I99  1  0.82697808  0.16537960  -0.00030217  1
  I  I100  1  0.82236715  0.17137551  0.33365187  1
  I  I101  1  0.82782143  0.17063043  0.66666467  1
  I  I102  1  0.83301268  0.49768947  0.00004807  1
  I  I103  1  0.83347146  0.49212082  0.33673595  1
  I  I104  1  0.83273533  0.49201345  0.66349190  1
  I  I105  1  0.83356308  0.83497342  -0.00002414  1
  I  I106  1  0.82906872  0.83558083  0.33321147  1
  I  I107  1  0.82947105  0.83625955  0.66680134  1
  I  I108  1  -0.00340767  0.16769918  0.16791142  1
  I  I109  1  -0.00346057  0.16948005  0.50053796  1
  I  I110  1  -0.00091258  0.16789584  0.83139817  1
  I  I111  1  -0.00039376  0.49718257  0.16668973  1
  I  I112  1  -0.00104350  0.48979546  0.50044008  1
  I  I113  1  -0.00019888  0.49654718  0.83271147  1
  I  I114  1  -0.00027379  0.83578812  0.16840154  1
  I  I115  1  -0.00005154  0.84057230  0.50000777  1
  I  I116  1  -0.00005372  0.83580937  0.83163887  1
  I  I117  1  0.33732289  0.16613188  0.16670880  1
  I  I118  1  0.33606719  0.16852813  0.50048945  1
  I  I119  1  0.33588734  0.16643750  0.83274657  1
  I  I120  1  0.33816810  0.49575773  0.16520500  1
  I  I121  1  0.33220605  0.49726079  0.50021975  1
  I  I122  1  0.33757237  0.49596898  0.83396493  1
  I  I123  1  0.33855917  0.83810875  0.16273692  1
  I  I124  1  0.33377487  0.83345458  0.49971602  1
  I  I125  1  0.33801743  0.83686252  0.83714129  1
  I  I126  1  0.66476930  0.16677029  0.16350164  1
  I  I127  1  0.66628375  0.17209981  0.50376154  1
  I  I128  1  0.66515114  0.16645677  0.83277039  1
  I  I129  1  0.66237301  0.50002385  0.16497385  1
  I  I130  1  0.66883892  0.49577314  0.50022144  1
  I  I131  1  0.66236816  0.49611782  0.83464177  1
  I  I132  1  0.66225888  0.83264164  0.16277144  1
  I  I133  1  0.66626801  0.82820161  0.50044504  1
  I  I134  1  0.66212287  0.83666911  0.83662670  1
