# generated using pymatgen
data_Cs27Sn13Pb14I81
_symmetry_space_group_name_H-M   'P 1'
_cell_length_a   18.97303267
_cell_length_b   18.98587889
_cell_length_c   18.97213989
_cell_angle_alpha   90.00042034
_cell_angle_beta   90.00162284
_cell_angle_gamma   89.99992646
_symmetry_Int_Tables_number   1
_chemical_formula_structural   Cs27Sn13Pb14I81
_chemical_formula_sum   'Cs27 Sn13 Pb14 I81'
_cell_volume   6834.13854849
_cell_formula_units_Z   1
loop_
 _symmetry_equiv_pos_site_id
 _symmetry_equiv_pos_as_xyz
  1  'x, y, z'
loop_
 _atom_site_type_symbol
 _atom_site_label
 _atom_site_symmetry_multiplicity
 _atom_site_fract_x
 _atom_site_fract_y
 _atom_site_fract_z
 _atom_site_occupancy
  Cs  Cs0  1  -0.00390495  0.00024710  0.00176219  1
  Cs  Cs1  1  -0.00334612  0.00086794  0.33281586  1
  Cs  Cs2  1  0.00685607  0.00074733  0.66677376  1
  Cs  Cs3  1  0.00145082  0.33497764  -0.00069576  1
  Cs  Cs4  1  -0.00300874  0.33325977  0.33793105  1
  Cs  Cs5  1  0.00435198  0.33994737  0.66080137  1
  Cs  Cs6  1  -0.00205721  0.66432653  0.00253284  1
  Cs  Cs7  1  0.00165473  0.66689601  0.33186544  1
  Cs  Cs8  1  0.00407782  0.65986042  0.66560895  1
  Cs  Cs9  1  0.33311857  0.00088092  -0.00065723  1
  Cs  Cs10  1  0.33485011  -0.00085680  0.33314333  1
  Cs  Cs11  1  0.32901641  -0.00149095  0.66878213  1
  Cs  Cs12  1  0.33358928  0.33350257  0.00230831  1
  Cs  Cs13  1  0.33644264  0.33382870  0.32990182  1
  Cs  Cs14  1  0.32563008  0.33067995  0.66667838  1
  Cs  Cs15  1  0.33601903  0.66595026  -0.00278240  1
  Cs  Cs16  1  0.33420654  0.66711235  0.33240911  1
  Cs  Cs17  1  0.32740464  0.66957064  0.67269456  1
  Cs  Cs18  1  0.66939295  0.00001841  -0.00177608  1
  Cs  Cs19  1  0.66723683  -0.00081457  0.33375299  1
  Cs  Cs20  1  0.66529934  -0.00103991  0.66795816  1
  Cs  Cs21  1  0.66538094  0.33429086  -0.00140042  1
  Cs  Cs22  1  0.66522715  0.33232414  0.33535937  1
  Cs  Cs23  1  0.66975637  0.33384454  0.66577497  1
  Cs  Cs24  1  0.66550399  0.66410311  -0.00349124  1
  Cs  Cs25  1  0.66488661  0.66931165  0.33389427  1
  Cs  Cs26  1  0.66766413  0.66767343  0.66903654  1
  Sn  Sn27  1  0.49972421  0.16555017  0.16643557  1
  Sn  Sn28  1  0.50081210  0.16659037  0.83321403  1
  Sn  Sn29  1  0.50017668  0.16641905  0.50037281  1
  Sn  Sn30  1  0.16760786  0.83365829  0.16671800  1
  Sn  Sn31  1  0.83345471  0.83403154  0.83178472  1
  Sn  Sn32  1  0.49980160  0.50058346  0.50052695  1
  Sn  Sn33  1  0.16695697  0.16636843  0.16682673  1
  Sn  Sn34  1  0.16580334  0.49988747  0.16698120  1
  Sn  Sn35  1  0.50052112  0.83308049  0.49982002  1
  Sn  Sn36  1  0.49944361  0.83415677  0.16685416  1
  Sn  Sn37  1  0.83319877  0.16623809  0.83287055  1
  Sn  Sn38  1  0.83336390  0.49972881  0.16704641  1
  Sn  Sn39  1  0.83297942  0.83352579  0.50135545  1
  Pb  Pb40  1  0.16686764  0.49998459  0.83595643  1
  Pb  Pb41  1  0.16324470  0.83343170  0.83646872  1
  Pb  Pb42  1  0.50134387  0.83511313  0.83333655  1
  Pb  Pb43  1  0.16693509  0.83340136  0.49782364  1
  Pb  Pb44  1  0.49996612  0.49682548  0.82970446  1
  Pb  Pb45  1  0.83259410  0.83192700  0.16665449  1
  Pb  Pb46  1  0.49983789  0.50020852  0.16776510  1
  Pb  Pb47  1  0.16629566  0.16661049  0.83564410  1
  Pb  Pb48  1  0.83130612  0.50258500  0.49783085  1
  Pb  Pb49  1  0.16919840  0.16649422  0.49704491  1
  Pb  Pb50  1  0.83326227  0.49967888  0.83486937  1
  Pb  Pb51  1  0.83147732  0.16454882  0.50270682  1
  Pb  Pb52  1  0.16951944  0.50012074  0.49729049  1
  Pb  Pb53  1  0.83273124  0.16876944  0.16513912  1
  I  I54  1  0.17249230  0.00001200  0.16633980  1
  I  I55  1  0.16814447  -0.00008178  0.49692004  1
  I  I56  1  0.16838778  0.00003175  0.83623562  1
  I  I57  1  0.16870561  0.33286658  0.16571655  1
  I  I58  1  0.16806489  0.33325777  0.49760142  1
  I  I59  1  0.16584855  0.33300076  0.83645428  1
  I  I60  1  0.16643525  0.66701687  0.16759575  1
  I  I61  1  0.16906360  0.66683069  0.49607711  1
  I  I62  1  0.16595568  0.66695678  0.83604179  1
  I  I63  1  0.49343335  0.00031478  0.17097238  1
  I  I64  1  0.50426165  -0.00024463  0.49699196  1
  I  I65  1  0.50223687  0.00329172  0.83157457  1
  I  I66  1  0.49766941  0.33044177  0.16754224  1
  I  I67  1  0.49928772  0.33221100  0.49732895  1
  I  I68  1  0.50634810  0.32842169  0.83754487  1
  I  I69  1  0.49799589  0.66943947  0.17178495  1
  I  I70  1  0.50461776  0.66817166  0.49126572  1
  I  I71  1  0.50215534  0.66683169  0.83526830  1
  I  I72  1  0.83585833  -0.00001961  0.16748950  1
  I  I73  1  0.82682623  -0.00343670  0.49760952  1
  I  I74  1  0.82796171  0.00000632  0.83294088  1
  I  I75  1  0.83622359  0.33629817  0.16453486  1
  I  I76  1  0.83113586  0.33332987  0.49990428  1
  I  I77  1  0.82765532  0.33017371  0.83785205  1
  I  I78  1  0.83675643  0.66435632  0.16554710  1
  I  I79  1  0.82629266  0.67048460  0.50447204  1
  I  I80  1  0.83260941  0.66963710  0.83192847  1
  I  I81  1  0.17314537  0.16695250  0.00412000  1
  I  I82  1  0.17159390  0.16639223  0.32858429  1
  I  I83  1  0.16804685  0.16675495  0.66662872  1
  I  I84  1  0.16438950  0.49960262  0.00493050  1
  I  I85  1  0.16318766  0.50017159  0.32895255  1
  I  I86  1  0.16714366  0.49958848  0.66615980  1
  I  I87  1  0.17233175  0.83336329  0.00484818  1
  I  I88  1  0.16634719  0.83335638  0.32922372  1
  I  I89  1  0.16958342  0.83335421  0.66673143  1
  I  I90  1  0.49960519  0.16215985  0.00120772  1
  I  I91  1  0.49507016  0.16630422  0.33290680  1
  I  I92  1  0.50670590  0.16695441  0.66631090  1
  I  I93  1  0.49972236  0.50009990  0.00005629  1
  I  I94  1  0.50007179  0.49618801  0.33554717  1
  I  I95  1  0.50323047  0.50285293  0.66186016  1
  I  I96  1  0.49780017  0.83725246  0.00305827  1
  I  I97  1  0.50220458  0.83747714  0.33313049  1
  I  I98  1  0.50363048  0.83410689  0.66361047  1
  I  I99  1  0.82713962  0.15997923  -0.00260348  1
  I  I100  1  0.83292791  0.16609387  0.33337294  1
  I  I101  1  0.82584704  0.16528883  0.67063912  1
  I  I102  1  0.83618249  0.50286359  0.00314977  1
  I  I103  1  0.83725041  0.50097971  0.32994447  1
  I  I104  1  0.83123398  0.49871913  0.66633014  1
  I  I105  1  0.83383215  0.83587999  -0.00194143  1
  I  I106  1  0.83103959  0.83081912  0.33530908  1
  I  I107  1  0.82424962  0.83714916  0.66621009  1
  I  I108  1  0.00249468  0.16409297  0.16344905  1
  I  I109  1  -0.00012640  0.16530828  0.49932821  1
  I  I110  1  -0.00305220  0.16165241  0.83813140  1
  I  I111  1  0.00089550  0.50150784  0.16551644  1
  I  I112  1  0.00000457  0.50129011  0.50017291  1
  I  I113  1  -0.00016242  0.49807726  0.83265766  1
  I  I114  1  0.00223531  0.83481327  0.16609327  1
  I  I115  1  -0.00295245  0.83321466  0.50137313  1
  I  I116  1  -0.00470101  0.84065829  0.82953260  1
  I  I117  1  0.33474028  0.16845689  0.16542287  1
  I  I118  1  0.33830656  0.16358603  0.50460612  1
  I  I119  1  0.33658842  0.16708261  0.83187518  1
  I  I120  1  0.33095211  0.49941027  0.16908488  1
  I  I121  1  0.33762998  0.50133040  0.49608587  1
  I  I122  1  0.33370305  0.49923222  0.83606440  1
  I  I123  1  0.33449856  0.83239178  0.17234246  1
  I  I124  1  0.33718510  0.83408233  0.49619656  1
  I  I125  1  0.33328630  0.83438984  0.83149864  1
  I  I126  1  0.66305164  0.16334393  0.16851572  1
  I  I127  1  0.66260007  0.16813675  0.49328031  1
  I  I128  1  0.66558604  0.16261722  0.83664432  1
  I  I129  1  0.66835529  0.50071326  0.16781294  1
  I  I130  1  0.66338792  0.49711502  0.49486308  1
  I  I131  1  0.66654403  0.50122658  0.83911083  1
  I  I132  1  0.66358367  0.83680182  0.16845307  1
  I  I133  1  0.66502354  0.83389628  0.49619860  1
  I  I134  1  0.66928074  0.83572918  0.83585241  1
