# generated using pymatgen
data_Cs27Sn13Pb14I81
_symmetry_space_group_name_H-M   'P 1'
_cell_length_a   18.98275371
_cell_length_b   18.97910865
_cell_length_c   18.96840294
_cell_angle_alpha   89.99997227
_cell_angle_beta   90.00059012
_cell_angle_gamma   89.99941443
_symmetry_Int_Tables_number   1
_chemical_formula_structural   Cs27Sn13Pb14I81
_chemical_formula_sum   'Cs27 Sn13 Pb14 I81'
_cell_volume   6833.85550235
_cell_formula_units_Z   1
loop_
 _symmetry_equiv_pos_site_id
 _symmetry_equiv_pos_as_xyz
  1  'x, y, z'
loop_
 _atom_site_type_symbol
 _atom_site_label
 _atom_site_symmetry_multiplicity
 _atom_site_fract_x
 _atom_site_fract_y
 _atom_site_fract_z
 _atom_site_occupancy
  Cs  Cs0  1  0.00438389  -0.00440628  -0.00077996  1
  Cs  Cs1  1  0.00152159  0.00056435  0.33506224  1
  Cs  Cs2  1  -0.00141510  -0.00064616  0.66297230  1
  Cs  Cs3  1  -0.00087897  0.33255239  0.00075298  1
  Cs  Cs4  1  -0.00115925  0.33380337  0.33230025  1
  Cs  Cs5  1  -0.00194304  0.33333924  0.66768314  1
  Cs  Cs6  1  -0.00105160  0.67041643  -0.00328603  1
  Cs  Cs7  1  0.00078184  0.66496678  0.33522457  1
  Cs  Cs8  1  0.00062390  0.66702380  0.66458369  1
  Cs  Cs9  1  0.32682488  -0.00459800  -0.00585614  1
  Cs  Cs10  1  0.33083689  -0.00128538  0.33380825  1
  Cs  Cs11  1  0.33705891  0.00388799  0.66811008  1
  Cs  Cs12  1  0.33164899  0.33275101  -0.00421284  1
  Cs  Cs13  1  0.33517660  0.33303783  0.33194214  1
  Cs  Cs14  1  0.34096191  0.33286019  0.67444813  1
  Cs  Cs15  1  0.33532026  0.66993038  -0.00788250  1
  Cs  Cs16  1  0.33187017  0.66756949  0.33310162  1
  Cs  Cs17  1  0.33305672  0.66400609  0.67251791  1
  Cs  Cs18  1  0.66743939  -0.00698448  -0.00014262  1
  Cs  Cs19  1  0.66634542  0.00096157  0.33327875  1
  Cs  Cs20  1  0.66607128  0.00187595  0.66758061  1
  Cs  Cs21  1  0.66980244  0.33309473  0.00410514  1
  Cs  Cs22  1  0.66654623  0.33439417  0.33186173  1
  Cs  Cs23  1  0.66319639  0.33385983  0.66613323  1
  Cs  Cs24  1  0.66692966  0.67422485  0.00102448  1
  Cs  Cs25  1  0.66584274  0.66440500  0.33309261  1
  Cs  Cs26  1  0.66489017  0.66390202  0.66650396  1
  Sn  Sn27  1  0.83336903  0.16731593  0.83376215  1
  Sn  Sn28  1  0.49980381  0.49942203  0.16676416  1
  Sn  Sn29  1  0.49998122  0.83324977  0.49960670  1
  Sn  Sn30  1  0.83284565  0.16689496  0.16628971  1
  Sn  Sn31  1  0.16690405  0.49911431  0.49965802  1
  Sn  Sn32  1  0.50012041  0.16663304  0.16660062  1
  Sn  Sn33  1  0.16646085  0.16763708  0.49984981  1
  Sn  Sn34  1  0.83351993  0.49956322  0.16570396  1
  Sn  Sn35  1  0.83338542  0.49924513  0.83440594  1
  Sn  Sn36  1  0.16721791  0.83331738  0.49967469  1
  Sn  Sn37  1  0.83373764  0.16626212  0.49990943  1
  Sn  Sn38  1  0.16680094  0.49999797  0.16695656  1
  Sn  Sn39  1  0.83275133  0.83396433  0.49942939  1
  Pb  Pb40  1  0.83453154  0.49939390  0.49971405  1
  Pb  Pb41  1  0.83355379  0.83356479  0.16919496  1
  Pb  Pb42  1  0.49986844  0.83374983  0.16825303  1
  Pb  Pb43  1  0.16424196  0.49975824  0.83363992  1
  Pb  Pb44  1  0.16637990  0.83339891  0.82997078  1
  Pb  Pb45  1  0.50332969  0.49978520  0.83696044  1
  Pb  Pb46  1  0.50301909  0.16666448  0.83726000  1
  Pb  Pb47  1  0.16650704  0.16840548  0.16827853  1
  Pb  Pb48  1  0.83337091  0.83347184  0.83034402  1
  Pb  Pb49  1  0.49690707  0.50182590  0.49804612  1
  Pb  Pb50  1  0.16404364  0.16691826  0.83040546  1
  Pb  Pb51  1  0.50017645  0.16533607  0.49808518  1
  Pb  Pb52  1  0.50027235  0.83350579  0.83027187  1
  Pb  Pb53  1  0.16663981  0.83038795  0.16845360  1
  I  I54  1  0.16640392  0.00022937  0.16899572  1
  I  I55  1  0.16415134  0.00017483  0.50023021  1
  I  I56  1  0.16402490  0.00019417  0.83356068  1
  I  I57  1  0.16526848  0.33665034  0.17442765  1
  I  I58  1  0.15872226  0.33323468  0.49481340  1
  I  I59  1  0.16723078  0.33340231  0.82890164  1
  I  I60  1  0.16518951  0.66183062  0.17385487  1
  I  I61  1  0.16508685  0.66659505  0.49496325  1
  I  I62  1  0.16355677  0.66640067  0.83126464  1
  I  I63  1  0.50789197  0.00324389  0.16994880  1
  I  I64  1  0.49666502  -0.00267313  0.49657796  1
  I  I65  1  0.50282948  0.00024819  0.83514281  1
  I  I66  1  0.50261372  0.33387137  0.16990363  1
  I  I67  1  0.50033580  0.33340808  0.50015740  1
  I  I68  1  0.49806963  0.33329406  0.82758974  1
  I  I69  1  0.50173641  0.66345617  0.16955933  1
  I  I70  1  0.50280221  0.66984440  0.49676193  1
  I  I71  1  0.50256308  0.66642799  0.83475151  1
  I  I72  1  0.82779910  0.00365904  0.16544799  1
  I  I73  1  0.83806556  0.00112832  0.49967401  1
  I  I74  1  0.83286547  0.00338811  0.83487550  1
  I  I75  1  0.83274974  0.33335473  0.16911963  1
  I  I76  1  0.83833859  0.33026865  0.49940910  1
  I  I77  1  0.83465620  0.33282883  0.83161390  1
  I  I78  1  0.83262261  0.66314860  0.16410887  1
  I  I79  1  0.83504808  0.66865240  0.49972821  1
  I  I80  1  0.83380998  0.66373986  0.83735071  1
  I  I81  1  0.16629594  0.16900204  0.00011681  1
  I  I82  1  0.16037782  0.16442131  0.33685402  1
  I  I83  1  0.16131255  0.16739244  0.66153103  1
  I  I84  1  0.16786811  0.49805619  0.00348878  1
  I  I85  1  0.16305639  0.50088018  0.33363524  1
  I  I86  1  0.16306714  0.50259176  0.66339268  1
  I  I87  1  0.16686657  0.83239004  -0.00009760  1
  I  I88  1  0.16554611  0.83529095  0.33756286  1
  I  I89  1  0.16447734  0.82964924  0.66103996  1
  I  I90  1  0.50474289  0.17224239  0.00521114  1
  I  I91  1  0.50676226  0.17055871  0.33039416  1
  I  I92  1  0.50009961  0.16429183  0.66667518  1
  I  I93  1  0.49390944  0.49609855  0.00508510  1
  I  I94  1  0.50642272  0.49698551  0.32994391  1
  I  I95  1  0.50004378  0.50241482  0.66678729  1
  I  I96  1  0.50103557  0.83251159  0.00012563  1
  I  I97  1  0.50009446  0.83307788  0.33669460  1
  I  I98  1  0.50009164  0.83388551  0.66169645  1
  I  I99  1  0.82786298  0.17384326  0.00101814  1
  I  I100  1  0.83349082  0.16703635  0.33338849  1
  I  I101  1  0.83918024  0.16622565  0.66568996  1
  I  I102  1  0.83530244  0.49169667  0.00157603  1
  I  I103  1  0.83227704  0.49760479  0.33038263  1
  I  I104  1  0.83658729  0.49811640  0.66837549  1
  I  I105  1  0.83254006  0.83492679  0.00000155  1
  I  I106  1  0.83461090  0.83645776  0.33754255  1
  I  I107  1  0.83498480  0.83644354  0.66200644  1
  I  I108  1  -0.00344694  0.17125208  0.16679399  1
  I  I109  1  -0.00114423  0.16203577  0.49797764  1
  I  I110  1  -0.00444885  0.17099077  0.83780765  1
  I  I111  1  -0.00085702  0.49597981  0.16832441  1
  I  I112  1  0.00252998  0.50422354  0.49491417  1
  I  I113  1  -0.00366592  0.49594221  0.83793763  1
  I  I114  1  -0.00009019  0.83351861  0.17025074  1
  I  I115  1  0.00007680  0.83433919  0.49976198  1
  I  I116  1  -0.00045606  0.83264397  0.83136561  1
  I  I117  1  0.33565879  0.17156124  0.17232244  1
  I  I118  1  0.33067052  0.16485874  0.49619411  1
  I  I119  1  0.33348987  0.16575402  0.83222427  1
  I  I120  1  0.33322804  0.49628781  0.17560103  1
  I  I121  1  0.32868015  0.49986026  0.49386639  1
  I  I122  1  0.33349164  0.50163973  0.83275933  1
  I  I123  1  0.33330312  0.83422410  0.17208662  1
  I  I124  1  0.33237001  0.83299182  0.49758478  1
  I  I125  1  0.33331270  0.83248516  0.83211704  1
  I  I126  1  0.66848354  0.17488894  0.17021431  1
  I  I127  1  0.67006059  0.16186795  0.50113631  1
  I  I128  1  0.67129675  0.17114817  0.82556148  1
  I  I129  1  0.66761808  0.49588486  0.16363840  1
  I  I130  1  0.66661630  0.50158302  0.49949819  1
  I  I131  1  0.67123620  0.49571387  0.83491238  1
  I  I132  1  0.66683881  0.82884181  0.17141583  1
  I  I133  1  0.66755605  0.83848087  0.49921338  1
  I  I134  1  0.66716469  0.83261686  0.83025144  1
