# generated using pymatgen
data_Cs27Sn14Pb13I81
_symmetry_space_group_name_H-M   'P 1'
_cell_length_a   18.97508417
_cell_length_b   18.97513675
_cell_length_c   18.97877173
_cell_angle_alpha   89.99929512
_cell_angle_beta   90.00031075
_cell_angle_gamma   89.99953115
_symmetry_Int_Tables_number   1
_chemical_formula_structural   Cs27Sn14Pb13I81
_chemical_formula_sum   'Cs27 Sn14 Pb13 I81'
_cell_volume   6833.39818088
_cell_formula_units_Z   1
loop_
 _symmetry_equiv_pos_site_id
 _symmetry_equiv_pos_as_xyz
  1  'x, y, z'
loop_
 _atom_site_type_symbol
 _atom_site_label
 _atom_site_symmetry_multiplicity
 _atom_site_fract_x
 _atom_site_fract_y
 _atom_site_fract_z
 _atom_site_occupancy
  Cs  Cs0  1  0.00197358  0.00871821  0.00009801  1
  Cs  Cs1  1  -0.01065785  0.00788862  0.33822559  1
  Cs  Cs2  1  0.00895464  0.00657402  0.66169372  1
  Cs  Cs3  1  0.00044993  0.33239777  0.00011975  1
  Cs  Cs4  1  0.00320912  0.32846592  0.33473638  1
  Cs  Cs5  1  -0.00089034  0.32848748  0.66496066  1
  Cs  Cs6  1  0.00039265  0.66537241  -0.00006382  1
  Cs  Cs7  1  -0.00193673  0.66788880  0.33278905  1
  Cs  Cs8  1  0.00296862  0.66742705  0.66785841  1
  Cs  Cs9  1  0.33377153  -0.00243329  -0.00047619  1
  Cs  Cs10  1  0.33371223  0.00007205  0.33238226  1
  Cs  Cs11  1  0.32750860  -0.00479473  0.66715366  1
  Cs  Cs12  1  0.33592314  0.33429111  0.00167956  1
  Cs  Cs13  1  0.33254394  0.33387934  0.33383107  1
  Cs  Cs14  1  0.33485167  0.33519309  0.66231144  1
  Cs  Cs15  1  0.33311137  0.66697296  0.00030000  1
  Cs  Cs16  1  0.33321905  0.66607628  0.33530971  1
  Cs  Cs17  1  0.33047952  0.66875124  0.66080655  1
  Cs  Cs18  1  0.66526745  -0.00218448  0.00050065  1
  Cs  Cs19  1  0.67258136  -0.00367048  0.33517334  1
  Cs  Cs20  1  0.66724841  0.00028754  0.66538558  1
  Cs  Cs21  1  0.66503922  0.33516631  -0.00204259  1
  Cs  Cs22  1  0.66406001  0.33518232  0.33352742  1
  Cs  Cs23  1  0.66620631  0.33416518  0.66889865  1
  Cs  Cs24  1  0.66683190  0.66545450  -0.00053710  1
  Cs  Cs25  1  0.66797571  0.66902788  0.33461225  1
  Cs  Cs26  1  0.66616199  0.66581827  0.66876813  1
  Sn  Sn27  1  0.49936843  0.50059913  0.83373976  1
  Sn  Sn28  1  0.83336070  0.50007414  0.16672199  1
  Sn  Sn29  1  0.16653846  0.83294466  0.16661707  1
  Sn  Sn30  1  0.49986585  0.50056237  0.16620608  1
  Sn  Sn31  1  0.50009572  0.16640604  0.83305721  1
  Sn  Sn32  1  0.83321514  0.50035541  0.50022116  1
  Sn  Sn33  1  0.83345935  0.83312173  0.83351964  1
  Sn  Sn34  1  0.16695108  0.50103049  0.16564480  1
  Sn  Sn35  1  0.83365045  0.50084348  0.83332274  1
  Sn  Sn36  1  0.50071484  0.83276558  0.83402355  1
  Sn  Sn37  1  0.49937211  0.83278617  0.16595805  1
  Sn  Sn38  1  0.16704152  0.49999842  0.83403085  1
  Sn  Sn39  1  0.50008527  0.16636623  0.50006805  1
  Sn  Sn40  1  0.50019059  0.16638333  0.16685422  1
  Pb  Pb41  1  0.83131915  0.16639402  0.83336502  1
  Pb  Pb42  1  0.16899005  0.16658881  0.16659341  1
  Pb  Pb43  1  0.83329906  0.83108993  0.50374697  1
  Pb  Pb44  1  0.16383711  0.50011131  0.49954696  1
  Pb  Pb45  1  0.83033663  0.16955768  0.16630804  1
  Pb  Pb46  1  0.50156901  0.49889427  0.49998209  1
  Pb  Pb47  1  0.83074840  0.16918696  0.50029160  1
  Pb  Pb48  1  0.16640450  0.83311076  0.49576378  1
  Pb  Pb49  1  0.16959969  0.16681169  0.49979047  1
  Pb  Pb50  1  0.16997016  0.16984157  0.83359232  1
  Pb  Pb51  1  0.50005679  0.83575619  0.50003272  1
  Pb  Pb52  1  0.83364572  0.83154658  0.16434642  1
  Pb  Pb53  1  0.16642462  0.83142249  0.83534089  1
  I  I54  1  0.17414928  -0.00306282  0.16548531  1
  I  I55  1  0.16700663  -0.00003573  0.50086144  1
  I  I56  1  0.16628488  -0.00012158  0.83435035  1
  I  I57  1  0.16706350  0.33705004  0.16348033  1
  I  I58  1  0.16647157  0.33377934  0.49803390  1
  I  I59  1  0.16478891  0.33832188  0.84031229  1
  I  I60  1  0.17256897  0.66494536  0.16263128  1
  I  I61  1  0.16908324  0.66623634  0.50249511  1
  I  I62  1  0.17069609  0.66300324  0.83582255  1
  I  I63  1  0.49434154  -0.00057701  0.16302338  1
  I  I64  1  0.50045234  0.00381323  0.49968646  1
  I  I65  1  0.50564024  -0.00061770  0.83689952  1
  I  I66  1  0.50085718  0.33452343  0.16414119  1
  I  I67  1  0.50201646  0.33084515  0.50009833  1
  I  I68  1  0.50033501  0.33455828  0.83607666  1
  I  I69  1  0.49972854  0.66572525  0.16000168  1
  I  I70  1  0.50101652  0.66678927  0.49983550  1
  I  I71  1  0.50202740  0.66572946  0.84048702  1
  I  I72  1  0.83355781  -0.00015449  0.16564789  1
  I  I73  1  0.83257770  0.00008046  0.49985670  1
  I  I74  1  0.82597927  -0.00318242  0.83526713  1
  I  I75  1  0.83376542  0.33858464  0.16292625  1
  I  I76  1  0.83237164  0.33726679  0.50279483  1
  I  I77  1  0.83194223  0.33734767  0.83370210  1
  I  I78  1  0.82803187  0.66269967  0.16781755  1
  I  I79  1  0.83046079  0.66285210  0.49673908  1
  I  I80  1  0.82678473  0.66452274  0.83371618  1
  I  I81  1  0.16769468  0.16572130  0.00005164  1
  I  I82  1  0.17056414  0.16993397  0.33289737  1
  I  I83  1  0.16915828  0.16855704  0.66695994  1
  I  I84  1  0.16433291  0.50290522  0.00069544  1
  I  I85  1  0.16855100  0.50287256  0.32942907  1
  I  I86  1  0.16853292  0.49950314  0.66989486  1
  I  I87  1  0.17068325  0.82952907  0.00324042  1
  I  I88  1  0.17608494  0.82396403  0.32764992  1
  I  I89  1  0.16784369  0.83166155  0.66700803  1
  I  I90  1  0.50013508  0.16855201  0.00002067  1
  I  I91  1  0.49946550  0.16942071  0.33202616  1
  I  I92  1  0.50150005  0.16958111  0.66796219  1
  I  I93  1  0.50328424  0.49626845  0.00003325  1
  I  I94  1  0.50008120  0.49909115  0.32976574  1
  I  I95  1  0.50051813  0.49911818  0.67020477  1
  I  I96  1  0.50022465  0.83619018  0.00001306  1
  I  I97  1  0.49591089  0.83209407  0.32961254  1
  I  I98  1  0.50428328  0.83206681  0.67040836  1
  I  I99  1  0.83156796  0.16952996  -0.00009882  1
  I  I100  1  0.83010655  0.16810859  0.33317556  1
  I  I101  1  0.82844469  0.17046519  0.66695424  1
  I  I102  1  0.83172196  0.50318576  -0.00046227  1
  I  I103  1  0.83137461  0.49860546  0.33205448  1
  I  I104  1  0.83111349  0.50311320  0.66845109  1
  I  I105  1  0.82908380  0.82543551  -0.00340614  1
  I  I106  1  0.83253057  0.83126650  0.33306430  1
  I  I107  1  0.82397196  0.82576386  0.67177411  1
  I  I108  1  -0.00007334  0.16646912  0.16816967  1
  I  I109  1  -0.00027239  0.16726582  0.49968273  1
  I  I110  1  0.00024693  0.16657199  0.83208656  1
  I  I111  1  0.00014924  0.50572281  0.16325615  1
  I  I112  1  -0.00406321  0.50029458  0.50060164  1
  I  I113  1  -0.00078277  0.50577445  0.83653150  1
  I  I114  1  0.00247767  0.82478241  0.16481777  1
  I  I115  1  -0.00020353  0.83220632  0.50048619  1
  I  I116  1  -0.00250209  0.82454669  0.83488041  1
  I  I117  1  0.33785860  0.17243852  0.16567428  1
  I  I118  1  0.33791923  0.17035573  0.49959225  1
  I  I119  1  0.33860176  0.16574509  0.83489557  1
  I  I120  1  0.33456776  0.49937279  0.16026283  1
  I  I121  1  0.33332215  0.49756899  0.50038867  1
  I  I122  1  0.33470510  0.49847631  0.84065266  1
  I  I123  1  0.33540545  0.82893959  0.16097478  1
  I  I124  1  0.33353643  0.83291826  0.50521331  1
  I  I125  1  0.33667834  0.83377707  0.83547335  1
  I  I126  1  0.66163091  0.16648586  0.16544225  1
  I  I127  1  0.66281681  0.16776713  0.49985631  1
  I  I128  1  0.66233751  0.17277854  0.83469393  1
  I  I129  1  0.66569013  0.49868569  0.16411390  1
  I  I130  1  0.66943838  0.49817369  0.50022479  1
  I  I131  1  0.66587224  0.49937598  0.83549517  1
  I  I132  1  0.66339773  0.83318422  0.16486392  1
  I  I133  1  0.66661431  0.83362463  0.49474949  1
  I  I134  1  0.66479903  0.82824570  0.83866194  1
