# generated using pymatgen
data_Cs27Sn13Pb14I81
_symmetry_space_group_name_H-M   'P 1'
_cell_length_a   18.97290836
_cell_length_b   18.97202088
_cell_length_c   18.98662833
_cell_angle_alpha   89.99930360
_cell_angle_beta   90.00047107
_cell_angle_gamma   89.99914901
_symmetry_Int_Tables_number   1
_chemical_formula_structural   Cs27Sn13Pb14I81
_chemical_formula_sum   'Cs27 Sn13 Pb14 I81'
_cell_volume   6834.32066250
_cell_formula_units_Z   1
loop_
 _symmetry_equiv_pos_site_id
 _symmetry_equiv_pos_as_xyz
  1  'x, y, z'
loop_
 _atom_site_type_symbol
 _atom_site_label
 _atom_site_symmetry_multiplicity
 _atom_site_fract_x
 _atom_site_fract_y
 _atom_site_fract_z
 _atom_site_occupancy
  Cs  Cs0  1  -0.00120310  -0.00003607  -0.00045348  1
  Cs  Cs1  1  0.00187542  -0.00217835  0.33218381  1
  Cs  Cs2  1  -0.00396426  -0.00338161  0.66949746  1
  Cs  Cs3  1  0.00028895  0.33492970  0.00105976  1
  Cs  Cs4  1  -0.00051427  0.33448166  0.33263971  1
  Cs  Cs5  1  0.00155700  0.33554741  0.66459269  1
  Cs  Cs6  1  0.00077466  0.66384609  0.00171005  1
  Cs  Cs7  1  0.00032477  0.66668322  0.33243582  1
  Cs  Cs8  1  -0.00234369  0.66558637  0.66545097  1
  Cs  Cs9  1  0.33128730  0.00151713  0.00111943  1
  Cs  Cs10  1  0.33193076  -0.00219105  0.33369895  1
  Cs  Cs11  1  0.33284188  0.00320001  0.66531822  1
  Cs  Cs12  1  0.33292550  0.33395735  -0.00102676  1
  Cs  Cs13  1  0.33330680  0.33210575  0.33464868  1
  Cs  Cs14  1  0.33206752  0.33219091  0.66632598  1
  Cs  Cs15  1  0.34128836  0.66522238  -0.00045126  1
  Cs  Cs16  1  0.33398617  0.67379843  0.33170434  1
  Cs  Cs17  1  0.33539357  0.66650924  0.66930937  1
  Cs  Cs18  1  0.67186638  0.00014752  -0.00460541  1
  Cs  Cs19  1  0.66699282  0.00235160  0.33529931  1
  Cs  Cs20  1  0.67263703  -0.00822790  0.67046388  1
  Cs  Cs21  1  0.66685250  0.33347328  0.00212630  1
  Cs  Cs22  1  0.66670268  0.33316251  0.33493425  1
  Cs  Cs23  1  0.66731639  0.33208715  0.66072526  1
  Cs  Cs24  1  0.66158582  0.66666996  0.00008428  1
  Cs  Cs25  1  0.66516583  0.66667508  0.33268235  1
  Cs  Cs26  1  0.66959224  0.67666425  0.66708556  1
  Sn  Sn27  1  0.16795900  0.49951453  0.49886212  1
  Sn  Sn28  1  0.49917971  0.16726655  0.50035101  1
  Sn  Sn29  1  0.49915228  0.16693850  0.16665175  1
  Sn  Sn30  1  0.16739168  0.16755126  0.16678517  1
  Sn  Sn31  1  0.83374018  0.50087566  0.16568448  1
  Sn  Sn32  1  0.16715649  0.83359003  0.83367295  1
  Sn  Sn33  1  0.16707914  0.16585658  0.83326756  1
  Sn  Sn34  1  0.49963563  0.16710274  0.83300143  1
  Sn  Sn35  1  0.83305121  0.49935554  0.83395884  1
  Sn  Sn36  1  0.49881491  0.49964367  0.50006733  1
  Sn  Sn37  1  0.16694098  0.16737488  0.49988798  1
  Sn  Sn38  1  0.16669767  0.49946848  0.16741412  1
  Sn  Sn39  1  0.83347066  0.83230245  0.16671185  1
  Pb  Pb40  1  0.83376405  0.16892592  0.83324162  1
  Pb  Pb41  1  0.83370631  0.83325185  0.49689139  1
  Pb  Pb42  1  0.50268793  0.49755728  0.83035415  1
  Pb  Pb43  1  0.83382164  0.16647876  0.50012111  1
  Pb  Pb44  1  0.83569507  0.83049143  0.83562965  1
  Pb  Pb45  1  0.16591892  0.49952235  0.83327090  1
  Pb  Pb46  1  0.49967267  0.83402189  0.49997036  1
  Pb  Pb47  1  0.83336090  0.49998046  0.49932102  1
  Pb  Pb48  1  0.16670837  0.83317988  0.50229952  1
  Pb  Pb49  1  0.16563547  0.83307835  0.16471052  1
  Pb  Pb50  1  0.50269496  0.83690119  0.16651904  1
  Pb  Pb51  1  0.49741567  0.83623887  0.83349606  1
  Pb  Pb52  1  0.83374565  0.16727152  0.16673680  1
  Pb  Pb53  1  0.49958978  0.49809539  0.16857133  1
  I  I54  1  0.16836709  0.00343033  0.16912900  1
  I  I55  1  0.17137361  0.00378956  0.49661351  1
  I  I56  1  0.16975053  0.00250738  0.83377732  1
  I  I57  1  0.16381450  0.33276875  0.16529007  1
  I  I58  1  0.16981821  0.33269376  0.50141857  1
  I  I59  1  0.16891647  0.33009097  0.83356706  1
  I  I60  1  0.16281027  0.66340429  0.16995133  1
  I  I61  1  0.16939718  0.66298510  0.49649271  1
  I  I62  1  0.16160505  0.66821584  0.83309208  1
  I  I63  1  0.49420004  0.00531213  0.17006631  1
  I  I64  1  0.49476817  0.00446324  0.49883298  1
  I  I65  1  0.50010906  0.00488409  0.83079337  1
  I  I66  1  0.50086094  0.32972310  0.16491951  1
  I  I67  1  0.49637382  0.33209801  0.49988233  1
  I  I68  1  0.49229839  0.32937170  0.83562364  1
  I  I69  1  0.49770386  0.66649797  0.16860982  1
  I  I70  1  0.49608835  0.66346131  0.49888208  1
  I  I71  1  0.49937777  0.66646920  0.83184219  1
  I  I72  1  0.83318595  -0.00188532  0.16690522  1
  I  I73  1  0.83286450  -0.00002098  0.49876996  1
  I  I74  1  0.83153355  -0.00013119  0.83464345  1
  I  I75  1  0.83545475  0.33639157  0.16354726  1
  I  I76  1  0.83292076  0.33350370  0.49778488  1
  I  I77  1  0.83649583  0.33641512  0.84079471  1
  I  I78  1  0.84034970  0.66476507  0.16340554  1
  I  I79  1  0.83363791  0.66615362  0.50358472  1
  I  I80  1  0.83624963  0.66295589  0.83404236  1
  I  I81  1  0.17173382  0.16696864  0.00039731  1
  I  I82  1  0.17151058  0.17149985  0.33307824  1
  I  I83  1  0.17232908  0.16760314  0.66643906  1
  I  I84  1  0.16229546  0.49612209  0.00268570  1
  I  I85  1  0.16318856  0.49201094  0.33285972  1
  I  I86  1  0.16759035  0.49657485  0.66402135  1
  I  I87  1  0.16443138  0.83912666  -0.00282983  1
  I  I88  1  0.16426476  0.83581530  0.33308225  1
  I  I89  1  0.16586912  0.83790946  0.67007825  1
  I  I90  1  0.49373341  0.16606591  0.00002140  1
  I  I91  1  0.49535941  0.17036888  0.33364272  1
  I  I92  1  0.49249035  0.17178045  0.66627038  1
  I  I93  1  0.49848174  0.49804891  0.00000560  1
  I  I94  1  0.50145773  0.49267258  0.33631999  1
  I  I95  1  0.49407053  0.49309269  0.66272290  1
  I  I96  1  0.49980564  0.83360513  -0.00001607  1
  I  I97  1  0.50074437  0.83567491  0.33317493  1
  I  I98  1  0.50124382  0.83406986  0.66681017  1
  I  I99  1  0.83264261  0.16572362  0.00013751  1
  I  I100  1  0.83229577  0.16798207  0.33313950  1
  I  I101  1  0.83366467  0.16949209  0.66680819  1
  I  I102  1  0.84015945  0.50182120  0.00158407  1
  I  I103  1  0.83540628  0.50326104  0.33010155  1
  I  I104  1  0.83495360  0.49743711  0.66863264  1
  I  I105  1  0.83472573  0.83248815  0.00306206  1
  I  I106  1  0.83551158  0.82684346  0.32905058  1
  I  I107  1  0.83341150  0.83230608  0.66718142  1
  I  I108  1  0.00363031  0.16769677  0.16652637  1
  I  I109  1  0.00437795  0.17187895  0.49934313  1
  I  I110  1  0.00375914  0.16401620  0.83402431  1
  I  I111  1  0.00104893  0.49727598  0.16839703  1
  I  I112  1  0.00327589  0.49487829  0.49952643  1
  I  I113  1  -0.00194978  0.49794293  0.83347041  1
  I  I114  1  -0.00235991  0.83372974  0.16519059  1
  I  I115  1  0.00046535  0.83385338  0.50138701  1
  I  I116  1  0.00313412  0.84214226  0.83329855  1
  I  I117  1  0.33194283  0.17180071  0.16612811  1
  I  I118  1  0.33263192  0.17119047  0.50026836  1
  I  I119  1  0.33231850  0.16379822  0.83344043  1
  I  I120  1  0.33011767  0.49666057  0.16783914  1
  I  I121  1  0.33206919  0.49419238  0.49569084  1
  I  I122  1  0.33347666  0.50253015  0.83594380  1
  I  I123  1  0.33333216  0.83131637  0.16579448  1
  I  I124  1  0.33304969  0.83265530  0.49856403  1
  I  I125  1  0.32952614  0.83307539  0.83460038  1
  I  I126  1  0.66374396  0.16653105  0.16718778  1
  I  I127  1  0.66283633  0.17196258  0.49812324  1
  I  I128  1  0.66362042  0.16970106  0.83403619  1
  I  I129  1  0.66911159  0.50172413  0.16454029  1
  I  I130  1  0.66377890  0.49353210  0.49959120  1
  I  I131  1  0.67018117  0.49779893  0.83997307  1
  I  I132  1  0.67047880  0.82652659  0.16595191  1
  I  I133  1  0.66661194  0.83361248  0.50118519  1
  I  I134  1  0.66687097  0.83466968  0.83324455  1
