# generated using pymatgen
data_Cs27Sn14Pb13I81
_symmetry_space_group_name_H-M   'P 1'
_cell_length_a   18.97749764
_cell_length_b   18.97667229
_cell_length_c   18.97167937
_cell_angle_alpha   90.00128494
_cell_angle_beta   90.00011726
_cell_angle_gamma   90.00189119
_symmetry_Int_Tables_number   1
_chemical_formula_structural   Cs27Sn14Pb13I81
_chemical_formula_sum   'Cs27 Sn14 Pb13 I81'
_cell_volume   6832.26621479
_cell_formula_units_Z   1
loop_
 _symmetry_equiv_pos_site_id
 _symmetry_equiv_pos_as_xyz
  1  'x, y, z'
loop_
 _atom_site_type_symbol
 _atom_site_label
 _atom_site_symmetry_multiplicity
 _atom_site_fract_x
 _atom_site_fract_y
 _atom_site_fract_z
 _atom_site_occupancy
  Cs  Cs0  1  0.00200157  0.00352732  -0.00339882  1
  Cs  Cs1  1  0.00180983  -0.00092554  0.33427617  1
  Cs  Cs2  1  -0.00281121  -0.00115221  0.66694674  1
  Cs  Cs3  1  0.00139032  0.33393493  0.00345657  1
  Cs  Cs4  1  0.00278805  0.33215962  0.33143687  1
  Cs  Cs5  1  -0.00463921  0.33567560  0.66618442  1
  Cs  Cs6  1  0.00471002  0.66136505  0.00016324  1
  Cs  Cs7  1  -0.00456187  0.66873094  0.33615758  1
  Cs  Cs8  1  0.00190350  0.66678194  0.66536036  1
  Cs  Cs9  1  0.33526093  -0.00101517  -0.00074455  1
  Cs  Cs10  1  0.32955321  0.00239538  0.33439395  1
  Cs  Cs11  1  0.33356725  -0.00137946  0.66611870  1
  Cs  Cs12  1  0.32938147  0.33273515  0.00143135  1
  Cs  Cs13  1  0.33261941  0.33172517  0.33610188  1
  Cs  Cs14  1  0.33657554  0.33263678  0.66237852  1
  Cs  Cs15  1  0.33084376  0.66575298  -0.00056234  1
  Cs  Cs16  1  0.33741290  0.66747185  0.33332103  1
  Cs  Cs17  1  0.33121190  0.66816422  0.66836734  1
  Cs  Cs18  1  0.66511520  0.00253459  -0.00118813  1
  Cs  Cs19  1  0.66905421  -0.00381892  0.33048169  1
  Cs  Cs20  1  0.66745465  -0.00053807  0.66862890  1
  Cs  Cs21  1  0.66838174  0.32960894  -0.00300663  1
  Cs  Cs22  1  0.66420258  0.33597983  0.33480138  1
  Cs  Cs23  1  0.66709884  0.33415001  0.66733357  1
  Cs  Cs24  1  0.66591646  0.66708859  0.00592999  1
  Cs  Cs25  1  0.66736031  0.66824523  0.32378695  1
  Cs  Cs26  1  0.66715248  0.66606718  0.66577981  1
  Sn  Sn27  1  0.83238906  0.50151730  0.83286321  1
  Sn  Sn28  1  0.83256316  0.83171697  0.83352063  1
  Sn  Sn29  1  0.16788811  0.16693133  0.83261596  1
  Sn  Sn30  1  0.50053283  0.16673388  0.16641949  1
  Sn  Sn31  1  0.83304626  0.16734661  0.49860935  1
  Sn  Sn32  1  0.16659393  0.83321799  0.16746688  1
  Sn  Sn33  1  0.83373646  0.49940309  0.50041997  1
  Sn  Sn34  1  0.49868472  0.16685329  0.83377175  1
  Sn  Sn35  1  0.16757690  0.83252171  0.49919188  1
  Sn  Sn36  1  0.50102503  0.83275429  0.83271678  1
  Sn  Sn37  1  0.16627812  0.50062105  0.50019892  1
  Sn  Sn38  1  0.49969819  0.83338670  0.50044678  1
  Sn  Sn39  1  0.50073206  0.50023572  0.83324643  1
  Sn  Sn40  1  0.83255935  0.16667334  0.16824050  1
  Pb  Pb41  1  0.16448570  0.16648299  0.50210131  1
  Pb  Pb42  1  0.16688001  0.83456919  0.83276948  1
  Pb  Pb43  1  0.50246481  0.16436748  0.50019708  1
  Pb  Pb44  1  0.16659608  0.49752100  0.83118810  1
  Pb  Pb45  1  0.83305788  0.83269753  0.50141661  1
  Pb  Pb46  1  0.49830813  0.83540263  0.16622538  1
  Pb  Pb47  1  0.83276234  0.16717458  0.83326151  1
  Pb  Pb48  1  0.83569585  0.83567210  0.16312870  1
  Pb  Pb49  1  0.16667704  0.50266750  0.17017032  1
  Pb  Pb50  1  0.49991271  0.49689196  0.16352395  1
  Pb  Pb51  1  0.50068091  0.50257584  0.50177975  1
  Pb  Pb52  1  0.16693783  0.16511145  0.16486505  1
  Pb  Pb53  1  0.83326152  0.49764138  0.16665100  1
  I  I54  1  0.16636484  -0.00253702  0.17299276  1
  I  I55  1  0.16899911  -0.00278535  0.49826064  1
  I  I56  1  0.16886376  0.00244637  0.83212226  1
  I  I57  1  0.16637431  0.33314622  0.16599666  1
  I  I58  1  0.16386900  0.33556766  0.50397753  1
  I  I59  1  0.16942276  0.32987482  0.83274129  1
  I  I60  1  0.16732315  0.67060188  0.16413295  1
  I  I61  1  0.16364762  0.66736436  0.49816706  1
  I  I62  1  0.16826171  0.66648243  0.83533969  1
  I  I63  1  0.50363872  0.00308076  0.15960350  1
  I  I64  1  0.49511292  -0.00335150  0.50655017  1
  I  I65  1  0.50050945  -0.00014122  0.83353296  1
  I  I66  1  0.50348614  0.32872899  0.16190603  1
  I  I67  1  0.49754546  0.33334882  0.50064416  1
  I  I68  1  0.50120860  0.33292831  0.83761266  1
  I  I69  1  0.49863790  0.66691167  0.16641019  1
  I  I70  1  0.49934164  0.67041668  0.50657064  1
  I  I71  1  0.50453438  0.66736971  0.82713925  1
  I  I72  1  0.82978823  0.00346888  0.17082625  1
  I  I73  1  0.83343065  0.00180769  0.49955917  1
  I  I74  1  0.83125916  -0.00161985  0.83260817  1
  I  I75  1  0.83080100  0.32953295  0.16399738  1
  I  I76  1  0.83844794  0.33408950  0.50373066  1
  I  I77  1  0.83062861  0.33568553  0.83152754  1
  I  I78  1  0.83440092  0.66688058  0.16879975  1
  I  I79  1  0.83563281  0.66409168  0.50497945  1
  I  I80  1  0.82684376  0.66604574  0.82659268  1
  I  I81  1  0.16509295  0.16399619  -0.00313921  1
  I  I82  1  0.16831325  0.16774333  0.33363453  1
  I  I83  1  0.17162631  0.16345642  0.66978960  1
  I  I84  1  0.16600517  0.50038015  -0.00029232  1
  I  I85  1  0.16000520  0.49898076  0.33826215  1
  I  I86  1  0.16459773  0.50725554  0.66362779  1
  I  I87  1  0.16601479  0.83829828  0.00127907  1
  I  I88  1  0.17187879  0.83170195  0.33507286  1
  I  I89  1  0.16762523  0.83105088  0.66403709  1
  I  I90  1  0.50295507  0.16421101  -0.00170239  1
  I  I91  1  0.50263808  0.16357933  0.33109607  1
  I  I92  1  0.49797795  0.16748436  0.66986048  1
  I  I93  1  0.50601674  0.50562267  -0.00514644  1
  I  I94  1  0.49997646  0.50030264  0.33356681  1
  I  I95  1  0.50157650  0.49426765  0.67014582  1
  I  I96  1  0.50216664  0.83301473  -0.00345592  1
  I  I97  1  0.49748986  0.83522161  0.33578512  1
  I  I98  1  0.49742838  0.83632153  0.66813176  1
  I  I99  1  0.83264337  0.16510984  0.00152700  1
  I  I100  1  0.82896220  0.17106888  0.33369843  1
  I  I101  1  0.83435814  0.16730884  0.66489283  1
  I  I102  1  0.82892813  0.50207918  -0.00347178  1
  I  I103  1  0.83839108  0.49759751  0.33666808  1
  I  I104  1  0.83365456  0.49661203  0.66690847  1
  I  I105  1  0.82790124  0.83057201  -0.00481999  1
  I  I106  1  0.83105164  0.83203408  0.33323057  1
  I  I107  1  0.83413323  0.83627028  0.66949379  1
  I  I108  1  -0.00240863  0.16520373  0.16741860  1
  I  I109  1  -0.00342584  0.16533506  0.49773950  1
  I  I110  1  0.00124108  0.16456437  0.83302430  1
  I  I111  1  -0.00004642  0.49660033  0.15991532  1
  I  I112  1  -0.00086642  0.50192773  0.50690260  1
  I  I113  1  -0.00293085  0.50284833  0.83078572  1
  I  I114  1  0.00308743  0.83646389  0.17259799  1
  I  I115  1  0.00221439  0.83312443  0.49867327  1
  I  I116  1  -0.00224648  0.83269061  0.83268940  1
  I  I117  1  0.33595671  0.16447001  0.16207110  1
  I  I118  1  0.33349626  0.16877587  0.49834912  1
  I  I119  1  0.33532224  0.16521904  0.83885556  1
  I  I120  1  0.33328572  0.49706258  0.16582053  1
  I  I121  1  0.33122975  0.50259416  0.50213125  1
  I  I122  1  0.33618357  0.50247794  0.83213486  1
  I  I123  1  0.33065027  0.83704108  0.16597410  1
  I  I124  1  0.33284063  0.82909362  0.50316575  1
  I  I125  1  0.33625636  0.83244981  0.83238983  1
  I  I126  1  0.66647551  0.16528996  0.16228212  1
  I  I127  1  0.67023588  0.17129162  0.50262869  1
  I  I128  1  0.66400450  0.16585056  0.83437997  1
  I  I129  1  0.66661376  0.50341020  0.17211417  1
  I  I130  1  0.66967633  0.49575859  0.50407762  1
  I  I131  1  0.66705371  0.49753745  0.82672315  1
  I  I132  1  0.66671137  0.83331971  0.16934307  1
  I  I133  1  0.66439040  0.83538027  0.50477587  1
  I  I134  1  0.66543666  0.83665034  0.82709149  1
