# generated using pymatgen
data_Cs27Sn14Pb13I81
_symmetry_space_group_name_H-M   'P 1'
_cell_length_a   18.96011924
_cell_length_b   18.97890666
_cell_length_c   18.98860695
_cell_angle_alpha   89.99984726
_cell_angle_beta   89.99999194
_cell_angle_gamma   89.99987073
_symmetry_Int_Tables_number   1
_chemical_formula_structural   Cs27Sn14Pb13I81
_chemical_formula_sum   'Cs27 Sn14 Pb13 I81'
_cell_volume   6832.90463005
_cell_formula_units_Z   1
loop_
 _symmetry_equiv_pos_site_id
 _symmetry_equiv_pos_as_xyz
  1  'x, y, z'
loop_
 _atom_site_type_symbol
 _atom_site_label
 _atom_site_symmetry_multiplicity
 _atom_site_fract_x
 _atom_site_fract_y
 _atom_site_fract_z
 _atom_site_occupancy
  Cs  Cs0  1  -0.00497024  0.00088185  0.00131309  1
  Cs  Cs1  1  0.00308982  0.00158283  0.33066603  1
  Cs  Cs2  1  0.00551541  0.00076864  0.66832603  1
  Cs  Cs3  1  -0.00764920  0.33969474  0.00794076  1
  Cs  Cs4  1  0.00011133  0.33901879  0.32768491  1
  Cs  Cs5  1  -0.00119670  0.33920102  0.66645530  1
  Cs  Cs6  1  -0.00809272  0.66117631  -0.00074998  1
  Cs  Cs7  1  -0.00804021  0.65885223  0.33456075  1
  Cs  Cs8  1  -0.00456372  0.65681896  0.66612700  1
  Cs  Cs9  1  0.33278102  -0.00210762  -0.00151158  1
  Cs  Cs10  1  0.33252063  -0.00059475  0.33425041  1
  Cs  Cs11  1  0.33185765  -0.00002442  0.66702023  1
  Cs  Cs12  1  0.33476263  0.33375642  0.00053757  1
  Cs  Cs13  1  0.33401949  0.33247880  0.33275669  1
  Cs  Cs14  1  0.33411724  0.33169998  0.66684365  1
  Cs  Cs15  1  0.33383119  0.66951062  -0.00131021  1
  Cs  Cs16  1  0.33395472  0.66972106  0.33263618  1
  Cs  Cs17  1  0.33269649  0.66926970  0.66873291  1
  Cs  Cs18  1  0.67038762  0.00029251  -0.00106824  1
  Cs  Cs19  1  0.66715034  -0.00192086  0.33602427  1
  Cs  Cs20  1  0.66830426  0.00048614  0.66541705  1
  Cs  Cs21  1  0.66529527  0.33125848  -0.00129044  1
  Cs  Cs22  1  0.66275080  0.33270783  0.33461114  1
  Cs  Cs23  1  0.66471153  0.33007080  0.66691243  1
  Cs  Cs24  1  0.66710523  0.66857693  0.00081229  1
  Cs  Cs25  1  0.67057489  0.66960828  0.33572259  1
  Cs  Cs26  1  0.67085029  0.66985536  0.66326777  1
  Sn  Sn27  1  0.49941664  0.50036026  0.83303362  1
  Sn  Sn28  1  0.49953790  0.16701083  0.50016223  1
  Sn  Sn29  1  0.49969816  0.83372505  0.83389696  1
  Sn  Sn30  1  0.83429052  0.16626302  0.50004941  1
  Sn  Sn31  1  0.49945175  0.16590124  0.16645578  1
  Sn  Sn32  1  0.49924908  0.50051878  0.16671407  1
  Sn  Sn33  1  0.49913291  0.49970162  0.50023949  1
  Sn  Sn34  1  0.16719382  0.16671707  0.83344850  1
  Sn  Sn35  1  0.49908310  0.16611829  0.83334549  1
  Sn  Sn36  1  0.16693386  0.83380899  0.83360199  1
  Sn  Sn37  1  0.16677195  0.83333975  0.50018170  1
  Sn  Sn38  1  0.16644690  0.16629043  0.50055278  1
  Sn  Sn39  1  0.49939334  0.83365732  0.16588918  1
  Sn  Sn40  1  0.16704643  0.83303682  0.16622470  1
  Pb  Pb41  1  0.82998805  0.49692938  0.50008715  1
  Pb  Pb42  1  0.49863162  0.83368071  0.50032475  1
  Pb  Pb43  1  0.82966949  0.49965193  0.83319759  1
  Pb  Pb44  1  0.82956936  0.49993455  0.16674535  1
  Pb  Pb45  1  0.83038671  0.16641770  0.16938970  1
  Pb  Pb46  1  0.16857144  0.49952612  0.83351354  1
  Pb  Pb47  1  0.83348050  0.83360510  0.16673202  1
  Pb  Pb48  1  0.16916015  0.49944243  0.49997884  1
  Pb  Pb49  1  0.16853181  0.16523345  0.16589457  1
  Pb  Pb50  1  0.83773109  0.83608006  0.50023473  1
  Pb  Pb51  1  0.16918615  0.50333404  0.16649751  1
  Pb  Pb52  1  0.83421222  0.83369626  0.83305876  1
  Pb  Pb53  1  0.83429355  0.16661254  0.83132150  1
  I  I54  1  0.17456336  -0.00300543  0.16798810  1
  I  I55  1  0.17034879  0.00097913  0.50063279  1
  I  I56  1  0.17598879  -0.00004164  0.83069038  1
  I  I57  1  0.16815855  0.33330275  0.16796461  1
  I  I58  1  0.16634342  0.32932190  0.50571136  1
  I  I59  1  0.17318660  0.32957187  0.82501476  1
  I  I60  1  0.17476042  0.67174479  0.16667231  1
  I  I61  1  0.17135164  0.66963266  0.50069689  1
  I  I62  1  0.17277961  0.67011299  0.83257955  1
  I  I63  1  0.49647224  -0.00018748  0.16527834  1
  I  I64  1  0.50152435  0.00328774  0.49927244  1
  I  I65  1  0.49673129  0.00036008  0.83539539  1
  I  I66  1  0.50156827  0.33289314  0.16526882  1
  I  I67  1  0.49898744  0.33168125  0.49958494  1
  I  I68  1  0.49722606  0.33233538  0.83490589  1
  I  I69  1  0.49560151  0.66726130  0.16388680  1
  I  I70  1  0.49711184  0.66457520  0.49985194  1
  I  I71  1  0.49586883  0.66740492  0.83618083  1
  I  I72  1  0.82886507  0.00008549  0.16713373  1
  I  I73  1  0.82355114  0.00363407  0.50014410  1
  I  I74  1  0.82622699  0.00017942  0.83288458  1
  I  I75  1  0.83331039  0.33316359  0.16696084  1
  I  I76  1  0.83701916  0.32924502  0.50096209  1
  I  I77  1  0.83293978  0.33305258  0.83218594  1
  I  I78  1  0.83178107  0.66674182  0.16815029  1
  I  I79  1  0.83256417  0.66648083  0.49950863  1
  I  I80  1  0.83345477  0.66667039  0.83228671  1
  I  I81  1  0.17448408  0.16178439  -0.00326143  1
  I  I82  1  0.16894538  0.16189644  0.33614527  1
  I  I83  1  0.17320694  0.15782255  0.66626312  1
  I  I84  1  0.17039618  0.49804360  -0.00003880  1
  I  I85  1  0.17098888  0.49954792  0.33334474  1
  I  I86  1  0.17022517  0.50502780  0.66670038  1
  I  I87  1  0.17452458  0.83824470  -0.00077510  1
  I  I88  1  0.17348521  0.83884034  0.33333417  1
  I  I89  1  0.17314013  0.83926777  0.66727520  1
  I  I90  1  0.49555493  0.16938345  -0.00071211  1
  I  I91  1  0.50035050  0.16973408  0.33395476  1
  I  I92  1  0.50020840  0.16965643  0.66652996  1
  I  I93  1  0.49933644  0.49729858  -0.00015254  1
  I  I94  1  0.49933316  0.49588908  0.33331109  1
  I  I95  1  0.49927721  0.49592822  0.66689981  1
  I  I96  1  0.49350254  0.83293225  -0.00027991  1
  I  I97  1  0.49597349  0.83340326  0.33096532  1
  I  I98  1  0.49622129  0.83295744  0.66949973  1
  I  I99  1  0.83257112  0.16681093  0.00007046  1
  I  I100  1  0.83320120  0.16595363  0.33740540  1
  I  I101  1  0.82600314  0.16623767  0.66353872  1
  I  I102  1  0.83280063  0.49951273  0.00006707  1
  I  I103  1  0.83117555  0.49985389  0.33357664  1
  I  I104  1  0.83142362  0.50053734  0.66636420  1
  I  I105  1  0.83520359  0.83386674  -0.00004284  1
  I  I106  1  0.83017082  0.83413824  0.33352761  1
  I  I107  1  0.82853688  0.83368421  0.66653129  1
  I  I108  1  0.00023589  0.16384224  0.16665504  1
  I  I109  1  0.00159081  0.15889077  0.50598241  1
  I  I110  1  0.00413782  0.15842641  0.82731947  1
  I  I111  1  -0.00005185  0.50099076  0.16714907  1
  I  I112  1  -0.00004386  0.50055105  0.49982087  1
  I  I113  1  0.00008492  0.50072021  0.83274700  1
  I  I114  1  0.00372079  0.83656006  0.16608626  1
  I  I115  1  0.00588511  0.83932915  0.50018609  1
  I  I116  1  0.00450128  0.84085055  0.83418546  1
  I  I117  1  0.33753391  0.16892895  0.17167172  1
  I  I118  1  0.33417344  0.16679574  0.50070770  1
  I  I119  1  0.33508678  0.16559495  0.82818079  1
  I  I120  1  0.33806337  0.49683768  0.16683917  1
  I  I121  1  0.33755168  0.49319592  0.49995137  1
  I  I122  1  0.33768706  0.49974726  0.83324735  1
  I  I123  1  0.33480385  0.83337509  0.16598679  1
  I  I124  1  0.33065650  0.83889454  0.49983534  1
  I  I125  1  0.33441274  0.83414446  0.83409767  1
  I  I126  1  0.66103804  0.16521448  0.16515412  1
  I  I127  1  0.66443148  0.17224155  0.49945122  1
  I  I128  1  0.66272008  0.16723367  0.83308145  1
  I  I129  1  0.66076767  0.50223455  0.16669535  1
  I  I130  1  0.66146623  0.49584836  0.49978523  1
  I  I131  1  0.66054886  0.49886896  0.83384894  1
  I  I132  1  0.66235074  0.83239770  0.16217882  1
  I  I133  1  0.66658084  0.83298796  0.49936363  1
  I  I134  1  0.66260567  0.83332516  0.83849592  1
