# generated using pymatgen
data_Cs27Sn14Pb13I81
_symmetry_space_group_name_H-M   'P 1'
_cell_length_a   18.96942940
_cell_length_b   18.98314529
_cell_length_c   18.97477613
_cell_angle_alpha   90.00050640
_cell_angle_beta   90.00155570
_cell_angle_gamma   89.99955460
_symmetry_Int_Tables_number   1
_chemical_formula_structural   Cs27Sn14Pb13I81
_chemical_formula_sum   'Cs27 Sn14 Pb13 I81'
_cell_volume   6832.80614830
_cell_formula_units_Z   1
loop_
 _symmetry_equiv_pos_site_id
 _symmetry_equiv_pos_as_xyz
  1  'x, y, z'
loop_
 _atom_site_type_symbol
 _atom_site_label
 _atom_site_symmetry_multiplicity
 _atom_site_fract_x
 _atom_site_fract_y
 _atom_site_fract_z
 _atom_site_occupancy
  Cs  Cs0  1  0.00085363  -0.00118873  -0.00964123  1
  Cs  Cs1  1  0.00117951  -0.00257051  0.33285050  1
  Cs  Cs2  1  0.00003925  -0.00016283  0.67449681  1
  Cs  Cs3  1  -0.00118150  0.33252137  -0.00033175  1
  Cs  Cs4  1  0.00263368  0.33280669  0.33347713  1
  Cs  Cs5  1  -0.00427512  0.33198629  0.66721492  1
  Cs  Cs6  1  -0.00136285  0.66948098  0.00173902  1
  Cs  Cs7  1  0.00094699  0.66856658  0.33120716  1
  Cs  Cs8  1  -0.00457751  0.66716172  0.66677558  1
  Cs  Cs9  1  0.33335027  -0.00141434  -0.00260189  1
  Cs  Cs10  1  0.33268780  0.00087902  0.33521060  1
  Cs  Cs11  1  0.33417564  0.00084818  0.66766962  1
  Cs  Cs12  1  0.33460119  0.33549322  -0.00049772  1
  Cs  Cs13  1  0.33076366  0.33297642  0.33296868  1
  Cs  Cs14  1  0.33214244  0.33485815  0.66905975  1
  Cs  Cs15  1  0.33408397  0.66536771  0.00112004  1
  Cs  Cs16  1  0.33245380  0.66670808  0.33245008  1
  Cs  Cs17  1  0.33615701  0.66417036  0.66546340  1
  Cs  Cs18  1  0.66600360  0.00161454  0.00172223  1
  Cs  Cs19  1  0.66667943  0.00513698  0.33348024  1
  Cs  Cs20  1  0.66590706  -0.00066560  0.66439627  1
  Cs  Cs21  1  0.66487430  0.33196391  0.00229716  1
  Cs  Cs22  1  0.66907112  0.32412093  0.33722804  1
  Cs  Cs23  1  0.67552501  0.33463860  0.65899868  1
  Cs  Cs24  1  0.66514118  0.66672246  0.00044875  1
  Cs  Cs25  1  0.66803010  0.66767540  0.33283093  1
  Cs  Cs26  1  0.66772818  0.66542189  0.66500073  1
  Sn  Sn27  1  0.16661487  0.49932879  0.16633418  1
  Sn  Sn28  1  0.83251996  0.83283575  0.16733440  1
  Sn  Sn29  1  0.16670390  0.16700059  0.16661670  1
  Sn  Sn30  1  0.83292398  0.50029233  0.16686584  1
  Sn  Sn31  1  0.49999814  0.83287612  0.83419955  1
  Sn  Sn32  1  0.16586269  0.83316787  0.50013145  1
  Sn  Sn33  1  0.50022976  0.16762585  0.83307148  1
  Sn  Sn34  1  0.50052469  0.50036188  0.16669782  1
  Sn  Sn35  1  0.83426969  0.83320900  0.49895593  1
  Sn  Sn36  1  0.16673227  0.50014072  0.50016258  1
  Sn  Sn37  1  0.16671451  0.16664172  0.49961605  1
  Sn  Sn38  1  0.50068312  0.83271744  0.16627650  1
  Sn  Sn39  1  0.49964383  0.49969505  0.83376456  1
  Sn  Sn40  1  0.16676471  0.50042283  0.83366689  1
  Pb  Pb41  1  0.49765182  0.16674197  0.16536795  1
  Pb  Pb42  1  0.83272883  0.50005617  0.83603302  1
  Pb  Pb43  1  0.16812933  0.16908194  0.83342376  1
  Pb  Pb44  1  0.49848458  0.49983913  0.49925635  1
  Pb  Pb45  1  0.50020752  0.83316351  0.49917070  1
  Pb  Pb46  1  0.83631650  0.16597158  0.16649928  1
  Pb  Pb47  1  0.82988369  0.16692029  0.83354311  1
  Pb  Pb48  1  0.83660693  0.16349624  0.49983269  1
  Pb  Pb49  1  0.83036924  0.83312506  0.83383159  1
  Pb  Pb50  1  0.16912675  0.83037597  0.83036884  1
  Pb  Pb51  1  0.83608146  0.50197443  0.49700736  1
  Pb  Pb52  1  0.49751214  0.16693623  0.50268993  1
  Pb  Pb53  1  0.16691063  0.83339352  0.16773026  1
  I  I54  1  0.16785789  0.00199626  0.17282644  1
  I  I55  1  0.16406161  -0.00008533  0.49348414  1
  I  I56  1  0.16866798  -0.00015919  0.83328515  1
  I  I57  1  0.16739112  0.33547178  0.17139890  1
  I  I58  1  0.17005480  0.33408852  0.49824178  1
  I  I59  1  0.17344782  0.33702037  0.83042258  1
  I  I60  1  0.16732435  0.66359748  0.16749431  1
  I  I61  1  0.16401877  0.66618563  0.49902793  1
  I  I62  1  0.17253224  0.66248645  0.83618310  1
  I  I63  1  0.50283142  -0.00286860  0.16286679  1
  I  I64  1  0.49654929  -0.00021409  0.50070290  1
  I  I65  1  0.50015372  -0.00070983  0.83706041  1
  I  I66  1  0.50073573  0.33666970  0.16196703  1
  I  I67  1  0.49804630  0.33346155  0.49950060  1
  I  I68  1  0.49303229  0.33499396  0.83878842  1
  I  I69  1  0.49770367  0.66601240  0.15932565  1
  I  I70  1  0.49581268  0.66667889  0.50497320  1
  I  I71  1  0.49529639  0.66593259  0.83780216  1
  I  I72  1  0.82842847  -0.00365706  0.17130954  1
  I  I73  1  0.83715095  -0.00433424  0.49279357  1
  I  I74  1  0.83360832  -0.00034565  0.83545685  1
  I  I75  1  0.83114230  0.33641962  0.16474768  1
  I  I76  1  0.83314016  0.33337352  0.49976011  1
  I  I77  1  0.83253266  0.33376860  0.83458347  1
  I  I78  1  0.83507761  0.66660872  0.17004533  1
  I  I79  1  0.83927003  0.66976559  0.49853133  1
  I  I80  1  0.83291004  0.66666579  0.83049021  1
  I  I81  1  0.16792757  0.17155114  0.00249659  1
  I  I82  1  0.16775356  0.17220103  0.33342399  1
  I  I83  1  0.16899463  0.16682265  0.66399064  1
  I  I84  1  0.16833529  0.49483643  0.00118059  1
  I  I85  1  0.16695338  0.49953050  0.33259763  1
  I  I86  1  0.17357898  0.50088664  0.66667565  1
  I  I87  1  0.16402787  0.83465668  -0.00022802  1
  I  I88  1  0.16825370  0.82903420  0.33588961  1
  I  I89  1  0.16216885  0.83478134  0.66232538  1
  I  I90  1  0.49554621  0.16659151  -0.00258759  1
  I  I91  1  0.50034196  0.16596123  0.33322639  1
  I  I92  1  0.49645944  0.16522593  0.67086547  1
  I  I93  1  0.49440095  0.50119616  0.00051936  1
  I  I94  1  0.49771679  0.50698124  0.32930586  1
  I  I95  1  0.49342556  0.50169451  0.66994800  1
  I  I96  1  0.50460979  0.83215614  0.00087127  1
  I  I97  1  0.49979241  0.82706439  0.32990753  1
  I  I98  1  0.49806751  0.83261613  0.66937938  1
  I  I99  1  0.83849334  0.16388502  0.00037442  1
  I  I100  1  0.82955648  0.16884700  0.33316621  1
  I  I101  1  0.83545698  0.16540987  0.66643299  1
  I  I102  1  0.83875391  0.50704773  0.00416418  1
  I  I103  1  0.83255920  0.50272229  0.32893342  1
  I  I104  1  0.83321028  0.50107684  0.66634693  1
  I  I105  1  0.83177808  0.82895783  0.00348634  1
  I  I106  1  0.83206827  0.82821353  0.33224061  1
  I  I107  1  0.83743365  0.83458021  0.66401399  1
  I  I108  1  0.00436863  0.17174954  0.17108021  1
  I  I109  1  0.00470177  0.17118326  0.49597755  1
  I  I110  1  0.00042545  0.16731083  0.83310255  1
  I  I111  1  0.00105781  0.50062192  0.16764983  1
  I  I112  1  0.00468335  0.49769110  0.50095118  1
  I  I113  1  0.00306330  0.49906076  0.83334956  1
  I  I114  1  -0.00214240  0.82943670  0.17088700  1
  I  I115  1  0.00074673  0.83218718  0.49250825  1
  I  I116  1  0.00015994  0.83297115  0.83548307  1
  I  I117  1  0.32978085  0.17091836  0.17051439  1
  I  I118  1  0.32909986  0.16357280  0.49545001  1
  I  I119  1  0.33601619  0.16450319  0.83326756  1
  I  I120  1  0.33303199  0.50065407  0.16592935  1
  I  I121  1  0.32938970  0.50337456  0.49575478  1
  I  I122  1  0.33364197  0.50036724  0.83754995  1
  I  I123  1  0.33592819  0.83005822  0.16419452  1
  I  I124  1  0.33030837  0.83312850  0.49988689  1
  I  I125  1  0.33701255  0.83489232  0.83899080  1
  I  I126  1  0.66647967  0.16913769  0.16439290  1
  I  I127  1  0.66697317  0.16510749  0.50178767  1
  I  I128  1  0.66160658  0.16861182  0.83609623  1
  I  I129  1  0.66566221  0.50658244  0.15957625  1
  I  I130  1  0.66715996  0.50275555  0.50196104  1
  I  I131  1  0.66274746  0.50104462  0.83840724  1
  I  I132  1  0.66627297  0.82512905  0.16794737  1
  I  I133  1  0.66931025  0.83233928  0.49969172  1
  I  I134  1  0.66224277  0.82974927  0.83211332  1
