# generated using pymatgen
data_Cs27Sn13Pb14I81
_symmetry_space_group_name_H-M   'P 1'
_cell_length_a   18.97909793
_cell_length_b   18.97583367
_cell_length_c   18.97475728
_cell_angle_alpha   89.99861977
_cell_angle_beta   89.99820678
_cell_angle_gamma   89.99963272
_symmetry_Int_Tables_number   1
_chemical_formula_structural   Cs27Sn13Pb14I81
_chemical_formula_sum   'Cs27 Sn13 Pb14 I81'
_cell_volume   6833.64887915
_cell_formula_units_Z   1
loop_
 _symmetry_equiv_pos_site_id
 _symmetry_equiv_pos_as_xyz
  1  'x, y, z'
loop_
 _atom_site_type_symbol
 _atom_site_label
 _atom_site_symmetry_multiplicity
 _atom_site_fract_x
 _atom_site_fract_y
 _atom_site_fract_z
 _atom_site_occupancy
  Cs  Cs0  1  -0.00194633  0.00262979  -0.00337993  1
  Cs  Cs1  1  -0.00161854  -0.00271369  0.33148962  1
  Cs  Cs2  1  -0.00402559  0.00065101  0.67500658  1
  Cs  Cs3  1  0.00261260  0.32780242  -0.00345041  1
  Cs  Cs4  1  -0.00000491  0.33428254  0.33716379  1
  Cs  Cs5  1  0.00740887  0.33610960  0.66725825  1
  Cs  Cs6  1  0.00353401  0.66848120  0.00018538  1
  Cs  Cs7  1  -0.00147298  0.66799351  0.33383322  1
  Cs  Cs8  1  0.00403778  0.66361059  0.66562201  1
  Cs  Cs9  1  0.33194332  0.00012422  0.00156594  1
  Cs  Cs10  1  0.33320526  0.00119769  0.33422948  1
  Cs  Cs11  1  0.33803694  -0.00210264  0.66171727  1
  Cs  Cs12  1  0.33533529  0.33312459  0.00055767  1
  Cs  Cs13  1  0.33198774  0.32904147  0.33570499  1
  Cs  Cs14  1  0.33008712  0.33418880  0.66324158  1
  Cs  Cs15  1  0.33221431  0.66705922  0.00065452  1
  Cs  Cs16  1  0.33241838  0.66893956  0.32952540  1
  Cs  Cs17  1  0.33434014  0.66704582  0.67021441  1
  Cs  Cs18  1  0.66827738  0.00155818  -0.00048500  1
  Cs  Cs19  1  0.66764389  -0.00025520  0.33415571  1
  Cs  Cs20  1  0.66592108  -0.00109911  0.66629312  1
  Cs  Cs21  1  0.66509811  0.33481240  -0.00046175  1
  Cs  Cs22  1  0.66815807  0.33558299  0.33223321  1
  Cs  Cs23  1  0.66608439  0.33428088  0.66887136  1
  Cs  Cs24  1  0.66543022  0.66371519  0.00080702  1
  Cs  Cs25  1  0.66953377  0.66439102  0.33141221  1
  Cs  Cs26  1  0.66393222  0.66612056  0.66861184  1
  Sn  Sn27  1  0.16641801  0.49998736  0.16690850  1
  Sn  Sn28  1  0.83324377  0.16627233  0.49956345  1
  Sn  Sn29  1  0.50024652  0.50012612  0.50032138  1
  Sn  Sn30  1  0.83319340  0.83389426  0.16707687  1
  Sn  Sn31  1  0.50004663  0.16717865  0.83369325  1
  Sn  Sn32  1  0.50069830  0.49902638  0.83242910  1
  Sn  Sn33  1  0.16624591  0.83271508  0.16737050  1
  Sn  Sn34  1  0.50101416  0.16581214  0.16607989  1
  Sn  Sn35  1  0.83315981  0.50018311  0.83345380  1
  Sn  Sn36  1  0.83418489  0.83396969  0.49956350  1
  Sn  Sn37  1  0.50046775  0.83418505  0.16664666  1
  Sn  Sn38  1  0.16571349  0.83362199  0.49935539  1
  Sn  Sn39  1  0.83243339  0.16616869  0.16757772  1
  Pb  Pb40  1  0.16624586  0.16581139  0.16680583  1
  Pb  Pb41  1  0.49846706  0.49938799  0.16643405  1
  Pb  Pb42  1  0.83150606  0.16871323  0.83325666  1
  Pb  Pb43  1  0.17060102  0.16642950  0.83295857  1
  Pb  Pb44  1  0.50063143  0.83140594  0.49749655  1
  Pb  Pb45  1  0.83206093  0.50035189  0.50197970  1
  Pb  Pb46  1  0.16333926  0.16338107  0.49984033  1
  Pb  Pb47  1  0.16668703  0.83360821  0.83315997  1
  Pb  Pb48  1  0.83325521  0.83091468  0.83330317  1
  Pb  Pb49  1  0.50013791  0.83341694  0.83610639  1
  Pb  Pb50  1  0.50212030  0.16843792  0.49951388  1
  Pb  Pb51  1  0.83560838  0.49953290  0.16481319  1
  Pb  Pb52  1  0.16914447  0.50242574  0.49762084  1
  Pb  Pb53  1  0.16751367  0.50001095  0.83560133  1
  I  I54  1  0.16794631  -0.00360987  0.17077634  1
  I  I55  1  0.16897308  -0.00450915  0.49075207  1
  I  I56  1  0.16608903  -0.00003999  0.83702334  1
  I  I57  1  0.16817252  0.33531696  0.16434837  1
  I  I58  1  0.16620145  0.33342910  0.49874350  1
  I  I59  1  0.16336440  0.33353187  0.83638679  1
  I  I60  1  0.16780294  0.66856043  0.16912641  1
  I  I61  1  0.15952399  0.67022288  0.49682284  1
  I  I62  1  0.16903061  0.66659706  0.83337051  1
  I  I63  1  0.49866353  0.00017009  0.16188644  1
  I  I64  1  0.49785904  -0.00012293  0.50289231  1
  I  I65  1  0.50018233  0.00299816  0.83613924  1
  I  I66  1  0.50318482  0.33053779  0.16543140  1
  I  I67  1  0.50231029  0.33620782  0.49880853  1
  I  I68  1  0.50489548  0.33374981  0.83704388  1
  I  I69  1  0.50169504  0.66909297  0.16739949  1
  I  I70  1  0.50167226  0.66374509  0.50468133  1
  I  I71  1  0.50297043  0.66357968  0.83095177  1
  I  I72  1  0.83384531  -0.00061856  0.16959348  1
  I  I73  1  0.83551029  -0.00076890  0.49532364  1
  I  I74  1  0.83213396  0.00018496  0.83337640  1
  I  I75  1  0.82895255  0.33023963  0.16938703  1
  I  I76  1  0.82905610  0.33087887  0.49532233  1
  I  I77  1  0.82977064  0.33626309  0.83474708  1
  I  I78  1  0.83083365  0.66976740  0.16985064  1
  I  I79  1  0.83552910  0.66987530  0.49537925  1
  I  I80  1  0.82579515  0.66327715  0.83420856  1
  I  I81  1  0.16190591  0.16498560  0.00035341  1
  I  I82  1  0.17317735  0.17054053  0.33314508  1
  I  I83  1  0.16570512  0.16603127  0.66628885  1
  I  I84  1  0.16861263  0.50761494  0.00340033  1
  I  I85  1  0.16820469  0.50248674  0.32990833  1
  I  I86  1  0.16556311  0.50166730  0.66650524  1
  I  I87  1  0.16686200  0.82911074  0.00396426  1
  I  I88  1  0.16590145  0.82872951  0.33178292  1
  I  I89  1  0.16160957  0.83344089  0.66302768  1
  I  I90  1  0.50554185  0.16895734  0.00131343  1
  I  I91  1  0.50136477  0.16457134  0.33015714  1
  I  I92  1  0.50163023  0.17002758  0.66893815  1
  I  I93  1  0.50219388  0.49910237  -0.00231735  1
  I  I94  1  0.49864911  0.50097206  0.33489279  1
  I  I95  1  0.50402208  0.49574504  0.66780895  1
  I  I96  1  0.49996871  0.83170291  0.00464749  1
  I  I97  1  0.49935289  0.83682221  0.32929390  1
  I  I98  1  0.49908647  0.83475196  0.66641161  1
  I  I99  1  0.83189397  0.16298117  0.00303550  1
  I  I100  1  0.82721329  0.16330423  0.33204272  1
  I  I101  1  0.83146996  0.16189782  0.66409286  1
  I  I102  1  0.82575805  0.50014366  -0.00268030  1
  I  I103  1  0.83172697  0.49984982  0.33326292  1
  I  I104  1  0.83025666  0.49998391  0.66972035  1
  I  I105  1  0.83405162  0.83683435  0.00371529  1
  I  I106  1  0.83383347  0.83620079  0.33220636  1
  I  I107  1  0.83791199  0.83697154  0.66319514  1
  I  I108  1  -0.00345952  0.16432465  0.17014853  1
  I  I109  1  -0.00475362  0.16780036  0.49221023  1
  I  I110  1  -0.00041711  0.16865044  0.83442472  1
  I  I111  1  0.00300609  0.50530486  0.16534563  1
  I  I112  1  0.00001793  0.49814469  0.50164484  1
  I  I113  1  -0.00219404  0.50090510  0.83497595  1
  I  I114  1  -0.00056294  0.83222922  0.17079708  1
  I  I115  1  -0.00090433  0.83546999  0.49049539  1
  I  I116  1  -0.00026042  0.83104622  0.83793051  1
  I  I117  1  0.33633592  0.16458258  0.16178877  1
  I  I118  1  0.33356090  0.16688249  0.50046816  1
  I  I119  1  0.33876576  0.17354830  0.84116452  1
  I  I120  1  0.33094645  0.50571158  0.16520363  1
  I  I121  1  0.33688521  0.50041671  0.50613146  1
  I  I122  1  0.33690277  0.49614795  0.83089451  1
  I  I123  1  0.33325499  0.83230935  0.16937971  1
  I  I124  1  0.33134321  0.83022793  0.49525369  1
  I  I125  1  0.33363436  0.83134364  0.83370848  1
  I  I126  1  0.66664419  0.15957014  0.16624376  1
  I  I127  1  0.66986501  0.15981598  0.49826965  1
  I  I128  1  0.66363954  0.16965438  0.83630379  1
  I  I129  1  0.66664957  0.50292654  0.16724038  1
  I  I130  1  0.66412800  0.50218192  0.50035546  1
  I  I131  1  0.66524061  0.49715746  0.83144323  1
  I  I132  1  0.66727820  0.83725223  0.17014063  1
  I  I133  1  0.66982887  0.83563801  0.49567233  1
  I  I134  1  0.66663520  0.83323114  0.83297094  1
