# generated using pymatgen
data_Cs27Sn14Pb13I81
_symmetry_space_group_name_H-M   'P 1'
_cell_length_a   18.97281457
_cell_length_b   18.97218490
_cell_length_c   18.98164520
_cell_angle_alpha   90.00050307
_cell_angle_beta   90.00045256
_cell_angle_gamma   89.99912966
_symmetry_Int_Tables_number   1
_chemical_formula_structural   Cs27Sn14Pb13I81
_chemical_formula_sum   'Cs27 Sn14 Pb13 I81'
_cell_volume   6832.55225924
_cell_formula_units_Z   1
loop_
 _symmetry_equiv_pos_site_id
 _symmetry_equiv_pos_as_xyz
  1  'x, y, z'
loop_
 _atom_site_type_symbol
 _atom_site_label
 _atom_site_symmetry_multiplicity
 _atom_site_fract_x
 _atom_site_fract_y
 _atom_site_fract_z
 _atom_site_occupancy
  Cs  Cs0  1  -0.00049240  -0.00176402  0.00169055  1
  Cs  Cs1  1  0.00009993  0.00285538  0.33392467  1
  Cs  Cs2  1  0.00167546  -0.00147767  0.66417821  1
  Cs  Cs3  1  0.00155906  0.32875011  0.00017834  1
  Cs  Cs4  1  0.00909778  0.32444060  0.34168611  1
  Cs  Cs5  1  -0.00568440  0.33311314  0.66008435  1
  Cs  Cs6  1  -0.00136964  0.66886288  -0.00034469  1
  Cs  Cs7  1  0.00074310  0.66718628  0.33381459  1
  Cs  Cs8  1  -0.00246596  0.66608339  0.66664390  1
  Cs  Cs9  1  0.33306020  -0.00026419  -0.00588572  1
  Cs  Cs10  1  0.33445394  0.00054664  0.33438833  1
  Cs  Cs11  1  0.33554621  -0.00277142  0.67225099  1
  Cs  Cs12  1  0.33292877  0.33524691  -0.00043128  1
  Cs  Cs13  1  0.33052111  0.33337971  0.33430965  1
  Cs  Cs14  1  0.33276275  0.33323454  0.66740890  1
  Cs  Cs15  1  0.33166407  0.66474990  -0.00086883  1
  Cs  Cs16  1  0.33456963  0.66524719  0.33263045  1
  Cs  Cs17  1  0.33418900  0.66909682  0.66936985  1
  Cs  Cs18  1  0.66714563  0.00389418  0.00038847  1
  Cs  Cs19  1  0.66638220  -0.00189981  0.33216602  1
  Cs  Cs20  1  0.66217756  0.00138240  0.66908689  1
  Cs  Cs21  1  0.66651635  0.33324327  -0.00258245  1
  Cs  Cs22  1  0.66404462  0.33276943  0.33389479  1
  Cs  Cs23  1  0.67238308  0.33368792  0.66923230  1
  Cs  Cs24  1  0.67003440  0.66384048  0.00524066  1
  Cs  Cs25  1  0.66527414  0.66860417  0.33024843  1
  Cs  Cs26  1  0.66784526  0.66575920  0.66422415  1
  Sn  Sn27  1  0.16630084  0.16804633  0.83327003  1
  Sn  Sn28  1  0.49963457  0.83355961  0.16632580  1
  Sn  Sn29  1  0.49959172  0.50027442  0.83335453  1
  Sn  Sn30  1  0.83356122  0.83268100  0.16690857  1
  Sn  Sn31  1  0.16646300  0.49886566  0.83339754  1
  Sn  Sn32  1  0.50001205  0.16762184  0.49952772  1
  Sn  Sn33  1  0.50002150  0.49913841  0.49990573  1
  Sn  Sn34  1  0.83268850  0.83339930  0.83346108  1
  Sn  Sn35  1  0.83385825  0.83320615  0.49962656  1
  Sn  Sn36  1  0.16675600  0.83309248  0.16754449  1
  Sn  Sn37  1  0.50049785  0.49959266  0.16676711  1
  Sn  Sn38  1  0.49981558  0.16702340  0.16719909  1
  Sn  Sn39  1  0.83377421  0.49963860  0.16746118  1
  Sn  Sn40  1  0.16637575  0.83284091  0.49902041  1
  Pb  Pb41  1  0.83138744  0.16728182  0.16689401  1
  Pb  Pb42  1  0.16938174  0.16410282  0.50223120  1
  Pb  Pb43  1  0.83617125  0.16420296  0.83334212  1
  Pb  Pb44  1  0.83358034  0.50145082  0.83543294  1
  Pb  Pb45  1  0.16887650  0.50227482  0.50234501  1
  Pb  Pb46  1  0.49880677  0.16919598  0.83339975  1
  Pb  Pb47  1  0.16491659  0.83269073  0.83336245  1
  Pb  Pb48  1  0.83123545  0.50185506  0.49666190  1
  Pb  Pb49  1  0.83051047  0.16397600  0.49983963  1
  Pb  Pb50  1  0.50001336  0.83322235  0.49833870  1
  Pb  Pb51  1  0.16619491  0.50157169  0.16533568  1
  Pb  Pb52  1  0.50267734  0.83065767  0.83642376  1
  Pb  Pb53  1  0.16943005  0.16395228  0.16505300  1
  I  I54  1  0.16535811  -0.00452344  0.16716469  1
  I  I55  1  0.16488316  -0.00382758  0.49825391  1
  I  I56  1  0.16576415  0.00127075  0.83360785  1
  I  I57  1  0.16642708  0.33322258  0.16575565  1
  I  I58  1  0.16616573  0.33333131  0.49941745  1
  I  I59  1  0.17340872  0.33423521  0.83568622  1
  I  I60  1  0.17116097  0.67015354  0.16677278  1
  I  I61  1  0.16560045  0.67032161  0.49814356  1
  I  I62  1  0.17089846  0.66446530  0.83395998  1
  I  I63  1  0.50030402  -0.00062295  0.17232664  1
  I  I64  1  0.50026202  0.00179076  0.49469392  1
  I  I65  1  0.49851833  -0.00015910  0.83289523  1
  I  I66  1  0.50528672  0.33458194  0.16644380  1
  I  I67  1  0.49895606  0.33407880  0.49394930  1
  I  I68  1  0.49883412  0.33711257  0.83879167  1
  I  I69  1  0.50120955  0.66652620  0.16693024  1
  I  I70  1  0.50010760  0.66422722  0.49916955  1
  I  I71  1  0.49236656  0.66285431  0.83182292  1
  I  I72  1  0.83209942  -0.00373162  0.16632139  1
  I  I73  1  0.83522332  -0.00461797  0.49647642  1
  I  I74  1  0.83459099  -0.00427016  0.83728076  1
  I  I75  1  0.82557324  0.33669537  0.16309290  1
  I  I76  1  0.83405426  0.33355627  0.49937171  1
  I  I77  1  0.83128485  0.33360917  0.83593406  1
  I  I78  1  0.82724775  0.66837868  0.16625135  1
  I  I79  1  0.83422164  0.67029286  0.50154828  1
  I  I80  1  0.83548583  0.66967796  0.83305300  1
  I  I81  1  0.16976392  0.16750255  -0.00267943  1
  I  I82  1  0.16607889  0.16652824  0.33344947  1
  I  I83  1  0.17029565  0.16705680  0.66977117  1
  I  I84  1  0.17345001  0.50040335  -0.00262285  1
  I  I85  1  0.16778689  0.50102216  0.33341799  1
  I  I86  1  0.17292742  0.50016820  0.67036114  1
  I  I87  1  0.16659688  0.83315624  0.00259601  1
  I  I88  1  0.16283960  0.83286092  0.33239170  1
  I  I89  1  0.16241245  0.83356065  0.66458320  1
  I  I90  1  0.49899281  0.16553824  0.00281123  1
  I  I91  1  0.50011142  0.17019420  0.33234320  1
  I  I92  1  0.49824850  0.16896103  0.66425520  1
  I  I93  1  0.49976773  0.50140421  0.00115640  1
  I  I94  1  0.50500781  0.50095680  0.33213150  1
  I  I95  1  0.49475442  0.49636294  0.66662963  1
  I  I96  1  0.49802968  0.83459784  0.00470795  1
  I  I97  1  0.50363110  0.82935520  0.33006251  1
  I  I98  1  0.49975479  0.83393500  0.66686602  1
  I  I99  1  0.83051547  0.16281000  0.00015952  1
  I  I100  1  0.83538310  0.16376549  0.33327588  1
  I  I101  1  0.82982377  0.16436562  0.66661066  1
  I  I102  1  0.82565803  0.50912855  0.00329359  1
  I  I103  1  0.82580256  0.50865140  0.32885387  1
  I  I104  1  0.83141925  0.50354784  0.66642611  1
  I  I105  1  0.83375630  0.82937539  0.00168371  1
  I  I106  1  0.83274800  0.82955307  0.33208490  1
  I  I107  1  0.83963369  0.83345214  0.66612986  1
  I  I108  1  0.00040101  0.16594911  0.16421625  1
  I  I109  1  0.00032320  0.16696238  0.50147506  1
  I  I110  1  0.00402813  0.17311641  0.83437383  1
  I  I111  1  -0.00267509  0.50927558  0.16190801  1
  I  I112  1  -0.00006611  0.50045949  0.50094683  1
  I  I113  1  0.00250756  0.49969323  0.83648595  1
  I  I114  1  -0.00090379  0.82788677  0.16582972  1
  I  I115  1  -0.00029099  0.83301952  0.49564891  1
  I  I116  1  -0.00272182  0.83150948  0.83853945  1
  I  I117  1  0.33768477  0.16777430  0.17001627  1
  I  I118  1  0.33708055  0.16805020  0.49501110  1
  I  I119  1  0.33105028  0.16501176  0.83387965  1
  I  I120  1  0.33672582  0.50202939  0.16744220  1
  I  I121  1  0.33723960  0.49971684  0.49383624  1
  I  I122  1  0.33434382  0.49813182  0.83634493  1
  I  I123  1  0.33383119  0.83262936  0.17171767  1
  I  I124  1  0.33138841  0.83329643  0.49553809  1
  I  I125  1  0.33354897  0.83483644  0.83317883  1
  I  I126  1  0.66269255  0.16128942  0.16891165  1
  I  I127  1  0.66241059  0.16802079  0.49657554  1
  I  I128  1  0.66646800  0.16603325  0.83334746  1
  I  I129  1  0.66480313  0.50637300  0.16461393  1
  I  I130  1  0.66274984  0.49919919  0.50479234  1
  I  I131  1  0.66380326  0.50246109  0.83278600  1
  I  I132  1  0.66665993  0.83205002  0.16710071  1
  I  I133  1  0.66896786  0.83301814  0.49875552  1
  I  I134  1  0.67027104  0.83214976  0.83150485  1
