# generated using pymatgen
data_Cs27Sn13Pb14I81
_symmetry_space_group_name_H-M   'P 1'
_cell_length_a   18.98495707
_cell_length_b   18.97614346
_cell_length_c   18.97227211
_cell_angle_alpha   89.99851048
_cell_angle_beta   90.00049050
_cell_angle_gamma   90.00038466
_symmetry_Int_Tables_number   1
_chemical_formula_structural   Cs27Sn13Pb14I81
_chemical_formula_sum   'Cs27 Sn13 Pb14 I81'
_cell_volume   6834.97482159
_cell_formula_units_Z   1
loop_
 _symmetry_equiv_pos_site_id
 _symmetry_equiv_pos_as_xyz
  1  'x, y, z'
loop_
 _atom_site_type_symbol
 _atom_site_label
 _atom_site_symmetry_multiplicity
 _atom_site_fract_x
 _atom_site_fract_y
 _atom_site_fract_z
 _atom_site_occupancy
  Cs  Cs0  1  0.00124215  0.00078304  0.00093641  1
  Cs  Cs1  1  0.00221968  0.00060127  0.33358440  1
  Cs  Cs2  1  -0.00019303  0.00115827  0.66619613  1
  Cs  Cs3  1  -0.00145016  0.33327601  -0.00057172  1
  Cs  Cs4  1  -0.00145184  0.33372044  0.33430111  1
  Cs  Cs5  1  0.00032250  0.33195012  0.66627071  1
  Cs  Cs6  1  -0.00068146  0.66627227  -0.00011549  1
  Cs  Cs7  1  -0.00100971  0.66590151  0.33442782  1
  Cs  Cs8  1  0.00015732  0.66701500  0.66535575  1
  Cs  Cs9  1  0.33163682  -0.00181435  0.00160346  1
  Cs  Cs10  1  0.33294766  0.00176749  0.33206680  1
  Cs  Cs11  1  0.33476419  0.00139353  0.66689662  1
  Cs  Cs12  1  0.33325825  0.33302767  0.00067703  1
  Cs  Cs13  1  0.33664972  0.33349767  0.33516510  1
  Cs  Cs14  1  0.33654154  0.33453455  0.66430698  1
  Cs  Cs15  1  0.33429468  0.66847395  0.00067747  1
  Cs  Cs16  1  0.33127824  0.66577869  0.33666046  1
  Cs  Cs17  1  0.33336699  0.66366611  0.66140662  1
  Cs  Cs18  1  0.66705292  0.00079665  -0.00039602  1
  Cs  Cs19  1  0.66467188  0.00105039  0.33602272  1
  Cs  Cs20  1  0.66376065  -0.00133149  0.66370117  1
  Cs  Cs21  1  0.66749269  0.32860829  -0.00607721  1
  Cs  Cs22  1  0.66840097  0.33162350  0.33230178  1
  Cs  Cs23  1  0.66158601  0.33332605  0.67377779  1
  Cs  Cs24  1  0.66620885  0.66685224  0.00146994  1
  Cs  Cs25  1  0.66924763  0.66694775  0.33000562  1
  Cs  Cs26  1  0.66510012  0.66741301  0.66681676  1
  Sn  Sn27  1  0.83300393  0.50032073  0.16684915  1
  Sn  Sn28  1  0.16656642  0.50007396  0.16612240  1
  Sn  Sn29  1  0.16670479  0.83306333  0.83337002  1
  Sn  Sn30  1  0.16585515  0.16681507  0.50063595  1
  Sn  Sn31  1  0.16636408  0.16675162  0.83267206  1
  Sn  Sn32  1  0.83323547  0.49900789  0.49995060  1
  Sn  Sn33  1  0.83293326  0.83283082  0.16576933  1
  Sn  Sn34  1  0.50068396  0.83236139  0.16594426  1
  Sn  Sn35  1  0.83338725  0.83313523  0.83412689  1
  Sn  Sn36  1  0.83389969  0.16783767  0.50020230  1
  Sn  Sn37  1  0.16645471  0.50021713  0.83388893  1
  Sn  Sn38  1  0.49987024  0.83292476  0.83409074  1
  Sn  Sn39  1  0.50045885  0.50057149  0.16634444  1
  Pb  Pb40  1  0.83338443  0.83328003  0.49942244  1
  Pb  Pb41  1  0.83338328  0.16631487  0.16857098  1
  Pb  Pb42  1  0.16667910  0.83587522  0.50271930  1
  Pb  Pb43  1  0.49740480  0.50221962  0.83560774  1
  Pb  Pb44  1  0.50343250  0.50012763  0.49719477  1
  Pb  Pb45  1  0.49715397  0.16393919  0.83359042  1
  Pb  Pb46  1  0.83520295  0.16388644  0.83106169  1
  Pb  Pb47  1  0.50018503  0.16631158  0.16641701  1
  Pb  Pb48  1  0.50014071  0.16690232  0.50007201  1
  Pb  Pb49  1  0.83496325  0.50179105  0.83355909  1
  Pb  Pb50  1  0.49992307  0.83305388  0.49908477  1
  Pb  Pb51  1  0.16657214  0.16956404  0.16660120  1
  Pb  Pb52  1  0.16649240  0.83124397  0.16508854  1
  Pb  Pb53  1  0.16486947  0.49810273  0.50001707  1
  I  I54  1  0.16688571  -0.00011768  0.16629141  1
  I  I55  1  0.15962693  0.00401526  0.50396163  1
  I  I56  1  0.16669457  -0.00059035  0.82823981  1
  I  I57  1  0.16591989  0.33789924  0.16105745  1
  I  I58  1  0.16376541  0.33036865  0.50561804  1
  I  I59  1  0.16504955  0.33367538  0.83390781  1
  I  I60  1  0.16581345  0.66306330  0.16153056  1
  I  I61  1  0.16528340  0.66629121  0.50113645  1
  I  I62  1  0.16601911  0.66689980  0.83935231  1
  I  I63  1  0.50456314  -0.00411076  0.16301862  1
  I  I64  1  0.50194077  -0.00002594  0.49806230  1
  I  I65  1  0.49875370  -0.00448436  0.83970560  1
  I  I66  1  0.49948744  0.33701892  0.16883690  1
  I  I67  1  0.49775794  0.33365083  0.49766783  1
  I  I68  1  0.49880744  0.33356776  0.83447490  1
  I  I69  1  0.50145061  0.66692003  0.16199444  1
  I  I70  1  0.50039599  0.66645227  0.50334713  1
  I  I71  1  0.49837259  0.67048360  0.83545894  1
  I  I72  1  0.82886164  -0.00366699  0.16367455  1
  I  I73  1  0.83786123  0.00257555  0.50109807  1
  I  I74  1  0.83570121  -0.00430524  0.83816068  1
  I  I75  1  0.83364156  0.33679119  0.16957630  1
  I  I76  1  0.83876056  0.33395163  0.49271418  1
  I  I77  1  0.83585611  0.33334462  0.83575894  1
  I  I78  1  0.83313629  0.66619853  0.16887003  1
  I  I79  1  0.83369184  0.66403267  0.49781156  1
  I  I80  1  0.83637901  0.67004613  0.83261160  1
  I  I81  1  0.16777527  0.16412520  -0.00328819  1
  I  I82  1  0.16264817  0.16817502  0.33617083  1
  I  I83  1  0.16162677  0.16686708  0.66760516  1
  I  I84  1  0.16423662  0.49871279  -0.00005711  1
  I  I85  1  0.16803342  0.49878434  0.33039105  1
  I  I86  1  0.16415755  0.50269449  0.66958124  1
  I  I87  1  0.16631348  0.83797207  -0.00349084  1
  I  I88  1  0.16655753  0.83373672  0.33311485  1
  I  I89  1  0.16571524  0.82761466  0.67173147  1
  I  I90  1  0.49823581  0.16871780  -0.00018593  1
  I  I91  1  0.49639770  0.16346616  0.33330947  1
  I  I92  1  0.50185176  0.16427575  0.66695358  1
  I  I93  1  0.50486057  0.50231863  0.00384120  1
  I  I94  1  0.49334856  0.50701216  0.32877279  1
  I  I95  1  0.49929259  0.50117040  0.66690620  1
  I  I96  1  0.50027157  0.82936858  0.00013298  1
  I  I97  1  0.50633755  0.82989837  0.32907757  1
  I  I98  1  0.50049576  0.83538511  0.67012731  1
  I  I99  1  0.83475343  0.16869241  -0.00029393  1
  I  I100  1  0.84084461  0.16592531  0.33659184  1
  I  I101  1  0.83643977  0.17161968  0.66320574  1
  I  I102  1  0.83298472  0.50357479  0.00323165  1
  I  I103  1  0.83587011  0.50239536  0.33174791  1
  I  I104  1  0.83770081  0.49845560  0.66446251  1
  I  I105  1  0.83336486  0.82759650  0.00042871  1
  I  I106  1  0.82804296  0.83200917  0.32981377  1
  I  I107  1  0.83410760  0.83351852  0.66960198  1
  I  I108  1  0.00007933  0.16569730  0.16508048  1
  I  I109  1  0.00007636  0.17008732  0.50398714  1
  I  I110  1  0.00346829  0.16422294  0.83198180  1
  I  I111  1  -0.00066559  0.50367354  0.16690955  1
  I  I112  1  -0.00287350  0.49904852  0.49401323  1
  I  I113  1  0.00319964  0.50262936  0.83846862  1
  I  I114  1  -0.00284211  0.82928365  0.16294425  1
  I  I115  1  -0.00012689  0.83195653  0.49991381  1
  I  I116  1  0.00022518  0.83341542  0.83690230  1
  I  I117  1  0.33310488  0.16587785  0.16899757  1
  I  I118  1  0.33001275  0.16582496  0.50469925  1
  I  I119  1  0.32871492  0.16560559  0.82689789  1
  I  I120  1  0.33323803  0.50338974  0.16079025  1
  I  I121  1  0.33328194  0.49846534  0.49931691  1
  I  I122  1  0.32913511  0.50135714  0.83783280  1
  I  I123  1  0.33591595  0.82958098  0.16203527  1
  I  I124  1  0.33319966  0.83530522  0.49922475  1
  I  I125  1  0.33304201  0.83458763  0.83803951  1
  I  I126  1  0.66691125  0.17022434  0.16964841  1
  I  I127  1  0.67008740  0.16887974  0.49722288  1
  I  I128  1  0.66676532  0.16589373  0.83180873  1
  I  I129  1  0.66740773  0.50582127  0.17333202  1
  I  I130  1  0.67152285  0.49481738  0.49576786  1
  I  I131  1  0.66664420  0.50142858  0.83257303  1
  I  I132  1  0.66724145  0.82504618  0.15870354  1
  I  I133  1  0.66694288  0.83626157  0.50574939  1
  I  I134  1  0.66692887  0.83277693  0.83729459  1
