# generated using pymatgen
data_Cs27Sn14Pb13I81
_symmetry_space_group_name_H-M   'P 1'
_cell_length_a   18.97185298
_cell_length_b   18.97635228
_cell_length_c   18.97792872
_cell_angle_alpha   89.99839379
_cell_angle_beta   89.99980634
_cell_angle_gamma   90.00140118
_symmetry_Int_Tables_number   1
_chemical_formula_structural   Cs27Sn14Pb13I81
_chemical_formula_sum   'Cs27 Sn14 Pb13 I81'
_cell_volume   6832.36871514
_cell_formula_units_Z   1
loop_
 _symmetry_equiv_pos_site_id
 _symmetry_equiv_pos_as_xyz
  1  'x, y, z'
loop_
 _atom_site_type_symbol
 _atom_site_label
 _atom_site_symmetry_multiplicity
 _atom_site_fract_x
 _atom_site_fract_y
 _atom_site_fract_z
 _atom_site_occupancy
  Cs  Cs0  1  -0.00076658  -0.00211962  0.00360812  1
  Cs  Cs1  1  0.00344620  -0.00053381  0.33337222  1
  Cs  Cs2  1  -0.00244892  0.00124646  0.66218906  1
  Cs  Cs3  1  -0.00004645  0.33656566  -0.00221906  1
  Cs  Cs4  1  -0.00155279  0.33345726  0.33182867  1
  Cs  Cs5  1  0.00136443  0.33375040  0.67170154  1
  Cs  Cs6  1  0.00154177  0.66707642  -0.00380311  1
  Cs  Cs7  1  0.00096957  0.66728939  0.33617943  1
  Cs  Cs8  1  -0.01092076  0.66616536  0.66855146  1
  Cs  Cs9  1  0.33442238  -0.00220379  -0.00097025  1
  Cs  Cs10  1  0.32955423  -0.00258052  0.33464102  1
  Cs  Cs11  1  0.33277354  0.00263239  0.66596773  1
  Cs  Cs12  1  0.33371222  0.33151848  -0.00376429  1
  Cs  Cs13  1  0.33368187  0.33789253  0.33402833  1
  Cs  Cs14  1  0.33216506  0.33329599  0.66831651  1
  Cs  Cs15  1  0.33273811  0.66833888  0.00068671  1
  Cs  Cs16  1  0.33379848  0.66639759  0.33275058  1
  Cs  Cs17  1  0.33561489  0.66523420  0.66692359  1
  Cs  Cs18  1  0.66700917  0.00181698  -0.00063961  1
  Cs  Cs19  1  0.66652310  0.00226747  0.33285706  1
  Cs  Cs20  1  0.66725001  0.00144811  0.66777045  1
  Cs  Cs21  1  0.66667495  0.32855892  0.01136730  1
  Cs  Cs22  1  0.66920089  0.33325377  0.32890651  1
  Cs  Cs23  1  0.66582404  0.33067640  0.66417676  1
  Cs  Cs24  1  0.66708868  0.66694250  -0.00160550  1
  Cs  Cs25  1  0.66523846  0.66265510  0.33489190  1
  Cs  Cs26  1  0.66891668  0.66691043  0.66652175  1
  Sn  Sn27  1  0.16696819  0.50050589  0.49994687  1
  Sn  Sn28  1  0.49935343  0.49993533  0.50083116  1
  Sn  Sn29  1  0.50036535  0.83334049  0.16668161  1
  Sn  Sn30  1  0.16710643  0.50021936  0.16718611  1
  Sn  Sn31  1  0.83327110  0.83283330  0.16704447  1
  Sn  Sn32  1  0.16659192  0.83300948  0.16607073  1
  Sn  Sn33  1  0.83300643  0.16670463  0.50067796  1
  Sn  Sn34  1  0.50037764  0.50024132  0.83298991  1
  Sn  Sn35  1  0.49920218  0.83270372  0.83305013  1
  Sn  Sn36  1  0.83324685  0.16672197  0.83308272  1
  Sn  Sn37  1  0.49982201  0.83338363  0.50026601  1
  Sn  Sn38  1  0.50027887  0.16681941  0.49977922  1
  Sn  Sn39  1  0.16724772  0.16688073  0.16644715  1
  Sn  Sn40  1  0.16704425  0.83346391  0.83301193  1
  Pb  Pb41  1  0.83640911  0.50303442  0.16663662  1
  Pb  Pb42  1  0.16461243  0.16385933  0.83546736  1
  Pb  Pb43  1  0.83296111  0.49748527  0.50007212  1
  Pb  Pb44  1  0.83288987  0.83491187  0.83498587  1
  Pb  Pb45  1  0.49753318  0.16418846  0.16932613  1
  Pb  Pb46  1  0.16686768  0.16906719  0.49838188  1
  Pb  Pb47  1  0.16827642  0.83099633  0.50066204  1
  Pb  Pb48  1  0.83047866  0.83541914  0.49763853  1
  Pb  Pb49  1  0.16846813  0.50235814  0.83300093  1
  Pb  Pb50  1  0.50137211  0.16654978  0.83155345  1
  Pb  Pb51  1  0.82941729  0.49718964  0.83350824  1
  Pb  Pb52  1  0.83551455  0.16489543  0.16707163  1
  Pb  Pb53  1  0.49818529  0.50199956  0.16652259  1
  I  I54  1  0.16642933  -0.00175665  0.16299333  1
  I  I55  1  0.16781310  -0.00018861  0.49824888  1
  I  I56  1  0.17405926  -0.00408800  0.83944943  1
  I  I57  1  0.16622918  0.33390696  0.17296264  1
  I  I58  1  0.17270386  0.33680689  0.49392540  1
  I  I59  1  0.16721401  0.33345744  0.83538797  1
  I  I60  1  0.16763201  0.66785409  0.16699782  1
  I  I61  1  0.17365076  0.66334588  0.49315375  1
  I  I62  1  0.16860543  0.67025647  0.84038883  1
  I  I63  1  0.49756317  -0.00429290  0.16542613  1
  I  I64  1  0.50450460  -0.00058062  0.49907576  1
  I  I65  1  0.49783440  -0.00327859  0.83352840  1
  I  I66  1  0.49856382  0.33328824  0.16601308  1
  I  I67  1  0.49928839  0.33400936  0.50551759  1
  I  I68  1  0.50043662  0.33584712  0.82741768  1
  I  I69  1  0.49731128  0.67052309  0.17099439  1
  I  I70  1  0.49439037  0.66678184  0.49945645  1
  I  I71  1  0.49640805  0.66818785  0.82930995  1
  I  I72  1  0.83529974  -0.00301632  0.16678877  1
  I  I73  1  0.82858786  0.00318874  0.50308263  1
  I  I74  1  0.83104590  0.00249342  0.82985849  1
  I  I75  1  0.83468957  0.33316837  0.16647905  1
  I  I76  1  0.82742165  0.32962012  0.50175437  1
  I  I77  1  0.83432629  0.32953905  0.82906632  1
  I  I78  1  0.83349077  0.67108577  0.16586244  1
  I  I79  1  0.83325643  0.66674986  0.49839596  1
  I  I80  1  0.83532686  0.66682707  0.83514723  1
  I  I81  1  0.16485012  0.17046132  0.00356433  1
  I  I82  1  0.16526835  0.15988482  0.33044678  1
  I  I83  1  0.16758332  0.16632941  0.66661932  1
  I  I84  1  0.16763462  0.49958292  0.00268084  1
  I  I85  1  0.17298078  0.50218186  0.33295052  1
  I  I86  1  0.17069038  0.50002745  0.66411670  1
  I  I87  1  0.17127877  0.83193230  0.00174044  1
  I  I88  1  0.16761386  0.83499823  0.33030438  1
  I  I89  1  0.17271321  0.83265905  0.66931292  1
  I  I90  1  0.50186131  0.16716580  0.00021064  1
  I  I91  1  0.50671251  0.16791077  0.33740658  1
  I  I92  1  0.50083377  0.16207807  0.66326551  1
  I  I93  1  0.49856256  0.50561344  -0.00247595  1
  I  I94  1  0.49766037  0.50115135  0.33617692  1
  I  I95  1  0.49393962  0.50489057  0.66531152  1
  I  I96  1  0.49851610  0.82863377  -0.00005492  1
  I  I97  1  0.49945419  0.83403842  0.33328292  1
  I  I98  1  0.49488113  0.83295404  0.66682504  1
  I  I99  1  0.83448952  0.16420913  -0.00178197  1
  I  I100  1  0.82943971  0.16540458  0.33585630  1
  I  I101  1  0.82897213  0.16485086  0.66579179  1
  I  I102  1  0.83306386  0.49632857  0.00004189  1
  I  I103  1  0.82874003  0.49739138  0.33332118  1
  I  I104  1  0.83901406  0.50321936  0.66672266  1
  I  I105  1  0.83021332  0.83743043  0.00293856  1
  I  I106  1  0.83613234  0.83630522  0.32976714  1
  I  I107  1  0.83453418  0.83334864  0.66652052  1
  I  I108  1  0.00328723  0.16288387  0.16922762  1
  I  I109  1  -0.00226259  0.16746654  0.50159235  1
  I  I110  1  -0.00303164  0.16441004  0.82603244  1
  I  I111  1  0.00479955  0.50148850  0.17293929  1
  I  I112  1  0.00283685  0.49903491  0.49401766  1
  I  I113  1  0.00002532  0.50124074  0.83308066  1
  I  I114  1  0.00173868  0.83410581  0.16158525  1
  I  I115  1  -0.00005002  0.83367077  0.49941006  1
  I  I116  1  0.00241004  0.83472518  0.84007622  1
  I  I117  1  0.32977770  0.16381915  0.16799588  1
  I  I118  1  0.33634215  0.16431598  0.49778759  1
  I  I119  1  0.33337358  0.16756564  0.83306969  1
  I  I120  1  0.33008975  0.50297204  0.16897215  1
  I  I121  1  0.33477153  0.49812202  0.49864619  1
  I  I122  1  0.33654270  0.50144304  0.83156161  1
  I  I123  1  0.33299341  0.83339542  0.16624043  1
  I  I124  1  0.33693628  0.83796306  0.49545241  1
  I  I125  1  0.33459124  0.83088626  0.83926317  1
  I  I126  1  0.66648929  0.16445222  0.16538025  1
  I  I127  1  0.66553056  0.16694522  0.50329367  1
  I  I128  1  0.66911520  0.16393294  0.83210020  1
  I  I129  1  0.66639143  0.50114759  0.16711227  1
  I  I130  1  0.66287160  0.50310331  0.50416164  1
  I  I131  1  0.66160526  0.50935023  0.82553354  1
  I  I132  1  0.66543260  0.83481600  0.16684075  1
  I  I133  1  0.66191162  0.82823275  0.50079081  1
  I  I134  1  0.66312244  0.83112241  0.83416260  1
