# generated using pymatgen
data_Cs27Sn14Pb13I81
_symmetry_space_group_name_H-M   'P 1'
_cell_length_a   18.97107257
_cell_length_b   18.98410740
_cell_length_c   18.97069816
_cell_angle_alpha   90.00079934
_cell_angle_beta   90.00269829
_cell_angle_gamma   90.00145921
_symmetry_Int_Tables_number   1
_chemical_formula_structural   Cs27Sn14Pb13I81
_chemical_formula_sum   'Cs27 Sn14 Pb13 I81'
_cell_volume   6832.27566622
_cell_formula_units_Z   1
loop_
 _symmetry_equiv_pos_site_id
 _symmetry_equiv_pos_as_xyz
  1  'x, y, z'
loop_
 _atom_site_type_symbol
 _atom_site_label
 _atom_site_symmetry_multiplicity
 _atom_site_fract_x
 _atom_site_fract_y
 _atom_site_fract_z
 _atom_site_occupancy
  Cs  Cs0  1  -0.00023326  -0.00523965  -0.00016726  1
  Cs  Cs1  1  0.00032556  -0.00031025  0.33166602  1
  Cs  Cs2  1  -0.00061491  0.00169411  0.66954904  1
  Cs  Cs3  1  0.00303642  0.33768286  0.00208237  1
  Cs  Cs4  1  -0.00316503  0.33122617  0.33699695  1
  Cs  Cs5  1  0.00109100  0.33218750  0.66278236  1
  Cs  Cs6  1  0.00510107  0.66811547  -0.00377498  1
  Cs  Cs7  1  -0.00334611  0.66850186  0.33336761  1
  Cs  Cs8  1  0.00135789  0.66567606  0.67011850  1
  Cs  Cs9  1  0.33229805  0.00399739  0.00321526  1
  Cs  Cs10  1  0.33095835  0.00066326  0.33680432  1
  Cs  Cs11  1  0.33474097  0.00359220  0.66230685  1
  Cs  Cs12  1  0.33522861  0.33307131  0.00821032  1
  Cs  Cs13  1  0.33344611  0.33293560  0.32968643  1
  Cs  Cs14  1  0.33211189  0.33256225  0.66701927  1
  Cs  Cs15  1  0.32717623  0.66374637  -0.00097094  1
  Cs  Cs16  1  0.33556780  0.66663148  0.33473145  1
  Cs  Cs17  1  0.33559672  0.66590794  0.66620684  1
  Cs  Cs18  1  0.66729290  0.00139918  -0.00330670  1
  Cs  Cs19  1  0.66800287  -0.00679276  0.33310803  1
  Cs  Cs20  1  0.66586508  0.00174391  0.67230160  1
  Cs  Cs21  1  0.66280490  0.33295626  -0.00025837  1
  Cs  Cs22  1  0.67007760  0.33538316  0.33238411  1
  Cs  Cs23  1  0.66860538  0.33312324  0.66786705  1
  Cs  Cs24  1  0.66756944  0.66605239  0.00035332  1
  Cs  Cs25  1  0.66768239  0.66914226  0.33235071  1
  Cs  Cs26  1  0.66318200  0.66559190  0.66765941  1
  Sn  Sn27  1  0.50041587  0.50059553  0.83290011  1
  Sn  Sn28  1  0.83316406  0.50037803  0.16536033  1
  Sn  Sn29  1  0.83280026  0.50002012  0.83408627  1
  Sn  Sn30  1  0.83420880  0.83333795  0.50042823  1
  Sn  Sn31  1  0.16755937  0.50000500  0.49999881  1
  Sn  Sn32  1  0.83257570  0.83333359  0.16682632  1
  Sn  Sn33  1  0.83306005  0.16635604  0.16644271  1
  Sn  Sn34  1  0.16734496  0.16686148  0.50073025  1
  Sn  Sn35  1  0.16527417  0.83321401  0.50020007  1
  Sn  Sn36  1  0.50023833  0.83311683  0.16496137  1
  Sn  Sn37  1  0.49942232  0.49864065  0.50039879  1
  Sn  Sn38  1  0.50019571  0.16805682  0.49976455  1
  Sn  Sn39  1  0.49965011  0.83280867  0.83491272  1
  Sn  Sn40  1  0.16675108  0.16685511  0.83319074  1
  Pb  Pb41  1  0.50170562  0.50197449  0.16677235  1
  Pb  Pb42  1  0.16672746  0.83315400  0.16872365  1
  Pb  Pb43  1  0.16742686  0.49805475  0.83135011  1
  Pb  Pb44  1  0.83292795  0.50196784  0.50027196  1
  Pb  Pb45  1  0.16442351  0.16668217  0.16724004  1
  Pb  Pb46  1  0.50229953  0.16398618  0.16964215  1
  Pb  Pb47  1  0.83171756  0.83144194  0.83359108  1
  Pb  Pb48  1  0.50011645  0.83317080  0.50016869  1
  Pb  Pb49  1  0.49826473  0.16739102  0.83172780  1
  Pb  Pb50  1  0.16986744  0.83540690  0.83061864  1
  Pb  Pb51  1  0.83565837  0.16947808  0.83592921  1
  Pb  Pb52  1  0.16373207  0.50013981  0.16992446  1
  Pb  Pb53  1  0.83315866  0.16406759  0.49874483  1
  I  I54  1  0.16443372  -0.00009172  0.16934212  1
  I  I55  1  0.16811009  0.00042319  0.50265372  1
  I  I56  1  0.16722051  0.00297249  0.82670135  1
  I  I57  1  0.16449186  0.33339884  0.16860959  1
  I  I58  1  0.17053638  0.33306473  0.50404773  1
  I  I59  1  0.16632959  0.33060165  0.82548768  1
  I  I60  1  0.16426811  0.66667672  0.16824738  1
  I  I61  1  0.16724331  0.66656638  0.49827711  1
  I  I62  1  0.16485221  0.66652759  0.83169617  1
  I  I63  1  0.50635640  -0.00381956  0.16303940  1
  I  I64  1  0.49664652  0.00162669  0.49917250  1
  I  I65  1  0.49919836  -0.00221162  0.83419294  1
  I  I66  1  0.50199425  0.33332440  0.16491659  1
  I  I67  1  0.49290043  0.33437689  0.50531327  1
  I  I68  1  0.50346062  0.33647135  0.82945506  1
  I  I69  1  0.50702420  0.66974797  0.16987688  1
  I  I70  1  0.49729074  0.66439504  0.50095517  1
  I  I71  1  0.50414771  0.66576431  0.82941351  1
  I  I72  1  0.83040988  -0.00137339  0.17354353  1
  I  I73  1  0.83573345  -0.00379169  0.49353882  1
  I  I74  1  0.83227869  0.00000139  0.83332698  1
  I  I75  1  0.83503974  0.33405461  0.16376490  1
  I  I76  1  0.83557824  0.33344540  0.49791740  1
  I  I77  1  0.82640744  0.33728852  0.83672720  1
  I  I78  1  0.82869136  0.66740153  0.16911862  1
  I  I79  1  0.83599564  0.66968005  0.49395662  1
  I  I80  1  0.83253331  0.66353318  0.83729622  1
  I  I81  1  0.16535032  0.16723430  -0.00237741  1
  I  I82  1  0.16934784  0.16603547  0.33710429  1
  I  I83  1  0.16971340  0.16637845  0.66433763  1
  I  I84  1  0.16831716  0.49728758  -0.00014421  1
  I  I85  1  0.17210124  0.49743496  0.33826747  1
  I  I86  1  0.16503388  0.50194932  0.66302298  1
  I  I87  1  0.16413815  0.83568165  -0.00038120  1
  I  I88  1  0.16768116  0.83637349  0.33733192  1
  I  I89  1  0.16183832  0.83110746  0.66234892  1
  I  I90  1  0.49790888  0.16838068  0.00020523  1
  I  I91  1  0.49277328  0.17081959  0.33756909  1
  I  I92  1  0.49874908  0.16423146  0.66342771  1
  I  I93  1  0.50328792  0.50232439  -0.00268790  1
  I  I94  1  0.49734235  0.49853041  0.33634304  1
  I  I95  1  0.50254236  0.50341062  0.66642627  1
  I  I96  1  0.50751738  0.82876601  0.00007422  1
  I  I97  1  0.50232580  0.83357660  0.33169999  1
  I  I98  1  0.49989738  0.83181473  0.66845639  1
  I  I99  1  0.83448125  0.16004733  0.00373934  1
  I  I100  1  0.83493257  0.17133228  0.33073659  1
  I  I101  1  0.83205667  0.16636155  0.66673228  1
  I  I102  1  0.82743277  0.50122778  0.00020193  1
  I  I103  1  0.83402301  0.49953916  0.33113560  1
  I  I104  1  0.83214412  0.50243374  0.66875732  1
  I  I105  1  0.83003816  0.83520465  0.00304179  1
  I  I106  1  0.83078887  0.83089555  0.33254439  1
  I  I107  1  0.83540970  0.83133239  0.66429896  1
  I  I108  1  -0.00356390  0.16405098  0.16984566  1
  I  I109  1  0.00285755  0.16947229  0.50163035  1
  I  I110  1  0.00316491  0.16779285  0.82438103  1
  I  I111  1  -0.00468322  0.50339354  0.16164556  1
  I  I112  1  0.00221266  0.49754130  0.49919461  1
  I  I113  1  -0.00220881  0.49878867  0.83625710  1
  I  I114  1  -0.00343639  0.83371834  0.17044018  1
  I  I115  1  0.00004209  0.83306065  0.49330444  1
  I  I116  1  0.00023265  0.83256036  0.83498732  1
  I  I117  1  0.33354054  0.16500346  0.16560370  1
  I  I118  1  0.33252347  0.16396970  0.50322547  1
  I  I119  1  0.33047242  0.16717619  0.82931085  1
  I  I120  1  0.33349422  0.50143457  0.16453320  1
  I  I121  1  0.33397498  0.50236846  0.50596300  1
  I  I122  1  0.33647995  0.50380224  0.82910152  1
  I  I123  1  0.33638065  0.83311404  0.16542017  1
  I  I124  1  0.33120279  0.83393725  0.50013199  1
  I  I125  1  0.33766722  0.82540446  0.83733458  1
  I  I126  1  0.67014383  0.16874848  0.16854639  1
  I  I127  1  0.66414540  0.17012197  0.49815804  1
  I  I128  1  0.66658505  0.16501152  0.83178306  1
  I  I129  1  0.66999901  0.49907880  0.16903481  1
  I  I130  1  0.66391131  0.49755458  0.50088778  1
  I  I131  1  0.66579275  0.50346369  0.83021970  1
  I  I132  1  0.66796645  0.83285919  0.17151771  1
  I  I133  1  0.66861596  0.83248721  0.49714389  1
  I  I134  1  0.66369377  0.83258177  0.83040097  1
