# generated using pymatgen
data_Cs27Sn14Pb13I81
_symmetry_space_group_name_H-M   'P 1'
_cell_length_a   18.98196227
_cell_length_b   18.97142828
_cell_length_c   18.97303695
_cell_angle_alpha   90.00096822
_cell_angle_beta   90.00033713
_cell_angle_gamma   90.00058911
_symmetry_Int_Tables_number   1
_chemical_formula_structural   Cs27Sn14Pb13I81
_chemical_formula_sum   'Cs27 Sn14 Pb13 I81'
_cell_volume   6832.47398489
_cell_formula_units_Z   1
loop_
 _symmetry_equiv_pos_site_id
 _symmetry_equiv_pos_as_xyz
  1  'x, y, z'
loop_
 _atom_site_type_symbol
 _atom_site_label
 _atom_site_symmetry_multiplicity
 _atom_site_fract_x
 _atom_site_fract_y
 _atom_site_fract_z
 _atom_site_occupancy
  Cs  Cs0  1  0.00204291  0.00158355  0.00708176  1
  Cs  Cs1  1  0.00246176  -0.00077680  0.33026224  1
  Cs  Cs2  1  -0.00122156  -0.00189699  0.66418043  1
  Cs  Cs3  1  0.00124969  0.33389705  -0.00551473  1
  Cs  Cs4  1  -0.00021183  0.33406661  0.33326941  1
  Cs  Cs5  1  -0.00697849  0.33520592  0.67366512  1
  Cs  Cs6  1  -0.00148249  0.66613694  0.00081637  1
  Cs  Cs7  1  0.00074381  0.66733337  0.33257858  1
  Cs  Cs8  1  0.00084391  0.66569683  0.66721849  1
  Cs  Cs9  1  0.33282152  0.00307542  0.00115051  1
  Cs  Cs10  1  0.33029822  -0.00012376  0.33362632  1
  Cs  Cs11  1  0.33513432  -0.00300618  0.66596648  1
  Cs  Cs12  1  0.33028824  0.33162733  -0.00186906  1
  Cs  Cs13  1  0.33477983  0.33786958  0.33372324  1
  Cs  Cs14  1  0.33328488  0.32750197  0.66861145  1
  Cs  Cs15  1  0.33744925  0.66593659  -0.00318235  1
  Cs  Cs16  1  0.33322735  0.66354841  0.33431586  1
  Cs  Cs17  1  0.33173456  0.66930691  0.66817411  1
  Cs  Cs18  1  0.66613432  -0.00060964  0.00103210  1
  Cs  Cs19  1  0.66804836  0.00048813  0.33148305  1
  Cs  Cs20  1  0.66589343  0.00226425  0.66695281  1
  Cs  Cs21  1  0.66817752  0.33133927  0.00241076  1
  Cs  Cs22  1  0.66621017  0.33517326  0.33596532  1
  Cs  Cs23  1  0.67492470  0.32426664  0.66059426  1
  Cs  Cs24  1  0.66317517  0.66830960  0.00088320  1
  Cs  Cs25  1  0.66511065  0.66344297  0.33217699  1
  Cs  Cs26  1  0.66789916  0.66774243  0.66780438  1
  Sn  Sn27  1  0.50074124  0.49969967  0.83222094  1
  Sn  Sn28  1  0.16648648  0.83335447  0.83311406  1
  Sn  Sn29  1  0.83410269  0.49917652  0.16666361  1
  Sn  Sn30  1  0.83341331  0.83326812  0.83291294  1
  Sn  Sn31  1  0.50025038  0.83307747  0.49982020  1
  Sn  Sn32  1  0.16594479  0.50036278  0.16678501  1
  Sn  Sn33  1  0.83331802  0.83301412  0.50047554  1
  Sn  Sn34  1  0.50004852  0.83271311  0.83322845  1
  Sn  Sn35  1  0.16664664  0.49964612  0.50005316  1
  Sn  Sn36  1  0.83285583  0.16789921  0.16691229  1
  Sn  Sn37  1  0.49962021  0.83410237  0.16691823  1
  Sn  Sn38  1  0.16642180  0.16706184  0.50025428  1
  Sn  Sn39  1  0.50034193  0.16612794  0.16698205  1
  Sn  Sn40  1  0.16655136  0.83307480  0.50059537  1
  Pb  Pb41  1  0.83138497  0.83308041  0.16678065  1
  Pb  Pb42  1  0.49984715  0.49967892  0.16525231  1
  Pb  Pb43  1  0.83562392  0.16422849  0.49764948  1
  Pb  Pb44  1  0.49822900  0.16443936  0.49757256  1
  Pb  Pb45  1  0.83341130  0.16357708  0.83589973  1
  Pb  Pb46  1  0.16827751  0.50194867  0.83287051  1
  Pb  Pb47  1  0.83057716  0.50218039  0.83542810  1
  Pb  Pb48  1  0.50017137  0.16635978  0.83524397  1
  Pb  Pb49  1  0.16652234  0.16354778  0.83043350  1
  Pb  Pb50  1  0.16932272  0.83121950  0.16674587  1
  Pb  Pb51  1  0.83541712  0.50229582  0.49821022  1
  Pb  Pb52  1  0.16688970  0.16941532  0.16849365  1
  Pb  Pb53  1  0.49810004  0.50171390  0.50325539  1
  I  I54  1  0.16453847  -0.00019988  0.16704592  1
  I  I55  1  0.16731616  -0.00198605  0.50407356  1
  I  I56  1  0.17065736  -0.00505813  0.82942080  1
  I  I57  1  0.16875119  0.33712795  0.17230955  1
  I  I58  1  0.16859543  0.33400023  0.49132683  1
  I  I59  1  0.17009559  0.33348074  0.83319110  1
  I  I60  1  0.16216389  0.66369536  0.17224543  1
  I  I61  1  0.16714402  0.66815124  0.49941625  1
  I  I62  1  0.16622064  0.67042124  0.82795093  1
  I  I63  1  0.50535158  -0.00123739  0.16478436  1
  I  I64  1  0.49728810  -0.00455458  0.50501608  1
  I  I65  1  0.49965656  -0.00410971  0.83161383  1
  I  I66  1  0.50044799  0.33102234  0.16403038  1
  I  I67  1  0.49694588  0.33331434  0.49938975  1
  I  I68  1  0.49654606  0.33592131  0.83844357  1
  I  I69  1  0.50016982  0.66938688  0.16753013  1
  I  I70  1  0.49744929  0.67092759  0.49416252  1
  I  I71  1  0.49917730  0.66971988  0.83695478  1
  I  I72  1  0.83035488  0.00159306  0.16654625  1
  I  I73  1  0.83517036  -0.00424736  0.50126611  1
  I  I74  1  0.82973172  -0.00490998  0.83099381  1
  I  I75  1  0.83046395  0.33335502  0.16737849  1
  I  I76  1  0.83489450  0.33331320  0.50013500  1
  I  I77  1  0.83166125  0.33343529  0.83294700  1
  I  I78  1  0.83595419  0.66472538  0.16672976  1
  I  I79  1  0.83528268  0.67081674  0.50079654  1
  I  I80  1  0.83502145  0.67065748  0.83213810  1
  I  I81  1  0.16697678  0.16609147  0.00023202  1
  I  I82  1  0.16660794  0.15863700  0.33615333  1
  I  I83  1  0.16792221  0.17058144  0.66233338  1
  I  I84  1  0.16491800  0.50207294  0.00229328  1
  I  I85  1  0.16428680  0.50376643  0.33376628  1
  I  I86  1  0.16985360  0.50119845  0.66372576  1
  I  I87  1  0.16671863  0.83070279  -0.00245243  1
  I  I88  1  0.16628117  0.83481658  0.33653158  1
  I  I89  1  0.17086950  0.83180282  0.66540407  1
  I  I90  1  0.50235445  0.15982157  0.00347300  1
  I  I91  1  0.50330139  0.16115966  0.32959574  1
  I  I92  1  0.49776871  0.16595870  0.66637679  1
  I  I93  1  0.49770211  0.50903127  -0.00214335  1
  I  I94  1  0.50046706  0.50200528  0.33350231  1
  I  I95  1  0.49665289  0.50960932  0.67063800  1
  I  I96  1  0.50069495  0.83256124  -0.00050606  1
  I  I97  1  0.49966955  0.83794139  0.33355648  1
  I  I98  1  0.49848787  0.82825771  0.66678913  1
  I  I99  1  0.83011706  0.16751144  0.00400348  1
  I  I100  1  0.82919917  0.16718453  0.32982326  1
  I  I101  1  0.83436671  0.16758934  0.66636409  1
  I  I102  1  0.83999802  0.49916432  0.00353990  1
  I  I103  1  0.83326958  0.49996621  0.33000877  1
  I  I104  1  0.83442595  0.49985775  0.66671045  1
  I  I105  1  0.83256871  0.83309547  -0.00230637  1
  I  I106  1  0.83457137  0.83362046  0.33583182  1
  I  I107  1  0.83009218  0.83287382  0.66640389  1
  I  I108  1  -0.00228852  0.16686687  0.16851734  1
  I  I109  1  0.00339902  0.16208636  0.49618485  1
  I  I110  1  0.00002706  0.16558436  0.83688497  1
  I  I111  1  0.00011212  0.49646891  0.17044763  1
  I  I112  1  0.00375858  0.50415318  0.49820058  1
  I  I113  1  -0.00013744  0.50229393  0.83306272  1
  I  I114  1  0.00011277  0.83546820  0.16610086  1
  I  I115  1  0.00101065  0.83318057  0.50639820  1
  I  I116  1  0.00020834  0.83364857  0.82557975  1
  I  I117  1  0.33572199  0.16220741  0.16745156  1
  I  I118  1  0.33019826  0.16332686  0.49715673  1
  I  I119  1  0.33331362  0.16466653  0.83701356  1
  I  I120  1  0.33118118  0.50163505  0.16999768  1
  I  I121  1  0.32978211  0.50379238  0.49156772  1
  I  I122  1  0.33588863  0.50890685  0.83703238  1
  I  I123  1  0.33736222  0.83727256  0.16638739  1
  I  I124  1  0.33280000  0.83350490  0.50216590  1
  I  I125  1  0.33384471  0.82953302  0.83059967  1
  I  I126  1  0.66648149  0.16714301  0.16619486  1
  I  I127  1  0.66684578  0.16448680  0.50039006  1
  I  I128  1  0.66672029  0.16409899  0.83170900  1
  I  I129  1  0.66858387  0.50042667  0.16386228  1
  I  I130  1  0.66669520  0.50315618  0.49773353  1
  I  I131  1  0.66315236  0.50977604  0.83762210  1
  I  I132  1  0.66338615  0.83212936  0.16632641  1
  I  I133  1  0.66623744  0.83345924  0.50210216  1
  I  I134  1  0.66585257  0.82942197  0.83167552  1
