# generated using pymatgen
data_Cs27Sn14Pb13I81
_symmetry_space_group_name_H-M   'P 1'
_cell_length_a   18.98377569
_cell_length_b   18.97370544
_cell_length_c   18.97162734
_cell_angle_alpha   90.00083341
_cell_angle_beta   90.00029668
_cell_angle_gamma   89.99959034
_symmetry_Int_Tables_number   1
_chemical_formula_structural   Cs27Sn14Pb13I81
_chemical_formula_sum   'Cs27 Sn14 Pb13 I81'
_cell_volume   6833.43917459
_cell_formula_units_Z   1
loop_
 _symmetry_equiv_pos_site_id
 _symmetry_equiv_pos_as_xyz
  1  'x, y, z'
loop_
 _atom_site_type_symbol
 _atom_site_label
 _atom_site_symmetry_multiplicity
 _atom_site_fract_x
 _atom_site_fract_y
 _atom_site_fract_z
 _atom_site_occupancy
  Cs  Cs0  1  0.00122526  -0.00165207  -0.00039356  1
  Cs  Cs1  1  0.00055309  -0.00318366  0.33027511  1
  Cs  Cs2  1  -0.00170823  0.00075497  0.66856455  1
  Cs  Cs3  1  -0.00171102  0.33285622  -0.00053966  1
  Cs  Cs4  1  -0.00350411  0.33364224  0.33435648  1
  Cs  Cs5  1  0.00218786  0.33102277  0.66773281  1
  Cs  Cs6  1  0.00189378  0.66775501  -0.00005558  1
  Cs  Cs7  1  -0.00008376  0.66727656  0.33415656  1
  Cs  Cs8  1  0.00007830  0.66682184  0.66626894  1
  Cs  Cs9  1  0.33132365  -0.00166249  0.00091228  1
  Cs  Cs10  1  0.33446683  0.00763730  0.33215024  1
  Cs  Cs11  1  0.33548622  0.00058085  0.66515520  1
  Cs  Cs12  1  0.33457936  0.33691772  -0.00179592  1
  Cs  Cs13  1  0.33502863  0.32691629  0.34279890  1
  Cs  Cs14  1  0.33138542  0.33247935  0.66081845  1
  Cs  Cs15  1  0.33344241  0.66647517  0.00085750  1
  Cs  Cs16  1  0.33009723  0.66567385  0.32771533  1
  Cs  Cs17  1  0.33531982  0.66654484  0.66635303  1
  Cs  Cs18  1  0.66650865  -0.00014136  -0.00081525  1
  Cs  Cs19  1  0.66395771  0.00307138  0.33636776  1
  Cs  Cs20  1  0.66792083  -0.00169997  0.66626056  1
  Cs  Cs21  1  0.66732519  0.33446795  -0.00026728  1
  Cs  Cs22  1  0.66777655  0.33149265  0.33290450  1
  Cs  Cs23  1  0.66688183  0.33230273  0.66975312  1
  Cs  Cs24  1  0.66400157  0.66540706  -0.00080428  1
  Cs  Cs25  1  0.66918396  0.66529691  0.33931086  1
  Cs  Cs26  1  0.66525266  0.66947495  0.66261627  1
  Sn  Sn27  1  0.16624510  0.83247458  0.83301485  1
  Sn  Sn28  1  0.83372617  0.16660362  0.50071844  1
  Sn  Sn29  1  0.83251196  0.16649941  0.83292102  1
  Sn  Sn30  1  0.49918023  0.50074892  0.16621480  1
  Sn  Sn31  1  0.49974647  0.49925931  0.83369508  1
  Sn  Sn32  1  0.16692190  0.83264731  0.16655875  1
  Sn  Sn33  1  0.83286361  0.83310983  0.16587629  1
  Sn  Sn34  1  0.50034317  0.16735496  0.83402383  1
  Sn  Sn35  1  0.16681779  0.50094615  0.83414413  1
  Sn  Sn36  1  0.16699934  0.83323381  0.50018362  1
  Sn  Sn37  1  0.83336488  0.50057300  0.83353699  1
  Sn  Sn38  1  0.50016615  0.83248067  0.16647149  1
  Sn  Sn39  1  0.16743292  0.50013267  0.16590734  1
  Sn  Sn40  1  0.83379078  0.83292154  0.83412547  1
  Pb  Pb41  1  0.50249590  0.16661621  0.50326666  1
  Pb  Pb42  1  0.83333278  0.16410445  0.16576017  1
  Pb  Pb43  1  0.49983609  0.83298818  0.83466776  1
  Pb  Pb44  1  0.49994448  0.50023841  0.49952682  1
  Pb  Pb45  1  0.83499200  0.83483958  0.50022586  1
  Pb  Pb46  1  0.49702217  0.83308013  0.49612477  1
  Pb  Pb47  1  0.16660859  0.50197768  0.49975722  1
  Pb  Pb48  1  0.16392167  0.16392488  0.50010508  1
  Pb  Pb49  1  0.83333022  0.50231818  0.16475211  1
  Pb  Pb50  1  0.16674378  0.16799566  0.16644088  1
  Pb  Pb51  1  0.83352454  0.49758688  0.50306582  1
  Pb  Pb52  1  0.49990777  0.16763561  0.16411224  1
  Pb  Pb53  1  0.16672083  0.16691699  0.83362673  1
  I  I54  1  0.16667395  -0.00401000  0.16542003  1
  I  I55  1  0.16614047  -0.00425906  0.50008812  1
  I  I56  1  0.16334852  -0.00350863  0.83469920  1
  I  I57  1  0.17084877  0.33779246  0.15936616  1
  I  I58  1  0.16647893  0.33330650  0.49996449  1
  I  I59  1  0.16386317  0.33691524  0.83878090  1
  I  I60  1  0.16751596  0.66790535  0.16530538  1
  I  I61  1  0.16381084  0.67004014  0.50014334  1
  I  I62  1  0.16340737  0.66719008  0.83429610  1
  I  I63  1  0.49892647  -0.00297406  0.16535852  1
  I  I64  1  0.49902994  -0.00016186  0.50032411  1
  I  I65  1  0.50375811  0.00174898  0.83456586  1
  I  I66  1  0.49527719  0.33723263  0.16349700  1
  I  I67  1  0.49932168  0.33323294  0.49512518  1
  I  I68  1  0.50402102  0.33465650  0.83929328  1
  I  I69  1  0.49808778  0.66657179  0.15901748  1
  I  I70  1  0.50263272  0.66690498  0.50719668  1
  I  I71  1  0.50198451  0.66371072  0.83574337  1
  I  I72  1  0.83519004  -0.00444287  0.16062716  1
  I  I73  1  0.83473781  0.00250427  0.50756418  1
  I  I74  1  0.83353648  -0.00068583  0.83315783  1
  I  I75  1  0.83372993  0.33360482  0.16657744  1
  I  I76  1  0.83332411  0.32956057  0.50503243  1
  I  I77  1  0.83296858  0.33363107  0.82860909  1
  I  I78  1  0.83467404  0.67059190  0.16117007  1
  I  I79  1  0.83412599  0.66687865  0.50055587  1
  I  I80  1  0.83469700  0.66716194  0.83893843  1
  I  I81  1  0.16332087  0.16021996  -0.00036178  1
  I  I82  1  0.16457101  0.16603729  0.33340578  1
  I  I83  1  0.16896581  0.16614430  0.66712271  1
  I  I84  1  0.16739409  0.50818141  -0.00111706  1
  I  I85  1  0.17152556  0.50544866  0.32957298  1
  I  I86  1  0.16659079  0.50377672  0.67042522  1
  I  I87  1  0.16507767  0.83012645  -0.00004911  1
  I  I88  1  0.16534280  0.82963523  0.33151057  1
  I  I89  1  0.16041014  0.83014756  0.66848416  1
  I  I90  1  0.50823377  0.16788887  -0.00369784  1
  I  I91  1  0.50130949  0.16615212  0.33333920  1
  I  I92  1  0.50092084  0.17207888  0.67136566  1
  I  I93  1  0.49917954  0.50009936  -0.00103902  1
  I  I94  1  0.49447652  0.50564924  0.32925046  1
  I  I95  1  0.49940053  0.49552692  0.67072070  1
  I  I96  1  0.49624498  0.83288842  0.00274989  1
  I  I97  1  0.50249286  0.82715619  0.32778191  1
  I  I98  1  0.49986412  0.83395543  0.66676371  1
  I  I99  1  0.82973728  0.16814486  -0.00398513  1
  I  I100  1  0.83527283  0.16371199  0.33561624  1
  I  I101  1  0.82952570  0.16416568  0.66937514  1
  I  I102  1  0.83328113  0.49485029  -0.00393352  1
  I  I103  1  0.83357721  0.49930986  0.33304983  1
  I  I104  1  0.83338808  0.50617777  0.67220190  1
  I  I105  1  0.83862963  0.83582486  -0.00130198  1
  I  I106  1  0.83493615  0.83545225  0.33041061  1
  I  I107  1  0.83792798  0.83207049  0.67034112  1
  I  I108  1  -0.00020862  0.16604630  0.16445952  1
  I  I109  1  -0.00348928  0.16693096  0.50969602  1
  I  I110  1  -0.00316736  0.16805445  0.82940469  1
  I  I111  1  0.00291990  0.50461199  0.16227654  1
  I  I112  1  0.00004582  0.49938767  0.49920368  1
  I  I113  1  0.00027093  0.50052350  0.83680292  1
  I  I114  1  0.00084257  0.83113315  0.16605499  1
  I  I115  1  0.00281002  0.83431843  0.49599525  1
  I  I116  1  0.00005197  0.83184004  0.83738455  1
  I  I117  1  0.33347071  0.15961822  0.16448495  1
  I  I118  1  0.33336589  0.16601567  0.50031127  1
  I  I119  1  0.33604064  0.16895272  0.83566074  1
  I  I120  1  0.33299928  0.51049879  0.15627249  1
  I  I121  1  0.33319277  0.49986599  0.50566272  1
  I  I122  1  0.33308058  0.50049042  0.83772807  1
  I  I123  1  0.33242449  0.82930491  0.16559457  1
  I  I124  1  0.32906733  0.83280682  0.50468240  1
  I  I125  1  0.33034823  0.83153578  0.83428878  1
  I  I126  1  0.66672202  0.16550219  0.16857245  1
  I  I127  1  0.67014161  0.16377797  0.50214898  1
  I  I128  1  0.66773611  0.16919758  0.83018375  1
  I  I129  1  0.66392558  0.50430446  0.16129271  1
  I  I130  1  0.66682314  0.50110976  0.49893931  1
  I  I131  1  0.66657166  0.49843885  0.83747246  1
  I  I132  1  0.66684724  0.83072519  0.15944210  1
  I  I133  1  0.66671277  0.83509993  0.50015608  1
  I  I134  1  0.66938425  0.83225037  0.83792682  1
