# generated using pymatgen
data_Cs27Sn14Pb13I81
_symmetry_space_group_name_H-M   'P 1'
_cell_length_a   18.97891333
_cell_length_b   18.96843058
_cell_length_c   18.97857111
_cell_angle_alpha   89.99761991
_cell_angle_beta   90.00112031
_cell_angle_gamma   89.99945946
_symmetry_Int_Tables_number   1
_chemical_formula_structural   Cs27Sn14Pb13I81
_chemical_formula_sum   'Cs27 Sn14 Pb13 I81'
_cell_volume   6832.28938542
_cell_formula_units_Z   1
loop_
 _symmetry_equiv_pos_site_id
 _symmetry_equiv_pos_as_xyz
  1  'x, y, z'
loop_
 _atom_site_type_symbol
 _atom_site_label
 _atom_site_symmetry_multiplicity
 _atom_site_fract_x
 _atom_site_fract_y
 _atom_site_fract_z
 _atom_site_occupancy
  Cs  Cs0  1  -0.00506435  0.00118914  -0.00193833  1
  Cs  Cs1  1  -0.00525700  0.00074570  0.33792588  1
  Cs  Cs2  1  0.00014698  0.00027466  0.66675114  1
  Cs  Cs3  1  0.00643355  0.33324307  0.00340230  1
  Cs  Cs4  1  0.00278988  0.33690077  0.32630563  1
  Cs  Cs5  1  -0.00303437  0.33296498  0.66777055  1
  Cs  Cs6  1  0.00194672  0.66673682  0.00112063  1
  Cs  Cs7  1  0.00217971  0.66586880  0.33254373  1
  Cs  Cs8  1  -0.00010828  0.66609675  0.66539922  1
  Cs  Cs9  1  0.33655199  -0.00241219  -0.00389493  1
  Cs  Cs10  1  0.33503969  0.00347844  0.34013374  1
  Cs  Cs11  1  0.33070457  -0.00044088  0.66666401  1
  Cs  Cs12  1  0.32697124  0.33237257  0.00309201  1
  Cs  Cs13  1  0.33426710  0.32508659  0.33144082  1
  Cs  Cs14  1  0.33549527  0.33075732  0.66386753  1
  Cs  Cs15  1  0.33384180  0.66643128  0.00086060  1
  Cs  Cs16  1  0.33081787  0.66782648  0.32994280  1
  Cs  Cs17  1  0.33335301  0.66775352  0.66686812  1
  Cs  Cs18  1  0.66804208  -0.00123451  0.00006240  1
  Cs  Cs19  1  0.66859710  0.00174446  0.33119511  1
  Cs  Cs20  1  0.66862925  -0.00127243  0.66865512  1
  Cs  Cs21  1  0.66634714  0.33364493  -0.00143925  1
  Cs  Cs22  1  0.66296448  0.33076703  0.33657215  1
  Cs  Cs23  1  0.66786749  0.34058936  0.66486315  1
  Cs  Cs24  1  0.66521474  0.66730571  -0.00032094  1
  Cs  Cs25  1  0.66705923  0.66686442  0.33281624  1
  Cs  Cs26  1  0.66730681  0.66200163  0.66708190  1
  Sn  Sn27  1  0.50024757  0.83358647  0.83308481  1
  Sn  Sn28  1  0.50099252  0.50051208  0.16659684  1
  Sn  Sn29  1  0.16680277  0.50079654  0.83176852  1
  Sn  Sn30  1  0.83315620  0.83333881  0.83244214  1
  Sn  Sn31  1  0.16709783  0.50000427  0.50105958  1
  Sn  Sn32  1  0.83179130  0.50031185  0.16639739  1
  Sn  Sn33  1  0.83334618  0.16634992  0.50092860  1
  Sn  Sn34  1  0.50105477  0.16624714  0.83338527  1
  Sn  Sn35  1  0.83238078  0.83350495  0.50088507  1
  Sn  Sn36  1  0.16657243  0.83250414  0.83422484  1
  Sn  Sn37  1  0.49905976  0.83284747  0.16692874  1
  Sn  Sn38  1  0.50100859  0.83282731  0.50019591  1
  Sn  Sn39  1  0.16730670  0.83371258  0.16606526  1
  Sn  Sn40  1  0.83204362  0.16621649  0.83247795  1
  Pb  Pb41  1  0.16645233  0.16600139  0.83331814  1
  Pb  Pb42  1  0.16638263  0.83240953  0.50026701  1
  Pb  Pb43  1  0.50002690  0.16576310  0.16406112  1
  Pb  Pb44  1  0.83473745  0.50022906  0.49797144  1
  Pb  Pb45  1  0.16361910  0.16966096  0.50023275  1
  Pb  Pb46  1  0.50246077  0.16410369  0.50296255  1
  Pb  Pb47  1  0.83311470  0.16947543  0.16624959  1
  Pb  Pb48  1  0.83305875  0.83212998  0.16661734  1
  Pb  Pb49  1  0.49759355  0.50239016  0.49743277  1
  Pb  Pb50  1  0.49769368  0.49994725  0.83510230  1
  Pb  Pb51  1  0.16760058  0.50157117  0.16651973  1
  Pb  Pb52  1  0.16677223  0.16177689  0.16663218  1
  Pb  Pb53  1  0.83529697  0.49999482  0.83523398  1
  I  I54  1  0.17231125  -0.00597599  0.15909132  1
  I  I55  1  0.16823994  -0.00010829  0.49901077  1
  I  I56  1  0.16699169  -0.00378829  0.83794429  1
  I  I57  1  0.16602611  0.33354940  0.16611621  1
  I  I58  1  0.16526873  0.33762259  0.50576947  1
  I  I59  1  0.16612941  0.33596900  0.83055668  1
  I  I60  1  0.16790180  0.66953704  0.16460170  1
  I  I61  1  0.16379376  0.66481000  0.50097372  1
  I  I62  1  0.16637328  0.66855259  0.83402808  1
  I  I63  1  0.49548716  -0.00403802  0.16767998  1
  I  I64  1  0.49921983  -0.00437876  0.49407018  1
  I  I65  1  0.49854307  -0.00243563  0.83579667  1
  I  I66  1  0.50386173  0.33593582  0.16482665  1
  I  I67  1  0.50014405  0.33326853  0.49959907  1
  I  I68  1  0.50375594  0.33087684  0.83541496  1
  I  I69  1  0.49990586  0.66848423  0.16381444  1
  I  I70  1  0.50651340  0.67081871  0.50586468  1
  I  I71  1  0.50232097  0.67025604  0.83258734  1
  I  I72  1  0.83449656  -0.00009682  0.16693442  1
  I  I73  1  0.83104435  -0.00151624  0.50274101  1
  I  I74  1  0.83529890  -0.00161342  0.83092609  1
  I  I75  1  0.82943328  0.33733593  0.16673984  1
  I  I76  1  0.83611486  0.33084424  0.50430722  1
  I  I77  1  0.82962979  0.33049706  0.82988608  1
  I  I78  1  0.83306556  0.66449874  0.16664398  1
  I  I79  1  0.83109813  0.66984385  0.50377837  1
  I  I80  1  0.83084630  0.67005350  0.83031138  1
  I  I81  1  0.16380742  0.17407046  -0.00039194  1
  I  I82  1  0.16480260  0.16881366  0.33351874  1
  I  I83  1  0.16902208  0.16245974  0.66688812  1
  I  I84  1  0.16604696  0.50234622  -0.00220848  1
  I  I85  1  0.16439727  0.50319543  0.33480883  1
  I  I86  1  0.16502894  0.50783092  0.66782508  1
  I  I87  1  0.16923621  0.82650092  -0.00146961  1
  I  I88  1  0.16933026  0.82934504  0.33116869  1
  I  I89  1  0.16888619  0.83115116  0.66974543  1
  I  I90  1  0.50634419  0.16016819  -0.00380761  1
  I  I91  1  0.50099529  0.16649545  0.33359171  1
  I  I92  1  0.50019820  0.16112939  0.67076674  1
  I  I93  1  0.50141906  0.50685215  0.00290151  1
  I  I94  1  0.50190861  0.50666390  0.32953132  1
  I  I95  1  0.49991830  0.50077738  0.66671147  1
  I  I96  1  0.49910579  0.83327715  -0.00070018  1
  I  I97  1  0.49948307  0.82719953  0.33295459  1
  I  I98  1  0.49916739  0.83818299  0.66766743  1
  I  I99  1  0.83027788  0.16117549  -0.00361298  1
  I  I100  1  0.83470486  0.16143215  0.33620972  1
  I  I101  1  0.83055316  0.16204384  0.66776421  1
  I  I102  1  0.83249090  0.50189923  0.00280220  1
  I  I103  1  0.83355701  0.50187061  0.33032948  1
  I  I104  1  0.83428624  0.50008328  0.66681672  1
  I  I105  1  0.83211776  0.83615117  -0.00306873  1
  I  I106  1  0.83144980  0.83588299  0.33593193  1
  I  I107  1  0.83167556  0.83628940  0.66751924  1
  I  I108  1  -0.00026881  0.16964261  0.16401055  1
  I  I109  1  -0.00422544  0.15756350  0.50740513  1
  I  I110  1  -0.00324062  0.16302798  0.82971027  1
  I  I111  1  -0.00117137  0.50118173  0.16697308  1
  I  I112  1  0.00243535  0.50337850  0.50086142  1
  I  I113  1  0.00309009  0.50489439  0.83340133  1
  I  I114  1  0.00206349  0.82958248  0.16332909  1
  I  I115  1  -0.00282763  0.83547956  0.50249776  1
  I  I116  1  -0.00031173  0.83325416  0.83378781  1
  I  I117  1  0.33356186  0.17420283  0.16473289  1
  I  I118  1  0.33364244  0.16625716  0.50037153  1
  I  I119  1  0.33597106  0.16265909  0.83531736  1
  I  I120  1  0.33586482  0.50434939  0.16550074  1
  I  I121  1  0.33001394  0.50406772  0.50315310  1
  I  I122  1  0.32988942  0.50536034  0.83299748  1
  I  I123  1  0.33439614  0.82582875  0.16275239  1
  I  I124  1  0.33581391  0.83019314  0.50161068  1
  I  I125  1  0.33389477  0.83338775  0.83449429  1
  I  I126  1  0.66666479  0.16285041  0.16756671  1
  I  I127  1  0.67026411  0.16609693  0.50117360  1
  I  I128  1  0.66737693  0.15750352  0.83160800  1
  I  I129  1  0.66584241  0.50759010  0.16590717  1
  I  I130  1  0.66650327  0.49891991  0.49947984  1
  I  I131  1  0.66658461  0.50204986  0.83409370  1
  I  I132  1  0.66379497  0.83082616  0.16406197  1
  I  I133  1  0.66702627  0.83599733  0.50202022  1
  I  I134  1  0.66654984  0.83826628  0.83419045  1
