# generated using pymatgen
data_Cs27Sn14Pb13I81
_symmetry_space_group_name_H-M   'P 1'
_cell_length_a   18.98118150
_cell_length_b   18.97534034
_cell_length_c   18.97067857
_cell_angle_alpha   89.99796047
_cell_angle_beta   89.99961979
_cell_angle_gamma   89.99773796
_symmetry_Int_Tables_number   1
_chemical_formula_structural   Cs27Sn14Pb13I81
_chemical_formula_sum   'Cs27 Sn14 Pb13 I81'
_cell_volume   6832.75236310
_cell_formula_units_Z   1
loop_
 _symmetry_equiv_pos_site_id
 _symmetry_equiv_pos_as_xyz
  1  'x, y, z'
loop_
 _atom_site_type_symbol
 _atom_site_label
 _atom_site_symmetry_multiplicity
 _atom_site_fract_x
 _atom_site_fract_y
 _atom_site_fract_z
 _atom_site_occupancy
  Cs  Cs0  1  0.00272414  -0.00279224  0.00076116  1
  Cs  Cs1  1  0.00028206  0.00021138  0.33206113  1
  Cs  Cs2  1  0.00204448  -0.00084454  0.66789737  1
  Cs  Cs3  1  -0.00227699  0.33496073  -0.00341484  1
  Cs  Cs4  1  0.00198766  0.33041052  0.33590755  1
  Cs  Cs5  1  -0.00015115  0.33354714  0.66760345  1
  Cs  Cs6  1  0.00170696  0.66755138  -0.00027925  1
  Cs  Cs7  1  -0.00077692  0.66867448  0.33496852  1
  Cs  Cs8  1  -0.00137257  0.66720536  0.66669758  1
  Cs  Cs9  1  0.33217878  0.00036851  -0.00182055  1
  Cs  Cs10  1  0.32968721  0.00315994  0.33008944  1
  Cs  Cs11  1  0.33479903  -0.00084498  0.67186789  1
  Cs  Cs12  1  0.33476947  0.33796265  -0.00005957  1
  Cs  Cs13  1  0.33434383  0.33263227  0.33645921  1
  Cs  Cs14  1  0.32863619  0.33293931  0.66366352  1
  Cs  Cs15  1  0.33167466  0.66535968  -0.00014592  1
  Cs  Cs16  1  0.33400078  0.66421379  0.33342881  1
  Cs  Cs17  1  0.33444231  0.66815434  0.66669419  1
  Cs  Cs18  1  0.66559000  -0.00021894  -0.00045808  1
  Cs  Cs19  1  0.66807578  0.00247146  0.33368505  1
  Cs  Cs20  1  0.66208692  -0.00140800  0.66629807  1
  Cs  Cs21  1  0.66734282  0.33412665  0.00144136  1
  Cs  Cs22  1  0.66482382  0.32895978  0.33023274  1
  Cs  Cs23  1  0.67241538  0.33263728  0.66821814  1
  Cs  Cs24  1  0.66630541  0.66550604  0.00110991  1
  Cs  Cs25  1  0.66706551  0.66761311  0.33606306  1
  Cs  Cs26  1  0.66776760  0.66945318  0.65669203  1
  Sn  Sn27  1  0.49981073  0.50027342  0.83341113  1
  Sn  Sn28  1  0.50010811  0.50019440  0.16624345  1
  Sn  Sn29  1  0.83238067  0.83329918  0.16592960  1
  Sn  Sn30  1  0.83262430  0.16642408  0.49949567  1
  Sn  Sn31  1  0.16740350  0.50096335  0.83414781  1
  Sn  Sn32  1  0.16599867  0.83234583  0.83254618  1
  Sn  Sn33  1  0.16654869  0.49981766  0.16632278  1
  Sn  Sn34  1  0.50055535  0.16655805  0.16693441  1
  Sn  Sn35  1  0.50076378  0.16673709  0.49958731  1
  Sn  Sn36  1  0.16690785  0.83324303  0.50081116  1
  Sn  Sn37  1  0.50070374  0.83329932  0.16655658  1
  Sn  Sn38  1  0.83337486  0.83314884  0.83396113  1
  Sn  Sn39  1  0.83340694  0.50008667  0.16673144  1
  Sn  Sn40  1  0.83288538  0.16651972  0.16694129  1
  Pb  Pb41  1  0.83466777  0.83557539  0.49956557  1
  Pb  Pb42  1  0.16664543  0.50216246  0.50051659  1
  Pb  Pb43  1  0.83304450  0.50248841  0.83506872  1
  Pb  Pb44  1  0.83321647  0.16378217  0.83400520  1
  Pb  Pb45  1  0.16658476  0.16993795  0.16629373  1
  Pb  Pb46  1  0.50015599  0.83090302  0.83541252  1
  Pb  Pb47  1  0.50005986  0.16967407  0.83385255  1
  Pb  Pb48  1  0.49769336  0.83585889  0.49690108  1
  Pb  Pb49  1  0.50016603  0.49763428  0.50000762  1
  Pb  Pb50  1  0.16665724  0.16715753  0.83362884  1
  Pb  Pb51  1  0.83323238  0.49714955  0.49691937  1
  Pb  Pb52  1  0.16661576  0.83139233  0.16609474  1
  Pb  Pb53  1  0.16666926  0.16424161  0.49994243  1
  I  I54  1  0.16720204  -0.00016108  0.16666551  1
  I  I55  1  0.16640801  -0.00349156  0.50507672  1
  I  I56  1  0.16271350  -0.00359861  0.82963862  1
  I  I57  1  0.16681278  0.33814762  0.16098199  1
  I  I58  1  0.16657020  0.33322330  0.50007640  1
  I  I59  1  0.17078437  0.33736771  0.83845309  1
  I  I60  1  0.16731038  0.66341497  0.16539157  1
  I  I61  1  0.16557894  0.66991471  0.50023364  1
  I  I62  1  0.16652362  0.66660881  0.83455998  1
  I  I63  1  0.50657884  0.00027293  0.17103630  1
  I  I64  1  0.50405836  0.00361928  0.49451365  1
  I  I65  1  0.49902357  -0.00022795  0.83449817  1
  I  I66  1  0.50234718  0.33359150  0.16662579  1
  I  I67  1  0.50265796  0.32979751  0.49281802  1
  I  I68  1  0.49359612  0.33749753  0.84038377  1
  I  I69  1  0.50195355  0.66605618  0.16168247  1
  I  I70  1  0.49817278  0.66689979  0.49857458  1
  I  I71  1  0.49781583  0.66320524  0.84148541  1
  I  I72  1  0.82690581  -0.00018428  0.16692449  1
  I  I73  1  0.83046671  0.00320855  0.49291400  1
  I  I74  1  0.83976860  -0.00410253  0.83971595  1
  I  I75  1  0.83065065  0.33332681  0.17096677  1
  I  I76  1  0.83015167  0.32910196  0.49536734  1
  I  I77  1  0.83455310  0.33358036  0.83342536  1
  I  I78  1  0.83111977  0.66694298  0.16123574  1
  I  I79  1  0.83533597  0.66703525  0.49919444  1
  I  I80  1  0.83579412  0.67025177  0.84003110  1
  I  I81  1  0.16643207  0.16038552  0.00031225  1
  I  I82  1  0.16657357  0.16569070  0.33301869  1
  I  I83  1  0.16635586  0.17099779  0.66652923  1
  I  I84  1  0.16782402  0.50595379  0.00032542  1
  I  I85  1  0.16772662  0.50137996  0.33017589  1
  I  I86  1  0.17239464  0.50158424  0.67032099  1
  I  I87  1  0.16503267  0.83066918  -0.00253102  1
  I  I88  1  0.16665939  0.83269699  0.33456395  1
  I  I89  1  0.16058770  0.82832721  0.66837907  1
  I  I90  1  0.50482510  0.16537263  0.00385522  1
  I  I91  1  0.50386276  0.16848362  0.33130912  1
  I  I92  1  0.50416129  0.16754685  0.66388660  1
  I  I93  1  0.49861589  0.49779508  0.00227577  1
  I  I94  1  0.49932660  0.50163577  0.32936040  1
  I  I95  1  0.49274380  0.49894042  0.66968582  1
  I  I96  1  0.49933943  0.83825279  0.00385017  1
  I  I97  1  0.50458438  0.82743294  0.32868791  1
  I  I98  1  0.50204164  0.83329555  0.66667882  1
  I  I99  1  0.82837703  0.16917627  0.00392394  1
  I  I100  1  0.82922624  0.16537445  0.33135273  1
  I  I101  1  0.82914011  0.16480369  0.66392052  1
  I  I102  1  0.83302298  0.49488579  0.00387413  1
  I  I103  1  0.83264891  0.50666948  0.32797103  1
  I  I104  1  0.83413687  0.49959416  0.66683427  1
  I  I105  1  0.83644035  0.83530463  0.00174981  1
  I  I106  1  0.83167390  0.83132058  0.32976102  1
  I  I107  1  0.83682619  0.83437386  0.66906261  1
  I  I108  1  -0.00352677  0.16530961  0.17137970  1
  I  I109  1  -0.00298486  0.16551515  0.49370351  1
  I  I110  1  -0.00030599  0.17110873  0.83291683  1
  I  I111  1  -0.00030522  0.50073452  0.16288883  1
  I  I112  1  -0.00003116  0.49672911  0.49877980  1
  I  I113  1  0.00267464  0.50225846  0.83849698  1
  I  I114  1  -0.00276737  0.83377098  0.16625323  1
  I  I115  1  0.00247406  0.83552284  0.49867368  1
  I  I116  1  0.00050790  0.82850946  0.83581950  1
  I  I117  1  0.33677641  0.16554119  0.17108406  1
  I  I118  1  0.33630684  0.16671999  0.49375353  1
  I  I119  1  0.33356879  0.16131913  0.83320831  1
  I  I120  1  0.33405889  0.50076246  0.16264859  1
  I  I121  1  0.33336049  0.49697388  0.49427630  1
  I  I122  1  0.33265590  0.50533386  0.84341227  1
  I  I123  1  0.33587354  0.83375564  0.16746078  1
  I  I124  1  0.33017168  0.83456124  0.50531838  1
  I  I125  1  0.33069940  0.83132752  0.83098060  1
  I  I126  1  0.66665574  0.17045970  0.17062049  1
  I  I127  1  0.66671654  0.16616085  0.49359501  1
  I  I128  1  0.66666255  0.16697904  0.83276975  1
  I  I129  1  0.66624433  0.49922418  0.16241163  1
  I  I130  1  0.66669813  0.50476614  0.50287841  1
  I  I131  1  0.66417867  0.49911225  0.83958168  1
  I  I132  1  0.66753012  0.82982765  0.16156185  1
  I  I133  1  0.66653514  0.83231217  0.50293559  1
  I  I134  1  0.66908262  0.83328294  0.83749461  1
