# generated using pymatgen
data_Cs27Sn14Pb13I81
_symmetry_space_group_name_H-M   'P 1'
_cell_length_a   18.98244785
_cell_length_b   18.97066144
_cell_length_c   18.97646676
_cell_angle_alpha   90.00158167
_cell_angle_beta   89.99820122
_cell_angle_gamma   89.99826681
_symmetry_Int_Tables_number   1
_chemical_formula_structural   Cs27Sn14Pb13I81
_chemical_formula_sum   'Cs27 Sn14 Pb13 I81'
_cell_volume   6833.60768474
_cell_formula_units_Z   1
loop_
 _symmetry_equiv_pos_site_id
 _symmetry_equiv_pos_as_xyz
  1  'x, y, z'
loop_
 _atom_site_type_symbol
 _atom_site_label
 _atom_site_symmetry_multiplicity
 _atom_site_fract_x
 _atom_site_fract_y
 _atom_site_fract_z
 _atom_site_occupancy
  Cs  Cs0  1  0.00129354  0.00081526  0.00068742  1
  Cs  Cs1  1  -0.00224032  0.00592526  0.33240968  1
  Cs  Cs2  1  0.00038088  0.00060265  0.66555278  1
  Cs  Cs3  1  -0.00132110  0.33443465  -0.00276526  1
  Cs  Cs4  1  -0.00158401  0.32427212  0.33296107  1
  Cs  Cs5  1  0.00104069  0.33354680  0.66851884  1
  Cs  Cs6  1  -0.00020396  0.66549323  0.00139679  1
  Cs  Cs7  1  0.00255962  0.66860737  0.33167433  1
  Cs  Cs8  1  -0.00091816  0.66665289  0.66614237  1
  Cs  Cs9  1  0.33156116  0.00044026  0.00004711  1
  Cs  Cs10  1  0.33242910  0.00396821  0.33096154  1
  Cs  Cs11  1  0.33214090  -0.00196725  0.66902233  1
  Cs  Cs12  1  0.33424670  0.33526915  -0.00156460  1
  Cs  Cs13  1  0.33918655  0.33073973  0.33781749  1
  Cs  Cs14  1  0.33203426  0.33164118  0.66531772  1
  Cs  Cs15  1  0.33432168  0.66676797  0.00086578  1
  Cs  Cs16  1  0.33197440  0.66618864  0.33281225  1
  Cs  Cs17  1  0.33351545  0.66797927  0.66616036  1
  Cs  Cs18  1  0.66602070  -0.00042689  -0.00222603  1
  Cs  Cs19  1  0.66942680  0.00571677  0.33446427  1
  Cs  Cs20  1  0.66835350  -0.00437353  0.67014970  1
  Cs  Cs21  1  0.66729772  0.33337821  0.00019260  1
  Cs  Cs22  1  0.66301739  0.32476014  0.33874603  1
  Cs  Cs23  1  0.66691054  0.33750914  0.66276616  1
  Cs  Cs24  1  0.66592166  0.66712015  -0.00015315  1
  Cs  Cs25  1  0.66592333  0.66728338  0.33355505  1
  Cs  Cs26  1  0.66922110  0.66669323  0.66385931  1
  Sn  Sn27  1  0.49945295  0.49938090  0.83370915  1
  Sn  Sn28  1  0.83274765  0.50060994  0.16697977  1
  Sn  Sn29  1  0.50079901  0.83269551  0.16785436  1
  Sn  Sn30  1  0.83464088  0.83370957  0.83437387  1
  Sn  Sn31  1  0.83248385  0.83235455  0.16589953  1
  Sn  Sn32  1  0.16686927  0.50018145  0.16701924  1
  Sn  Sn33  1  0.16752387  0.83259768  0.50035398  1
  Sn  Sn34  1  0.50087418  0.16804383  0.83352114  1
  Sn  Sn35  1  0.16638692  0.50085670  0.49995390  1
  Sn  Sn36  1  0.50052678  0.50080821  0.16626654  1
  Sn  Sn37  1  0.16762044  0.50126489  0.83319161  1
  Sn  Sn38  1  0.49916743  0.83305826  0.49841378  1
  Sn  Sn39  1  0.16548527  0.83215498  0.83282159  1
  Sn  Sn40  1  0.83229412  0.16596677  0.83362587  1
  Pb  Pb41  1  0.49987604  0.16298544  0.50351619  1
  Pb  Pb42  1  0.16695580  0.17074860  0.16637582  1
  Pb  Pb43  1  0.49829729  0.50193051  0.49995024  1
  Pb  Pb44  1  0.83324167  0.16670112  0.50376242  1
  Pb  Pb45  1  0.83309127  0.50056890  0.83468598  1
  Pb  Pb46  1  0.16663212  0.83217492  0.16675216  1
  Pb  Pb47  1  0.49989402  0.83253130  0.83375606  1
  Pb  Pb48  1  0.50002834  0.16656785  0.16433104  1
  Pb  Pb49  1  0.16674012  0.16665430  0.83342340  1
  Pb  Pb50  1  0.83391718  0.83316894  0.49935161  1
  Pb  Pb51  1  0.16686744  0.16611155  0.50018947  1
  Pb  Pb52  1  0.83637907  0.50027256  0.49604095  1
  Pb  Pb53  1  0.83312831  0.16638925  0.16428479  1
  I  I54  1  0.16643094  -0.00026004  0.16629101  1
  I  I55  1  0.17010087  -0.00398867  0.50675040  1
  I  I56  1  0.16666258  -0.00335767  0.82834406  1
  I  I57  1  0.16596397  0.33964731  0.16452625  1
  I  I58  1  0.16610550  0.33689375  0.50076857  1
  I  I59  1  0.16686016  0.33692160  0.83388038  1
  I  I60  1  0.16677323  0.66362061  0.16541604  1
  I  I61  1  0.17062491  0.66689123  0.50182611  1
  I  I62  1  0.16699148  0.66611335  0.83290373  1
  I  I63  1  0.50506503  -0.00359737  0.16886812  1
  I  I64  1  0.49308271  -0.00491923  0.49475938  1
  I  I65  1  0.50095923  0.00129981  0.83258607  1
  I  I66  1  0.49906982  0.33701399  0.16370845  1
  I  I67  1  0.49856243  0.33337123  0.49763859  1
  I  I68  1  0.49923641  0.33503293  0.83978368  1
  I  I69  1  0.50028905  0.66597004  0.16320060  1
  I  I70  1  0.49777257  0.66986235  0.50191725  1
  I  I71  1  0.49807454  0.66395146  0.83525617  1
  I  I72  1  0.82867957  -0.00355361  0.16490226  1
  I  I73  1  0.83589985  -0.00038320  0.49516979  1
  I  I74  1  0.83250897  -0.00156655  0.83883267  1
  I  I75  1  0.83529281  0.33658121  0.16460166  1
  I  I76  1  0.83530449  0.33364923  0.49979647  1
  I  I77  1  0.83328397  0.33176937  0.83559708  1
  I  I78  1  0.83277807  0.66709580  0.15925718  1
  I  I79  1  0.83111074  0.66679262  0.50726665  1
  I  I80  1  0.83453828  0.66952930  0.83555348  1
  I  I81  1  0.16680685  0.16426758  -0.00052058  1
  I  I82  1  0.16553030  0.16485878  0.33341459  1
  I  I83  1  0.16581419  0.17132695  0.66702067  1
  I  I84  1  0.16757523  0.50405116  -0.00046057  1
  I  I85  1  0.16604538  0.50632064  0.33300645  1
  I  I86  1  0.17174325  0.50376643  0.66782276  1
  I  I87  1  0.16622239  0.82954295  -0.00270373  1
  I  I88  1  0.16796855  0.82771330  0.33560799  1
  I  I89  1  0.16745512  0.82590016  0.66755341  1
  I  I90  1  0.50331485  0.16575413  -0.00360085  1
  I  I91  1  0.49932761  0.16957893  0.33349215  1
  I  I92  1  0.50377669  0.17273506  0.67129453  1
  I  I93  1  0.49487593  0.50220729  0.00026648  1
  I  I94  1  0.49868476  0.50338987  0.33018874  1
  I  I95  1  0.49545552  0.49772651  0.66964161  1
  I  I96  1  0.50083941  0.83195215  0.00234766  1
  I  I97  1  0.49962894  0.82578677  0.33206830  1
  I  I98  1  0.49852030  0.83406617  0.66523235  1
  I  I99  1  0.82976139  0.16496292  -0.00345709  1
  I  I100  1  0.83491621  0.16635213  0.33310923  1
  I  I101  1  0.82998913  0.15967767  0.67187113  1
  I  I102  1  0.83788686  0.50141242  0.00281713  1
  I  I103  1  0.83214838  0.50880291  0.32784052  1
  I  I104  1  0.83309520  0.49933947  0.66669550  1
  I  I105  1  0.83295006  0.83308435  -0.00026397  1
  I  I106  1  0.83275428  0.82727368  0.32989115  1
  I  I107  1  0.83349912  0.83802829  0.66966277  1
  I  I108  1  -0.00017241  0.16568741  0.16441073  1
  I  I109  1  0.00014850  0.16520377  0.50103450  1
  I  I110  1  -0.00254209  0.16571322  0.83423176  1
  I  I111  1  0.00017472  0.50516127  0.16531584  1
  I  I112  1  0.00480441  0.50770198  0.50378259  1
  I  I113  1  0.00278027  0.50040527  0.83425643  1
  I  I114  1  -0.00236655  0.82856641  0.16462052  1
  I  I115  1  0.00330388  0.82845253  0.50226879  1
  I  I116  1  0.00031003  0.83334364  0.83333738  1
  I  I117  1  0.33365536  0.16363757  0.16277741  1
  I  I118  1  0.33352634  0.16863872  0.50268303  1
  I  I119  1  0.33597145  0.16759879  0.83360269  1
  I  I120  1  0.33373231  0.50490054  0.16416770  1
  I  I121  1  0.33006760  0.50301113  0.49660798  1
  I  I122  1  0.33282177  0.50024491  0.83839430  1
  I  I123  1  0.33585134  0.82889805  0.16615386  1
  I  I124  1  0.33251290  0.82858547  0.50194813  1
  I  I125  1  0.33104567  0.83251801  0.83263734  1
  I  I126  1  0.66662740  0.17142503  0.16686924  1
  I  I127  1  0.66630052  0.16596945  0.49777576  1
  I  I128  1  0.66670034  0.16503852  0.83512777  1
  I  I129  1  0.66576118  0.50548683  0.15847791  1
  I  I130  1  0.66654332  0.50167980  0.50197666  1
  I  I131  1  0.66402651  0.49960646  0.83872116  1
  I  I132  1  0.66657508  0.82480715  0.16504307  1
  I  I133  1  0.66414552  0.83351707  0.50075203  1
  I  I134  1  0.66865510  0.83441505  0.83400863  1
