# generated using pymatgen
data_Cs27Sn13Pb14I81
_symmetry_space_group_name_H-M   'P 1'
_cell_length_a   19.00391211
_cell_length_b   18.98064155
_cell_length_c   18.99414064
_cell_angle_alpha   90.00132939
_cell_angle_beta   89.99813348
_cell_angle_gamma   90.00064131
_symmetry_Int_Tables_number   1
_chemical_formula_structural   Cs27Sn13Pb14I81
_chemical_formula_sum   'Cs27 Sn13 Pb14 I81'
_cell_volume   6851.30891632
_cell_formula_units_Z   1
loop_
 _symmetry_equiv_pos_site_id
 _symmetry_equiv_pos_as_xyz
  1  'x, y, z'
loop_
 _atom_site_type_symbol
 _atom_site_label
 _atom_site_symmetry_multiplicity
 _atom_site_fract_x
 _atom_site_fract_y
 _atom_site_fract_z
 _atom_site_occupancy
  Cs  Cs0  1  0.00222160  -0.00065007  0.00118637  1
  Cs  Cs1  1  0.00425367  0.00314939  0.33143490  1
  Cs  Cs2  1  0.00300426  -0.00249000  0.66700983  1
  Cs  Cs3  1  -0.00310731  0.33338968  -0.00455964  1
  Cs  Cs4  1  -0.00120690  0.32870070  0.33576290  1
  Cs  Cs5  1  -0.00802623  0.33337441  0.66815621  1
  Cs  Cs6  1  0.00090958  0.66757154  0.00206441  1
  Cs  Cs7  1  -0.00021115  0.66748497  0.33289324  1
  Cs  Cs8  1  0.00018166  0.66713296  0.66536429  1
  Cs  Cs9  1  0.33140393  0.00226222  0.00019805  1
  Cs  Cs10  1  0.33059124  0.00593984  0.33308003  1
  Cs  Cs11  1  0.33262220  0.00073713  0.66648342  1
  Cs  Cs12  1  0.33623970  0.33831147  -0.00206991  1
  Cs  Cs13  1  0.33430167  0.33275611  0.33408481  1
  Cs  Cs14  1  0.33314250  0.33307766  0.66667739  1
  Cs  Cs15  1  0.33492484  0.66440699  0.00134733  1
  Cs  Cs16  1  0.33462668  0.66600956  0.33382774  1
  Cs  Cs17  1  0.33371940  0.66712093  0.66542572  1
  Cs  Cs18  1  0.66551296  0.00451932  -0.00193700  1
  Cs  Cs19  1  0.66550065  0.00149741  0.33304451  1
  Cs  Cs20  1  0.66326473  0.00066238  0.66964959  1
  Cs  Cs21  1  0.66772986  0.32338607  -0.00507746  1
  Cs  Cs22  1  0.66677756  0.33008150  0.33376647  1
  Cs  Cs23  1  0.67763385  0.32510458  0.67345419  1
  Cs  Cs24  1  0.66387488  0.66758964  0.00425229  1
  Cs  Cs25  1  0.66535050  0.66620056  0.33290981  1
  Cs  Cs26  1  0.66629734  0.66796980  0.66485091  1
  Sn  Sn27  1  0.16649190  0.50036830  0.16780773  1
  Sn  Sn28  1  0.83287872  0.50073021  0.16673637  1
  Sn  Sn29  1  0.83251425  0.83275226  0.16682710  1
  Sn  Sn30  1  0.49966398  0.83266281  0.49868657  1
  Sn  Sn31  1  0.83329041  0.83291966  0.49950007  1
  Sn  Sn32  1  0.16704820  0.50094976  0.49904321  1
  Sn  Sn33  1  0.49995731  0.50049358  0.49974732  1
  Sn  Sn34  1  0.50041830  0.83299738  0.16770534  1
  Sn  Sn35  1  0.16691129  0.16603730  0.83322498  1
  Sn  Sn36  1  0.16627442  0.83356763  0.83282983  1
  Sn  Sn37  1  0.50058802  0.50077875  0.16768158  1
  Sn  Sn38  1  0.16694492  0.83242707  0.50038538  1
  Sn  Sn39  1  0.83399676  0.83249977  0.83372268  1
  Pb  Pb40  1  0.50037470  0.50022890  0.83241182  1
  Pb  Pb41  1  0.16670322  0.50083165  0.83239957  1
  Pb  Pb42  1  0.16715169  0.83198820  0.16689490  1
  Pb  Pb43  1  0.16669158  0.16742181  0.50189604  1
  Pb  Pb44  1  0.16671637  0.17081727  0.16413814  1
  Pb  Pb45  1  0.83346141  0.16608735  0.16682073  1
  Pb  Pb46  1  0.49979655  0.16684387  0.16689779  1
  Pb  Pb47  1  0.49996517  0.16735378  0.50000590  1
  Pb  Pb48  1  0.83588735  0.16297975  0.83345487  1
  Pb  Pb49  1  0.83290915  0.50179933  0.49798670  1
  Pb  Pb50  1  0.49960186  0.83309814  0.83346156  1
  Pb  Pb51  1  0.49701838  0.16655005  0.83311204  1
  Pb  Pb52  1  0.83308889  0.50329339  0.83624760  1
  Pb  Pb53  1  0.83339661  0.16293465  0.49978347  1
  I  I54  1  0.16637180  -0.00009242  0.16889788  1
  I  I55  1  0.16650721  -0.00355458  0.50209877  1
  I  I56  1  0.16244785  -0.00240044  0.82788940  1
  I  I57  1  0.16750328  0.33910172  0.17208078  1
  I  I58  1  0.17299603  0.33724084  0.49654080  1
  I  I59  1  0.16892886  0.33132368  0.83566808  1
  I  I60  1  0.16638745  0.66393402  0.16471025  1
  I  I61  1  0.16720562  0.66792735  0.50275369  1
  I  I62  1  0.16225438  0.66997316  0.83173170  1
  I  I63  1  0.50543736  -0.00379804  0.17024197  1
  I  I64  1  0.49985957  -0.00414410  0.49622469  1
  I  I65  1  0.50301390  -0.00066788  0.83376981  1
  I  I66  1  0.49932421  0.33749840  0.17121713  1
  I  I67  1  0.49163583  0.33757518  0.49339226  1
  I  I68  1  0.49693537  0.33338663  0.83486672  1
  I  I69  1  0.50113275  0.66681407  0.16991155  1
  I  I70  1  0.49834248  0.66791030  0.49571325  1
  I  I71  1  0.49616519  0.66706957  0.83451136  1
  I  I72  1  0.82845753  -0.00456125  0.16626881  1
  I  I73  1  0.83396119  -0.00626063  0.49711255  1
  I  I74  1  0.83424325  -0.00501348  0.83580802  1
  I  I75  1  0.83316237  0.33678994  0.16724544  1
  I  I76  1  0.83393624  0.33371768  0.49860537  1
  I  I77  1  0.83455421  0.33312468  0.83456639  1
  I  I78  1  0.83273904  0.66786922  0.16593870  1
  I  I79  1  0.83459197  0.67057142  0.50262732  1
  I  I80  1  0.84193817  0.67123531  0.83049504  1
  I  I81  1  0.16582472  0.15747667  -0.00333025  1
  I  I82  1  0.16674690  0.16341157  0.33339669  1
  I  I83  1  0.16677521  0.16461689  0.66953576  1
  I  I84  1  0.16754540  0.50036913  0.00274052  1
  I  I85  1  0.16768272  0.50749958  0.33378838  1
  I  I86  1  0.17296862  0.50194825  0.66303265  1
  I  I87  1  0.16309652  0.83542012  -0.00212262  1
  I  I88  1  0.16390237  0.83033662  0.33631210  1
  I  I89  1  0.16347992  0.83177696  0.66560731  1
  I  I90  1  0.49990247  0.16647307  0.00014311  1
  I  I91  1  0.49836902  0.16486250  0.33339629  1
  I  I92  1  0.49992865  0.16566145  0.66647950  1
  I  I93  1  0.49738051  0.50549033  0.00389253  1
  I  I94  1  0.49800485  0.50584700  0.33282060  1
  I  I95  1  0.49105615  0.50720708  0.66226847  1
  I  I96  1  0.50293316  0.82841918  0.00334353  1
  I  I97  1  0.50338960  0.82880199  0.33364823  1
  I  I98  1  0.50228059  0.82908968  0.66324193  1
  I  I99  1  0.83417156  0.16591044  -0.00002729  1
  I  I100  1  0.83468486  0.16444873  0.33316839  1
  I  I101  1  0.83361830  0.16848631  0.66688963  1
  I  I102  1  0.83509477  0.50632372  0.00477364  1
  I  I103  1  0.83427490  0.50780923  0.32993064  1
  I  I104  1  0.83446045  0.50037022  0.66639498  1
  I  I105  1  0.83450917  0.82895571  0.00064981  1
  I  I106  1  0.83291489  0.82847451  0.33305349  1
  I  I107  1  0.83456459  0.83452984  0.66615107  1
  I  I108  1  0.00016769  0.16508718  0.16654320  1
  I  I109  1  0.00021057  0.16791741  0.50024583  1
  I  I110  1  0.00326107  0.16532895  0.83327619  1
  I  I111  1  -0.00012377  0.50567270  0.16909165  1
  I  I112  1  0.00269328  0.50465427  0.49641626  1
  I  I113  1  0.00007585  0.49762389  0.83410182  1
  I  I114  1  -0.00238429  0.82891751  0.16787585  1
  I  I115  1  0.00051350  0.82952481  0.50158514  1
  I  I116  1  0.00038608  0.83687930  0.83060161  1
  I  I117  1  0.33316031  0.16377556  0.16456395  1
  I  I118  1  0.33320859  0.16105416  0.50199690  1
  I  I119  1  0.32923695  0.15770543  0.83320142  1
  I  I120  1  0.33378267  0.50452631  0.16907704  1
  I  I121  1  0.33300098  0.50902324  0.49194574  1
  I  I122  1  0.33312171  0.50158488  0.83970097  1
  I  I123  1  0.33599181  0.82862656  0.16837006  1
  I  I124  1  0.33308440  0.82934354  0.50130170  1
  I  I125  1  0.33010790  0.83722569  0.83002146  1
  I  I126  1  0.66665828  0.17003162  0.16470853  1
  I  I127  1  0.66663894  0.16775042  0.50115268  1
  I  I128  1  0.66715829  0.16699146  0.83363877  1
  I  I129  1  0.66608945  0.50705335  0.17082791  1
  I  I130  1  0.66356425  0.50645376  0.49485187  1
  I  I131  1  0.66684920  0.50189838  0.83205910  1
  I  I132  1  0.66688278  0.82557633  0.16897850  1
  I  I133  1  0.66630819  0.82914155  0.50002312  1
  I  I134  1  0.66948622  0.83133522  0.83108624  1
