# generated using pymatgen
data_Cs27Sn14Pb13I81
_symmetry_space_group_name_H-M   'P 1'
_cell_length_a   18.97646440
_cell_length_b   18.97361733
_cell_length_c   18.97695751
_cell_angle_alpha   89.99966111
_cell_angle_beta   89.99987914
_cell_angle_gamma   89.99967794
_symmetry_Int_Tables_number   1
_chemical_formula_structural   Cs27Sn14Pb13I81
_chemical_formula_sum   'Cs27 Sn14 Pb13 I81'
_cell_volume   6832.69480709
_cell_formula_units_Z   1
loop_
 _symmetry_equiv_pos_site_id
 _symmetry_equiv_pos_as_xyz
  1  'x, y, z'
loop_
 _atom_site_type_symbol
 _atom_site_label
 _atom_site_symmetry_multiplicity
 _atom_site_fract_x
 _atom_site_fract_y
 _atom_site_fract_z
 _atom_site_occupancy
  Cs  Cs0  1  -0.00096406  0.00079712  -0.00225041  1
  Cs  Cs1  1  -0.00323889  0.00572395  0.33373990  1
  Cs  Cs2  1  0.00402154  0.00114041  0.66735503  1
  Cs  Cs3  1  0.00430719  0.33130795  -0.00008897  1
  Cs  Cs4  1  -0.00096731  0.32729622  0.33476047  1
  Cs  Cs5  1  0.00902624  0.33210246  0.66512292  1
  Cs  Cs6  1  -0.00325263  0.66835981  -0.00526842  1
  Cs  Cs7  1  -0.00061388  0.66714768  0.33227328  1
  Cs  Cs8  1  -0.00108987  0.66695188  0.67371990  1
  Cs  Cs9  1  0.33489690  0.00059610  -0.00108887  1
  Cs  Cs10  1  0.33594907  -0.00420751  0.33339868  1
  Cs  Cs11  1  0.33607342  -0.00095336  0.66814852  1
  Cs  Cs12  1  0.33306563  0.33162448  0.00152632  1
  Cs  Cs13  1  0.33099364  0.33630985  0.33254454  1
  Cs  Cs14  1  0.32662022  0.34246791  0.66495318  1
  Cs  Cs15  1  0.33296724  0.66730547  0.00494111  1
  Cs  Cs16  1  0.33330528  0.66730365  0.33273407  1
  Cs  Cs17  1  0.33135853  0.66164937  0.66511665  1
  Cs  Cs18  1  0.66610182  0.00047182  -0.00087268  1
  Cs  Cs19  1  0.66688852  -0.00042026  0.33438554  1
  Cs  Cs20  1  0.66416370  0.00281542  0.66575626  1
  Cs  Cs21  1  0.66476801  0.33387800  -0.00269213  1
  Cs  Cs22  1  0.66798037  0.33401242  0.33366924  1
  Cs  Cs23  1  0.66563713  0.33321184  0.66967101  1
  Cs  Cs24  1  0.67021184  0.66586865  -0.00053639  1
  Cs  Cs25  1  0.66750152  0.66726452  0.33305343  1
  Cs  Cs26  1  0.66795950  0.66358676  0.66608725  1
  Sn  Sn27  1  0.16610031  0.50105662  0.16710574  1
  Sn  Sn28  1  0.50005225  0.83359534  0.50037994  1
  Sn  Sn29  1  0.50034093  0.50026030  0.16688142  1
  Sn  Sn30  1  0.49990811  0.16677621  0.50021158  1
  Sn  Sn31  1  0.50031451  0.16640069  0.16708719  1
  Sn  Sn32  1  0.83337265  0.83277043  0.49984716  1
  Sn  Sn33  1  0.50023661  0.83329454  0.83324752  1
  Sn  Sn34  1  0.16679533  0.83287243  0.16756776  1
  Sn  Sn35  1  0.50037032  0.16620624  0.83279227  1
  Sn  Sn36  1  0.83359285  0.50000678  0.16742306  1
  Sn  Sn37  1  0.83277084  0.16676690  0.83307886  1
  Sn  Sn38  1  0.16662031  0.83325330  0.49907097  1
  Sn  Sn39  1  0.83315797  0.50052251  0.49941947  1
  Sn  Sn40  1  0.49989274  0.83333642  0.16642348  1
  Pb  Pb41  1  0.50154113  0.50031383  0.49782836  1
  Pb  Pb42  1  0.16942370  0.83330135  0.83371621  1
  Pb  Pb43  1  0.17016387  0.16369131  0.49969723  1
  Pb  Pb44  1  0.16358817  0.50272751  0.49747728  1
  Pb  Pb45  1  0.83332498  0.49735015  0.83302466  1
  Pb  Pb46  1  0.83069677  0.83540200  0.83034737  1
  Pb  Pb47  1  0.16669788  0.50041777  0.83666719  1
  Pb  Pb48  1  0.16909156  0.16565572  0.16690092  1
  Pb  Pb49  1  0.83081179  0.16922738  0.16478835  1
  Pb  Pb50  1  0.83345685  0.83200056  0.16819492  1
  Pb  Pb51  1  0.49985361  0.50006954  0.83588963  1
  Pb  Pb52  1  0.83129571  0.16679178  0.50194392  1
  Pb  Pb53  1  0.16797949  0.16643635  0.83326269  1
  I  I54  1  0.17269451  -0.00384778  0.16996534  1
  I  I55  1  0.16133086  -0.00449650  0.49271201  1
  I  I56  1  0.16413398  -0.00026615  0.83630901  1
  I  I57  1  0.16812715  0.33615998  0.16498291  1
  I  I58  1  0.16651481  0.33360209  0.49984611  1
  I  I59  1  0.16877473  0.33330740  0.83448991  1
  I  I60  1  0.17400457  0.66728911  0.17075356  1
  I  I61  1  0.17471443  0.67062066  0.49778824  1
  I  I62  1  0.16795062  0.66713871  0.83105522  1
  I  I63  1  0.49524915  -0.00091441  0.16657782  1
  I  I64  1  0.50199002  -0.00142966  0.49577705  1
  I  I65  1  0.50336372  -0.00001725  0.83744595  1
  I  I66  1  0.50074364  0.33337367  0.16604726  1
  I  I67  1  0.50399297  0.33086182  0.49971278  1
  I  I68  1  0.50459839  0.32998218  0.83414227  1
  I  I69  1  0.49899749  0.66745584  0.16713695  1
  I  I70  1  0.49846962  0.67027910  0.49987293  1
  I  I71  1  0.49902598  0.66996989  0.83260243  1
  I  I72  1  0.83350918  0.00012152  0.16757536  1
  I  I73  1  0.83379759  -0.00292667  0.50107639  1
  I  I74  1  0.82959994  0.00300858  0.83306122  1
  I  I75  1  0.83339939  0.33752727  0.17338914  1
  I  I76  1  0.82984158  0.33587163  0.49604852  1
  I  I77  1  0.82305567  0.32988845  0.83315166  1
  I  I78  1  0.82746779  0.66369779  0.16801196  1
  I  I79  1  0.82944298  0.66751998  0.49553619  1
  I  I80  1  0.83223063  0.66674138  0.83463634  1
  I  I81  1  0.16846047  0.16607327  0.00024120  1
  I  I82  1  0.16660272  0.16937302  0.33326100  1
  I  I83  1  0.16821996  0.16534921  0.66640430  1
  I  I84  1  0.16543990  0.50655831  0.00524369  1
  I  I85  1  0.17152807  0.50225429  0.32952400  1
  I  I86  1  0.16549700  0.50013600  0.66610888  1
  I  I87  1  0.17236053  0.82905418  0.00367091  1
  I  I88  1  0.17387051  0.82914303  0.33273476  1
  I  I89  1  0.16739376  0.83530601  0.66348352  1
  I  I90  1  0.50343646  0.16420080  0.00029762  1
  I  I91  1  0.49943223  0.16307985  0.33306832  1
  I  I92  1  0.50546570  0.15637831  0.66667725  1
  I  I93  1  0.50227005  0.50023713  0.00470656  1
  I  I94  1  0.49835544  0.50005207  0.32934415  1
  I  I95  1  0.50289117  0.49979460  0.66640435  1
  I  I96  1  0.49511945  0.83582708  0.00128599  1
  I  I97  1  0.49944268  0.83562355  0.33328383  1
  I  I98  1  0.50074135  0.84162359  0.66559902  1
  I  I99  1  0.82616370  0.16726538  -0.00285961  1
  I  I100  1  0.83166713  0.16590329  0.33350376  1
  I  I101  1  0.82418049  0.16722007  0.66939386  1
  I  I102  1  0.83235199  0.49897203  0.00330244  1
  I  I103  1  0.83136573  0.50379265  0.33256630  1
  I  I104  1  0.83077221  0.50435765  0.66353119  1
  I  I105  1  0.83321230  0.83209092  -0.00017103  1
  I  I106  1  0.82745510  0.83261041  0.33640584  1
  I  I107  1  0.83363974  0.82635275  0.66218495  1
  I  I108  1  -0.00017544  0.16692585  0.16387774  1
  I  I109  1  -0.00002507  0.16613054  0.50270157  1
  I  I110  1  -0.00252075  0.16840052  0.83315621  1
  I  I111  1  0.00002916  0.50562567  0.17034656  1
  I  I112  1  -0.00411372  0.50368139  0.49450493  1
  I  I113  1  -0.00025808  0.49787140  0.83530604  1
  I  I114  1  0.00286620  0.82769984  0.17147458  1
  I  I115  1  0.00000616  0.82797892  0.49433756  1
  I  I116  1  -0.00020654  0.83500971  0.83393730  1
  I  I117  1  0.33795151  0.17088562  0.16354441  1
  I  I118  1  0.33856784  0.16192062  0.50160067  1
  I  I119  1  0.33791629  0.16120931  0.83538423  1
  I  I120  1  0.33406458  0.50056465  0.16509292  1
  I  I121  1  0.33314606  0.49905752  0.49958576  1
  I  I122  1  0.33361118  0.49717245  0.83283524  1
  I  I123  1  0.33517209  0.82920675  0.17047504  1
  I  I124  1  0.33469119  0.83900336  0.49884941  1
  I  I125  1  0.33776375  0.84094326  0.83072284  1
  I  I126  1  0.66217673  0.16462582  0.16868283  1
  I  I127  1  0.66300608  0.16027337  0.49712052  1
  I  I128  1  0.66424024  0.16308233  0.83400426  1
  I  I129  1  0.66597154  0.49984813  0.17007498  1
  I  I130  1  0.66920524  0.50576237  0.49319340  1
  I  I131  1  0.66653923  0.50187266  0.83710706  1
  I  I132  1  0.66317803  0.83307198  0.16759446  1
  I  I133  1  0.66525617  0.83360362  0.49920658  1
  I  I134  1  0.66246118  0.83530772  0.83594673  1
