# generated using pymatgen
data_Cs27Sn14Pb13I81
_symmetry_space_group_name_H-M   'P 1'
_cell_length_a   18.96536631
_cell_length_b   18.96270185
_cell_length_c   18.95789484
_cell_angle_alpha   89.99968886
_cell_angle_beta   90.00085636
_cell_angle_gamma   90.00015992
_symmetry_Int_Tables_number   1
_chemical_formula_structural   Cs27Sn14Pb13I81
_chemical_formula_sum   'Cs27 Sn14 Pb13 I81'
_cell_volume   6817.91467481
_cell_formula_units_Z   1
loop_
 _symmetry_equiv_pos_site_id
 _symmetry_equiv_pos_as_xyz
  1  'x, y, z'
loop_
 _atom_site_type_symbol
 _atom_site_label
 _atom_site_symmetry_multiplicity
 _atom_site_fract_x
 _atom_site_fract_y
 _atom_site_fract_z
 _atom_site_occupancy
  Cs  Cs0  1  0.00152512  -0.00094529  0.00193590  1
  Cs  Cs1  1  -0.00146825  0.00001444  0.32968950  1
  Cs  Cs2  1  0.00575132  -0.00118033  0.67008884  1
  Cs  Cs3  1  -0.00175322  0.33260405  -0.00099265  1
  Cs  Cs4  1  -0.00140677  0.33285433  0.33481109  1
  Cs  Cs5  1  -0.00067552  0.33413902  0.66663635  1
  Cs  Cs6  1  -0.00065845  0.66751145  -0.00117984  1
  Cs  Cs7  1  0.00014900  0.66655705  0.33387607  1
  Cs  Cs8  1  -0.00068389  0.66703167  0.66723126  1
  Cs  Cs9  1  0.33262039  0.00173498  -0.00260247  1
  Cs  Cs10  1  0.33470073  -0.00053333  0.33646991  1
  Cs  Cs11  1  0.33453387  0.00285097  0.66528724  1
  Cs  Cs12  1  0.33393117  0.33447691  0.00033331  1
  Cs  Cs13  1  0.32975469  0.33533170  0.33306985  1
  Cs  Cs14  1  0.33277867  0.32605090  0.66713929  1
  Cs  Cs15  1  0.33424582  0.66393542  0.00398268  1
  Cs  Cs16  1  0.32948028  0.66593111  0.33169170  1
  Cs  Cs17  1  0.33295457  0.67250201  0.66369638  1
  Cs  Cs18  1  0.66563549  -0.00100645  0.00139883  1
  Cs  Cs19  1  0.66683947  0.00053726  0.33207709  1
  Cs  Cs20  1  0.65998281  -0.00142516  0.66708783  1
  Cs  Cs21  1  0.66754574  0.33416094  -0.00018883  1
  Cs  Cs22  1  0.66882330  0.33288994  0.33405152  1
  Cs  Cs23  1  0.66756670  0.33519923  0.66670127  1
  Cs  Cs24  1  0.66630709  0.66602472  -0.00102369  1
  Cs  Cs25  1  0.66729900  0.66660473  0.33371007  1
  Cs  Cs26  1  0.66798564  0.66474833  0.66716504  1
  Sn  Sn27  1  0.16799534  0.16614899  0.16675984  1
  Sn  Sn28  1  0.83323985  0.16602776  0.50167072  1
  Sn  Sn29  1  0.83335576  0.50089716  0.16671857  1
  Sn  Sn30  1  0.16697396  0.50017814  0.83297732  1
  Sn  Sn31  1  0.49881032  0.16613396  0.16677244  1
  Sn  Sn32  1  0.50041581  0.49991484  0.50075889  1
  Sn  Sn33  1  0.83310259  0.16681134  0.83220087  1
  Sn  Sn34  1  0.49958554  0.50003209  0.83193276  1
  Sn  Sn35  1  0.83327807  0.49932149  0.83318612  1
  Sn  Sn36  1  0.83272767  0.50009751  0.50008193  1
  Sn  Sn37  1  0.50006955  0.83422593  0.16673984  1
  Sn  Sn38  1  0.83314955  0.83219778  0.16724287  1
  Sn  Sn39  1  0.16672495  0.83421249  0.16660849  1
  Sn  Sn40  1  0.83325193  0.83364748  0.49959863  1
  Pb  Pb41  1  0.16420732  0.16656914  0.49770463  1
  Pb  Pb42  1  0.50200080  0.49997927  0.16707155  1
  Pb  Pb43  1  0.16694024  0.83122984  0.83546730  1
  Pb  Pb44  1  0.50217034  0.16867830  0.83531407  1
  Pb  Pb45  1  0.16379950  0.49987317  0.16511458  1
  Pb  Pb46  1  0.83325218  0.16638704  0.16653385  1
  Pb  Pb47  1  0.83321270  0.83358692  0.83304727  1
  Pb  Pb48  1  0.50210588  0.16883395  0.49777916  1
  Pb  Pb49  1  0.16432868  0.83343248  0.49786802  1
  Pb  Pb50  1  0.16457936  0.16842698  0.83535498  1
  Pb  Pb51  1  0.16674113  0.49993063  0.50279213  1
  Pb  Pb52  1  0.50206721  0.83112909  0.49784012  1
  Pb  Pb53  1  0.49986804  0.83099594  0.83537307  1
  I  I54  1  0.16243196  -0.00058328  0.16632001  1
  I  I55  1  0.16395178  -0.00001393  0.50147041  1
  I  I56  1  0.16256096  0.00024865  0.83476440  1
  I  I57  1  0.16916398  0.33102785  0.16490917  1
  I  I58  1  0.16313340  0.33347157  0.49527517  1
  I  I59  1  0.16631216  0.33669764  0.83722721  1
  I  I60  1  0.16818167  0.66921012  0.16494484  1
  I  I61  1  0.16383182  0.66646388  0.49695715  1
  I  I62  1  0.16136687  0.66270891  0.83614939  1
  I  I63  1  0.50377511  -0.00052049  0.16673570  1
  I  I64  1  0.50317617  -0.00001336  0.49887971  1
  I  I65  1  0.50301960  0.00030645  0.83450114  1
  I  I66  1  0.49834939  0.33135248  0.16601880  1
  I  I67  1  0.50776538  0.33695452  0.50076956  1
  I  I68  1  0.50046401  0.33725115  0.83363820  1
  I  I69  1  0.49907301  0.66890360  0.16606365  1
  I  I70  1  0.50747477  0.66298288  0.50158498  1
  I  I71  1  0.50566889  0.66216217  0.83331238  1
  I  I72  1  0.83340269  -0.00259920  0.16940181  1
  I  I73  1  0.83477855  -0.00009044  0.49599817  1
  I  I74  1  0.83404491  0.00295799  0.83297071  1
  I  I75  1  0.83289992  0.33561052  0.16800266  1
  I  I76  1  0.83014988  0.33450378  0.49904372  1
  I  I77  1  0.83334561  0.33531448  0.83267426  1
  I  I78  1  0.83308648  0.66681265  0.16865891  1
  I  I79  1  0.83005984  0.66564911  0.49821740  1
  I  I80  1  0.83303870  0.66314098  0.83286318  1
  I  I81  1  0.16600842  0.16366708  0.00365552  1
  I  I82  1  0.16682430  0.16471760  0.32915520  1
  I  I83  1  0.16624845  0.16862296  0.66689784  1
  I  I84  1  0.16576611  0.50037324  -0.00271196  1
  I  I85  1  0.16611771  0.50029011  0.33313742  1
  I  I86  1  0.15977943  0.49925515  0.67064422  1
  I  I87  1  0.16148565  0.83606448  0.00445035  1
  I  I88  1  0.16732843  0.83446684  0.32892543  1
  I  I89  1  0.16341062  0.83101149  0.66660844  1
  I  I90  1  0.50066646  0.16591789  0.00357981  1
  I  I91  1  0.50051832  0.16574621  0.32957265  1
  I  I92  1  0.49997772  0.16646413  0.66659235  1
  I  I93  1  0.50265343  0.50022684  -0.00207819  1
  I  I94  1  0.50725409  0.49982797  0.33548853  1
  I  I95  1  0.50752608  0.49997722  0.66700147  1
  I  I96  1  0.50463953  0.83373638  0.00442398  1
  I  I97  1  0.49983911  0.83380570  0.32923719  1
  I  I98  1  0.50283382  0.83291512  0.66626593  1
  I  I99  1  0.83333123  0.17204154  -0.00179412  1
  I  I100  1  0.83334164  0.17023308  0.33524646  1
  I  I101  1  0.83334400  0.17243905  0.66635978  1
  I  I102  1  0.83283925  0.49916251  -0.00050435  1
  I  I103  1  0.82880176  0.49974779  0.33383608  1
  I  I104  1  0.83274115  0.49947438  0.66669593  1
  I  I105  1  0.83363651  0.82995592  0.00348943  1
  I  I106  1  0.83356337  0.82975509  0.33208949  1
  I  I107  1  0.83292673  0.82944472  0.66356430  1
  I  I108  1  0.00142075  0.16438467  0.16639920  1
  I  I109  1  -0.00474513  0.17127003  0.49995596  1
  I  I110  1  -0.00375962  0.17365083  0.83282095  1
  I  I111  1  -0.00458676  0.50245085  0.16702917  1
  I  I112  1  -0.00394484  0.50001118  0.49940847  1
  I  I113  1  -0.00195422  0.49662169  0.83513762  1
  I  I114  1  -0.00102473  0.83343737  0.17006585  1
  I  I115  1  -0.00467875  0.82925560  0.49402641  1
  I  I116  1  -0.00037452  0.83017972  0.83651506  1
  I  I117  1  0.33349028  0.16053628  0.16565233  1
  I  I118  1  0.33364736  0.16957956  0.49920541  1
  I  I119  1  0.33343094  0.17026117  0.83531416  1
  I  I120  1  0.33335723  0.50201226  0.16598823  1
  I  I121  1  0.33645516  0.50017804  0.50194876  1
  I  I122  1  0.33409379  0.50164812  0.83241201  1
  I  I123  1  0.33343444  0.83658485  0.16423612  1
  I  I124  1  0.33365856  0.82940654  0.49720197  1
  I  I125  1  0.33341247  0.82959996  0.83649729  1
  I  I126  1  0.66513415  0.16467748  0.16660929  1
  I  I127  1  0.67075918  0.16648436  0.49947080  1
  I  I128  1  0.67042626  0.17355659  0.83339334  1
  I  I129  1  0.67030366  0.50250456  0.16309552  1
  I  I130  1  0.66894709  0.50020902  0.50344072  1
  I  I131  1  0.66813098  0.49671799  0.83353219  1
  I  I132  1  0.66766470  0.83317211  0.16990759  1
  I  I133  1  0.67070530  0.83394935  0.49298525  1
  I  I134  1  0.66696644  0.83090835  0.83791494  1
