# generated using pymatgen
data_Cs27Sn14Pb13I81
_symmetry_space_group_name_H-M   'P 1'
_cell_length_a   18.97355380
_cell_length_b   18.97191150
_cell_length_c   18.98251653
_cell_angle_alpha   90.00061957
_cell_angle_beta   90.00124671
_cell_angle_gamma   89.99986883
_symmetry_Int_Tables_number   1
_chemical_formula_structural   Cs27Sn14Pb13I81
_chemical_formula_sum   'Cs27 Sn14 Pb13 I81'
_cell_volume   6833.03365249
_cell_formula_units_Z   1
loop_
 _symmetry_equiv_pos_site_id
 _symmetry_equiv_pos_as_xyz
  1  'x, y, z'
loop_
 _atom_site_type_symbol
 _atom_site_label
 _atom_site_symmetry_multiplicity
 _atom_site_fract_x
 _atom_site_fract_y
 _atom_site_fract_z
 _atom_site_occupancy
  Cs  Cs0  1  0.00133324  -0.00160437  -0.00017483  1
  Cs  Cs1  1  -0.00090929  -0.00078799  0.33656692  1
  Cs  Cs2  1  -0.00175367  -0.00022726  0.66418163  1
  Cs  Cs3  1  -0.00146665  0.33263184  0.00250420  1
  Cs  Cs4  1  0.00007275  0.33251100  0.32866145  1
  Cs  Cs5  1  0.00115062  0.33542388  0.66769282  1
  Cs  Cs6  1  0.00100175  0.67051918  -0.00059821  1
  Cs  Cs7  1  -0.00017645  0.66801756  0.33419127  1
  Cs  Cs8  1  -0.00109193  0.66332284  0.66721043  1
  Cs  Cs9  1  0.33275484  -0.00256404  0.00155479  1
  Cs  Cs10  1  0.33256461  -0.00011261  0.33365883  1
  Cs  Cs11  1  0.33470301  0.00167704  0.66463197  1
  Cs  Cs12  1  0.33190756  0.33043001  -0.00029348  1
  Cs  Cs13  1  0.33152014  0.33298503  0.33530189  1
  Cs  Cs14  1  0.33241200  0.33553460  0.66465929  1
  Cs  Cs15  1  0.33905772  0.67611255  -0.00481207  1
  Cs  Cs16  1  0.33596409  0.66619832  0.33323828  1
  Cs  Cs17  1  0.33335772  0.65778785  0.67069689  1
  Cs  Cs18  1  0.66572412  -0.00007385  -0.00174722  1
  Cs  Cs19  1  0.66875143  0.00106346  0.33904019  1
  Cs  Cs20  1  0.66729994  -0.00010308  0.66427422  1
  Cs  Cs21  1  0.66893693  0.33455822  0.00282352  1
  Cs  Cs22  1  0.66864185  0.33542654  0.32730024  1
  Cs  Cs23  1  0.66618627  0.33326388  0.66825600  1
  Cs  Cs24  1  0.66195265  0.66641875  0.00284917  1
  Cs  Cs25  1  0.66503613  0.66328524  0.33017185  1
  Cs  Cs26  1  0.66855754  0.66560202  0.66712169  1
  Sn  Sn27  1  0.49934031  0.16641290  0.16705456  1
  Sn  Sn28  1  0.83325447  0.83376928  0.16601422  1
  Sn  Sn29  1  0.83335434  0.49948691  0.50003512  1
  Sn  Sn30  1  0.83347247  0.49983901  0.83294024  1
  Sn  Sn31  1  0.16737682  0.16716768  0.16680543  1
  Sn  Sn32  1  0.49866516  0.83358422  0.50045478  1
  Sn  Sn33  1  0.83334424  0.83347554  0.83425816  1
  Sn  Sn34  1  0.16711405  0.16606059  0.50002660  1
  Sn  Sn35  1  0.49981288  0.16652505  0.83324244  1
  Sn  Sn36  1  0.16797689  0.83344490  0.50050096  1
  Sn  Sn37  1  0.16731028  0.50042805  0.16606863  1
  Sn  Sn38  1  0.16667551  0.16644281  0.83315392  1
  Sn  Sn39  1  0.49938302  0.16624997  0.49974364  1
  Sn  Sn40  1  0.83347447  0.16661109  0.83317860  1
  Pb  Pb41  1  0.49660020  0.49766806  0.16647629  1
  Pb  Pb42  1  0.50214271  0.83614068  0.16910010  1
  Pb  Pb43  1  0.16559817  0.83391294  0.16859631  1
  Pb  Pb44  1  0.16496667  0.83554279  0.83053911  1
  Pb  Pb45  1  0.16483753  0.49796381  0.83605194  1
  Pb  Pb46  1  0.50220586  0.49741787  0.83355063  1
  Pb  Pb47  1  0.83310854  0.83147362  0.50048699  1
  Pb  Pb48  1  0.83363271  0.16475895  0.16435497  1
  Pb  Pb49  1  0.50207233  0.83560578  0.83075480  1
  Pb  Pb50  1  0.16497946  0.49957944  0.49839294  1
  Pb  Pb51  1  0.83339437  0.16884151  0.50200626  1
  Pb  Pb52  1  0.83516069  0.50232358  0.16581156  1
  Pb  Pb53  1  0.50219195  0.49931452  0.49996574  1
  I  I54  1  0.16909577  0.00368532  0.16468044  1
  I  I55  1  0.16829087  0.00180150  0.49791109  1
  I  I56  1  0.16405372  0.00441679  0.83860952  1
  I  I57  1  0.16783707  0.33068424  0.16914270  1
  I  I58  1  0.16985083  0.32965352  0.50213084  1
  I  I59  1  0.16477778  0.32888843  0.82806732  1
  I  I60  1  0.16002339  0.66485107  0.17062656  1
  I  I61  1  0.16775747  0.66918439  0.49659884  1
  I  I62  1  0.16315196  0.66679758  0.83317493  1
  I  I63  1  0.49313309  0.00432198  0.16349493  1
  I  I64  1  0.49781481  0.00175555  0.50022902  1
  I  I65  1  0.50261681  0.00431545  0.83507321  1
  I  I66  1  0.50183413  0.32874361  0.16961665  1
  I  I67  1  0.49603227  0.32929207  0.50112171  1
  I  I68  1  0.50193780  0.32830401  0.82974003  1
  I  I69  1  0.50057857  0.66709859  0.16907001  1
  I  I70  1  0.49771306  0.66951579  0.49943173  1
  I  I71  1  0.50207014  0.66699095  0.83154603  1
  I  I72  1  0.83538603  -0.00269485  0.16257118  1
  I  I73  1  0.83358583  0.00017785  0.50061615  1
  I  I74  1  0.83337841  0.00080446  0.83779125  1
  I  I75  1  0.83161748  0.33307005  0.16648899  1
  I  I76  1  0.83390751  0.33621277  0.50537585  1
  I  I77  1  0.83323642  0.33243088  0.82778238  1
  I  I78  1  0.83624802  0.66988054  0.16290593  1
  I  I79  1  0.83454271  0.66409727  0.50544393  1
  I  I80  1  0.83468709  0.66677455  0.83172926  1
  I  I81  1  0.16762096  0.17204598  0.00001722  1
  I  I82  1  0.17283385  0.16698327  0.33357987  1
  I  I83  1  0.16771010  0.16182893  0.66642342  1
  I  I84  1  0.16252200  0.49220790  0.00350044  1
  I  I85  1  0.16200891  0.49274431  0.33088871  1
  I  I86  1  0.16566151  0.49914008  0.66689251  1
  I  I87  1  0.16471186  0.83415005  -0.00021034  1
  I  I88  1  0.16546015  0.83982456  0.33646767  1
  I  I89  1  0.16668699  0.83970122  0.66262027  1
  I  I90  1  0.49841751  0.16864341  -0.00026788  1
  I  I91  1  0.49300407  0.16290370  0.33391218  1
  I  I92  1  0.49894613  0.16277761  0.66641644  1
  I  I93  1  0.50402231  0.49800381  0.00008810  1
  I  I94  1  0.50551448  0.49772222  0.33332028  1
  I  I95  1  0.49848679  0.49738137  0.66664427  1
  I  I96  1  0.50071610  0.83456349  -0.00011503  1
  I  I97  1  0.49982346  0.84004280  0.33684968  1
  I  I98  1  0.49967563  0.84122658  0.66305658  1
  I  I99  1  0.83326896  0.17152029  -0.00394171  1
  I  I100  1  0.83317246  0.16655905  0.33329718  1
  I  I101  1  0.83337882  0.16158040  0.67029533  1
  I  I102  1  0.83496056  0.49623608  -0.00310515  1
  I  I103  1  0.83451940  0.50222990  0.33502859  1
  I  I104  1  0.83455885  0.50184225  0.66776305  1
  I  I105  1  0.83504289  0.83284043  -0.00115076  1
  I  I106  1  0.83402581  0.83172616  0.33194594  1
  I  I107  1  0.83327984  0.83591854  0.66928719  1
  I  I108  1  0.00305361  0.16913404  0.16719607  1
  I  I109  1  0.00302031  0.16309674  0.49953799  1
  I  I110  1  -0.00001503  0.16678705  0.83319310  1
  I  I111  1  0.00251775  0.49088668  0.16740654  1
  I  I112  1  -0.00278559  0.50070102  0.50419362  1
  I  I113  1  -0.00355248  0.49691601  0.82935495  1
  I  I114  1  -0.00246609  0.83575345  0.16548859  1
  I  I115  1  0.00206664  0.83805239  0.49942112  1
  I  I116  1  -0.00347787  0.83662930  0.83410794  1
  I  I117  1  0.33260268  0.17024787  0.16280549  1
  I  I118  1  0.33292928  0.16349808  0.50369664  1
  I  I119  1  0.33312930  0.16676930  0.83331010  1
  I  I120  1  0.32894301  0.49700022  0.17031278  1
  I  I121  1  0.33325104  0.50029063  0.49815711  1
  I  I122  1  0.33310139  0.49832385  0.83331255  1
  I  I123  1  0.33351482  0.83115922  0.16635528  1
  I  I124  1  0.33309864  0.83991140  0.49766582  1
  I  I125  1  0.33341119  0.83461910  0.83528763  1
  I  I126  1  0.66411662  0.16398073  0.16753629  1
  I  I127  1  0.66382719  0.16267617  0.50033758  1
  I  I128  1  0.66682312  0.16649909  0.83260030  1
  I  I129  1  0.66676530  0.49916776  0.16737427  1
  I  I130  1  0.67014423  0.50061334  0.50398389  1
  I  I131  1  0.67091855  0.49742430  0.82953075  1
  I  I132  1  0.66997969  0.83387200  0.16434783  1
  I  I133  1  0.66449534  0.83881593  0.50045400  1
  I  I134  1  0.67046296  0.83643740  0.83403059  1
