# generated using pymatgen
data_Cs27Sn14Pb13I81
_symmetry_space_group_name_H-M   'P 1'
_cell_length_a   18.97534738
_cell_length_b   18.97036501
_cell_length_c   18.98019495
_cell_angle_alpha   90.00172221
_cell_angle_beta   89.99840276
_cell_angle_gamma   89.99683037
_symmetry_Int_Tables_number   1
_chemical_formula_structural   Cs27Sn14Pb13I81
_chemical_formula_sum   'Cs27 Sn14 Pb13 I81'
_cell_volume   6832.28682625
_cell_formula_units_Z   1
loop_
 _symmetry_equiv_pos_site_id
 _symmetry_equiv_pos_as_xyz
  1  'x, y, z'
loop_
 _atom_site_type_symbol
 _atom_site_label
 _atom_site_symmetry_multiplicity
 _atom_site_fract_x
 _atom_site_fract_y
 _atom_site_fract_z
 _atom_site_occupancy
  Cs  Cs0  1  0.00158710  -0.00163944  -0.00011960  1
  Cs  Cs1  1  0.00144820  -0.00103902  0.33459806  1
  Cs  Cs2  1  -0.00066401  0.00153117  0.66618609  1
  Cs  Cs3  1  -0.00019017  0.33496354  0.00025909  1
  Cs  Cs4  1  -0.00337621  0.34141818  0.33430948  1
  Cs  Cs5  1  -0.00006166  0.33223428  0.66599411  1
  Cs  Cs6  1  -0.00009973  0.67150160  0.00422860  1
  Cs  Cs7  1  0.00019345  0.66371187  0.33466227  1
  Cs  Cs8  1  -0.00264375  0.66771630  0.66095858  1
  Cs  Cs9  1  0.32680426  0.00095567  0.00366620  1
  Cs  Cs10  1  0.33339879  -0.00052115  0.33460472  1
  Cs  Cs11  1  0.33217222  0.00079729  0.66188930  1
  Cs  Cs12  1  0.33135852  0.33596413  -0.00696546  1
  Cs  Cs13  1  0.33645643  0.33317005  0.33379014  1
  Cs  Cs14  1  0.33158860  0.33501784  0.67330697  1
  Cs  Cs15  1  0.33615225  0.66338382  0.00148060  1
  Cs  Cs16  1  0.33320757  0.66740398  0.33163317  1
  Cs  Cs17  1  0.33909918  0.66321375  0.66901668  1
  Cs  Cs18  1  0.66907688  0.00190594  0.00000221  1
  Cs  Cs19  1  0.66450938  0.00353226  0.33380953  1
  Cs  Cs20  1  0.66685347  -0.00078536  0.66606148  1
  Cs  Cs21  1  0.66825721  0.33020342  0.00083814  1
  Cs  Cs22  1  0.66700224  0.33191742  0.33044481  1
  Cs  Cs23  1  0.66813633  0.33275964  0.66747914  1
  Cs  Cs24  1  0.66342001  0.66836195  -0.00528102  1
  Cs  Cs25  1  0.66600653  0.66486210  0.33380708  1
  Cs  Cs26  1  0.66401796  0.66773673  0.67190506  1
  Sn  Sn27  1  0.83351369  0.83423251  0.49892635  1
  Sn  Sn28  1  0.50063724  0.16573574  0.83324093  1
  Sn  Sn29  1  0.16622248  0.83381340  0.50013072  1
  Sn  Sn30  1  0.50014492  0.50029289  0.16742993  1
  Sn  Sn31  1  0.50022492  0.83315988  0.16692139  1
  Sn  Sn32  1  0.16567584  0.16644324  0.49865419  1
  Sn  Sn33  1  0.83305589  0.83366997  0.16789973  1
  Sn  Sn34  1  0.16666773  0.83386734  0.16711217  1
  Sn  Sn35  1  0.50012001  0.49985121  0.49940762  1
  Sn  Sn36  1  0.16624925  0.16666302  0.16809780  1
  Sn  Sn37  1  0.83406511  0.16600132  0.50028742  1
  Sn  Sn38  1  0.16700816  0.83292759  0.83270005  1
  Sn  Sn39  1  0.83279308  0.16730939  0.83277471  1
  Sn  Sn40  1  0.83394476  0.49943632  0.83338302  1
  Pb  Pb41  1  0.16573833  0.16513614  0.83291121  1
  Pb  Pb42  1  0.83089925  0.50298334  0.16439840  1
  Pb  Pb43  1  0.83493482  0.83406498  0.83283605  1
  Pb  Pb44  1  0.83125263  0.50012544  0.50143191  1
  Pb  Pb45  1  0.49745938  0.16660517  0.16469819  1
  Pb  Pb46  1  0.49732087  0.83602847  0.83593013  1
  Pb  Pb47  1  0.50013015  0.83187532  0.49814420  1
  Pb  Pb48  1  0.50186217  0.49800666  0.83388541  1
  Pb  Pb49  1  0.16347643  0.50335799  0.83323702  1
  Pb  Pb50  1  0.16883788  0.49993978  0.50000116  1
  Pb  Pb51  1  0.49986606  0.16862985  0.50169213  1
  Pb  Pb52  1  0.83582009  0.16480358  0.16708261  1
  Pb  Pb53  1  0.16865997  0.50001392  0.16675865  1
  I  I54  1  0.16930762  -0.00178220  0.16650465  1
  I  I55  1  0.16375498  -0.00075318  0.49942704  1
  I  I56  1  0.16456030  -0.00280219  0.83519485  1
  I  I57  1  0.16838249  0.33024870  0.17038031  1
  I  I58  1  0.16285710  0.32973061  0.49579598  1
  I  I59  1  0.16950773  0.33311778  0.83386807  1
  I  I60  1  0.16490127  0.67050810  0.16705337  1
  I  I61  1  0.16219870  0.67042244  0.49830564  1
  I  I62  1  0.16607144  0.67143109  0.83482264  1
  I  I63  1  0.50020480  -0.00291448  0.16459627  1
  I  I64  1  0.49989440  0.00007420  0.49994040  1
  I  I65  1  0.50816942  0.00336572  0.83324879  1
  I  I66  1  0.49829076  0.33560354  0.16893374  1
  I  I67  1  0.50051274  0.33625405  0.49341454  1
  I  I68  1  0.49973352  0.33026614  0.83510698  1
  I  I69  1  0.49737453  0.66780903  0.16959392  1
  I  I70  1  0.50001815  0.66406627  0.49931759  1
  I  I71  1  0.50082325  0.66684447  0.83209454  1
  I  I72  1  0.82896023  -0.00359758  0.16459851  1
  I  I73  1  0.83679457  -0.00005992  0.50296990  1
  I  I74  1  0.83102915  0.00270452  0.83213129  1
  I  I75  1  0.83332792  0.33328065  0.16822487  1
  I  I76  1  0.83708873  0.33031184  0.50343158  1
  I  I77  1  0.82944977  0.33160189  0.82793046  1
  I  I78  1  0.84002051  0.67120340  0.17087612  1
  I  I79  1  0.83776848  0.66985125  0.49768170  1
  I  I80  1  0.83460107  0.66537391  0.83380119  1
  I  I81  1  0.16792345  0.16096519  0.00194797  1
  I  I82  1  0.16372485  0.15726722  0.33414398  1
  I  I83  1  0.16627009  0.16159152  0.66385415  1
  I  I84  1  0.16998863  0.49894794  -0.00003339  1
  I  I85  1  0.16457974  0.50344049  0.33339031  1
  I  I86  1  0.17185792  0.49995207  0.66663288  1
  I  I87  1  0.16579917  0.83779625  0.00160372  1
  I  I88  1  0.16654435  0.83782778  0.33320153  1
  I  I89  1  0.16052753  0.83811062  0.66509807  1
  I  I90  1  0.50491231  0.16783986  -0.00293925  1
  I  I91  1  0.50171502  0.16636752  0.33320464  1
  I  I92  1  0.49912621  0.16932527  0.66942286  1
  I  I93  1  0.50042647  0.50459757  0.00261372  1
  I  I94  1  0.49998010  0.50371083  0.33255471  1
  I  I95  1  0.50057793  0.49901011  0.66497760  1
  I  I96  1  0.50084199  0.82653481  0.00406246  1
  I  I97  1  0.49547939  0.83271665  0.32995751  1
  I  I98  1  0.49975648  0.83074546  0.66669500  1
  I  I99  1  0.83072388  0.16861897  -0.00233444  1
  I  I100  1  0.83504367  0.16364209  0.33632921  1
  I  I101  1  0.83527946  0.16440907  0.66604910  1
  I  I102  1  0.83131588  0.49425681  -0.00321199  1
  I  I103  1  0.83308042  0.49810417  0.33322187  1
  I  I104  1  0.82969444  0.50127460  0.66916026  1
  I  I105  1  0.83501657  0.83257324  0.00230569  1
  I  I106  1  0.83781171  0.83795498  0.33389916  1
  I  I107  1  0.83875678  0.83381096  0.66381723  1
  I  I108  1  0.00363247  0.15920285  0.16435068  1
  I  I109  1  -0.00023415  0.16207709  0.50333924  1
  I  I110  1  -0.00285128  0.16869113  0.83179099  1
  I  I111  1  -0.00030288  0.50099504  0.16475306  1
  I  I112  1  -0.00025764  0.50043211  0.50220911  1
  I  I113  1  -0.00393356  0.49122929  0.83209563  1
  I  I114  1  0.00077258  0.83831796  0.16540229  1
  I  I115  1  0.00027350  0.83621910  0.49642495  1
  I  I116  1  0.00273201  0.83545384  0.83871379  1
  I  I117  1  0.32971351  0.15974638  0.17059662  1
  I  I118  1  0.33027274  0.16195451  0.49792189  1
  I  I119  1  0.33454742  0.16531160  0.83434431  1
  I  I120  1  0.33661035  0.50630546  0.16896221  1
  I  I121  1  0.33660605  0.50075737  0.49680798  1
  I  I122  1  0.33354578  0.49848789  0.83343488  1
  I  I123  1  0.33227168  0.83318725  0.16609576  1
  I  I124  1  0.33017273  0.83724959  0.49911532  1
  I  I125  1  0.32944831  0.83586977  0.83211081  1
  I  I126  1  0.66677212  0.16514700  0.16778089  1
  I  I127  1  0.66965405  0.16288299  0.50324473  1
  I  I128  1  0.66824101  0.16985270  0.82898619  1
  I  I129  1  0.66307116  0.50479543  0.17024657  1
  I  I130  1  0.66373781  0.50032692  0.49637123  1
  I  I131  1  0.66951757  0.50007113  0.83302670  1
  I  I132  1  0.66692179  0.82853254  0.17057651  1
  I  I133  1  0.66972863  0.83663032  0.49595035  1
  I  I134  1  0.66668599  0.83146818  0.83393935  1
