# generated using pymatgen
data_Cs27Sn14Pb13I81
_symmetry_space_group_name_H-M   'P 1'
_cell_length_a   18.96486593
_cell_length_b   18.98020151
_cell_length_c   18.98154149
_cell_angle_alpha   90.00054396
_cell_angle_beta   90.00257525
_cell_angle_gamma   90.00113439
_symmetry_Int_Tables_number   1
_chemical_formula_structural   Cs27Sn14Pb13I81
_chemical_formula_sum   'Cs27 Sn14 Pb13 I81'
_cell_volume   6832.53828518
_cell_formula_units_Z   1
loop_
 _symmetry_equiv_pos_site_id
 _symmetry_equiv_pos_as_xyz
  1  'x, y, z'
loop_
 _atom_site_type_symbol
 _atom_site_label
 _atom_site_symmetry_multiplicity
 _atom_site_fract_x
 _atom_site_fract_y
 _atom_site_fract_z
 _atom_site_occupancy
  Cs  Cs0  1  -0.00117785  -0.00084994  0.00010104  1
  Cs  Cs1  1  0.00163993  -0.00043290  0.33437162  1
  Cs  Cs2  1  0.00133294  -0.00015395  0.66496918  1
  Cs  Cs3  1  -0.00004723  0.33379781  -0.00055277  1
  Cs  Cs4  1  -0.00163335  0.33441705  0.33335250  1
  Cs  Cs5  1  -0.00266717  0.33322572  0.66840203  1
  Cs  Cs6  1  -0.00244061  0.66630399  0.00263648  1
  Cs  Cs7  1  0.00152555  0.66666805  0.33193859  1
  Cs  Cs8  1  0.00097457  0.66860060  0.66530549  1
  Cs  Cs9  1  0.33246631  0.00420084  0.00217612  1
  Cs  Cs10  1  0.33200208  0.00132533  0.33446142  1
  Cs  Cs11  1  0.33187198  0.00193390  0.66531631  1
  Cs  Cs12  1  0.33533849  0.33393729  -0.00265804  1
  Cs  Cs13  1  0.33307450  0.33134765  0.33013322  1
  Cs  Cs14  1  0.33226440  0.33116242  0.67247418  1
  Cs  Cs15  1  0.33781018  0.66116584  -0.00405789  1
  Cs  Cs16  1  0.33219449  0.66708832  0.33484639  1
  Cs  Cs17  1  0.33945569  0.66526915  0.66797415  1
  Cs  Cs18  1  0.66757097  -0.00446666  0.00026526  1
  Cs  Cs19  1  0.66337628  -0.00003919  0.33014060  1
  Cs  Cs20  1  0.66620505  0.00112320  0.66851942  1
  Cs  Cs21  1  0.66891420  0.33159847  0.00121670  1
  Cs  Cs22  1  0.66847830  0.33523467  0.33462927  1
  Cs  Cs23  1  0.67126533  0.33237903  0.66367104  1
  Cs  Cs24  1  0.66501937  0.67493696  -0.00227555  1
  Cs  Cs25  1  0.65583238  0.66702903  0.33566422  1
  Cs  Cs26  1  0.65600051  0.66685932  0.66656137  1
  Sn  Sn27  1  0.16632275  0.49959647  0.49979145  1
  Sn  Sn28  1  0.50136316  0.16661874  0.83269508  1
  Sn  Sn29  1  0.83440645  0.16717455  0.16602732  1
  Sn  Sn30  1  0.83359263  0.83298590  0.49987148  1
  Sn  Sn31  1  0.16712467  0.16737189  0.49942915  1
  Sn  Sn32  1  0.83270789  0.16702202  0.83415036  1
  Sn  Sn33  1  0.49915902  0.16687290  0.50064381  1
  Sn  Sn34  1  0.83364610  0.50008242  0.83384816  1
  Sn  Sn35  1  0.16643136  0.83316776  0.83344073  1
  Sn  Sn36  1  0.16598721  0.49970777  0.16731816  1
  Sn  Sn37  1  0.16635609  0.83310220  0.16624041  1
  Sn  Sn38  1  0.16548290  0.16703656  0.16736630  1
  Sn  Sn39  1  0.83375134  0.49979746  0.16598472  1
  Sn  Sn40  1  0.16575391  0.83297396  0.50020180  1
  Pb  Pb41  1  0.49625775  0.83334156  0.16665299  1
  Pb  Pb42  1  0.49916371  0.83587765  0.49996520  1
  Pb  Pb43  1  0.49685418  0.83630999  0.83337904  1
  Pb  Pb44  1  0.50042255  0.16684625  0.16664790  1
  Pb  Pb45  1  0.50052482  0.49981162  0.16651955  1
  Pb  Pb46  1  0.83489926  0.83293823  0.16901058  1
  Pb  Pb47  1  0.16470473  0.50231237  0.83360183  1
  Pb  Pb48  1  0.83504971  0.50277453  0.49954707  1
  Pb  Pb49  1  0.83374893  0.16512703  0.49947799  1
  Pb  Pb50  1  0.83496618  0.83325971  0.83116321  1
  Pb  Pb51  1  0.16586453  0.16537098  0.83362312  1
  Pb  Pb52  1  0.49644850  0.49655856  0.49994247  1
  Pb  Pb53  1  0.50376611  0.49714489  0.83354098  1
  I  I54  1  0.16341744  0.00069107  0.16942811  1
  I  I55  1  0.16709343  0.00014888  0.49753090  1
  I  I56  1  0.16506112  -0.00249352  0.83251805  1
  I  I57  1  0.16304647  0.33289637  0.17439619  1
  I  I58  1  0.17107352  0.33260756  0.49307038  1
  I  I59  1  0.16884902  0.33336340  0.83221562  1
  I  I60  1  0.16212377  0.66629170  0.17046123  1
  I  I61  1  0.16013987  0.66719351  0.49661445  1
  I  I62  1  0.16307099  0.67010726  0.83259706  1
  I  I63  1  0.50038255  0.00046616  0.16692498  1
  I  I64  1  0.49336416  0.00358867  0.50324510  1
  I  I65  1  0.50677411  0.00406213  0.82930554  1
  I  I66  1  0.49355402  0.33302387  0.16694482  1
  I  I67  1  0.49635516  0.32871240  0.50336556  1
  I  I68  1  0.49703818  0.32926234  0.82947485  1
  I  I69  1  0.50108928  0.66655744  0.16682680  1
  I  I70  1  0.50026269  0.66658252  0.49995445  1
  I  I71  1  0.50022319  0.66662777  0.83343736  1
  I  I72  1  0.83749164  0.00283725  0.16360163  1
  I  I73  1  0.84085198  -0.00232596  0.50044230  1
  I  I74  1  0.83085586  0.00301367  0.83677300  1
  I  I75  1  0.84184757  0.33262439  0.16311553  1
  I  I76  1  0.83375169  0.33340860  0.50087237  1
  I  I77  1  0.83117453  0.33219507  0.83602427  1
  I  I78  1  0.84000391  0.66368740  0.16248102  1
  I  I79  1  0.84262468  0.67010021  0.49993421  1
  I  I80  1  0.83878363  0.66422735  0.83767139  1
  I  I81  1  0.16647548  0.16585826  0.00291651  1
  I  I82  1  0.16717843  0.16249807  0.33334707  1
  I  I83  1  0.16745148  0.16520141  0.66410570  1
  I  I84  1  0.16486644  0.49937167  0.00324608  1
  I  I85  1  0.16128016  0.50308593  0.33270023  1
  I  I86  1  0.16480963  0.49984116  0.66402794  1
  I  I87  1  0.16640217  0.83565766  0.00102213  1
  I  I88  1  0.16277510  0.83429088  0.33365618  1
  I  I89  1  0.16216182  0.83533930  0.66528024  1
  I  I90  1  0.49953167  0.16647286  -0.00259105  1
  I  I91  1  0.49715879  0.16528689  0.33588635  1
  I  I92  1  0.49860064  0.16586953  0.66640255  1
  I  I93  1  0.49207030  0.49666772  -0.00013790  1
  I  I94  1  0.50518950  0.49775441  0.33348336  1
  I  I95  1  0.49937151  0.50152948  0.66668145  1
  I  I96  1  0.49979782  0.83645919  -0.00019655  1
  I  I97  1  0.50029647  0.83643774  0.33361051  1
  I  I98  1  0.49751585  0.83273246  0.66662361  1
  I  I99  1  0.83422744  0.16956713  0.00036094  1
  I  I100  1  0.83506284  0.16980999  0.33056286  1
  I  I101  1  0.83308494  0.16914701  0.66882420  1
  I  I102  1  0.84103202  0.49487905  0.00091217  1
  I  I103  1  0.83725832  0.49434461  0.33019460  1
  I  I104  1  0.83603870  0.49511521  0.66882129  1
  I  I105  1  0.83568084  0.83401354  0.00018679  1
  I  I106  1  0.84148086  0.83546991  0.33642166  1
  I  I107  1  0.84259246  0.83521919  0.66367430  1
  I  I108  1  0.00099782  0.16680514  0.16672570  1
  I  I109  1  0.00328415  0.16673840  0.49926747  1
  I  I110  1  -0.00282750  0.16878478  0.83397333  1
  I  I111  1  0.00113637  0.49862782  0.16670367  1
  I  I112  1  0.00360501  0.49482618  0.49848497  1
  I  I113  1  -0.00291715  0.49172655  0.83443974  1
  I  I114  1  0.00375432  0.83445657  0.16601174  1
  I  I115  1  0.00297492  0.83717139  0.50013675  1
  I  I116  1  0.00304903  0.83719711  0.83404619  1
  I  I117  1  0.32982859  0.16567396  0.16753038  1
  I  I118  1  0.33114101  0.16408106  0.50013049  1
  I  I119  1  0.33467467  0.16265503  0.83185611  1
  I  I120  1  0.32920662  0.49988174  0.17152078  1
  I  I121  1  0.32798441  0.50682532  0.49394140  1
  I  I122  1  0.33324087  0.50048128  0.83323527  1
  I  I123  1  0.32718977  0.83567680  0.17117038  1
  I  I124  1  0.32903964  0.83208131  0.49890992  1
  I  I125  1  0.32865936  0.83412826  0.83046256  1
  I  I126  1  0.67017629  0.17172435  0.16700392  1
  I  I127  1  0.66487707  0.16308945  0.50116170  1
  I  I128  1  0.66778729  0.17045149  0.83206961  1
  I  I129  1  0.67074998  0.49259850  0.16332082  1
  I  I130  1  0.66669505  0.50132000  0.49967184  1
  I  I131  1  0.67177364  0.50004056  0.83911344  1
  I  I132  1  0.66701415  0.83418179  0.16910464  1
  I  I133  1  0.66903389  0.83513888  0.50043113  1
  I  I134  1  0.66677083  0.83141259  0.83066250  1
