# generated using pymatgen
data_Cs27Sn14Pb13I81
_symmetry_space_group_name_H-M   'P 1'
_cell_length_a   18.98478039
_cell_length_b   18.97373512
_cell_length_c   18.96896299
_cell_angle_alpha   90.00132801
_cell_angle_beta   89.99871185
_cell_angle_gamma   90.00058114
_symmetry_Int_Tables_number   1
_chemical_formula_structural   Cs27Sn14Pb13I81
_chemical_formula_sum   'Cs27 Sn14 Pb13 I81'
_cell_volume   6832.85178420
_cell_formula_units_Z   1
loop_
 _symmetry_equiv_pos_site_id
 _symmetry_equiv_pos_as_xyz
  1  'x, y, z'
loop_
 _atom_site_type_symbol
 _atom_site_label
 _atom_site_symmetry_multiplicity
 _atom_site_fract_x
 _atom_site_fract_y
 _atom_site_fract_z
 _atom_site_occupancy
  Cs  Cs0  1  0.00042223  -0.00018087  0.00092949  1
  Cs  Cs1  1  0.00150532  -0.00215179  0.33360576  1
  Cs  Cs2  1  0.00243922  0.00055850  0.66599140  1
  Cs  Cs3  1  -0.01297433  0.33151349  -0.00031411  1
  Cs  Cs4  1  0.00017589  0.33169432  0.33290891  1
  Cs  Cs5  1  0.00263289  0.33257828  0.66857566  1
  Cs  Cs6  1  0.00205717  0.66635375  0.00045042  1
  Cs  Cs7  1  0.00286161  0.66959484  0.33217913  1
  Cs  Cs8  1  -0.00044045  0.66684767  0.66691808  1
  Cs  Cs9  1  0.33618307  0.00062580  -0.00383795  1
  Cs  Cs10  1  0.33072896  -0.00070840  0.33355743  1
  Cs  Cs11  1  0.33279430  0.00209743  0.66936341  1
  Cs  Cs12  1  0.33740104  0.33159477  0.00398140  1
  Cs  Cs13  1  0.33543328  0.33439838  0.33399332  1
  Cs  Cs14  1  0.32983741  0.33623905  0.66404486  1
  Cs  Cs15  1  0.32994530  0.66772273  -0.00037561  1
  Cs  Cs16  1  0.33238473  0.66662996  0.33168449  1
  Cs  Cs17  1  0.33384513  0.66485969  0.66759438  1
  Cs  Cs18  1  0.66345137  0.00457834  -0.00093978  1
  Cs  Cs19  1  0.66825710  -0.00145946  0.33448808  1
  Cs  Cs20  1  0.66369315  -0.00315530  0.66621601  1
  Cs  Cs21  1  0.67647451  0.32573042  0.00897757  1
  Cs  Cs22  1  0.66509770  0.33161167  0.32998355  1
  Cs  Cs23  1  0.66850233  0.33728637  0.66538915  1
  Cs  Cs24  1  0.66835544  0.66634954  -0.00195585  1
  Cs  Cs25  1  0.66543262  0.66901551  0.33641264  1
  Cs  Cs26  1  0.66533168  0.66697732  0.66525465  1
  Sn  Sn27  1  0.16748162  0.50038685  0.83301862  1
  Sn  Sn28  1  0.50075538  0.83287446  0.16715688  1
  Sn  Sn29  1  0.49996073  0.49990117  0.50053564  1
  Sn  Sn30  1  0.50073562  0.16666820  0.50032990  1
  Sn  Sn31  1  0.49848703  0.83348045  0.49940396  1
  Sn  Sn32  1  0.83257531  0.16751555  0.50034330  1
  Sn  Sn33  1  0.83403096  0.83325534  0.83429563  1
  Sn  Sn34  1  0.16793092  0.83258095  0.50104978  1
  Sn  Sn35  1  0.16587079  0.83264152  0.83223562  1
  Sn  Sn36  1  0.16643510  0.50111418  0.50041628  1
  Sn  Sn37  1  0.83216930  0.83303146  0.16529370  1
  Sn  Sn38  1  0.49974611  0.49957956  0.83332438  1
  Sn  Sn39  1  0.16678033  0.16698387  0.16643880  1
  Sn  Sn40  1  0.83356755  0.49909197  0.49986921  1
  Pb  Pb41  1  0.83333258  0.50177294  0.83138209  1
  Pb  Pb42  1  0.16694602  0.16688326  0.49906066  1
  Pb  Pb43  1  0.16710069  0.83443292  0.16623056  1
  Pb  Pb44  1  0.50005502  0.50219933  0.16638203  1
  Pb  Pb45  1  0.83317225  0.16364466  0.83031239  1
  Pb  Pb46  1  0.49961671  0.83171175  0.83305716  1
  Pb  Pb47  1  0.16660547  0.49741918  0.16591356  1
  Pb  Pb48  1  0.16674887  0.16766324  0.83600527  1
  Pb  Pb49  1  0.49837256  0.16401303  0.16914322  1
  Pb  Pb50  1  0.83499194  0.16389069  0.16936288  1
  Pb  Pb51  1  0.83355620  0.83311217  0.50031280  1
  Pb  Pb52  1  0.49999533  0.17083368  0.83066529  1
  Pb  Pb53  1  0.83328274  0.50277268  0.16976516  1
  I  I54  1  0.16609271  0.00168000  0.17020954  1
  I  I55  1  0.16853551  -0.00289486  0.50178951  1
  I  I56  1  0.16279288  -0.00317585  0.82918018  1
  I  I57  1  0.16787662  0.33018125  0.17059012  1
  I  I58  1  0.16844954  0.33646525  0.50254956  1
  I  I59  1  0.17164550  0.33726295  0.82654672  1
  I  I60  1  0.16624946  0.66672368  0.16791109  1
  I  I61  1  0.16862640  0.66688450  0.50218489  1
  I  I62  1  0.16654906  0.66710006  0.82904014  1
  I  I63  1  0.50316074  -0.00402342  0.17216496  1
  I  I64  1  0.50084924  -0.00108329  0.49458437  1
  I  I65  1  0.49960237  -0.00008440  0.83258916  1
  I  I66  1  0.49774699  0.33312411  0.16751766  1
  I  I67  1  0.49962324  0.33437468  0.50499842  1
  I  I68  1  0.49153191  0.33871549  0.82611134  1
  I  I69  1  0.50184225  0.67030884  0.17478883  1
  I  I70  1  0.50042798  0.66662980  0.49968233  1
  I  I71  1  0.49927115  0.66402161  0.82599068  1
  I  I72  1  0.83034289  -0.00388842  0.16647277  1
  I  I73  1  0.83054637  0.00158141  0.49930636  1
  I  I74  1  0.83968194  -0.00461585  0.83450822  1
  I  I75  1  0.83487602  0.33306494  0.16534524  1
  I  I76  1  0.83093693  0.33416092  0.50047129  1
  I  I77  1  0.83431636  0.33356220  0.83394551  1
  I  I78  1  0.83171293  0.67085886  0.16607076  1
  I  I79  1  0.83106798  0.66444238  0.50024132  1
  I  I80  1  0.83493004  0.66983396  0.83350701  1
  I  I81  1  0.16731806  0.16328009  0.00334476  1
  I  I82  1  0.16621557  0.16402802  0.33178077  1
  I  I83  1  0.16628178  0.16525194  0.66665079  1
  I  I84  1  0.17271942  0.50597952  -0.00384345  1
  I  I85  1  0.16785832  0.50417063  0.33693301  1
  I  I86  1  0.16775623  0.50392258  0.66518852  1
  I  I87  1  0.16563686  0.83010234  -0.00288601  1
  I  I88  1  0.16676485  0.83060903  0.33617221  1
  I  I89  1  0.16572021  0.83067068  0.66588040  1
  I  I90  1  0.49770885  0.16566461  0.00019235  1
  I  I91  1  0.50296358  0.17183750  0.33754247  1
  I  I92  1  0.50202395  0.15867494  0.66202334  1
  I  I93  1  0.49209449  0.50516082  -0.00325898  1
  I  I94  1  0.49891100  0.49865588  0.33722554  1
  I  I95  1  0.49918028  0.50304855  0.66443729  1
  I  I96  1  0.50028427  0.83101668  0.00205760  1
  I  I97  1  0.50044938  0.83128614  0.33552538  1
  I  I98  1  0.50038213  0.83464375  0.66335906  1
  I  I99  1  0.83508915  0.16812261  0.00020539  1
  I  I100  1  0.82989825  0.16817973  0.33713648  1
  I  I101  1  0.83148754  0.16830730  0.66225521  1
  I  I102  1  0.83393502  0.49967701  -0.00020878  1
  I  I103  1  0.83280506  0.49873692  0.33839948  1
  I  I104  1  0.83284928  0.50000678  0.66288944  1
  I  I105  1  0.83437295  0.83221001  -0.00022495  1
  I  I106  1  0.83277742  0.83365999  0.33195560  1
  I  I107  1  0.83469647  0.83303520  0.66850470  1
  I  I108  1  0.00229868  0.16393251  0.17037434  1
  I  I109  1  -0.00193497  0.16842625  0.49750277  1
  I  I110  1  -0.00001590  0.17010168  0.83074563  1
  I  I111  1  -0.00000042  0.50239742  0.16835359  1
  I  I112  1  0.00093704  0.50086721  0.50335706  1
  I  I113  1  0.00293733  0.50300538  0.82795461  1
  I  I114  1  -0.00176654  0.83554154  0.16757651  1
  I  I115  1  0.00248019  0.83095043  0.49990984  1
  I  I116  1  0.00129371  0.82771366  0.83230871  1
  I  I117  1  0.33100658  0.16368591  0.17003260  1
  I  I118  1  0.33591054  0.16791464  0.49759054  1
  I  I119  1  0.33336195  0.16000244  0.83199628  1
  I  I120  1  0.33328400  0.50223497  0.17159947  1
  I  I121  1  0.33341355  0.50048773  0.50365120  1
  I  I122  1  0.33256291  0.50742405  0.82324500  1
  I  I123  1  0.33560668  0.83492146  0.16979955  1
  I  I124  1  0.33361324  0.83131465  0.49861581  1
  I  I125  1  0.33061768  0.83130866  0.83253711  1
  I  I126  1  0.66667994  0.16701521  0.16634808  1
  I  I127  1  0.66601333  0.16838677  0.49933459  1
  I  I128  1  0.66655609  0.16507509  0.83563059  1
  I  I129  1  0.66666799  0.49856426  0.16625748  1
  I  I130  1  0.66556766  0.50123694  0.50400994  1
  I  I131  1  0.66428298  0.50409576  0.82580055  1
  I  I132  1  0.66626546  0.83293295  0.16944799  1
  I  I133  1  0.66436527  0.83119851  0.49932801  1
  I  I134  1  0.66839785  0.83145680  0.83277532  1
