# generated using pymatgen
data_Cs27Sn14Pb13I81
_symmetry_space_group_name_H-M   'P 1'
_cell_length_a   18.97986413
_cell_length_b   18.97021491
_cell_length_c   18.97668970
_cell_angle_alpha   89.99856572
_cell_angle_beta   89.99892156
_cell_angle_gamma   90.00227763
_symmetry_Int_Tables_number   1
_chemical_formula_structural   Cs27Sn14Pb13I81
_chemical_formula_sum   'Cs27 Sn14 Pb13 I81'
_cell_volume   6832.59699461
_cell_formula_units_Z   1
loop_
 _symmetry_equiv_pos_site_id
 _symmetry_equiv_pos_as_xyz
  1  'x, y, z'
loop_
 _atom_site_type_symbol
 _atom_site_label
 _atom_site_symmetry_multiplicity
 _atom_site_fract_x
 _atom_site_fract_y
 _atom_site_fract_z
 _atom_site_occupancy
  Cs  Cs0  1  0.00083124  -0.00168679  0.00049558  1
  Cs  Cs1  1  0.00068672  -0.00063778  0.33370186  1
  Cs  Cs2  1  -0.00099063  0.00145671  0.66585324  1
  Cs  Cs3  1  -0.00143059  0.33425014  -0.00083404  1
  Cs  Cs4  1  0.00180908  0.33170030  0.33163675  1
  Cs  Cs5  1  0.00134540  0.33281788  0.66808647  1
  Cs  Cs6  1  0.00233430  0.66788186  -0.00088481  1
  Cs  Cs7  1  0.00122017  0.66949357  0.33823706  1
  Cs  Cs8  1  -0.00273845  0.66535396  0.66664891  1
  Cs  Cs9  1  0.33507727  -0.00022119  -0.00421626  1
  Cs  Cs10  1  0.33141612  -0.00201918  0.33450089  1
  Cs  Cs11  1  0.33500809  0.00121919  0.66761061  1
  Cs  Cs12  1  0.33380931  0.33160245  -0.00169222  1
  Cs  Cs13  1  0.33449484  0.33671925  0.33525155  1
  Cs  Cs14  1  0.33134573  0.33296620  0.66589214  1
  Cs  Cs15  1  0.33099416  0.66872163  -0.00163866  1
  Cs  Cs16  1  0.33284521  0.66591683  0.33268190  1
  Cs  Cs17  1  0.33391835  0.66523327  0.66807007  1
  Cs  Cs18  1  0.66412718  0.00033510  0.00012608  1
  Cs  Cs19  1  0.66751161  0.00054600  0.33501803  1
  Cs  Cs20  1  0.66585845  -0.00200384  0.66548882  1
  Cs  Cs21  1  0.66864580  0.33563128  0.01236619  1
  Cs  Cs22  1  0.66238717  0.33670404  0.32053856  1
  Cs  Cs23  1  0.67096403  0.33649300  0.66572493  1
  Cs  Cs24  1  0.66699991  0.66584151  -0.00244523  1
  Cs  Cs25  1  0.66601699  0.66329367  0.33546619  1
  Cs  Cs26  1  0.67143970  0.66634662  0.66723109  1
  Sn  Sn27  1  0.83290075  0.16585611  0.83310288  1
  Sn  Sn28  1  0.50109850  0.83356654  0.16749535  1
  Sn  Sn29  1  0.49916651  0.83382824  0.49927357  1
  Sn  Sn30  1  0.83213605  0.83350252  0.16602206  1
  Sn  Sn31  1  0.16667360  0.49902249  0.16586040  1
  Sn  Sn32  1  0.83300274  0.16669711  0.50031231  1
  Sn  Sn33  1  0.83418467  0.83461729  0.83419378  1
  Sn  Sn34  1  0.49942242  0.49958182  0.83320504  1
  Sn  Sn35  1  0.16694880  0.16740455  0.16718142  1
  Sn  Sn36  1  0.16765890  0.50070161  0.83406334  1
  Sn  Sn37  1  0.50014859  0.16639708  0.50018484  1
  Sn  Sn38  1  0.16762795  0.83414937  0.50153800  1
  Sn  Sn39  1  0.16596253  0.83289535  0.83193060  1
  Sn  Sn40  1  0.16684765  0.16577534  0.49926450  1
  Pb  Pb41  1  0.83324514  0.49584522  0.49951566  1
  Pb  Pb42  1  0.50022272  0.83225842  0.83264776  1
  Pb  Pb43  1  0.49716475  0.16431594  0.16894192  1
  Pb  Pb44  1  0.16680181  0.83347547  0.16670099  1
  Pb  Pb45  1  0.83324107  0.83473610  0.50022623  1
  Pb  Pb46  1  0.16531998  0.16653506  0.83305835  1
  Pb  Pb47  1  0.83526643  0.16456648  0.16675067  1
  Pb  Pb48  1  0.83644024  0.50347626  0.16668317  1
  Pb  Pb49  1  0.49998745  0.50023056  0.50201687  1
  Pb  Pb50  1  0.83381764  0.49991763  0.83347015  1
  Pb  Pb51  1  0.49737128  0.50279480  0.16438520  1
  Pb  Pb52  1  0.50337993  0.16945082  0.83109554  1
  Pb  Pb53  1  0.16656761  0.50012561  0.50041406  1
  I  I54  1  0.16560968  0.00189989  0.16872535  1
  I  I55  1  0.16700032  0.00008530  0.49933503  1
  I  I56  1  0.16407966  -0.00279534  0.83310657  1
  I  I57  1  0.16583726  0.33294747  0.16709496  1
  I  I58  1  0.16655561  0.33001240  0.49939931  1
  I  I59  1  0.16829706  0.33555098  0.83392011  1
  I  I60  1  0.16670547  0.66500268  0.16476553  1
  I  I61  1  0.17126898  0.67003355  0.49963568  1
  I  I62  1  0.16475320  0.66765397  0.83423260  1
  I  I63  1  0.50071035  -0.00362846  0.16625119  1
  I  I64  1  0.49830269  -0.00044962  0.49730030  1
  I  I65  1  0.49748310  0.00007197  0.83519663  1
  I  I66  1  0.50119815  0.33332079  0.16733525  1
  I  I67  1  0.49830615  0.33006614  0.50358642  1
  I  I68  1  0.49190532  0.33676466  0.83054431  1
  I  I69  1  0.50144701  0.67061890  0.17391968  1
  I  I70  1  0.49389158  0.67026224  0.49678717  1
  I  I71  1  0.49902967  0.66450026  0.83200892  1
  I  I72  1  0.83369824  -0.00330559  0.16504447  1
  I  I73  1  0.83476801  0.00280763  0.50149983  1
  I  I74  1  0.83994494  -0.00113569  0.83286800  1
  I  I75  1  0.83278336  0.33316749  0.16666572  1
  I  I76  1  0.83618009  0.32739820  0.50893013  1
  I  I77  1  0.83480181  0.33053626  0.82621976  1
  I  I78  1  0.83173341  0.67148342  0.15943820  1
  I  I79  1  0.83389386  0.66711908  0.50078447  1
  I  I80  1  0.83466068  0.66980590  0.83719898  1
  I  I81  1  0.16348888  0.16658292  0.00192221  1
  I  I82  1  0.16380254  0.16549242  0.33486020  1
  I  I83  1  0.16769454  0.16556231  0.66372600  1
  I  I84  1  0.17005262  0.50149653  -0.00104334  1
  I  I85  1  0.16559930  0.49966784  0.33096733  1
  I  I86  1  0.16971847  0.50120030  0.66971034  1
  I  I87  1  0.16573006  0.83249771  -0.00227570  1
  I  I88  1  0.16666660  0.83433158  0.33567937  1
  I  I89  1  0.16658304  0.83347031  0.66663545  1
  I  I90  1  0.49933009  0.16563411  0.00009311  1
  I  I91  1  0.50530034  0.16558260  0.33725217  1
  I  I92  1  0.49332597  0.15874431  0.66294583  1
  I  I93  1  0.49797731  0.50216432  -0.00326760  1
  I  I94  1  0.49917141  0.49849136  0.33306999  1
  I  I95  1  0.49243889  0.50244321  0.66973005  1
  I  I96  1  0.49983098  0.83029998  0.00172908  1
  I  I97  1  0.49867380  0.83724852  0.33437013  1
  I  I98  1  0.49836739  0.83627354  0.66380141  1
  I  I99  1  0.83695083  0.16452516  -0.00241567  1
  I  I100  1  0.83357796  0.16397838  0.33616651  1
  I  I101  1  0.83629108  0.16031478  0.66634964  1
  I  I102  1  0.83127378  0.49453094  -0.00006174  1
  I  I103  1  0.83500993  0.50167409  0.33292173  1
  I  I104  1  0.83513367  0.50511811  0.66692926  1
  I  I105  1  0.83501028  0.83894391  -0.00129447  1
  I  I106  1  0.83439769  0.83495321  0.33148692  1
  I  I107  1  0.83457548  0.83488911  0.66922814  1
  I  I108  1  0.00316337  0.16716108  0.17246255  1
  I  I109  1  0.00085795  0.16213011  0.50013134  1
  I  I110  1  -0.00247353  0.16653222  0.82761349  1
  I  I111  1  0.00425720  0.49765381  0.15917267  1
  I  I112  1  0.00035002  0.50267848  0.50237383  1
  I  I113  1  0.00316791  0.50175637  0.83693906  1
  I  I114  1  -0.00157971  0.83356899  0.16528658  1
  I  I115  1  0.00269283  0.83682294  0.49974046  1
  I  I116  1  0.00068535  0.83108751  0.83383521  1
  I  I117  1  0.32922192  0.16758178  0.17102759  1
  I  I118  1  0.33257456  0.16217065  0.49531153  1
  I  I119  1  0.33339629  0.16437522  0.83316115  1
  I  I120  1  0.32964159  0.49891301  0.16512792  1
  I  I121  1  0.33308276  0.49596520  0.49923912  1
  I  I122  1  0.33140557  0.50689758  0.83638712  1
  I  I123  1  0.33507276  0.83295317  0.16803227  1
  I  I124  1  0.33260392  0.84106902  0.49975404  1
  I  I125  1  0.33064911  0.83073166  0.83340305  1
  I  I126  1  0.66654088  0.16762602  0.16718321  1
  I  I127  1  0.66654576  0.16053275  0.50736613  1
  I  I128  1  0.67103325  0.16004862  0.82739639  1
  I  I129  1  0.66645231  0.49825240  0.16509578  1
  I  I130  1  0.66644210  0.50303488  0.50488640  1
  I  I131  1  0.66459309  0.50145634  0.83004845  1
  I  I132  1  0.66673869  0.83491787  0.16621246  1
  I  I133  1  0.66426832  0.83761736  0.49950925  1
  I  I134  1  0.66926424  0.83487950  0.83384168  1
