# generated using pymatgen
data_Cs27Sn14Pb13I81
_symmetry_space_group_name_H-M   'P 1'
_cell_length_a   18.96095649
_cell_length_b   18.96067421
_cell_length_c   18.96124485
_cell_angle_alpha   89.99985310
_cell_angle_beta   89.99955681
_cell_angle_gamma   90.00144781
_symmetry_Int_Tables_number   1
_chemical_formula_structural   Cs27Sn14Pb13I81
_chemical_formula_sum   'Cs27 Sn14 Pb13 I81'
_cell_volume   6816.80488923
_cell_formula_units_Z   1
loop_
 _symmetry_equiv_pos_site_id
 _symmetry_equiv_pos_as_xyz
  1  'x, y, z'
loop_
 _atom_site_type_symbol
 _atom_site_label
 _atom_site_symmetry_multiplicity
 _atom_site_fract_x
 _atom_site_fract_y
 _atom_site_fract_z
 _atom_site_occupancy
  Cs  Cs0  1  0.00205810  0.00350756  0.00481777  1
  Cs  Cs1  1  -0.00154603  0.00424949  0.33275859  1
  Cs  Cs2  1  0.00248085  0.00117450  0.66336191  1
  Cs  Cs3  1  -0.00074326  0.33073012  0.00180726  1
  Cs  Cs4  1  -0.00236693  0.32516169  0.33307565  1
  Cs  Cs5  1  0.00104541  0.33341005  0.66587238  1
  Cs  Cs6  1  -0.00043555  0.66624942  -0.00122149  1
  Cs  Cs7  1  -0.00022326  0.66815067  0.33472657  1
  Cs  Cs8  1  0.00012585  0.66587266  0.66709401  1
  Cs  Cs9  1  0.33499446  0.00232319  -0.00253497  1
  Cs  Cs10  1  0.33583030  -0.00290006  0.33414461  1
  Cs  Cs11  1  0.33414169  0.00179396  0.66893556  1
  Cs  Cs12  1  0.33132935  0.33459261  -0.00160844  1
  Cs  Cs13  1  0.33752609  0.33834571  0.33100722  1
  Cs  Cs14  1  0.33209328  0.33356994  0.66865137  1
  Cs  Cs15  1  0.32995888  0.66482804  0.00196829  1
  Cs  Cs16  1  0.33376743  0.66573516  0.33258464  1
  Cs  Cs17  1  0.33095440  0.66621758  0.66515197  1
  Cs  Cs18  1  0.66412586  -0.00098260  -0.00102557  1
  Cs  Cs19  1  0.66713586  0.00015045  0.33318092  1
  Cs  Cs20  1  0.66402383  -0.00181372  0.66847424  1
  Cs  Cs21  1  0.66858674  0.33316657  -0.00076883  1
  Cs  Cs22  1  0.66544657  0.33285660  0.33271898  1
  Cs  Cs23  1  0.66717105  0.33516441  0.66736687  1
  Cs  Cs24  1  0.67049133  0.66829761  -0.00242120  1
  Cs  Cs25  1  0.66590406  0.66684859  0.33416305  1
  Cs  Cs26  1  0.66942410  0.66731475  0.66732949  1
  Sn  Sn27  1  0.83343231  0.16610391  0.83283691  1
  Sn  Sn28  1  0.50013720  0.16607983  0.16737487  1
  Sn  Sn29  1  0.16657827  0.83264044  0.50068739  1
  Sn  Sn30  1  0.16563350  0.50061289  0.50031333  1
  Sn  Sn31  1  0.16749519  0.50107926  0.83254008  1
  Sn  Sn32  1  0.49939808  0.50068180  0.83327901  1
  Sn  Sn33  1  0.50007912  0.83401275  0.49955943  1
  Sn  Sn34  1  0.49997055  0.16615991  0.49950642  1
  Sn  Sn35  1  0.50075836  0.83380182  0.16723860  1
  Sn  Sn36  1  0.83427228  0.50054858  0.49893741  1
  Sn  Sn37  1  0.83349407  0.50077402  0.16788681  1
  Sn  Sn38  1  0.83258285  0.83240811  0.16755151  1
  Sn  Sn39  1  0.83339816  0.83264637  0.49928829  1
  Sn  Sn40  1  0.16656867  0.83277475  0.83279338  1
  Pb  Pb41  1  0.16357796  0.50002183  0.16741018  1
  Pb  Pb42  1  0.83593438  0.83549535  0.83330904  1
  Pb  Pb43  1  0.50011280  0.50067054  0.50143257  1
  Pb  Pb44  1  0.83435862  0.49882255  0.83295231  1
  Pb  Pb45  1  0.17045588  0.16668016  0.16702079  1
  Pb  Pb46  1  0.83127671  0.16597850  0.16506259  1
  Pb  Pb47  1  0.83109519  0.16640538  0.50161654  1
  Pb  Pb48  1  0.16663867  0.83337586  0.16732979  1
  Pb  Pb49  1  0.50137150  0.16873269  0.83328558  1
  Pb  Pb50  1  0.50224750  0.50085660  0.16426783  1
  Pb  Pb51  1  0.16438651  0.16684194  0.83311930  1
  Pb  Pb52  1  0.16964906  0.16691267  0.49971352  1
  Pb  Pb53  1  0.49786846  0.83119343  0.83344469  1
  I  I54  1  0.16072912  -0.00043751  0.16544274  1
  I  I55  1  0.16418542  -0.00367362  0.50397298  1
  I  I56  1  0.16524948  -0.00295679  0.82878586  1
  I  I57  1  0.16583697  0.33369821  0.16549274  1
  I  I58  1  0.16303476  0.33689006  0.50508348  1
  I  I59  1  0.16935831  0.33679142  0.82893582  1
  I  I60  1  0.17204410  0.66674161  0.16515820  1
  I  I61  1  0.16761109  0.66733035  0.50457687  1
  I  I62  1  0.16971341  0.66602988  0.82891707  1
  I  I63  1  0.50581538  -0.00129194  0.16992704  1
  I  I64  1  0.50050260  -0.00168204  0.49713950  1
  I  I65  1  0.49929246  -0.00035559  0.83347816  1
  I  I66  1  0.50173575  0.33129566  0.17008325  1
  I  I67  1  0.50063467  0.33150759  0.49767201  1
  I  I68  1  0.49537727  0.33650635  0.83260398  1
  I  I69  1  0.50167763  0.66993719  0.17116362  1
  I  I70  1  0.49978024  0.66994560  0.49673873  1
  I  I71  1  0.50024380  0.66354264  0.83276194  1
  I  I72  1  0.83212432  -0.00333164  0.16986879  1
  I  I73  1  0.83598808  -0.00349587  0.49701759  1
  I  I74  1  0.83268406  0.00253533  0.83332157  1
  I  I75  1  0.83255117  0.33563020  0.16861380  1
  I  I76  1  0.83613855  0.33626242  0.49828944  1
  I  I77  1  0.83297977  0.33138553  0.83372434  1
  I  I78  1  0.82719476  0.66762585  0.16922095  1
  I  I79  1  0.83160210  0.66729250  0.49742221  1
  I  I80  1  0.83163322  0.66688772  0.83420526  1
  I  I81  1  0.16741984  0.16637620  -0.00025369  1
  I  I82  1  0.16149503  0.16657141  0.33373636  1
  I  I83  1  0.16906666  0.16623183  0.66644107  1
  I  I84  1  0.16946198  0.50358464  -0.00297365  1
  I  I85  1  0.16645433  0.50576666  0.33705877  1
  I  I86  1  0.16488024  0.50426071  0.66616805  1
  I  I87  1  0.16652023  0.82912891  -0.00252173  1
  I  I88  1  0.16775929  0.82837132  0.33711026  1
  I  I89  1  0.16655034  0.82923744  0.66512433  1
  I  I90  1  0.50253931  0.16265606  0.00255825  1
  I  I91  1  0.50144036  0.16339191  0.33353602  1
  I  I92  1  0.50166280  0.16267477  0.66407341  1
  I  I93  1  0.49608020  0.49905218  -0.00326910  1
  I  I94  1  0.49775367  0.49862020  0.33334314  1
  I  I95  1  0.50109179  0.49920951  0.66908569  1
  I  I96  1  0.50377468  0.83639787  0.00284490  1
  I  I97  1  0.49904932  0.83669240  0.33421880  1
  I  I98  1  0.50263587  0.83624925  0.66347478  1
  I  I99  1  0.83120366  0.16844246  -0.00234110  1
  I  I100  1  0.83365543  0.16777116  0.33339141  1
  I  I101  1  0.83040432  0.16819638  0.66889407  1
  I  I102  1  0.83139982  0.50240342  0.00210777  1
  I  I103  1  0.83704785  0.50347408  0.33448049  1
  I  I104  1  0.83336561  0.50319131  0.66371787  1
  I  I105  1  0.82949799  0.83050264  0.00287873  1
  I  I106  1  0.83396419  0.82978827  0.33420662  1
  I  I107  1  0.83041574  0.82982449  0.66328299  1
  I  I108  1  -0.00047380  0.16678495  0.16377993  1
  I  I109  1  -0.00017400  0.16498305  0.50236789  1
  I  I110  1  -0.00312606  0.16887483  0.83359260  1
  I  I111  1  -0.00444781  0.50671821  0.16454907  1
  I  I112  1  -0.00016596  0.50760889  0.50301587  1
  I  I113  1  0.00295616  0.50265562  0.83188421  1
  I  I114  1  -0.00322843  0.82869126  0.16845431  1
  I  I115  1  -0.00031215  0.82821995  0.50077201  1
  I  I116  1  0.00364427  0.82666919  0.82946776  1
  I  I117  1  0.33862046  0.16043275  0.16920561  1
  I  I118  1  0.33765714  0.16284463  0.49758178  1
  I  I119  1  0.33335619  0.16641126  0.83410734  1
  I  I120  1  0.33348498  0.49899984  0.16752342  1
  I  I121  1  0.33088418  0.50246621  0.50361594  1
  I  I122  1  0.33212194  0.50202040  0.82822297  1
  I  I123  1  0.33649084  0.83785298  0.16942207  1
  I  I124  1  0.33350535  0.83319443  0.49990540  1
  I  I125  1  0.32998451  0.83210798  0.82932428  1
  I  I126  1  0.66352702  0.16544206  0.16979819  1
  I  I127  1  0.66321384  0.16360091  0.49746929  1
  I  I128  1  0.66888940  0.16932564  0.83318090  1
  I  I129  1  0.67013124  0.50094507  0.17092504  1
  I  I130  1  0.66930339  0.50249631  0.49890764  1
  I  I131  1  0.66547942  0.49696402  0.83309933  1
  I  I132  1  0.66671499  0.83330275  0.17351309  1
  I  I133  1  0.66684695  0.83298758  0.49570217  1
  I  I134  1  0.66673460  0.83239377  0.83125038  1
