# generated using pymatgen
data_Cs27Sn13Pb14I81
_symmetry_space_group_name_H-M   'P 1'
_cell_length_a   18.97455566
_cell_length_b   18.97710084
_cell_length_c   18.97943491
_cell_angle_alpha   89.99961401
_cell_angle_beta   90.00048217
_cell_angle_gamma   89.99937179
_symmetry_Int_Tables_number   1
_chemical_formula_structural   Cs27Sn13Pb14I81
_chemical_formula_sum   'Cs27 Sn13 Pb14 I81'
_cell_volume   6834.15394900
_cell_formula_units_Z   1
loop_
 _symmetry_equiv_pos_site_id
 _symmetry_equiv_pos_as_xyz
  1  'x, y, z'
loop_
 _atom_site_type_symbol
 _atom_site_label
 _atom_site_symmetry_multiplicity
 _atom_site_fract_x
 _atom_site_fract_y
 _atom_site_fract_z
 _atom_site_occupancy
  Cs  Cs0  1  0.00131804  -0.00438922  0.00117832  1
  Cs  Cs1  1  -0.00368360  -0.00390846  0.33201204  1
  Cs  Cs2  1  0.00084390  0.00040940  0.66622517  1
  Cs  Cs3  1  -0.00241616  0.33273267  0.00062121  1
  Cs  Cs4  1  -0.00015455  0.33377585  0.33189468  1
  Cs  Cs5  1  0.00011418  0.33246971  0.66750365  1
  Cs  Cs6  1  0.00027952  0.66889652  -0.00137246  1
  Cs  Cs7  1  -0.00122562  0.66801874  0.33154892  1
  Cs  Cs8  1  0.00190863  0.66676958  0.66873982  1
  Cs  Cs9  1  0.34128253  0.00181005  0.00487413  1
  Cs  Cs10  1  0.34000378  0.00297291  0.32603621  1
  Cs  Cs11  1  0.33312319  -0.00106219  0.66776542  1
  Cs  Cs12  1  0.33233405  0.33344846  0.00343207  1
  Cs  Cs13  1  0.33305293  0.33465424  0.33152667  1
  Cs  Cs14  1  0.33089256  0.33508878  0.66548015  1
  Cs  Cs15  1  0.33269842  0.66626356  -0.00074293  1
  Cs  Cs16  1  0.33217073  0.66343476  0.33339111  1
  Cs  Cs17  1  0.33172628  0.66580496  0.66748698  1
  Cs  Cs18  1  0.65624112  -0.00021509  -0.00032350  1
  Cs  Cs19  1  0.66432528  -0.00585555  0.33997276  1
  Cs  Cs20  1  0.66027949  0.00600710  0.66097072  1
  Cs  Cs21  1  0.67055096  0.33289288  -0.00105147  1
  Cs  Cs22  1  0.66775000  0.33411030  0.33287526  1
  Cs  Cs23  1  0.67045013  0.32961360  0.66833529  1
  Cs  Cs24  1  0.66726468  0.66615191  0.00022024  1
  Cs  Cs25  1  0.66897422  0.66835498  0.33339705  1
  Cs  Cs26  1  0.66504327  0.66585560  0.66641415  1
  Sn  Sn27  1  0.83376525  0.49994592  0.49955214  1
  Sn  Sn28  1  0.83327966  0.16651667  0.16668127  1
  Sn  Sn29  1  0.16599490  0.83371804  0.83268426  1
  Sn  Sn30  1  0.50113230  0.49988859  0.16656029  1
  Sn  Sn31  1  0.83311880  0.83404001  0.83276061  1
  Sn  Sn32  1  0.16640984  0.16659150  0.83318292  1
  Sn  Sn33  1  0.49931612  0.49978884  0.83325074  1
  Sn  Sn34  1  0.16647991  0.16641693  0.50015284  1
  Sn  Sn35  1  0.16678234  0.83353932  0.50033481  1
  Sn  Sn36  1  0.83278833  0.49935770  0.16727579  1
  Sn  Sn37  1  0.50017110  0.49981945  0.50029600  1
  Sn  Sn38  1  0.16626906  0.50000414  0.50077717  1
  Sn  Sn39  1  0.16716092  0.49968051  0.83277865  1
  Pb  Pb40  1  0.16612788  0.50011582  0.16655403  1
  Pb  Pb41  1  0.83363752  0.50106974  0.83329743  1
  Pb  Pb42  1  0.50320453  0.16932073  0.16695509  1
  Pb  Pb43  1  0.50013784  0.83030660  0.16691173  1
  Pb  Pb44  1  0.83562367  0.16852211  0.49832591  1
  Pb  Pb45  1  0.83315257  0.83327181  0.16436752  1
  Pb  Pb46  1  0.49721803  0.16971569  0.83317805  1
  Pb  Pb47  1  0.49935982  0.83129207  0.83305413  1
  Pb  Pb48  1  0.83521354  0.83116628  0.50256883  1
  Pb  Pb49  1  0.16472002  0.16665081  0.16683491  1
  Pb  Pb50  1  0.49689833  0.83101597  0.50018032  1
  Pb  Pb51  1  0.49726711  0.16928848  0.50002831  1
  Pb  Pb52  1  0.83535868  0.16339601  0.83519828  1
  Pb  Pb53  1  0.16686734  0.83346244  0.16661118  1
  I  I54  1  0.16290819  0.00011061  0.16680037  1
  I  I55  1  0.16454846  -0.00008185  0.50788113  1
  I  I56  1  0.15953074  -0.00036266  0.82635170  1
  I  I57  1  0.16799650  0.33371243  0.16605174  1
  I  I58  1  0.16685908  0.33493439  0.50577830  1
  I  I59  1  0.17098725  0.33435556  0.82747274  1
  I  I60  1  0.16513612  0.66630763  0.16627710  1
  I  I61  1  0.16717436  0.66512257  0.50587298  1
  I  I62  1  0.16680999  0.66586446  0.82817971  1
  I  I63  1  0.50013774  0.00037215  0.16554274  1
  I  I64  1  0.49956939  0.00008879  0.49927420  1
  I  I65  1  0.49949893  0.00013283  0.83530136  1
  I  I66  1  0.49985866  0.33787068  0.16704631  1
  I  I67  1  0.49702214  0.33828877  0.49984460  1
  I  I68  1  0.49578999  0.33829724  0.83298345  1
  I  I69  1  0.50572743  0.66144067  0.16650836  1
  I  I70  1  0.49757043  0.66188722  0.50012624  1
  I  I71  1  0.49396726  0.66245727  0.83329629  1
  I  I72  1  0.83904074  0.00257945  0.16422505  1
  I  I73  1  0.83598997  -0.00012576  0.49757414  1
  I  I74  1  0.84214785  -0.00405376  0.83573106  1
  I  I75  1  0.83083324  0.33555212  0.16923760  1
  I  I76  1  0.83571539  0.33754136  0.49979804  1
  I  I77  1  0.83421648  0.33337885  0.83256074  1
  I  I78  1  0.82958588  0.66318152  0.16986599  1
  I  I79  1  0.83539400  0.66239351  0.49390212  1
  I  I80  1  0.84028773  0.66844577  0.83471750  1
  I  I81  1  0.16496864  0.16855087  -0.00325778  1
  I  I82  1  0.16559425  0.16984453  0.33668284  1
  I  I83  1  0.16563802  0.16880160  0.66678927  1
  I  I84  1  0.16945173  0.50047510  -0.00341470  1
  I  I85  1  0.16901035  0.49988516  0.33683488  1
  I  I86  1  0.16899983  0.50036582  0.66627188  1
  I  I87  1  0.16229525  0.83081515  -0.00395307  1
  I  I88  1  0.16639052  0.83003648  0.33699021  1
  I  I89  1  0.16277529  0.83098144  0.66732000  1
  I  I90  1  0.49684458  0.16941806  0.00003772  1
  I  I91  1  0.49525408  0.17024921  0.33339617  1
  I  I92  1  0.50381491  0.16956322  0.66668466  1
  I  I93  1  0.49940102  0.50055616  -0.00023279  1
  I  I94  1  0.49886512  0.49995782  0.33388254  1
  I  I95  1  0.49751218  0.50130220  0.66642178  1
  I  I96  1  0.49755840  0.82990960  -0.00027483  1
  I  I97  1  0.49817709  0.83058259  0.33365917  1
  I  I98  1  0.50223557  0.82910293  0.66668679  1
  I  I99  1  0.83703699  0.17681247  0.00279288  1
  I  I100  1  0.83719749  0.17088240  0.33043318  1
  I  I101  1  0.83331435  0.16866995  0.66667141  1
  I  I102  1  0.83064733  0.49839390  0.00234556  1
  I  I103  1  0.83177126  0.49713756  0.33362820  1
  I  I104  1  0.83258251  0.50243460  0.66408146  1
  I  I105  1  0.84272119  0.82858732  -0.00330020  1
  I  I106  1  0.83573389  0.83328245  0.33361052  1
  I  I107  1  0.83803266  0.82902729  0.67015203  1
  I  I108  1  -0.00274361  0.17629396  0.16658302  1
  I  I109  1  0.00399033  0.17099620  0.50386916  1
  I  I110  1  0.00395042  0.17358196  0.82986456  1
  I  I111  1  -0.00303676  0.49706359  0.16976435  1
  I  I112  1  0.00127698  0.49992455  0.50002127  1
  I  I113  1  0.00324848  0.49922092  0.83028509  1
  I  I114  1  -0.00011110  0.82924436  0.16742788  1
  I  I115  1  0.00374608  0.82950002  0.50208133  1
  I  I116  1  0.00222370  0.82890823  0.83092976  1
  I  I117  1  0.33354070  0.16748336  0.16623695  1
  I  I118  1  0.32864628  0.16944461  0.50401463  1
  I  I119  1  0.32854026  0.16236618  0.83003057  1
  I  I120  1  0.33584238  0.50102102  0.16854042  1
  I  I121  1  0.33225551  0.50038522  0.50031943  1
  I  I122  1  0.33195005  0.50195880  0.83089296  1
  I  I123  1  0.33340104  0.83186982  0.16435993  1
  I  I124  1  0.32842854  0.83008858  0.50803761  1
  I  I125  1  0.32936097  0.83308456  0.82873780  1
  I  I126  1  0.67079926  0.17125403  0.16477894  1
  I  I127  1  0.66681384  0.16856888  0.49888699  1
  I  I128  1  0.66671080  0.16687948  0.83540336  1
  I  I129  1  0.66685509  0.49648029  0.16912461  1
  I  I130  1  0.66664586  0.50053647  0.49939339  1
  I  I131  1  0.66439596  0.50350609  0.83139979  1
  I  I132  1  0.66690911  0.83398241  0.16341890  1
  I  I133  1  0.66668416  0.83097791  0.50083180  1
  I  I134  1  0.66894386  0.82805258  0.83685933  1
