# generated using pymatgen
data_Cs27Sn14Pb13I81
_symmetry_space_group_name_H-M   'P 1'
_cell_length_a   18.98156917
_cell_length_b   18.97245147
_cell_length_c   18.97249129
_cell_angle_alpha   90.00035153
_cell_angle_beta   90.00064615
_cell_angle_gamma   90.00069661
_symmetry_Int_Tables_number   1
_chemical_formula_structural   Cs27Sn14Pb13I81
_chemical_formula_sum   'Cs27 Sn14 Pb13 I81'
_cell_volume   6832.50447352
_cell_formula_units_Z   1
loop_
 _symmetry_equiv_pos_site_id
 _symmetry_equiv_pos_as_xyz
  1  'x, y, z'
loop_
 _atom_site_type_symbol
 _atom_site_label
 _atom_site_symmetry_multiplicity
 _atom_site_fract_x
 _atom_site_fract_y
 _atom_site_fract_z
 _atom_site_occupancy
  Cs  Cs0  1  -0.00173519  -0.00037686  0.00036392  1
  Cs  Cs1  1  -0.00123625  -0.00202482  0.33339486  1
  Cs  Cs2  1  0.00771219  -0.00082924  0.66664905  1
  Cs  Cs3  1  -0.00094046  0.33166048  -0.00242787  1
  Cs  Cs4  1  0.00174252  0.33793967  0.33730346  1
  Cs  Cs5  1  -0.00156789  0.33335195  0.66531447  1
  Cs  Cs6  1  0.00293450  0.66837174  0.00132030  1
  Cs  Cs7  1  -0.00636527  0.66290118  0.33123815  1
  Cs  Cs8  1  0.00240558  0.66795996  0.66821339  1
  Cs  Cs9  1  0.33355735  -0.00093435  -0.00127069  1
  Cs  Cs10  1  0.33322823  0.00126465  0.33475750  1
  Cs  Cs11  1  0.33217586  0.00017011  0.66767427  1
  Cs  Cs12  1  0.33433432  0.33426139  0.00343817  1
  Cs  Cs13  1  0.33287559  0.33335410  0.33125832  1
  Cs  Cs14  1  0.33343196  0.33113213  0.66561957  1
  Cs  Cs15  1  0.33261717  0.66657083  0.00142031  1
  Cs  Cs16  1  0.33525974  0.66488507  0.32954801  1
  Cs  Cs17  1  0.33350026  0.67039198  0.66773996  1
  Cs  Cs18  1  0.66807177  0.00174859  0.00209738  1
  Cs  Cs19  1  0.66910932  -0.00278792  0.32969046  1
  Cs  Cs20  1  0.66334309  0.00008174  0.66726610  1
  Cs  Cs21  1  0.66578978  0.33058503  -0.00234281  1
  Cs  Cs22  1  0.66568125  0.33174388  0.33446838  1
  Cs  Cs23  1  0.66799652  0.33492457  0.66798167  1
  Cs  Cs24  1  0.66433617  0.66644369  -0.00479480  1
  Cs  Cs25  1  0.67299011  0.67024923  0.33724044  1
  Cs  Cs26  1  0.66531773  0.66548065  0.66655015  1
  Sn  Sn27  1  0.16701337  0.49890942  0.83262612  1
  Sn  Sn28  1  0.16704236  0.50014177  0.50102013  1
  Sn  Sn29  1  0.83238045  0.83364255  0.83296933  1
  Sn  Sn30  1  0.50106447  0.16742825  0.50060939  1
  Sn  Sn31  1  0.83303766  0.49905609  0.49960180  1
  Sn  Sn32  1  0.49941786  0.83337202  0.16598852  1
  Sn  Sn33  1  0.49933793  0.16624174  0.83288855  1
  Sn  Sn34  1  0.16731366  0.83434818  0.16695483  1
  Sn  Sn35  1  0.50089256  0.83424290  0.83424979  1
  Sn  Sn36  1  0.49993441  0.49926165  0.50004075  1
  Sn  Sn37  1  0.16658878  0.16591408  0.16597666  1
  Sn  Sn38  1  0.83260637  0.49919117  0.16619402  1
  Sn  Sn39  1  0.83241974  0.16681837  0.50022943  1
  Sn  Sn40  1  0.16755626  0.16776734  0.83433681  1
  Pb  Pb41  1  0.49840812  0.16493242  0.16682664  1
  Pb  Pb42  1  0.83308956  0.83158217  0.16451809  1
  Pb  Pb43  1  0.50280971  0.50243336  0.16931453  1
  Pb  Pb44  1  0.16742693  0.83369084  0.83490075  1
  Pb  Pb45  1  0.16670403  0.83004955  0.49650341  1
  Pb  Pb46  1  0.83338190  0.16478815  0.83110704  1
  Pb  Pb47  1  0.49988442  0.83392454  0.50009744  1
  Pb  Pb48  1  0.16694059  0.16817974  0.50008365  1
  Pb  Pb49  1  0.83552293  0.50159965  0.83276871  1
  Pb  Pb50  1  0.83597354  0.16892007  0.16914859  1
  Pb  Pb51  1  0.83342751  0.83358659  0.50268277  1
  Pb  Pb52  1  0.16540220  0.49975783  0.16651847  1
  Pb  Pb53  1  0.49775104  0.49967220  0.83148282  1
  I  I54  1  0.16974263  0.00022911  0.16044206  1
  I  I55  1  0.16610010  0.00020313  0.50244632  1
  I  I56  1  0.16720383  0.00276221  0.83490550  1
  I  I57  1  0.16498714  0.33105052  0.16577943  1
  I  I58  1  0.16591798  0.33635638  0.49884107  1
  I  I59  1  0.17096014  0.33236623  0.83544896  1
  I  I60  1  0.16884057  0.66866234  0.16640863  1
  I  I61  1  0.16634618  0.66168908  0.50644116  1
  I  I62  1  0.16554476  0.66467194  0.83039800  1
  I  I63  1  0.49877330  -0.00313120  0.16745881  1
  I  I64  1  0.50447780  0.00337717  0.50117392  1
  I  I65  1  0.49733512  0.00058310  0.83000248  1
  I  I66  1  0.49853291  0.33333874  0.16447198  1
  I  I67  1  0.50077305  0.33296019  0.50566617  1
  I  I68  1  0.49746835  0.33035347  0.83041174  1
  I  I69  1  0.49225967  0.67023498  0.16101765  1
  I  I70  1  0.50050031  0.66384255  0.49967122  1
  I  I71  1  0.50179924  0.66918478  0.83516221  1
  I  I72  1  0.83311502  0.00010295  0.16838732  1
  I  I73  1  0.82789660  0.00307436  0.50140342  1
  I  I74  1  0.83412366  -0.00294609  0.83275512  1
  I  I75  1  0.83612893  0.33674597  0.16810168  1
  I  I76  1  0.83329160  0.33446850  0.49705292  1
  I  I77  1  0.83199024  0.33325452  0.83501233  1
  I  I78  1  0.83673026  0.66389517  0.17492141  1
  I  I79  1  0.83323519  0.66333448  0.49654907  1
  I  I80  1  0.82892692  0.66945969  0.83199179  1
  I  I81  1  0.17211554  0.16939412  -0.00125913  1
  I  I82  1  0.16658371  0.16430110  0.33126994  1
  I  I83  1  0.16727030  0.16873398  0.66921659  1
  I  I84  1  0.16411459  0.49981913  -0.00230746  1
  I  I85  1  0.16718387  0.50002858  0.33599141  1
  I  I86  1  0.16390745  0.49439944  0.66640668  1
  I  I87  1  0.16750268  0.83113093  0.00263920  1
  I  I88  1  0.17256383  0.83946743  0.32866124  1
  I  I89  1  0.16648533  0.83486655  0.66680447  1
  I  I90  1  0.49707246  0.16378834  -0.00292326  1
  I  I91  1  0.50149257  0.16964970  0.33627550  1
  I  I92  1  0.49717616  0.16412115  0.66704701  1
  I  I93  1  0.49985610  0.49850924  -0.00002953  1
  I  I94  1  0.49362399  0.49472748  0.33750969  1
  I  I95  1  0.50503242  0.50106063  0.66324823  1
  I  I96  1  0.49986045  0.83834462  -0.00108883  1
  I  I97  1  0.49502770  0.83220597  0.33080059  1
  I  I98  1  0.50384141  0.83378199  0.66963099  1
  I  I99  1  0.83172382  0.16792762  -0.00009547  1
  I  I100  1  0.82823122  0.16762671  0.33720425  1
  I  I101  1  0.83399952  0.17423383  0.66331412  1
  I  I102  1  0.83781274  0.50406886  0.00177927  1
  I  I103  1  0.83710631  0.49855711  0.33521559  1
  I  I104  1  0.83234000  0.49738990  0.66334682  1
  I  I105  1  0.83258570  0.83115777  -0.00306490  1
  I  I106  1  0.83342802  0.83371202  0.33334337  1
  I  I107  1  0.82718335  0.83057988  0.67028963  1
  I  I108  1  0.00390712  0.16033340  0.16135596  1
  I  I109  1  -0.00184112  0.17158580  0.49968806  1
  I  I110  1  0.00290773  0.16854653  0.83513114  1
  I  I111  1  -0.00211795  0.50240864  0.17334940  1
  I  I112  1  -0.00035025  0.49610782  0.49929863  1
  I  I113  1  0.00346585  0.49652341  0.82832777  1
  I  I114  1  0.00234519  0.83496121  0.16464943  1
  I  I115  1  0.00007360  0.83463776  0.50173365  1
  I  I116  1  -0.00118070  0.83186487  0.83407691  1
  I  I117  1  0.33030807  0.16646616  0.16774253  1
  I  I118  1  0.33596133  0.17061452  0.50097628  1
  I  I119  1  0.33364914  0.16381057  0.82989757  1
  I  I120  1  0.33349058  0.50002371  0.16845676  1
  I  I121  1  0.33337907  0.49620813  0.50468257  1
  I  I122  1  0.32983559  0.50127463  0.82858722  1
  I  I123  1  0.33333897  0.83518899  0.16053224  1
  I  I124  1  0.33334542  0.83325783  0.50461881  1
  I  I125  1  0.33607772  0.83415347  0.83505761  1
  I  I126  1  0.66672222  0.16578262  0.16472116  1
  I  I127  1  0.66563432  0.17523019  0.50561099  1
  I  I128  1  0.66375148  0.16401443  0.83055600  1
  I  I129  1  0.67034887  0.50221945  0.17214699  1
  I  I130  1  0.66692545  0.49653912  0.49506012  1
  I  I131  1  0.66649588  0.49934319  0.83294786  1
  I  I132  1  0.66407260  0.83136678  0.16500911  1
  I  I133  1  0.66655296  0.82842874  0.49593750  1
  I  I134  1  0.66488375  0.83742769  0.83894821  1
