# generated using pymatgen
data_Cs27Sn14Pb13I81
_symmetry_space_group_name_H-M   'P 1'
_cell_length_a   18.96999375
_cell_length_b   18.98218737
_cell_length_c   18.97711656
_cell_angle_alpha   89.99919258
_cell_angle_beta   89.99918817
_cell_angle_gamma   89.99970753
_symmetry_Int_Tables_number   1
_chemical_formula_structural   Cs27Sn14Pb13I81
_chemical_formula_sum   'Cs27 Sn14 Pb13 I81'
_cell_volume   6833.50739642
_cell_formula_units_Z   1
loop_
 _symmetry_equiv_pos_site_id
 _symmetry_equiv_pos_as_xyz
  1  'x, y, z'
loop_
 _atom_site_type_symbol
 _atom_site_label
 _atom_site_symmetry_multiplicity
 _atom_site_fract_x
 _atom_site_fract_y
 _atom_site_fract_z
 _atom_site_occupancy
  Cs  Cs0  1  -0.00245613  -0.00054239  0.00424282  1
  Cs  Cs1  1  0.00742662  0.00701355  0.32806539  1
  Cs  Cs2  1  0.00157964  0.00184662  0.66698569  1
  Cs  Cs3  1  0.00151937  0.33370435  -0.00087459  1
  Cs  Cs4  1  -0.00276631  0.32457238  0.33992225  1
  Cs  Cs5  1  -0.00166575  0.33966232  0.66109695  1
  Cs  Cs6  1  -0.00553540  0.66743415  -0.00242520  1
  Cs  Cs7  1  0.00589642  0.66924928  0.33421798  1
  Cs  Cs8  1  -0.00073796  0.65790343  0.66793602  1
  Cs  Cs9  1  0.33290436  0.00171042  -0.00430663  1
  Cs  Cs10  1  0.32877462  -0.00165172  0.33377839  1
  Cs  Cs11  1  0.33384420  -0.00029906  0.66979584  1
  Cs  Cs12  1  0.33454047  0.33430695  -0.00079346  1
  Cs  Cs13  1  0.33451124  0.33386169  0.33089466  1
  Cs  Cs14  1  0.33272670  0.33288280  0.67003816  1
  Cs  Cs15  1  0.33414693  0.66479010  0.00066955  1
  Cs  Cs16  1  0.33550209  0.66771053  0.33306441  1
  Cs  Cs17  1  0.33217237  0.66817772  0.66660463  1
  Cs  Cs18  1  0.66949101  -0.00046407  -0.00207228  1
  Cs  Cs19  1  0.66727695  -0.00003681  0.33500268  1
  Cs  Cs20  1  0.66523012  -0.00137944  0.66758750  1
  Cs  Cs21  1  0.66387578  0.33280577  0.00146867  1
  Cs  Cs22  1  0.66742013  0.33396562  0.33319721  1
  Cs  Cs23  1  0.66759122  0.33047434  0.66493510  1
  Cs  Cs24  1  0.66826252  0.66718663  0.00072943  1
  Cs  Cs25  1  0.66399981  0.66596289  0.33362113  1
  Cs  Cs26  1  0.66786548  0.66932485  0.66563186  1
  Sn  Sn27  1  0.83487366  0.16684098  0.83328037  1
  Sn  Sn28  1  0.16690634  0.83363186  0.83337778  1
  Sn  Sn29  1  0.50002255  0.83382022  0.16646207  1
  Sn  Sn30  1  0.50000569  0.49995573  0.50023644  1
  Sn  Sn31  1  0.50009143  0.50021027  0.16667777  1
  Sn  Sn32  1  0.50001213  0.16618371  0.16769248  1
  Sn  Sn33  1  0.16482150  0.16625628  0.83333716  1
  Sn  Sn34  1  0.83343837  0.83370792  0.49957781  1
  Sn  Sn35  1  0.49950849  0.83215340  0.83354338  1
  Sn  Sn36  1  0.50026672  0.50126529  0.83318826  1
  Sn  Sn37  1  0.50056890  0.83355529  0.49989698  1
  Sn  Sn38  1  0.83361939  0.50002729  0.16715861  1
  Sn  Sn39  1  0.16627041  0.49981754  0.16696910  1
  Sn  Sn40  1  0.49985954  0.16629167  0.49881941  1
  Pb  Pb41  1  0.83112754  0.50214065  0.49741910  1
  Pb  Pb42  1  0.83043323  0.49785679  0.83498247  1
  Pb  Pb43  1  0.83144457  0.83164431  0.16933151  1
  Pb  Pb44  1  0.16853789  0.50030966  0.83499971  1
  Pb  Pb45  1  0.16886526  0.83140201  0.16401105  1
  Pb  Pb46  1  0.83112968  0.16426518  0.50176818  1
  Pb  Pb47  1  0.16677530  0.83331336  0.50239431  1
  Pb  Pb48  1  0.16909165  0.16873494  0.16450092  1
  Pb  Pb49  1  0.49990335  0.16644138  0.83333400  1
  Pb  Pb50  1  0.83103706  0.16855363  0.16503129  1
  Pb  Pb51  1  0.16916703  0.49995143  0.49706473  1
  Pb  Pb52  1  0.83341254  0.83470344  0.83155301  1
  Pb  Pb53  1  0.16942031  0.16667807  0.50259287  1
  I  I54  1  0.16914768  0.00001449  0.16725401  1
  I  I55  1  0.17044272  -0.00008189  0.49815761  1
  I  I56  1  0.17246019  -0.00040348  0.83293872  1
  I  I57  1  0.17287249  0.33654541  0.16274544  1
  I  I58  1  0.16904029  0.33334796  0.50332813  1
  I  I59  1  0.16721823  0.33111030  0.83590152  1
  I  I60  1  0.17165013  0.66346751  0.16454299  1
  I  I61  1  0.16918693  0.66666387  0.50266015  1
  I  I62  1  0.17179139  0.66920545  0.83434018  1
  I  I63  1  0.50023589  -0.00041735  0.16774740  1
  I  I64  1  0.50391837  -0.00076437  0.49907539  1
  I  I65  1  0.49930599  -0.00257064  0.83330147  1
  I  I66  1  0.49983293  0.33456396  0.16758202  1
  I  I67  1  0.49870023  0.33371157  0.49771842  1
  I  I68  1  0.49987250  0.33544571  0.83457404  1
  I  I69  1  0.49963838  0.66598747  0.16794237  1
  I  I70  1  0.50309600  0.66689836  0.49783806  1
  I  I71  1  0.49485045  0.66742135  0.83416911  1
  I  I72  1  0.82998161  0.00001168  0.16576636  1
  I  I73  1  0.82300012  -0.00313209  0.50158705  1
  I  I74  1  0.82948208  0.00251633  0.83320729  1
  I  I75  1  0.82761867  0.33660594  0.16546228  1
  I  I76  1  0.83129035  0.33331086  0.50047627  1
  I  I77  1  0.83608775  0.33015843  0.83376193  1
  I  I78  1  0.82843303  0.66352056  0.16467693  1
  I  I79  1  0.82470743  0.66965016  0.50187754  1
  I  I80  1  0.83509805  0.66652953  0.83332869  1
  I  I81  1  0.16774949  0.16312453  -0.00335398  1
  I  I82  1  0.16619041  0.16774490  0.33312491  1
  I  I83  1  0.16762933  0.16312588  0.67071422  1
  I  I84  1  0.17318784  0.49955876  0.00279072  1
  I  I85  1  0.17165330  0.50125615  0.32903380  1
  I  I86  1  0.16936711  0.49996701  0.66681766  1
  I  I87  1  0.17377143  0.83685896  -0.00373791  1
  I  I88  1  0.16815522  0.83136018  0.33313995  1
  I  I89  1  0.17545575  0.83667162  0.67029877  1
  I  I90  1  0.49970520  0.16857739  0.00216953  1
  I  I91  1  0.50093498  0.16823088  0.33305093  1
  I  I92  1  0.50005921  0.16709088  0.66450311  1
  I  I93  1  0.49952559  0.50114858  0.00101158  1
  I  I94  1  0.49980974  0.50203124  0.33250810  1
  I  I95  1  0.49946912  0.50165811  0.66671732  1
  I  I96  1  0.49533417  0.83030295  -0.00024321  1
  I  I97  1  0.50476876  0.83015251  0.33339449  1
  I  I98  1  0.49991713  0.83139930  0.66680414  1
  I  I99  1  0.83247199  0.16548913  -0.00293302  1
  I  I100  1  0.83300947  0.16745133  0.33338507  1
  I  I101  1  0.83270422  0.16690602  0.66971293  1
  I  I102  1  0.82802421  0.50079769  0.00293345  1
  I  I103  1  0.82787554  0.49974705  0.32961315  1
  I  I104  1  0.83145963  0.49964764  0.66643833  1
  I  I105  1  0.83172570  0.83322207  0.00007633  1
  I  I106  1  0.82337035  0.83169339  0.33680421  1
  I  I107  1  0.82380115  0.83406804  0.66410755  1
  I  I108  1  0.00010705  0.16903743  0.16649434  1
  I  I109  1  -0.00011649  0.16472287  0.49949255  1
  I  I110  1  0.00068248  0.15981934  0.83506336  1
  I  I111  1  0.00000774  0.50116575  0.16280908  1
  I  I112  1  -0.00023863  0.50234255  0.49943281  1
  I  I113  1  -0.00010295  0.50240242  0.83652856  1
  I  I114  1  0.00009922  0.83009013  0.16666584  1
  I  I115  1  -0.00269118  0.83227315  0.50266670  1
  I  I116  1  0.00268013  0.83624248  0.83171234  1
  I  I117  1  0.33769355  0.16961258  0.16726021  1
  I  I118  1  0.33818492  0.16412851  0.49845858  1
  I  I119  1  0.33192479  0.16570072  0.83349322  1
  I  I120  1  0.33605460  0.49985952  0.16615865  1
  I  I121  1  0.33840054  0.50359493  0.49810976  1
  I  I122  1  0.33728069  0.49827074  0.83610912  1
  I  I123  1  0.33801195  0.83028337  0.17176692  1
  I  I124  1  0.33749782  0.83249222  0.49820747  1
  I  I125  1  0.33564972  0.83603094  0.83168663  1
  I  I126  1  0.66233406  0.16983026  0.16661480  1
  I  I127  1  0.66245340  0.16926567  0.49962508  1
  I  I128  1  0.66781825  0.16735367  0.83349933  1
  I  I129  1  0.66394986  0.49987634  0.16635196  1
  I  I130  1  0.66209529  0.49825428  0.49774460  1
  I  I131  1  0.66192717  0.50419579  0.83633567  1
  I  I132  1  0.66202686  0.83046329  0.16106075  1
  I  I133  1  0.66306955  0.83270712  0.50269662  1
  I  I134  1  0.66310667  0.83149949  0.83489662  1
