# generated using pymatgen
data_Cs27Sn14Pb13I81
_symmetry_space_group_name_H-M   'P 1'
_cell_length_a   18.97630476
_cell_length_b   18.98032476
_cell_length_c   18.97021475
_cell_angle_alpha   90.00082562
_cell_angle_beta   89.99994081
_cell_angle_gamma   90.00073146
_symmetry_Int_Tables_number   1
_chemical_formula_structural   Cs27Sn14Pb13I81
_chemical_formula_sum   'Cs27 Sn14 Pb13 I81'
_cell_volume   6832.62416949
_cell_formula_units_Z   1
loop_
 _symmetry_equiv_pos_site_id
 _symmetry_equiv_pos_as_xyz
  1  'x, y, z'
loop_
 _atom_site_type_symbol
 _atom_site_label
 _atom_site_symmetry_multiplicity
 _atom_site_fract_x
 _atom_site_fract_y
 _atom_site_fract_z
 _atom_site_occupancy
  Cs  Cs0  1  -0.00201518  0.00218183  -0.00123087  1
  Cs  Cs1  1  0.00100210  0.00018555  0.33577438  1
  Cs  Cs2  1  -0.00117244  0.00033392  0.66639796  1
  Cs  Cs3  1  -0.00025888  0.33304991  -0.00050378  1
  Cs  Cs4  1  0.00144444  0.33648673  0.32896216  1
  Cs  Cs5  1  0.00062402  0.32923608  0.67109040  1
  Cs  Cs6  1  -0.00191189  0.66306416  -0.00295397  1
  Cs  Cs7  1  0.00558636  0.66104240  0.34215550  1
  Cs  Cs8  1  0.00021537  0.66943501  0.66533781  1
  Cs  Cs9  1  0.33638691  -0.00460800  0.00326596  1
  Cs  Cs10  1  0.33094122  -0.00442104  0.32807064  1
  Cs  Cs11  1  0.33742405  0.00254854  0.66789352  1
  Cs  Cs12  1  0.33271109  0.33388139  0.00004188  1
  Cs  Cs13  1  0.33426910  0.33521832  0.33454189  1
  Cs  Cs14  1  0.33622650  0.33207588  0.66489036  1
  Cs  Cs15  1  0.33727948  0.67005871  0.00058554  1
  Cs  Cs16  1  0.32556556  0.67112116  0.33567087  1
  Cs  Cs17  1  0.33155865  0.66491189  0.66563159  1
  Cs  Cs18  1  0.66629352  -0.00136652  0.00047159  1
  Cs  Cs19  1  0.66721283  0.00062478  0.33184845  1
  Cs  Cs20  1  0.66494150  0.00144613  0.66579985  1
  Cs  Cs21  1  0.66770844  0.33365225  0.00069362  1
  Cs  Cs22  1  0.66526623  0.33498898  0.33298964  1
  Cs  Cs23  1  0.66281083  0.33102877  0.66470806  1
  Cs  Cs24  1  0.66520463  0.66756249  0.00047676  1
  Cs  Cs25  1  0.66954683  0.66454894  0.33739261  1
  Cs  Cs26  1  0.66789115  0.66686650  0.66344979  1
  Sn  Sn27  1  0.83350021  0.16646147  0.83333707  1
  Sn  Sn28  1  0.83384028  0.83330046  0.16659231  1
  Sn  Sn29  1  0.16640278  0.16616695  0.83281176  1
  Sn  Sn30  1  0.83397674  0.16686553  0.49986334  1
  Sn  Sn31  1  0.16602714  0.83393345  0.83362000  1
  Sn  Sn32  1  0.16610101  0.16664988  0.50064335  1
  Sn  Sn33  1  0.50013103  0.83358129  0.50001632  1
  Sn  Sn34  1  0.50020214  0.49969724  0.83397523  1
  Sn  Sn35  1  0.83258488  0.16596811  0.16658911  1
  Sn  Sn36  1  0.16689755  0.49982514  0.83356972  1
  Sn  Sn37  1  0.49997189  0.49951256  0.16610758  1
  Sn  Sn38  1  0.83284376  0.49990033  0.83336239  1
  Sn  Sn39  1  0.83387770  0.83365232  0.83411060  1
  Sn  Sn40  1  0.50059822  0.16736673  0.16632933  1
  Pb  Pb41  1  0.50239492  0.83260439  0.16873821  1
  Pb  Pb42  1  0.16945393  0.50017587  0.16413230  1
  Pb  Pb43  1  0.16851329  0.83611030  0.50284437  1
  Pb  Pb44  1  0.49985031  0.50224319  0.49949358  1
  Pb  Pb45  1  0.16650677  0.49694045  0.50278589  1
  Pb  Pb46  1  0.50059154  0.83090366  0.83191907  1
  Pb  Pb47  1  0.49961029  0.16517191  0.49711894  1
  Pb  Pb48  1  0.16613448  0.16661191  0.16616150  1
  Pb  Pb49  1  0.83350439  0.49668284  0.50293594  1
  Pb  Pb50  1  0.49987862  0.16842129  0.83536523  1
  Pb  Pb51  1  0.83191953  0.50020350  0.16499544  1
  Pb  Pb52  1  0.83243243  0.83537466  0.50013861  1
  Pb  Pb53  1  0.16272479  0.83323945  0.16414183  1
  I  I54  1  0.17367049  0.00012472  0.16401638  1
  I  I55  1  0.16273999  0.00373564  0.50633666  1
  I  I56  1  0.15885833  0.00077010  0.82940245  1
  I  I57  1  0.16270720  0.33315615  0.16421108  1
  I  I58  1  0.16391861  0.32906711  0.50609222  1
  I  I59  1  0.16356770  0.33277983  0.82996297  1
  I  I60  1  0.16808869  0.66680780  0.16491068  1
  I  I61  1  0.16915971  0.66685936  0.50076185  1
  I  I62  1  0.16379045  0.66657340  0.83556770  1
  I  I63  1  0.50222138  0.00227828  0.16830936  1
  I  I64  1  0.50085034  -0.00208919  0.50065855  1
  I  I65  1  0.49932808  -0.00005319  0.83382149  1
  I  I66  1  0.50627710  0.33278660  0.16282696  1
  I  I67  1  0.50002141  0.33315286  0.50147572  1
  I  I68  1  0.50052263  0.33652951  0.83409190  1
  I  I69  1  0.50144451  0.66395340  0.16133563  1
  I  I70  1  0.50179716  0.66968273  0.50016284  1
  I  I71  1  0.50004585  0.66288234  0.83928582  1
  I  I72  1  0.82705530  0.00158247  0.16078954  1
  I  I73  1  0.83561077  0.00354509  0.50490306  1
  I  I74  1  0.83982429  0.00076714  0.83390371  1
  I  I75  1  0.83130641  0.33016339  0.16545427  1
  I  I76  1  0.83504137  0.32836010  0.49908193  1
  I  I77  1  0.83605057  0.33240296  0.83350690  1
  I  I78  1  0.83022932  0.66924823  0.15913390  1
  I  I79  1  0.83024975  0.66672425  0.49986580  1
  I  I80  1  0.83533342  0.66703430  0.83872674  1
  I  I81  1  0.16294535  0.16796374  -0.00376983  1
  I  I82  1  0.16379160  0.16585880  0.33585182  1
  I  I83  1  0.15901565  0.16691261  0.66851792  1
  I  I84  1  0.16298694  0.49519362  -0.00480812  1
  I  I85  1  0.16887091  0.49888967  0.33348982  1
  I  I86  1  0.16909520  0.50243584  0.67158395  1
  I  I87  1  0.16815457  0.83712267  -0.00455849  1
  I  I88  1  0.16788985  0.83499385  0.33361295  1
  I  I89  1  0.15963432  0.83038030  0.67105445  1
  I  I90  1  0.50429145  0.16698311  0.00311333  1
  I  I91  1  0.50475580  0.17241273  0.32949028  1
  I  I92  1  0.50229403  0.16740901  0.66672737  1
  I  I93  1  0.49999920  0.49655549  -0.00118170  1
  I  I94  1  0.50265573  0.49545797  0.33016104  1
  I  I95  1  0.49978035  0.50116339  0.66994289  1
  I  I96  1  0.49796189  0.83455217  0.00001312  1
  I  I97  1  0.50248857  0.83391701  0.33593589  1
  I  I98  1  0.50204658  0.83341153  0.66458696  1
  I  I99  1  0.83358424  0.16646239  -0.00112404  1
  I  I100  1  0.83253630  0.16047014  0.33262319  1
  I  I101  1  0.83794590  0.16688338  0.66811553  1
  I  I102  1  0.83583287  0.49537071  -0.00392592  1
  I  I103  1  0.82942729  0.50058985  0.33330760  1
  I  I104  1  0.83080994  0.50205742  0.67195737  1
  I  I105  1  0.83520879  0.83879396  -0.00163418  1
  I  I106  1  0.82766552  0.83987537  0.33076459  1
  I  I107  1  0.83579747  0.83337771  0.67022775  1
  I  I108  1  -0.00359743  0.16245041  0.16565103  1
  I  I109  1  -0.00085879  0.16503205  0.50095987  1
  I  I110  1  -0.00108820  0.17033713  0.83461303  1
  I  I111  1  -0.00016370  0.49863622  0.16503735  1
  I  I112  1  -0.00008673  0.50477429  0.49912059  1
  I  I113  1  -0.00032558  0.49925613  0.83253839  1
  I  I114  1  -0.00508224  0.84272071  0.16482089  1
  I  I115  1  0.00011836  0.83266158  0.49827762  1
  I  I116  1  -0.00099094  0.82990764  0.83644472  1
  I  I117  1  0.33588975  0.17114021  0.16639254  1
  I  I118  1  0.33074756  0.16573430  0.50607927  1
  I  I119  1  0.33045577  0.16725068  0.82940968  1
  I  I120  1  0.33762734  0.49265623  0.16044487  1
  I  I121  1  0.33330669  0.49727099  0.50333202  1
  I  I122  1  0.33303259  0.49954954  0.83712413  1
  I  I123  1  0.33341707  0.83425802  0.16646956  1
  I  I124  1  0.33600541  0.83499485  0.50064096  1
  I  I125  1  0.33081840  0.83387802  0.83015958  1
  I  I126  1  0.66817023  0.16674417  0.16581967  1
  I  I127  1  0.66945081  0.16488418  0.50398925  1
  I  I128  1  0.66996290  0.16630826  0.83097744  1
  I  I129  1  0.66399686  0.49815773  0.15888948  1
  I  I130  1  0.66666172  0.49810974  0.50443544  1
  I  I131  1  0.66724295  0.49974768  0.83750677  1
  I  I132  1  0.67001485  0.83629133  0.15859949  1
  I  I133  1  0.66479747  0.83581845  0.50282859  1
  I  I134  1  0.67007669  0.83439001  0.83561493  1
