# generated using pymatgen
data_Cs27Sn13Pb14I81
_symmetry_space_group_name_H-M   'P 1'
_cell_length_a   18.99629611
_cell_length_b   19.00062673
_cell_length_c   18.98052059
_cell_angle_alpha   90.00027895
_cell_angle_beta   89.99977135
_cell_angle_gamma   90.00052454
_symmetry_Int_Tables_number   1
_chemical_formula_structural   Cs27Sn13Pb14I81
_chemical_formula_sum   'Cs27 Sn13 Pb14 I81'
_cell_volume   6850.85817457
_cell_formula_units_Z   1
loop_
 _symmetry_equiv_pos_site_id
 _symmetry_equiv_pos_as_xyz
  1  'x, y, z'
loop_
 _atom_site_type_symbol
 _atom_site_label
 _atom_site_symmetry_multiplicity
 _atom_site_fract_x
 _atom_site_fract_y
 _atom_site_fract_z
 _atom_site_occupancy
  Cs  Cs0  1  -0.00168708  0.00002690  0.00422816  1
  Cs  Cs1  1  -0.00162250  -0.00081546  0.32612497  1
  Cs  Cs2  1  0.00282063  0.00351941  0.66746525  1
  Cs  Cs3  1  -0.00001950  0.33747958  0.00252266  1
  Cs  Cs4  1  0.00119010  0.32991310  0.33365998  1
  Cs  Cs5  1  0.00031174  0.33301614  0.66693463  1
  Cs  Cs6  1  0.00115779  0.66297313  0.00249021  1
  Cs  Cs7  1  -0.00351780  0.67087471  0.33251936  1
  Cs  Cs8  1  0.00029285  0.66249513  0.66582841  1
  Cs  Cs9  1  0.33388054  -0.00335457  -0.00327693  1
  Cs  Cs10  1  0.33349464  0.00310881  0.33455748  1
  Cs  Cs11  1  0.33176010  0.00032042  0.66736967  1
  Cs  Cs12  1  0.33396041  0.33811054  0.00587370  1
  Cs  Cs13  1  0.34167338  0.33557369  0.32645812  1
  Cs  Cs14  1  0.32960122  0.32994010  0.66637857  1
  Cs  Cs15  1  0.33415004  0.66646666  0.00091713  1
  Cs  Cs16  1  0.33433979  0.66286490  0.33095067  1
  Cs  Cs17  1  0.33115630  0.66958714  0.66732063  1
  Cs  Cs18  1  0.66815473  -0.00105946  -0.00188915  1
  Cs  Cs19  1  0.66805583  -0.00087589  0.33393568  1
  Cs  Cs20  1  0.66599724  0.00006559  0.66842494  1
  Cs  Cs21  1  0.66709264  0.33416675  0.00186669  1
  Cs  Cs22  1  0.65686648  0.33548766  0.32899454  1
  Cs  Cs23  1  0.66988123  0.33382303  0.66593043  1
  Cs  Cs24  1  0.66468075  0.66691881  -0.00218250  1
  Cs  Cs25  1  0.66944071  0.66518330  0.34315349  1
  Cs  Cs26  1  0.66955459  0.66531350  0.66093397  1
  Sn  Sn27  1  0.16594137  0.83388144  0.83278827  1
  Sn  Sn28  1  0.83380022  0.16661158  0.50057340  1
  Sn  Sn29  1  0.50022014  0.83307662  0.83356886  1
  Sn  Sn30  1  0.16577477  0.16659800  0.50048733  1
  Sn  Sn31  1  0.16658580  0.83376685  0.50069404  1
  Sn  Sn32  1  0.16683150  0.49957982  0.49998449  1
  Sn  Sn33  1  0.83392678  0.83361984  0.83303519  1
  Sn  Sn34  1  0.49974487  0.16710204  0.83317881  1
  Sn  Sn35  1  0.49988104  0.50001741  0.83249292  1
  Sn  Sn36  1  0.16643379  0.16609353  0.83363753  1
  Sn  Sn37  1  0.83382130  0.16595932  0.83277660  1
  Sn  Sn38  1  0.50030261  0.83352705  0.16651190  1
  Sn  Sn39  1  0.83317804  0.50017930  0.16680712  1
  Pb  Pb40  1  0.83150068  0.49968684  0.83411486  1
  Pb  Pb41  1  0.50204909  0.50278557  0.16444508  1
  Pb  Pb42  1  0.49770973  0.83344385  0.50071127  1
  Pb  Pb43  1  0.49760019  0.49993591  0.50277033  1
  Pb  Pb44  1  0.16857125  0.49984985  0.83208512  1
  Pb  Pb45  1  0.16681279  0.16653160  0.16631780  1
  Pb  Pb46  1  0.83541680  0.49691434  0.49788974  1
  Pb  Pb47  1  0.16869642  0.83342242  0.16622494  1
  Pb  Pb48  1  0.50009054  0.16379187  0.16349005  1
  Pb  Pb49  1  0.83318476  0.16821372  0.16648001  1
  Pb  Pb50  1  0.83610091  0.83590595  0.50263868  1
  Pb  Pb51  1  0.16470618  0.50020177  0.16987876  1
  Pb  Pb52  1  0.83084895  0.83155212  0.16419346  1
  Pb  Pb53  1  0.49987330  0.16658889  0.50222608  1
  I  I54  1  0.16621330  -0.00012424  0.17077375  1
  I  I55  1  0.16431580  0.00046457  0.50635392  1
  I  I56  1  0.17155912  -0.00010229  0.82564961  1
  I  I57  1  0.16706840  0.33342621  0.16493437  1
  I  I58  1  0.16171106  0.33183504  0.50620096  1
  I  I59  1  0.16626339  0.33006427  0.82856385  1
  I  I60  1  0.16679304  0.66681347  0.16591346  1
  I  I61  1  0.16898711  0.66748080  0.50547864  1
  I  I62  1  0.16729062  0.66978064  0.82909029  1
  I  I63  1  0.49969318  -0.00357838  0.15972292  1
  I  I64  1  0.49790271  0.00001108  0.50082843  1
  I  I65  1  0.49960994  -0.00021405  0.83704591  1
  I  I66  1  0.50055579  0.33353555  0.16562562  1
  I  I67  1  0.49756621  0.33317957  0.50185896  1
  I  I68  1  0.50013731  0.33239922  0.83080033  1
  I  I69  1  0.49880231  0.66994309  0.15726790  1
  I  I70  1  0.49810302  0.66679030  0.50287338  1
  I  I71  1  0.49891924  0.66805040  0.83824726  1
  I  I72  1  0.83254067  -0.00016036  0.16806544  1
  I  I73  1  0.83824149  0.00360182  0.50163520  1
  I  I74  1  0.82888706  0.00041102  0.83038990  1
  I  I75  1  0.83311800  0.33571030  0.16327960  1
  I  I76  1  0.84056827  0.32943913  0.50919733  1
  I  I77  1  0.83337628  0.32988030  0.83095934  1
  I  I78  1  0.83366537  0.66415821  0.16433409  1
  I  I79  1  0.83474868  0.66672858  0.50005274  1
  I  I80  1  0.83301780  0.66946907  0.83636734  1
  I  I81  1  0.16602075  0.16079636  -0.00447180  1
  I  I82  1  0.15996982  0.16449489  0.33724141  1
  I  I83  1  0.16677083  0.16588334  0.66759645  1
  I  I84  1  0.16749252  0.49978676  -0.00004435  1
  I  I85  1  0.16682936  0.49982985  0.33804723  1
  I  I86  1  0.16652670  0.49996073  0.66411059  1
  I  I87  1  0.16567569  0.83866166  -0.00405782  1
  I  I88  1  0.16872039  0.83445710  0.33662204  1
  I  I89  1  0.16985290  0.83431778  0.66818880  1
  I  I90  1  0.50012118  0.16892272  -0.00535518  1
  I  I91  1  0.49981069  0.16607450  0.33328473  1
  I  I92  1  0.49936298  0.16210665  0.67109386  1
  I  I93  1  0.49850975  0.49720914  -0.00364494  1
  I  I94  1  0.49974620  0.50143286  0.33319579  1
  I  I95  1  0.50232592  0.50384023  0.67087200  1
  I  I96  1  0.49754419  0.83386049  -0.00325068  1
  I  I97  1  0.49759479  0.83196980  0.33090846  1
  I  I98  1  0.50100900  0.83424566  0.67094733  1
  I  I99  1  0.83343738  0.16342451  -0.00397085  1
  I  I100  1  0.84125762  0.16795562  0.33649496  1
  I  I101  1  0.83418133  0.16403063  0.66846224  1
  I  I102  1  0.83258323  0.49836824  0.00177759  1
  I  I103  1  0.83380355  0.50021529  0.33044540  1
  I  I104  1  0.83214260  0.50179576  0.66648529  1
  I  I105  1  0.83769851  0.84020781  -0.00441735  1
  I  I106  1  0.83275415  0.83379818  0.33356329  1
  I  I107  1  0.82606313  0.83287430  0.67092239  1
  I  I108  1  -0.00010197  0.16689786  0.16174594  1
  I  I109  1  0.00113023  0.16762410  0.50960637  1
  I  I110  1  0.00026665  0.15934318  0.82845663  1
  I  I111  1  -0.00271762  0.50033201  0.16223139  1
  I  I112  1  0.00327271  0.50248948  0.50239094  1
  I  I113  1  0.00006145  0.50071220  0.83437701  1
  I  I114  1  -0.00020008  0.83190696  0.16589227  1
  I  I115  1  0.00404102  0.83029626  0.50556549  1
  I  I116  1  0.00058946  0.84025275  0.82842104  1
  I  I117  1  0.33352581  0.16858508  0.16816259  1
  I  I118  1  0.32960552  0.16533838  0.50516009  1
  I  I119  1  0.33284831  0.16296684  0.82884460  1
  I  I120  1  0.33370325  0.50018153  0.16742537  1
  I  I121  1  0.32946698  0.49733260  0.50072227  1
  I  I122  1  0.33647588  0.50065221  0.83261675  1
  I  I123  1  0.33619812  0.83205375  0.15820555  1
  I  I124  1  0.32943324  0.83693732  0.50686795  1
  I  I125  1  0.33323505  0.83598991  0.83320233  1
  I  I126  1  0.66662436  0.16775483  0.16759253  1
  I  I127  1  0.66961005  0.16699363  0.50544114  1
  I  I128  1  0.66694495  0.16340115  0.82991915  1
  I  I129  1  0.66924245  0.49860737  0.16556067  1
  I  I130  1  0.66689178  0.49901891  0.49893619  1
  I  I131  1  0.66357244  0.50044607  0.83534476  1
  I  I132  1  0.66335380  0.83372998  0.15777337  1
  I  I133  1  0.66692777  0.83392056  0.50027403  1
  I  I134  1  0.66626736  0.83675974  0.83921275  1
