# generated using pymatgen
data_Cs27Sn13Pb14I81
_symmetry_space_group_name_H-M   'P 1'
_cell_length_a   18.98059042
_cell_length_b   18.99119963
_cell_length_c   19.00504732
_cell_angle_alpha   90.00023801
_cell_angle_beta   89.99925313
_cell_angle_gamma   89.99950125
_symmetry_Int_Tables_number   1
_chemical_formula_structural   Cs27Sn13Pb14I81
_chemical_formula_sum   'Cs27 Sn13 Pb14 I81'
_cell_volume   6850.63883024
_cell_formula_units_Z   1
loop_
 _symmetry_equiv_pos_site_id
 _symmetry_equiv_pos_as_xyz
  1  'x, y, z'
loop_
 _atom_site_type_symbol
 _atom_site_label
 _atom_site_symmetry_multiplicity
 _atom_site_fract_x
 _atom_site_fract_y
 _atom_site_fract_z
 _atom_site_occupancy
  Cs  Cs0  1  0.00279517  0.00145079  -0.00035824  1
  Cs  Cs1  1  0.00391947  0.00097263  0.33460200  1
  Cs  Cs2  1  0.00106584  -0.00240503  0.66665204  1
  Cs  Cs3  1  -0.00195134  0.33609667  -0.00205858  1
  Cs  Cs4  1  -0.00071012  0.33439803  0.33321660  1
  Cs  Cs5  1  -0.00064188  0.33442786  0.66985400  1
  Cs  Cs6  1  -0.00009899  0.66356020  -0.00046895  1
  Cs  Cs7  1  -0.00180760  0.66529081  0.33504923  1
  Cs  Cs8  1  0.00097320  0.66617448  0.66592475  1
  Cs  Cs9  1  0.32741337  -0.00146561  0.00460429  1
  Cs  Cs10  1  0.32611978  0.01032677  0.33096429  1
  Cs  Cs11  1  0.33092314  -0.00010423  0.66402174  1
  Cs  Cs12  1  0.33929791  0.33309727  0.00090016  1
  Cs  Cs13  1  0.33887384  0.32469068  0.34144764  1
  Cs  Cs14  1  0.33874735  0.33287918  0.65913134  1
  Cs  Cs15  1  0.33265904  0.66813560  -0.00168926  1
  Cs  Cs16  1  0.33357759  0.66340662  0.33711806  1
  Cs  Cs17  1  0.33173471  0.66489120  0.66526716  1
  Cs  Cs18  1  0.66737279  -0.00100979  -0.00174228  1
  Cs  Cs19  1  0.66828653  -0.00413570  0.33374972  1
  Cs  Cs20  1  0.66670581  -0.00111358  0.66836675  1
  Cs  Cs21  1  0.66288120  0.33149734  -0.00178931  1
  Cs  Cs22  1  0.66549328  0.33303285  0.33223273  1
  Cs  Cs23  1  0.66310619  0.32912028  0.66959580  1
  Cs  Cs24  1  0.66644126  0.66729451  0.00100315  1
  Cs  Cs25  1  0.66835709  0.66938884  0.33120519  1
  Cs  Cs26  1  0.66667092  0.66960960  0.66708887  1
  Sn  Sn27  1  0.16656883  0.49968369  0.16614748  1
  Sn  Sn28  1  0.83292590  0.83246028  0.83437055  1
  Sn  Sn29  1  0.50020987  0.83312730  0.16690663  1
  Sn  Sn30  1  0.83329234  0.83358632  0.16563068  1
  Sn  Sn31  1  0.83342626  0.50078675  0.83333984  1
  Sn  Sn32  1  0.49981110  0.83340652  0.49941961  1
  Sn  Sn33  1  0.83368613  0.49970567  0.16636984  1
  Sn  Sn34  1  0.16669908  0.16851437  0.83353530  1
  Sn  Sn35  1  0.16625398  0.49849024  0.83440780  1
  Sn  Sn36  1  0.50054679  0.83317718  0.83361658  1
  Sn  Sn37  1  0.83338578  0.16740643  0.49936126  1
  Sn  Sn38  1  0.83304329  0.49901633  0.50033054  1
  Sn  Sn39  1  0.83345480  0.16667297  0.16725080  1
  Pb  Pb40  1  0.50270743  0.16380794  0.16644637  1
  Pb  Pb41  1  0.49992387  0.50189542  0.16675607  1
  Pb  Pb42  1  0.50316339  0.16391083  0.49996917  1
  Pb  Pb43  1  0.83256097  0.83331480  0.50001976  1
  Pb  Pb44  1  0.16617813  0.83242936  0.83343940  1
  Pb  Pb45  1  0.16457725  0.49984064  0.49997078  1
  Pb  Pb46  1  0.16600635  0.83065497  0.16675446  1
  Pb  Pb47  1  0.16403780  0.17018553  0.16475775  1
  Pb  Pb48  1  0.16358616  0.16708081  0.50254588  1
  Pb  Pb49  1  0.83433533  0.16653931  0.83358293  1
  Pb  Pb50  1  0.49665092  0.16347558  0.83352406  1
  Pb  Pb51  1  0.50333947  0.50201823  0.49990066  1
  Pb  Pb52  1  0.17002736  0.83325670  0.49959103  1
  Pb  Pb53  1  0.49989497  0.50194107  0.83338489  1
  I  I54  1  0.16658913  0.00029249  0.16510793  1
  I  I55  1  0.16298641  0.00034911  0.50300206  1
  I  I56  1  0.16596126  0.00171035  0.83197496  1
  I  I57  1  0.15807865  0.33772085  0.16374524  1
  I  I58  1  0.16940768  0.33351512  0.49831025  1
  I  I59  1  0.15622242  0.33507337  0.83737792  1
  I  I60  1  0.15966609  0.66312643  0.15864460  1
  I  I61  1  0.16350885  0.66628369  0.50311725  1
  I  I62  1  0.16491521  0.66341659  0.83710483  1
  I  I63  1  0.50616977  -0.00471044  0.16552957  1
  I  I64  1  0.50455567  -0.00402864  0.50141451  1
  I  I65  1  0.50802520  -0.00478812  0.83313175  1
  I  I66  1  0.50096799  0.33323707  0.16657826  1
  I  I67  1  0.49800676  0.33304524  0.50031196  1
  I  I68  1  0.50350516  0.33326839  0.83293881  1
  I  I69  1  0.50760805  0.67034889  0.16579498  1
  I  I70  1  0.50330329  0.67018235  0.50042473  1
  I  I71  1  0.50072900  0.67039553  0.83397452  1
  I  I72  1  0.82714425  -0.00082265  0.16662836  1
  I  I73  1  0.83098650  0.00204837  0.49738463  1
  I  I74  1  0.83119727  -0.00282385  0.83544892  1
  I  I75  1  0.83930607  0.33427385  0.16743839  1
  I  I76  1  0.83493425  0.33415504  0.49669314  1
  I  I77  1  0.83666564  0.33625620  0.83510460  1
  I  I78  1  0.83272097  0.66649868  0.16636776  1
  I  I79  1  0.83191764  0.66411909  0.49808939  1
  I  I80  1  0.83498636  0.66633432  0.83546952  1
  I  I81  1  0.16275895  0.16617942  -0.00279194  1
  I  I82  1  0.16813982  0.16626011  0.33315218  1
  I  I83  1  0.16374207  0.17194439  0.67023793  1
  I  I84  1  0.15630984  0.49805899  -0.00070364  1
  I  I85  1  0.16037002  0.50445326  0.33024037  1
  I  I86  1  0.16150190  0.49849644  0.67005807  1
  I  I87  1  0.17156645  0.83596706  -0.00005330  1
  I  I88  1  0.16436972  0.83111332  0.33296697  1
  I  I89  1  0.16492601  0.83165646  0.66700589  1
  I  I90  1  0.50362710  0.16466110  -0.00006405  1
  I  I91  1  0.49695309  0.16398675  0.33323484  1
  I  I92  1  0.50292943  0.16336598  0.66676126  1
  I  I93  1  0.50441323  0.50324571  -0.00000953  1
  I  I94  1  0.49992084  0.50529116  0.33328740  1
  I  I95  1  0.49981720  0.50468737  0.66675616  1
  I  I96  1  0.50607597  0.83250614  0.00002880  1
  I  I97  1  0.50828012  0.83131188  0.33244967  1
  I  I98  1  0.50600274  0.83287971  0.66746512  1
  I  I99  1  0.83516332  0.16745725  0.00261533  1
  I  I100  1  0.83276910  0.16899449  0.33256435  1
  I  I101  1  0.83523880  0.16909507  0.66475397  1
  I  I102  1  0.83778959  0.50187000  -0.00000715  1
  I  I103  1  0.83691653  0.50123069  0.33221775  1
  I  I104  1  0.83748684  0.50157818  0.66767742  1
  I  I105  1  0.82556354  0.83071741  0.00014705  1
  I  I106  1  0.82867464  0.83035813  0.33047368  1
  I  I107  1  0.82975338  0.83087711  0.66939966  1
  I  I108  1  -0.00420575  0.15973221  0.17061536  1
  I  I109  1  -0.00424777  0.16842591  0.49515254  1
  I  I110  1  0.00199561  0.16552136  0.83328185  1
  I  I111  1  -0.00246262  0.50282070  0.16552918  1
  I  I112  1  -0.00417983  0.49884898  0.49988523  1
  I  I113  1  -0.00177003  0.50284091  0.83402172  1
  I  I114  1  -0.00406331  0.83495441  0.16083649  1
  I  I115  1  -0.00043119  0.83369974  0.50105611  1
  I  I116  1  -0.00342638  0.83246928  0.83825393  1
  I  I117  1  0.33298581  0.16529963  0.16545114  1
  I  I118  1  0.33337017  0.16437178  0.50088776  1
  I  I119  1  0.32895258  0.17277900  0.83390935  1
  I  I120  1  0.33021096  0.50469135  0.15900649  1
  I  I121  1  0.33341145  0.50316561  0.50051664  1
  I  I122  1  0.32995395  0.49881166  0.83933528  1
  I  I123  1  0.33627218  0.83060203  0.16444756  1
  I  I124  1  0.33846454  0.83171892  0.50255563  1
  I  I125  1  0.33619574  0.83378407  0.83359322  1
  I  I126  1  0.67137737  0.17267124  0.16857422  1
  I  I127  1  0.67097464  0.17173660  0.49770037  1
  I  I128  1  0.66679073  0.16835717  0.83278204  1
  I  I129  1  0.67075533  0.49913672  0.16596805  1
  I  I130  1  0.67183910  0.49652784  0.49947272  1
  I  I131  1  0.67037662  0.50270478  0.83456422  1
  I  I132  1  0.66841888  0.83095577  0.16593974  1
  I  I133  1  0.66467321  0.83270325  0.50051167  1
  I  I134  1  0.66814310  0.82805462  0.83395938  1
