# generated using pymatgen
data_Cs27Sn14Pb13I81
_symmetry_space_group_name_H-M   'P 1'
_cell_length_a   18.98534564
_cell_length_b   18.98015866
_cell_length_c   18.96406357
_cell_angle_alpha   89.99929910
_cell_angle_beta   89.99913339
_cell_angle_gamma   89.99970405
_symmetry_Int_Tables_number   1
_chemical_formula_structural   Cs27Sn14Pb13I81
_chemical_formula_sum   'Cs27 Sn14 Pb13 I81'
_cell_volume   6833.60306533
_cell_formula_units_Z   1
loop_
 _symmetry_equiv_pos_site_id
 _symmetry_equiv_pos_as_xyz
  1  'x, y, z'
loop_
 _atom_site_type_symbol
 _atom_site_label
 _atom_site_symmetry_multiplicity
 _atom_site_fract_x
 _atom_site_fract_y
 _atom_site_fract_z
 _atom_site_occupancy
  Cs  Cs0  1  -0.00128571  0.00237471  0.00055077  1
  Cs  Cs1  1  -0.00033498  -0.00016915  0.33369667  1
  Cs  Cs2  1  0.00276799  0.00188046  0.67001755  1
  Cs  Cs3  1  0.00122365  0.34113191  -0.00820188  1
  Cs  Cs4  1  -0.00008480  0.33135705  0.33521880  1
  Cs  Cs5  1  0.00009181  0.33083637  0.66870931  1
  Cs  Cs6  1  -0.00121959  0.65401848  -0.00390799  1
  Cs  Cs7  1  -0.00061113  0.66890847  0.33309877  1
  Cs  Cs8  1  0.00365914  0.66781143  0.66884593  1
  Cs  Cs9  1  0.33497537  -0.00008162  0.00208630  1
  Cs  Cs10  1  0.33137563  0.00041685  0.33223413  1
  Cs  Cs11  1  0.33272435  -0.00159724  0.66751843  1
  Cs  Cs12  1  0.33305526  0.33585352  0.00140987  1
  Cs  Cs13  1  0.33548854  0.33348330  0.33300766  1
  Cs  Cs14  1  0.33576696  0.33292308  0.66570065  1
  Cs  Cs15  1  0.32964914  0.66604190  -0.00319582  1
  Cs  Cs16  1  0.33298898  0.66600207  0.33382698  1
  Cs  Cs17  1  0.33404621  0.67113728  0.66744361  1
  Cs  Cs18  1  0.66594593  -0.00245915  0.00131585  1
  Cs  Cs19  1  0.66823795  0.00038671  0.33300759  1
  Cs  Cs20  1  0.66621383  0.00078315  0.66687995  1
  Cs  Cs21  1  0.66564564  0.33623913  0.00130394  1
  Cs  Cs22  1  0.66460788  0.33325157  0.33420307  1
  Cs  Cs23  1  0.66443713  0.33268827  0.66463289  1
  Cs  Cs24  1  0.67131672  0.66934516  -0.00373878  1
  Cs  Cs25  1  0.66763258  0.66664306  0.33447080  1
  Cs  Cs26  1  0.66416187  0.66809498  0.66659320  1
  Sn  Sn27  1  0.50067639  0.83451292  0.49870549  1
  Sn  Sn28  1  0.49996258  0.16556639  0.50055644  1
  Sn  Sn29  1  0.50017541  0.83323547  0.16782342  1
  Sn  Sn30  1  0.83284734  0.83362634  0.49979526  1
  Sn  Sn31  1  0.16583798  0.83390559  0.16682917  1
  Sn  Sn32  1  0.50020649  0.49903785  0.83311357  1
  Sn  Sn33  1  0.16526839  0.16616028  0.16737325  1
  Sn  Sn34  1  0.83398130  0.83404606  0.16743338  1
  Sn  Sn35  1  0.16598178  0.49908953  0.49958024  1
  Sn  Sn36  1  0.83430588  0.50005806  0.49975784  1
  Sn  Sn37  1  0.16654644  0.16737667  0.49922973  1
  Sn  Sn38  1  0.83449287  0.16640377  0.16729736  1
  Sn  Sn39  1  0.83356084  0.16632168  0.49943079  1
  Sn  Sn40  1  0.50012810  0.16751261  0.83293976  1
  Pb  Pb41  1  0.16909383  0.16647619  0.83380360  1
  Pb  Pb42  1  0.83096945  0.16658445  0.83380427  1
  Pb  Pb43  1  0.50006881  0.83389771  0.83308696  1
  Pb  Pb44  1  0.83360068  0.83365372  0.83336839  1
  Pb  Pb45  1  0.16634206  0.83389067  0.49868896  1
  Pb  Pb46  1  0.50024285  0.16534137  0.16706573  1
  Pb  Pb47  1  0.50015591  0.50363740  0.16409584  1
  Pb  Pb48  1  0.16658590  0.49919982  0.16908594  1
  Pb  Pb49  1  0.83325773  0.49949748  0.16902507  1
  Pb  Pb50  1  0.16910736  0.49967086  0.82968440  1
  Pb  Pb51  1  0.16628659  0.83373230  0.83763353  1
  Pb  Pb52  1  0.83094764  0.49973726  0.82966992  1
  Pb  Pb53  1  0.49995666  0.50035623  0.50086703  1
  I  I54  1  0.16695730  0.00052910  0.17356581  1
  I  I55  1  0.16605486  0.00314151  0.49801350  1
  I  I56  1  0.17046708  0.00030939  0.82641784  1
  I  I57  1  0.16290352  0.32950769  0.16900602  1
  I  I58  1  0.16488770  0.33152815  0.49481175  1
  I  I59  1  0.16647873  0.33313963  0.83839738  1
  I  I60  1  0.16761667  0.66965198  0.16846728  1
  I  I61  1  0.16474797  0.66500184  0.49883055  1
  I  I62  1  0.17084617  0.66648125  0.83206070  1
  I  I63  1  0.49989949  -0.00285288  0.16594830  1
  I  I64  1  0.50257120  0.00059478  0.50240455  1
  I  I65  1  0.49991682  0.00270590  0.83098247  1
  I  I66  1  0.49966457  0.33313534  0.16860130  1
  I  I67  1  0.50209871  0.33048397  0.50242548  1
  I  I68  1  0.50027695  0.33204811  0.82533726  1
  I  I69  1  0.50021346  0.67205384  0.17331438  1
  I  I70  1  0.50260245  0.66960154  0.49839663  1
  I  I71  1  0.49980835  0.66476166  0.83264662  1
  I  I72  1  0.83330560  -0.00018856  0.17450154  1
  I  I73  1  0.83127150  0.00038602  0.49577509  1
  I  I74  1  0.82948424  0.00020700  0.82869157  1
  I  I75  1  0.83707755  0.32960088  0.17128844  1
  I  I76  1  0.83260086  0.33190972  0.49651786  1
  I  I77  1  0.83335775  0.33319479  0.83446182  1
  I  I78  1  0.83243338  0.67008490  0.17095349  1
  I  I79  1  0.83183456  0.66770489  0.49590761  1
  I  I80  1  0.82944981  0.66657118  0.83436327  1
  I  I81  1  0.16419739  0.16045868  0.00377660  1
  I  I82  1  0.16861604  0.16650837  0.33439206  1
  I  I83  1  0.16386989  0.17079097  0.66303837  1
  I  I84  1  0.16818762  0.50125681  -0.00014704  1
  I  I85  1  0.16497847  0.49836014  0.33711458  1
  I  I86  1  0.16177200  0.49391031  0.66176020  1
  I  I87  1  0.16984605  0.84075403  0.00608207  1
  I  I88  1  0.16770657  0.83467278  0.33051795  1
  I  I89  1  0.16823719  0.83246146  0.66627704  1
  I  I90  1  0.49979037  0.16840770  -0.00191189  1
  I  I91  1  0.50001786  0.16451672  0.33664278  1
  I  I92  1  0.50038493  0.16484048  0.66413192  1
  I  I93  1  0.49937085  0.49241041  -0.00373246  1
  I  I94  1  0.49974555  0.49811899  0.33365649  1
  I  I95  1  0.50028794  0.50011084  0.66859283  1
  I  I96  1  0.50033298  0.83376123  0.00312682  1
  I  I97  1  0.50128402  0.83903266  0.33431108  1
  I  I98  1  0.50485844  0.83367478  0.66322145  1
  I  I99  1  0.83567707  0.15994461  0.00379490  1
  I  I100  1  0.83153348  0.16559023  0.33476002  1
  I  I101  1  0.83553320  0.16608031  0.66276114  1
  I  I102  1  0.83212507  0.50098737  -0.00012318  1
  I  I103  1  0.83470583  0.50038975  0.33742521  1
  I  I104  1  0.83702572  0.49948594  0.66138237  1
  I  I105  1  0.83057986  0.83922806  0.00416457  1
  I  I106  1  0.83149517  0.83413302  0.33389171  1
  I  I107  1  0.82640201  0.83375582  0.66235658  1
  I  I108  1  -0.00022938  0.15690543  0.17672324  1
  I  I109  1  -0.00038032  0.16729595  0.49515374  1
  I  I110  1  0.00002264  0.16609063  0.83078944  1
  I  I111  1  -0.00005701  0.50580038  0.16427488  1
  I  I112  1  -0.00052097  0.49743677  0.49837502  1
  I  I113  1  0.00003292  0.50142778  0.83541617  1
  I  I114  1  -0.00090594  0.83878129  0.17324379  1
  I  I115  1  -0.00294869  0.83432483  0.49576496  1
  I  I116  1  -0.00005871  0.83294168  0.82902870  1
  I  I117  1  0.33107825  0.16203391  0.16982710  1
  I  I118  1  0.33337894  0.16749348  0.49989613  1
  I  I119  1  0.33708769  0.16968528  0.82851187  1
  I  I120  1  0.33331919  0.49981588  0.16964830  1
  I  I121  1  0.33115554  0.49678725  0.50146052  1
  I  I122  1  0.33670177  0.49619504  0.83128071  1
  I  I123  1  0.33338890  0.83767485  0.17065549  1
  I  I124  1  0.33582776  0.83524448  0.49682480  1
  I  I125  1  0.33363810  0.83235117  0.83166519  1
  I  I126  1  0.66931870  0.16246665  0.16978883  1
  I  I127  1  0.66700931  0.16681469  0.50013800  1
  I  I128  1  0.66302528  0.16963510  0.82795881  1
  I  I129  1  0.66670820  0.49819768  0.16943427  1
  I  I130  1  0.66914872  0.49822041  0.50157205  1
  I  I131  1  0.66336193  0.49628540  0.83117288  1
  I  I132  1  0.66723428  0.83768157  0.17030931  1
  I  I133  1  0.66672916  0.83508402  0.49339812  1
  I  I134  1  0.66648135  0.83256195  0.83786136  1
