# generated using pymatgen
data_Cs27Sn13Pb14I81
_symmetry_space_group_name_H-M   'P 1'
_cell_length_a   18.98370417
_cell_length_b   18.97804040
_cell_length_c   18.96895813
_cell_angle_alpha   89.99896894
_cell_angle_beta   90.00172391
_cell_angle_gamma   89.99972184
_symmetry_Int_Tables_number   1
_chemical_formula_structural   Cs27Sn13Pb14I81
_chemical_formula_sum   'Cs27 Sn13 Pb14 I81'
_cell_volume   6834.01302234
_cell_formula_units_Z   1
loop_
 _symmetry_equiv_pos_site_id
 _symmetry_equiv_pos_as_xyz
  1  'x, y, z'
loop_
 _atom_site_type_symbol
 _atom_site_label
 _atom_site_symmetry_multiplicity
 _atom_site_fract_x
 _atom_site_fract_y
 _atom_site_fract_z
 _atom_site_occupancy
  Cs  Cs0  1  -0.00028001  -0.00117455  -0.00108953  1
  Cs  Cs1  1  -0.00305871  -0.00068179  0.33251916  1
  Cs  Cs2  1  0.00127606  0.00189161  0.66834388  1
  Cs  Cs3  1  0.00321765  0.33302975  -0.00514900  1
  Cs  Cs4  1  -0.00075193  0.33645365  0.33242905  1
  Cs  Cs5  1  0.00266736  0.33736427  0.67532676  1
  Cs  Cs6  1  0.00417196  0.67059444  0.00191211  1
  Cs  Cs7  1  0.00021900  0.66401273  0.33389904  1
  Cs  Cs8  1  -0.00213888  0.66276813  0.66253076  1
  Cs  Cs9  1  0.33542998  -0.00117765  0.00072682  1
  Cs  Cs10  1  0.33406103  0.00065389  0.33763266  1
  Cs  Cs11  1  0.33161410  0.00001613  0.65964788  1
  Cs  Cs12  1  0.33319840  0.33530934  0.00125015  1
  Cs  Cs13  1  0.33101752  0.33100783  0.33441124  1
  Cs  Cs14  1  0.32784573  0.33783240  0.66072686  1
  Cs  Cs15  1  0.33410352  0.66713798  0.00007332  1
  Cs  Cs16  1  0.32943739  0.66735166  0.33744283  1
  Cs  Cs17  1  0.33545694  0.66439268  0.65981813  1
  Cs  Cs18  1  0.66591972  -0.00084473  0.00098277  1
  Cs  Cs19  1  0.66832205  0.00089783  0.33233799  1
  Cs  Cs20  1  0.66690098  -0.00052913  0.66735333  1
  Cs  Cs21  1  0.66562907  0.33144679  0.00010584  1
  Cs  Cs22  1  0.66711444  0.33114117  0.33290607  1
  Cs  Cs23  1  0.66848952  0.34430418  0.66692631  1
  Cs  Cs24  1  0.66473600  0.66976099  0.00100821  1
  Cs  Cs25  1  0.66860988  0.66636627  0.33256737  1
  Cs  Cs26  1  0.66647705  0.65951434  0.66553313  1
  Sn  Sn27  1  0.83318672  0.16625047  0.50019939  1
  Sn  Sn28  1  0.16663023  0.16539651  0.16647023  1
  Sn  Sn29  1  0.83302601  0.83357985  0.83198309  1
  Sn  Sn30  1  0.83364130  0.16762015  0.16693428  1
  Sn  Sn31  1  0.16790771  0.83468885  0.16609386  1
  Sn  Sn32  1  0.49980400  0.16648946  0.16601178  1
  Sn  Sn33  1  0.49892095  0.83335486  0.16641329  1
  Sn  Sn34  1  0.83265637  0.49873783  0.16595000  1
  Sn  Sn35  1  0.49995616  0.16612434  0.83342809  1
  Sn  Sn36  1  0.83289261  0.83446774  0.50131461  1
  Sn  Sn37  1  0.49958990  0.83442970  0.83370892  1
  Sn  Sn38  1  0.50081044  0.50006995  0.16648627  1
  Sn  Sn39  1  0.16743736  0.83359515  0.83368389  1
  Pb  Pb40  1  0.16336464  0.16651590  0.49762631  1
  Pb  Pb41  1  0.83131943  0.16510648  0.83348340  1
  Pb  Pb42  1  0.16386665  0.83359673  0.49991850  1
  Pb  Pb43  1  0.83332465  0.50314494  0.83683885  1
  Pb  Pb44  1  0.50006535  0.49974517  0.49653687  1
  Pb  Pb45  1  0.16636191  0.49977043  0.49988509  1
  Pb  Pb46  1  0.16986780  0.16448921  0.83541411  1
  Pb  Pb47  1  0.50242220  0.16669101  0.50056814  1
  Pb  Pb48  1  0.83333543  0.49925861  0.49764914  1
  Pb  Pb49  1  0.50253421  0.83348371  0.50013167  1
  Pb  Pb50  1  0.49979644  0.50003104  0.83545091  1
  Pb  Pb51  1  0.16709223  0.50327119  0.83369789  1
  Pb  Pb52  1  0.16701509  0.50006564  0.16650583  1
  Pb  Pb53  1  0.83333548  0.83363829  0.16636621  1
  I  I54  1  0.16817329  -0.00053237  0.16328747  1
  I  I55  1  0.16737049  -0.00007010  0.49987722  1
  I  I56  1  0.16337732  -0.00383417  0.83700265  1
  I  I57  1  0.16859319  0.33012638  0.16831446  1
  I  I58  1  0.16545371  0.33282718  0.49677011  1
  I  I59  1  0.16678817  0.33284818  0.83468029  1
  I  I60  1  0.16831895  0.67014101  0.16273722  1
  I  I61  1  0.16369978  0.66736792  0.49664975  1
  I  I62  1  0.16807118  0.67220234  0.84271092  1
  I  I63  1  0.50085903  0.00001016  0.16278076  1
  I  I64  1  0.50042443  -0.00004498  0.49435529  1
  I  I65  1  0.50171503  -0.00132593  0.84327686  1
  I  I66  1  0.50142746  0.33211609  0.16313229  1
  I  I67  1  0.50340465  0.33310385  0.50057510  1
  I  I68  1  0.50263087  0.33012599  0.83962715  1
  I  I69  1  0.50168897  0.66779611  0.16248078  1
  I  I70  1  0.50297797  0.66689858  0.49970804  1
  I  I71  1  0.50054830  0.67052510  0.83870609  1
  I  I72  1  0.83114922  0.00245307  0.16761781  1
  I  I73  1  0.83266835  -0.00010458  0.49516970  1
  I  I74  1  0.83428418  -0.00341104  0.83591877  1
  I  I75  1  0.82989278  0.33176433  0.17310749  1
  I  I76  1  0.83171974  0.33008885  0.49421548  1
  I  I77  1  0.83125183  0.33326622  0.83069460  1
  I  I78  1  0.83004284  0.66520719  0.16619105  1
  I  I79  1  0.83346128  0.66941958  0.50238091  1
  I  I80  1  0.83037572  0.67169369  0.82920967  1
  I  I81  1  0.16073450  0.16462266  0.00414355  1
  I  I82  1  0.17234872  0.16048963  0.32848752  1
  I  I83  1  0.16686616  0.16505951  0.66698285  1
  I  I84  1  0.16518756  0.49899296  0.00064137  1
  I  I85  1  0.16609552  0.50375278  0.33230648  1
  I  I86  1  0.16592484  0.50104754  0.66693098  1
  I  I87  1  0.16413355  0.83646848  0.00106766  1
  I  I88  1  0.17008169  0.83591614  0.32978208  1
  I  I89  1  0.16959509  0.83295389  0.66994461  1
  I  I90  1  0.50312021  0.16500869  0.00233050  1
  I  I91  1  0.49888445  0.16590785  0.32935544  1
  I  I92  1  0.50229802  0.15783075  0.67008617  1
  I  I93  1  0.50420993  0.50063681  0.00409630  1
  I  I94  1  0.50499874  0.50040731  0.32777121  1
  I  I95  1  0.50025848  0.50074091  0.66686745  1
  I  I96  1  0.50236211  0.83381307  0.00108834  1
  I  I97  1  0.49753796  0.83411841  0.32955616  1
  I  I98  1  0.49731341  0.83912323  0.67034724  1
  I  I99  1  0.83389276  0.16823236  0.00352327  1
  I  I100  1  0.83130092  0.16329021  0.33120035  1
  I  I101  1  0.83053151  0.16131374  0.66440918  1
  I  I102  1  0.82889638  0.49478123  0.00460708  1
  I  I103  1  0.82936250  0.50212860  0.32943782  1
  I  I104  1  0.83385693  0.49839554  0.66685541  1
  I  I105  1  0.83305390  0.83294249  -0.00212366  1
  I  I106  1  0.83310340  0.83393309  0.33467957  1
  I  I107  1  0.83344941  0.83982758  0.66724718  1
  I  I108  1  -0.00051885  0.16535983  0.17181218  1
  I  I109  1  -0.00464341  0.16066665  0.49343876  1
  I  I110  1  0.00006934  0.16427107  0.83487020  1
  I  I111  1  -0.00273270  0.49843738  0.16817563  1
  I  I112  1  -0.00075628  0.50254902  0.49497067  1
  I  I113  1  -0.00008538  0.50046055  0.83607351  1
  I  I114  1  0.00197787  0.83579682  0.16386505  1
  I  I115  1  -0.00404073  0.83701993  0.50137285  1
  I  I116  1  0.00000517  0.83304311  0.83608055  1
  I  I117  1  0.33427020  0.16646367  0.16165311  1
  I  I118  1  0.33330395  0.16688319  0.49854203  1
  I  I119  1  0.33776822  0.16078809  0.84107106  1
  I  I120  1  0.33655960  0.49832194  0.16548453  1
  I  I121  1  0.33343302  0.50124537  0.49789132  1
  I  I122  1  0.33361873  0.50116702  0.83756065  1
  I  I123  1  0.33410417  0.83508108  0.15939930  1
  I  I124  1  0.33332639  0.83215560  0.50099590  1
  I  I125  1  0.33413415  0.83695931  0.84180210  1
  I  I126  1  0.66637010  0.16643516  0.16722527  1
  I  I127  1  0.67024190  0.16123481  0.49134614  1
  I  I128  1  0.66356637  0.15892170  0.84124796  1
  I  I129  1  0.66629233  0.49835832  0.16666599  1
  I  I130  1  0.66696312  0.50117800  0.50097118  1
  I  I131  1  0.66665251  0.50297538  0.83271549  1
  I  I132  1  0.66418127  0.83499912  0.16414700  1
  I  I133  1  0.67040610  0.83725254  0.50094060  1
  I  I134  1  0.66591843  0.83712773  0.83595714  1
