# generated using pymatgen
data_Cs27Sn14Pb13I81
_symmetry_space_group_name_H-M   'P 1'
_cell_length_a   18.96132036
_cell_length_b   18.96485668
_cell_length_c   18.95635634
_cell_angle_alpha   90.00167044
_cell_angle_beta   90.00122050
_cell_angle_gamma   90.00221619
_symmetry_Int_Tables_number   1
_chemical_formula_structural   Cs27Sn14Pb13I81
_chemical_formula_sum   'Cs27 Sn14 Pb13 I81'
_cell_volume   6816.68152486
_cell_formula_units_Z   1
loop_
 _symmetry_equiv_pos_site_id
 _symmetry_equiv_pos_as_xyz
  1  'x, y, z'
loop_
 _atom_site_type_symbol
 _atom_site_label
 _atom_site_symmetry_multiplicity
 _atom_site_fract_x
 _atom_site_fract_y
 _atom_site_fract_z
 _atom_site_occupancy
  Cs  Cs0  1  -0.00143072  0.00020513  -0.00174193  1
  Cs  Cs1  1  0.00127012  -0.00037864  0.33403571  1
  Cs  Cs2  1  0.00116264  0.00250703  0.66641634  1
  Cs  Cs3  1  -0.00061297  0.33590499  0.00398148  1
  Cs  Cs4  1  0.00049840  0.33457559  0.33100602  1
  Cs  Cs5  1  0.00007815  0.32886400  0.66579937  1
  Cs  Cs6  1  0.00246859  0.66390144  0.00096637  1
  Cs  Cs7  1  -0.00744289  0.66677552  0.33095656  1
  Cs  Cs8  1  0.00310110  0.66807867  0.66811511  1
  Cs  Cs9  1  0.33475457  -0.00039262  0.00329996  1
  Cs  Cs10  1  0.33307293  0.00055664  0.33016323  1
  Cs  Cs11  1  0.33144224  0.00068372  0.66615721  1
  Cs  Cs12  1  0.33424956  0.33532382  0.00404201  1
  Cs  Cs13  1  0.33192512  0.33079686  0.33244040  1
  Cs  Cs14  1  0.33432617  0.33288996  0.66531975  1
  Cs  Cs15  1  0.33143401  0.66364501  -0.00402713  1
  Cs  Cs16  1  0.33614540  0.67018987  0.33720659  1
  Cs  Cs17  1  0.33274999  0.66635793  0.66826720  1
  Cs  Cs18  1  0.66622277  -0.00056034  -0.00042757  1
  Cs  Cs19  1  0.66611410  -0.00667429  0.32942805  1
  Cs  Cs20  1  0.66778127  0.00168886  0.66901731  1
  Cs  Cs21  1  0.66498174  0.33355006  -0.00335189  1
  Cs  Cs22  1  0.66785009  0.33595476  0.33412851  1
  Cs  Cs23  1  0.66588653  0.33312144  0.66857678  1
  Cs  Cs24  1  0.66686879  0.66619161  0.00073761  1
  Cs  Cs25  1  0.67332237  0.67150412  0.33700997  1
  Cs  Cs26  1  0.66557997  0.66545838  0.66326686  1
  Sn  Sn27  1  0.16675989  0.83315666  0.16739255  1
  Sn  Sn28  1  0.16695861  0.16677002  0.50053696  1
  Sn  Sn29  1  0.50076551  0.50000948  0.83395530  1
  Sn  Sn30  1  0.16646384  0.49991632  0.49998030  1
  Sn  Sn31  1  0.50081387  0.83339518  0.83308536  1
  Sn  Sn32  1  0.50016785  0.16647620  0.50029503  1
  Sn  Sn33  1  0.83299232  0.16662660  0.16777668  1
  Sn  Sn34  1  0.50026173  0.50035420  0.16698089  1
  Sn  Sn35  1  0.83259815  0.83189201  0.83303563  1
  Sn  Sn36  1  0.16657963  0.83331541  0.49885701  1
  Sn  Sn37  1  0.83293881  0.50114701  0.83298738  1
  Sn  Sn38  1  0.83293246  0.16650896  0.49846358  1
  Sn  Sn39  1  0.16790695  0.16698477  0.83340271  1
  Sn  Sn40  1  0.49857358  0.16655006  0.83280966  1
  Pb  Pb41  1  0.49808851  0.83588680  0.50225211  1
  Pb  Pb42  1  0.49827645  0.83067024  0.16434295  1
  Pb  Pb43  1  0.49862070  0.49824417  0.50029647  1
  Pb  Pb44  1  0.16692561  0.49720572  0.83183784  1
  Pb  Pb45  1  0.16502224  0.16545982  0.16688051  1
  Pb  Pb46  1  0.83543988  0.83559259  0.50241098  1
  Pb  Pb47  1  0.83108766  0.49825611  0.16455264  1
  Pb  Pb48  1  0.83523052  0.83510023  0.16416800  1
  Pb  Pb49  1  0.16874341  0.50261494  0.16958915  1
  Pb  Pb50  1  0.50213745  0.16799806  0.16670059  1
  Pb  Pb51  1  0.83310175  0.16692491  0.83302484  1
  Pb  Pb52  1  0.16689407  0.83533996  0.83310296  1
  Pb  Pb53  1  0.83548262  0.49790261  0.50241915  1
  I  I54  1  0.16678299  -0.00232019  0.17064877  1
  I  I55  1  0.16624749  0.00138307  0.50129525  1
  I  I56  1  0.16847377  0.00326645  0.82791835  1
  I  I57  1  0.16607689  0.33352489  0.16657240  1
  I  I58  1  0.16685783  0.33153281  0.50597503  1
  I  I59  1  0.16877717  0.32917786  0.82729712  1
  I  I60  1  0.16674256  0.67022126  0.16900208  1
  I  I61  1  0.16821431  0.66717175  0.49745936  1
  I  I62  1  0.16832712  0.66661250  0.83144318  1
  I  I63  1  0.49995246  -0.00016043  0.16552376  1
  I  I64  1  0.49790218  0.00433440  0.50546321  1
  I  I65  1  0.50023843  0.00088053  0.82841597  1
  I  I66  1  0.49981112  0.33569494  0.15997750  1
  I  I67  1  0.49732728  0.32971301  0.50601665  1
  I  I68  1  0.50090126  0.33296974  0.83279139  1
  I  I69  1  0.49802320  0.66303273  0.16028569  1
  I  I70  1  0.49586119  0.66681417  0.50171483  1
  I  I71  1  0.50354622  0.66623905  0.83814237  1
  I  I72  1  0.83314085  0.00305704  0.16766902  1
  I  I73  1  0.83591198  0.00399439  0.50065400  1
  I  I74  1  0.83143220  -0.00153409  0.83318887  1
  I  I75  1  0.83534775  0.33027889  0.16769508  1
  I  I76  1  0.83611251  0.32940635  0.50037642  1
  I  I77  1  0.83034866  0.33513544  0.83285562  1
  I  I78  1  0.83403630  0.66668147  0.16629499  1
  I  I79  1  0.83555298  0.66676229  0.50000260  1
  I  I80  1  0.82687033  0.66663798  0.83364311  1
  I  I81  1  0.16887153  0.16389425  -0.00256363  1
  I  I82  1  0.16891969  0.16764093  0.33689027  1
  I  I83  1  0.16490349  0.16423840  0.66548424  1
  I  I84  1  0.16511493  0.50001758  -0.00006978  1
  I  I85  1  0.16882415  0.49232162  0.33736338  1
  I  I86  1  0.16857345  0.50304955  0.66388427  1
  I  I87  1  0.16658916  0.83648830  0.00148505  1
  I  I88  1  0.16736472  0.83706221  0.33469930  1
  I  I89  1  0.16653770  0.83406820  0.66419888  1
  I  I90  1  0.49765868  0.16557111  -0.00345876  1
  I  I91  1  0.49607783  0.16964927  0.33622229  1
  I  I92  1  0.50041553  0.16865168  0.66766368  1
  I  I93  1  0.50236870  0.49699825  -0.00247664  1
  I  I94  1  0.49563005  0.49566117  0.33144415  1
  I  I95  1  0.50212565  0.50016287  0.67001722  1
  I  I96  1  0.50068764  0.83957410  -0.00417839  1
  I  I97  1  0.49935740  0.83338825  0.33350022  1
  I  I98  1  0.50083553  0.82934216  0.67073318  1
  I  I99  1  0.83400190  0.16632621  0.00128425  1
  I  I100  1  0.83520953  0.16723088  0.33470961  1
  I  I101  1  0.83500174  0.16651162  0.66447162  1
  I  I102  1  0.83315849  0.49961295  -0.00377346  1
  I  I103  1  0.83254808  0.49947825  0.33352240  1
  I  I104  1  0.82637783  0.50026465  0.67049853  1
  I  I105  1  0.83251303  0.83426346  -0.00388075  1
  I  I106  1  0.83334549  0.83348267  0.33352678  1
  I  I107  1  0.83202569  0.83330191  0.67044778  1
  I  I108  1  -0.00281599  0.16613789  0.16802591  1
  I  I109  1  0.00120736  0.16621165  0.50231356  1
  I  I110  1  0.00182830  0.16536329  0.82958070  1
  I  I111  1  -0.00004865  0.49947737  0.16513963  1
  I  I112  1  0.00358037  0.49714200  0.50232866  1
  I  I113  1  -0.00218383  0.50241811  0.83083070  1
  I  I114  1  0.00309365  0.83454401  0.16850742  1
  I  I115  1  0.00373482  0.83650644  0.50009874  1
  I  I116  1  -0.00194072  0.83202738  0.83299441  1
  I  I117  1  0.33351949  0.16663410  0.16768374  1
  I  I118  1  0.33252628  0.16685450  0.50619975  1
  I  I119  1  0.33425761  0.16602006  0.82555426  1
  I  I120  1  0.33632529  0.49776068  0.15774213  1
  I  I121  1  0.33041641  0.49697799  0.50278753  1
  I  I122  1  0.33636570  0.50189631  0.83511798  1
  I  I123  1  0.33039822  0.83603219  0.16896080  1
  I  I124  1  0.32972369  0.83624765  0.49968639  1
  I  I125  1  0.33588842  0.83176758  0.83281382  1
  I  I126  1  0.66981118  0.16717235  0.16870736  1
  I  I127  1  0.66627232  0.16839965  0.50314563  1
  I  I128  1  0.66390991  0.16698111  0.83027269  1
  I  I129  1  0.66327298  0.49806790  0.16391837  1
  I  I130  1  0.66669812  0.49676469  0.49939423  1
  I  I131  1  0.66541246  0.49708903  0.83620448  1
  I  I132  1  0.66667234  0.83401329  0.16646162  1
  I  I133  1  0.66667592  0.83507098  0.49970462  1
  I  I134  1  0.66597965  0.83664238  0.83392947  1
