# generated using pymatgen
data_Cs27Sn14Pb13I81
_symmetry_space_group_name_H-M   'P 1'
_cell_length_a   19.04507256
_cell_length_b   19.03418091
_cell_length_c   19.02127645
_cell_angle_alpha   90.00178552
_cell_angle_beta   89.99896932
_cell_angle_gamma   90.00119613
_symmetry_Int_Tables_number   1
_chemical_formula_structural   Cs27Sn14Pb13I81
_chemical_formula_sum   'Cs27 Sn14 Pb13 I81'
_cell_volume   6895.35264034
_cell_formula_units_Z   1
loop_
 _symmetry_equiv_pos_site_id
 _symmetry_equiv_pos_as_xyz
  1  'x, y, z'
loop_
 _atom_site_type_symbol
 _atom_site_label
 _atom_site_symmetry_multiplicity
 _atom_site_fract_x
 _atom_site_fract_y
 _atom_site_fract_z
 _atom_site_occupancy
  Cs  Cs0  1  -0.00242650  -0.00010985  -0.00034083  1
  Cs  Cs1  1  -0.00185539  0.00125815  0.33391494  1
  Cs  Cs2  1  -0.00009772  -0.00306142  0.66536743  1
  Cs  Cs3  1  0.00199350  0.33359747  0.00501156  1
  Cs  Cs4  1  -0.00084265  0.32810576  0.32856673  1
  Cs  Cs5  1  -0.00204038  0.34139494  0.67315714  1
  Cs  Cs6  1  -0.00304233  0.66591234  -0.00364402  1
  Cs  Cs7  1  0.00247827  0.67047978  0.33214979  1
  Cs  Cs8  1  0.00710315  0.65911158  0.68001710  1
  Cs  Cs9  1  0.33963206  -0.00113681  -0.01023690  1
  Cs  Cs10  1  0.33395997  0.00000340  0.33419941  1
  Cs  Cs11  1  0.33134608  0.00163557  0.67446319  1
  Cs  Cs12  1  0.33532569  0.33346552  -0.00093414  1
  Cs  Cs13  1  0.33511632  0.33210950  0.33261970  1
  Cs  Cs14  1  0.33378376  0.33194213  0.67279624  1
  Cs  Cs15  1  0.34130399  0.66831610  0.00527553  1
  Cs  Cs16  1  0.33096032  0.66722444  0.33213963  1
  Cs  Cs17  1  0.31427783  0.66383131  0.65925169  1
  Cs  Cs18  1  0.66374323  -0.00467254  -0.00580268  1
  Cs  Cs19  1  0.66832200  -0.00045902  0.33626066  1
  Cs  Cs20  1  0.66742505  0.00205912  0.66403995  1
  Cs  Cs21  1  0.66313989  0.33299909  0.00317585  1
  Cs  Cs22  1  0.66589419  0.33157698  0.33472013  1
  Cs  Cs23  1  0.66708634  0.33559784  0.66307400  1
  Cs  Cs24  1  0.66486623  0.67012157  -0.00233042  1
  Cs  Cs25  1  0.66575347  0.66907865  0.33451032  1
  Cs  Cs26  1  0.67464096  0.66117335  0.66522152  1
  Sn  Sn27  1  0.83301126  0.16680096  0.83203465  1
  Sn  Sn28  1  0.83269168  0.50143392  0.16759806  1
  Sn  Sn29  1  0.16684920  0.49990775  0.16709506  1
  Sn  Sn30  1  0.49952741  0.16550761  0.49910149  1
  Sn  Sn31  1  0.16666966  0.16695719  0.49925498  1
  Sn  Sn32  1  0.83369530  0.16632044  0.50127833  1
  Sn  Sn33  1  0.83301774  0.83345052  0.49948732  1
  Sn  Sn34  1  0.83383417  0.83266094  0.16764855  1
  Sn  Sn35  1  0.50025762  0.50085844  0.83350115  1
  Sn  Sn36  1  0.50071986  0.83390050  0.50040022  1
  Sn  Sn37  1  0.16864024  0.16561705  0.16743671  1
  Sn  Sn38  1  0.50045715  0.49897856  0.16649397  1
  Sn  Sn39  1  0.16576815  0.83440256  0.16680880  1
  Sn  Sn40  1  0.49913168  0.16656532  0.16747862  1
  Pb  Pb41  1  0.50027587  0.82964049  0.82833352  1
  Pb  Pb42  1  0.83366775  0.50049878  0.49736998  1
  Pb  Pb43  1  0.16686439  0.83342004  0.83702675  1
  Pb  Pb44  1  0.83303377  0.83527511  0.83260380  1
  Pb  Pb45  1  0.50035458  0.83395457  0.16824643  1
  Pb  Pb46  1  0.16955945  0.49973988  0.83723912  1
  Pb  Pb47  1  0.16643774  0.49649615  0.49686652  1
  Pb  Pb48  1  0.83256001  0.16583208  0.16713488  1
  Pb  Pb49  1  0.49993299  0.50026347  0.49957203  1
  Pb  Pb50  1  0.16405770  0.16670585  0.83375783  1
  Pb  Pb51  1  0.83105557  0.49734903  0.83681043  1
  Pb  Pb52  1  0.16601117  0.83590757  0.49800747  1
  Pb  Pb53  1  0.50215903  0.16809385  0.83301924  1
  I  I54  1  0.16420940  0.00087367  0.17338977  1
  I  I55  1  0.16608283  0.00346941  0.49034309  1
  I  I56  1  0.16881266  0.00037116  0.83759645  1
  I  I57  1  0.16576309  0.33281267  0.17131529  1
  I  I58  1  0.16804825  0.32840427  0.49227789  1
  I  I59  1  0.16532163  0.33316349  0.83425281  1
  I  I60  1  0.16696863  0.66658991  0.16548407  1
  I  I61  1  0.16893068  0.66679400  0.49924877  1
  I  I62  1  0.16496991  0.66632705  0.82998929  1
  I  I63  1  0.49696258  0.00304570  0.16990030  1
  I  I64  1  0.50188230  0.00183699  0.49056174  1
  I  I65  1  0.50074420  -0.00038729  0.83862651  1
  I  I66  1  0.49765069  0.33285953  0.16890371  1
  I  I67  1  0.50123247  0.33020408  0.49810180  1
  I  I68  1  0.50104384  0.33550462  0.83525140  1
  I  I69  1  0.49692360  0.66422038  0.16386097  1
  I  I70  1  0.50878363  0.66966016  0.49875148  1
  I  I71  1  0.50200535  0.66284214  0.84772602  1
  I  I72  1  0.83786967  -0.00248512  0.16743710  1
  I  I73  1  0.83213232  0.00093923  0.49562200  1
  I  I74  1  0.83132236  0.00280085  0.83743544  1
  I  I75  1  0.83600598  0.33504519  0.16561568  1
  I  I76  1  0.83108637  0.32995657  0.50281391  1
  I  I77  1  0.83353023  0.33029965  0.82487364  1
  I  I78  1  0.83687255  0.66715500  0.17349377  1
  I  I79  1  0.82313822  0.67012540  0.49495829  1
  I  I80  1  0.83309634  0.66648230  0.82984530  1
  I  I81  1  0.16977449  0.16833767  0.00395484  1
  I  I82  1  0.16415619  0.16801651  0.33193862  1
  I  I83  1  0.17228590  0.16444209  0.66351735  1
  I  I84  1  0.16127435  0.49433650  0.00524639  1
  I  I85  1  0.17236676  0.50354242  0.32853812  1
  I  I86  1  0.16859215  0.50000672  0.66700795  1
  I  I87  1  0.15846823  0.83711685  0.00588256  1
  I  I88  1  0.16525144  0.82913709  0.32998441  1
  I  I89  1  0.16745774  0.83449903  0.66630704  1
  I  I90  1  0.49626632  0.16961790  0.00299521  1
  I  I91  1  0.50235140  0.17080221  0.33309808  1
  I  I92  1  0.49667319  0.16412250  0.66319362  1
  I  I93  1  0.49911554  0.49153023  0.00301557  1
  I  I94  1  0.49905988  0.49756143  0.32984228  1
  I  I95  1  0.50348633  0.49790816  0.66883508  1
  I  I96  1  0.49896322  0.83707359  -0.00027943  1
  I  I97  1  0.50172195  0.83307931  0.33581351  1
  I  I98  1  0.50951654  0.84389594  0.66118032  1
  I  I99  1  0.83369619  0.16874695  -0.00129890  1
  I  I100  1  0.83317746  0.16655752  0.33595527  1
  I  I101  1  0.83170894  0.15892666  0.66425845  1
  I  I102  1  0.83790134  0.50451908  0.00465259  1
  I  I103  1  0.82882510  0.49652382  0.32923597  1
  I  I104  1  0.83033627  0.50221591  0.66688831  1
  I  I105  1  0.83960403  0.83043429  0.00301078  1
  I  I106  1  0.83318491  0.83702315  0.33295167  1
  I  I107  1  0.82526288  0.83848343  0.66296816  1
  I  I108  1  0.00214339  0.17061142  0.16912748  1
  I  I109  1  -0.00032153  0.16190033  0.49679275  1
  I  I110  1  -0.00340059  0.16665398  0.83004351  1
  I  I111  1  0.00007614  0.49775205  0.17028151  1
  I  I112  1  -0.00007203  0.49936096  0.49807798  1
  I  I113  1  0.00002422  0.49999799  0.83225246  1
  I  I114  1  -0.00068752  0.83048535  0.17404983  1
  I  I115  1  -0.00309771  0.84091740  0.49478083  1
  I  I116  1  -0.00029390  0.83296677  0.82729656  1
  I  I117  1  0.33343744  0.17139837  0.17610296  1
  I  I118  1  0.33386339  0.16313781  0.49158335  1
  I  I119  1  0.33338463  0.16821500  0.83082306  1
  I  I120  1  0.33368234  0.49894189  0.16160566  1
  I  I121  1  0.33343017  0.50355684  0.49885612  1
  I  I122  1  0.33683791  0.49615676  0.83937425  1
  I  I123  1  0.33138274  0.82925891  0.16930191  1
  I  I124  1  0.33558087  0.83621556  0.49809424  1
  I  I125  1  0.33393166  0.83593274  0.83397959  1
  I  I126  1  0.66401675  0.17219299  0.16953475  1
  I  I127  1  0.66646626  0.16286323  0.49897252  1
  I  I128  1  0.66941556  0.16778005  0.83053757  1
  I  I129  1  0.66621625  0.49791595  0.16221328  1
  I  I130  1  0.66667571  0.49374852  0.49650180  1
  I  I131  1  0.66401425  0.49880411  0.84229704  1
  I  I132  1  0.66926315  0.82991067  0.16865200  1
  I  I133  1  0.66748113  0.84414832  0.49058284  1
  I  I134  1  0.66659233  0.83371445  0.84366441  1
