# generated using pymatgen
data_Cs27Sn13Pb14I81
_symmetry_space_group_name_H-M   'P 1'
_cell_length_a   18.98157662
_cell_length_b   18.98153345
_cell_length_c   18.96867572
_cell_angle_alpha   89.99981545
_cell_angle_beta   89.99892450
_cell_angle_gamma   89.99999221
_symmetry_Int_Tables_number   1
_chemical_formula_structural   Cs27Sn13Pb14I81
_chemical_formula_sum   'Cs27 Sn13 Pb14 I81'
_cell_volume   6834.40307462
_cell_formula_units_Z   1
loop_
 _symmetry_equiv_pos_site_id
 _symmetry_equiv_pos_as_xyz
  1  'x, y, z'
loop_
 _atom_site_type_symbol
 _atom_site_label
 _atom_site_symmetry_multiplicity
 _atom_site_fract_x
 _atom_site_fract_y
 _atom_site_fract_z
 _atom_site_occupancy
  Cs  Cs0  1  0.00090629  -0.00177096  0.00024938  1
  Cs  Cs1  1  0.00008036  -0.00064479  0.33592044  1
  Cs  Cs2  1  -0.00091422  0.00287970  0.66059406  1
  Cs  Cs3  1  -0.00102442  0.33646421  -0.00139858  1
  Cs  Cs4  1  0.00172310  0.34033217  0.33775279  1
  Cs  Cs5  1  -0.00908693  0.32854241  0.66512333  1
  Cs  Cs6  1  0.00088621  0.66761528  0.00148555  1
  Cs  Cs7  1  0.00086191  0.66021518  0.33596211  1
  Cs  Cs8  1  -0.00204388  0.66823948  0.66275982  1
  Cs  Cs9  1  0.33307403  0.00046807  -0.00039742  1
  Cs  Cs10  1  0.33095438  0.00269588  0.33057113  1
  Cs  Cs11  1  0.33315613  -0.00084170  0.66769425  1
  Cs  Cs12  1  0.33360288  0.33240545  -0.00045983  1
  Cs  Cs13  1  0.33359045  0.33454712  0.33592331  1
  Cs  Cs14  1  0.33318471  0.33281459  0.66835213  1
  Cs  Cs15  1  0.33222937  0.66705948  -0.00150719  1
  Cs  Cs16  1  0.33271824  0.66255399  0.33919508  1
  Cs  Cs17  1  0.33762719  0.66721046  0.66483230  1
  Cs  Cs18  1  0.66705220  -0.00110062  0.00238076  1
  Cs  Cs19  1  0.66893229  0.00034940  0.32767238  1
  Cs  Cs20  1  0.66767278  -0.00129643  0.66460903  1
  Cs  Cs21  1  0.66695470  0.33336067  -0.00097515  1
  Cs  Cs22  1  0.66343904  0.33570160  0.33356647  1
  Cs  Cs23  1  0.67241967  0.33317337  0.66724224  1
  Cs  Cs24  1  0.66730485  0.66830363  -0.00011671  1
  Cs  Cs25  1  0.66653337  0.66475444  0.33947775  1
  Cs  Cs26  1  0.66276476  0.66741250  0.65767322  1
  Sn  Sn27  1  0.16562465  0.83344370  0.83384566  1
  Sn  Sn28  1  0.16656123  0.83372195  0.16621084  1
  Sn  Sn29  1  0.83515362  0.16657914  0.16606303  1
  Sn  Sn30  1  0.49946770  0.83183560  0.16628296  1
  Sn  Sn31  1  0.83421184  0.83336992  0.83398530  1
  Sn  Sn32  1  0.16703221  0.16678363  0.83434470  1
  Sn  Sn33  1  0.49979549  0.16613930  0.50140948  1
  Sn  Sn34  1  0.16522443  0.16642445  0.16577765  1
  Sn  Sn35  1  0.83401753  0.83383879  0.16588684  1
  Sn  Sn36  1  0.49975999  0.50127925  0.16536643  1
  Sn  Sn37  1  0.49944012  0.49937244  0.83448210  1
  Sn  Sn38  1  0.49968791  0.16713584  0.83252395  1
  Sn  Sn39  1  0.16704184  0.49991173  0.83363694  1
  Pb  Pb40  1  0.16876362  0.49993582  0.16497608  1
  Pb  Pb41  1  0.16830584  0.16662355  0.50005189  1
  Pb  Pb42  1  0.49951653  0.16673050  0.16579573  1
  Pb  Pb43  1  0.83083040  0.50047113  0.16641186  1
  Pb  Pb44  1  0.16683015  0.83347289  0.49992832  1
  Pb  Pb45  1  0.49967602  0.83630539  0.49617952  1
  Pb  Pb46  1  0.83339631  0.16444771  0.83529840  1
  Pb  Pb47  1  0.49982647  0.49755103  0.50093120  1
  Pb  Pb48  1  0.83332579  0.49988064  0.50017374  1
  Pb  Pb49  1  0.16692431  0.49966584  0.50448147  1
  Pb  Pb50  1  0.83347869  0.83357378  0.49930515  1
  Pb  Pb51  1  0.83073474  0.16645411  0.49624849  1
  Pb  Pb52  1  0.83296608  0.50322741  0.83347659  1
  Pb  Pb53  1  0.49990008  0.83345998  0.83472751  1
  I  I54  1  0.16936023  -0.00035097  0.15949795  1
  I  I55  1  0.16869671  0.00008317  0.50362609  1
  I  I56  1  0.16867776  0.00028951  0.83812138  1
  I  I57  1  0.16502393  0.33033709  0.16236889  1
  I  I58  1  0.16871033  0.33307808  0.49630209  1
  I  I59  1  0.17364295  0.33237367  0.83828186  1
  I  I60  1  0.16455658  0.66981818  0.16199299  1
  I  I61  1  0.16737486  0.66661528  0.49803804  1
  I  I62  1  0.16732952  0.66740075  0.83851271  1
  I  I63  1  0.50056886  -0.00222680  0.16643941  1
  I  I64  1  0.49932579  0.00370918  0.50652189  1
  I  I65  1  0.49667600  0.00260348  0.83220334  1
  I  I66  1  0.50015936  0.33516293  0.16608034  1
  I  I67  1  0.49924257  0.33003104  0.49701356  1
  I  I68  1  0.49232693  0.33300808  0.83620295  1
  I  I69  1  0.50034389  0.66717542  0.15983618  1
  I  I70  1  0.50089293  0.66663989  0.50183195  1
  I  I71  1  0.49685999  0.66435608  0.83723211  1
  I  I72  1  0.83000885  -0.00096366  0.16299614  1
  I  I73  1  0.83171399  0.00010548  0.50166889  1
  I  I74  1  0.83562721  -0.00338951  0.83712167  1
  I  I75  1  0.83519042  0.33045108  0.16659883  1
  I  I76  1  0.83245095  0.33271496  0.49949207  1
  I  I77  1  0.83507293  0.33315490  0.83428788  1
  I  I78  1  0.83565898  0.67047401  0.16216311  1
  I  I79  1  0.83148126  0.66705644  0.49893235  1
  I  I80  1  0.83701986  0.67109937  0.84161561  1
  I  I81  1  0.17035454  0.16484814  -0.00059164  1
  I  I82  1  0.16584775  0.16041070  0.32962558  1
  I  I83  1  0.16976012  0.16574043  0.67064049  1
  I  I84  1  0.16973614  0.50005633  -0.00332056  1
  I  I85  1  0.16821210  0.50012642  0.33315419  1
  I  I86  1  0.17522688  0.50121342  0.67279791  1
  I  I87  1  0.16640138  0.83457507  0.00008478  1
  I  I88  1  0.16678894  0.83949775  0.32908613  1
  I  I89  1  0.16255637  0.83423723  0.67097704  1
  I  I90  1  0.49820453  0.16780517  -0.00271002  1
  I  I91  1  0.50094172  0.16552226  0.33436601  1
  I  I92  1  0.49419831  0.17169417  0.66913909  1
  I  I93  1  0.49677295  0.49705302  -0.00079223  1
  I  I94  1  0.50130544  0.50232472  0.33059099  1
  I  I95  1  0.49548437  0.49878707  0.67052023  1
  I  I96  1  0.50017216  0.83525664  0.00307833  1
  I  I97  1  0.50078130  0.82950850  0.32769842  1
  I  I98  1  0.50064812  0.83077398  0.66678014  1
  I  I99  1  0.83077805  0.16371285  0.00328940  1
  I  I100  1  0.83603466  0.15878546  0.32812571  1
  I  I101  1  0.83514832  0.16525035  0.66681900  1
  I  I102  1  0.83286523  0.49793266  -0.00007346  1
  I  I103  1  0.83081984  0.50126602  0.33274028  1
  I  I104  1  0.83144981  0.50136736  0.66741304  1
  I  I105  1  0.83379116  0.83691419  0.00121787  1
  I  I106  1  0.83235627  0.83808899  0.32898647  1
  I  I107  1  0.83813103  0.83281427  0.66988333  1
  I  I108  1  0.00119339  0.15810177  0.16055096  1
  I  I109  1  -0.00012474  0.16670453  0.50241086  1
  I  I110  1  0.00323897  0.16945238  0.83621375  1
  I  I111  1  0.00031609  0.50148514  0.16562086  1
  I  I112  1  0.00034081  0.49979426  0.49916392  1
  I  I113  1  0.00327061  0.49714877  0.83411518  1
  I  I114  1  0.00053680  0.83969019  0.16109156  1
  I  I115  1  0.00011291  0.83422077  0.49749554  1
  I  I116  1  0.00136775  0.83276605  0.84183365  1
  I  I117  1  0.33082670  0.16272118  0.16530293  1
  I  I118  1  0.33626186  0.16704610  0.49834942  1
  I  I119  1  0.33275915  0.16514179  0.83590392  1
  I  I120  1  0.33672951  0.50267543  0.16392914  1
  I  I121  1  0.33364840  0.49975313  0.49632686  1
  I  I122  1  0.33368261  0.50063468  0.83813218  1
  I  I123  1  0.33250744  0.83577010  0.16166356  1
  I  I124  1  0.33343606  0.83335000  0.50076816  1
  I  I125  1  0.33042079  0.83399421  0.83817150  1
  I  I126  1  0.66812034  0.16273545  0.16685907  1
  I  I127  1  0.66290699  0.16709772  0.50539959  1
  I  I128  1  0.66391135  0.17004754  0.83216608  1
  I  I129  1  0.66255820  0.50163384  0.16075181  1
  I  I130  1  0.66598509  0.49973928  0.50091254  1
  I  I131  1  0.66310655  0.49529558  0.83730245  1
  I  I132  1  0.66700969  0.83560684  0.16211188  1
  I  I133  1  0.66647663  0.83346444  0.50161031  1
  I  I134  1  0.66854592  0.83447844  0.83935110  1
