# generated using pymatgen
data_Cs27Sn13Pb14I81
_symmetry_space_group_name_H-M   'P 1'
_cell_length_a   18.97548020
_cell_length_b   18.97874778
_cell_length_c   18.97598053
_cell_angle_alpha   89.99858159
_cell_angle_beta   89.99890317
_cell_angle_gamma   89.99888096
_symmetry_Int_Tables_number   1
_chemical_formula_structural   Cs27Sn13Pb14I81
_chemical_formula_sum   'Cs27 Sn13 Pb14 I81'
_cell_volume   6833.83604534
_cell_formula_units_Z   1
loop_
 _symmetry_equiv_pos_site_id
 _symmetry_equiv_pos_as_xyz
  1  'x, y, z'
loop_
 _atom_site_type_symbol
 _atom_site_label
 _atom_site_symmetry_multiplicity
 _atom_site_fract_x
 _atom_site_fract_y
 _atom_site_fract_z
 _atom_site_occupancy
  Cs  Cs0  1  -0.00051572  0.00290012  -0.00231329  1
  Cs  Cs1  1  -0.00591197  0.00011772  0.33019287  1
  Cs  Cs2  1  0.00351753  -0.00503823  0.67066865  1
  Cs  Cs3  1  0.00055166  0.33255010  0.00157771  1
  Cs  Cs4  1  -0.00160640  0.33334284  0.32846600  1
  Cs  Cs5  1  -0.00138138  0.33583480  0.66795424  1
  Cs  Cs6  1  -0.00062997  0.66469974  -0.00109717  1
  Cs  Cs7  1  0.00314822  0.66530217  0.33659556  1
  Cs  Cs8  1  -0.00162061  0.66670639  0.66521408  1
  Cs  Cs9  1  0.33228101  -0.00097036  -0.00271966  1
  Cs  Cs10  1  0.33496614  -0.00421212  0.33734696  1
  Cs  Cs11  1  0.32924139  0.00053035  0.66347397  1
  Cs  Cs12  1  0.33318835  0.33329682  0.00129670  1
  Cs  Cs13  1  0.33384303  0.33412693  0.33247104  1
  Cs  Cs14  1  0.33528326  0.33349600  0.66614275  1
  Cs  Cs15  1  0.33858644  0.66752113  -0.00017720  1
  Cs  Cs16  1  0.33175593  0.66730437  0.33367631  1
  Cs  Cs17  1  0.33363569  0.66530189  0.66585818  1
  Cs  Cs18  1  0.66702689  -0.00600553  0.00359807  1
  Cs  Cs19  1  0.67268474  0.00241821  0.33018746  1
  Cs  Cs20  1  0.67086752  0.00522904  0.66485284  1
  Cs  Cs21  1  0.66618574  0.33484809  -0.00207437  1
  Cs  Cs22  1  0.66624169  0.33156388  0.33460940  1
  Cs  Cs23  1  0.66641630  0.33237321  0.66806096  1
  Cs  Cs24  1  0.66289037  0.67060305  -0.00028236  1
  Cs  Cs25  1  0.66779201  0.66727322  0.33208896  1
  Cs  Cs26  1  0.66858064  0.66617220  0.66895212  1
  Sn  Sn27  1  0.16748007  0.49940916  0.50070980  1
  Sn  Sn28  1  0.50048734  0.16665618  0.83428997  1
  Sn  Sn29  1  0.16632789  0.49992557  0.83281088  1
  Sn  Sn30  1  0.83222567  0.50008522  0.16586791  1
  Sn  Sn31  1  0.49950617  0.16703367  0.16591054  1
  Sn  Sn32  1  0.50000956  0.83248217  0.50021987  1
  Sn  Sn33  1  0.16666454  0.83340747  0.16699712  1
  Sn  Sn34  1  0.50084092  0.49930225  0.16758632  1
  Sn  Sn35  1  0.83394990  0.49930465  0.83443700  1
  Sn  Sn36  1  0.83255461  0.16748115  0.83341713  1
  Sn  Sn37  1  0.49946581  0.50082427  0.49921204  1
  Sn  Sn38  1  0.16623378  0.16713174  0.49950274  1
  Sn  Sn39  1  0.16742058  0.83324921  0.49879560  1
  Pb  Pb40  1  0.83621091  0.83026650  0.16662776  1
  Pb  Pb41  1  0.83319037  0.83307066  0.83345917  1
  Pb  Pb42  1  0.16676762  0.16896650  0.83174724  1
  Pb  Pb43  1  0.83099665  0.16890008  0.16429480  1
  Pb  Pb44  1  0.83335702  0.83331966  0.49992551  1
  Pb  Pb45  1  0.83670756  0.16686922  0.50263296  1
  Pb  Pb46  1  0.49849631  0.83325227  0.16872691  1
  Pb  Pb47  1  0.16718814  0.50126414  0.16675796  1
  Pb  Pb48  1  0.16906201  0.16419659  0.16891440  1
  Pb  Pb49  1  0.50014669  0.49881902  0.83315004  1
  Pb  Pb50  1  0.16687342  0.83032704  0.83301419  1
  Pb  Pb51  1  0.83297980  0.49991330  0.50002798  1
  Pb  Pb52  1  0.49881502  0.16678463  0.49977847  1
  Pb  Pb53  1  0.49996939  0.83690927  0.82988679  1
  I  I54  1  0.16921376  -0.00347375  0.17243592  1
  I  I55  1  0.17217898  -0.00085625  0.49712723  1
  I  I56  1  0.16580051  0.00011398  0.83157299  1
  I  I57  1  0.16541086  0.33345940  0.16810022  1
  I  I58  1  0.17156509  0.33485859  0.50548648  1
  I  I59  1  0.16556918  0.33692069  0.82782659  1
  I  I60  1  0.16785103  0.66884597  0.17289786  1
  I  I61  1  0.17071529  0.66602457  0.49986468  1
  I  I62  1  0.16114225  0.66225695  0.82780444  1
  I  I63  1  0.49698287  0.00248069  0.16401096  1
  I  I64  1  0.49346624  -0.00213193  0.50158116  1
  I  I65  1  0.50524951  0.00487991  0.83870090  1
  I  I66  1  0.50233426  0.33459383  0.16939680  1
  I  I67  1  0.49495630  0.33613832  0.49906642  1
  I  I68  1  0.50048539  0.33099716  0.83142804  1
  I  I69  1  0.50204929  0.66357271  0.16869222  1
  I  I70  1  0.49136451  0.66516298  0.49484698  1
  I  I71  1  0.49977970  0.66655078  0.83545838  1
  I  I72  1  0.83260180  0.00016871  0.16578668  1
  I  I73  1  0.83196235  0.00022852  0.50193678  1
  I  I74  1  0.82957173  0.00339668  0.83108643  1
  I  I75  1  0.83411316  0.33697797  0.16551274  1
  I  I76  1  0.83332256  0.33357542  0.49872960  1
  I  I77  1  0.83373368  0.33445552  0.83614450  1
  I  I78  1  0.82615124  0.66217108  0.16010124  1
  I  I79  1  0.83738211  0.66627809  0.50253450  1
  I  I80  1  0.83805546  0.66276780  0.83556085  1
  I  I81  1  0.16573329  0.16617465  -0.00001179  1
  I  I82  1  0.17005911  0.17289991  0.33702602  1
  I  I83  1  0.16944024  0.16249610  0.66361943  1
  I  I84  1  0.16551714  0.50143698  -0.00219669  1
  I  I85  1  0.16763690  0.49959548  0.33635126  1
  I  I86  1  0.16684793  0.50159364  0.66528967  1
  I  I87  1  0.16658620  0.83095138  0.00250525  1
  I  I88  1  0.17121547  0.82994888  0.33535674  1
  I  I89  1  0.17023735  0.83532575  0.66302494  1
  I  I90  1  0.50220300  0.17397893  0.00022228  1
  I  I91  1  0.49650829  0.16882222  0.33108966  1
  I  I92  1  0.50248930  0.16742161  0.66876641  1
  I  I93  1  0.49966332  0.49734370  0.00241670  1
  I  I94  1  0.49902441  0.49757007  0.33347920  1
  I  I95  1  0.49802421  0.50171140  0.66398546  1
  I  I96  1  0.49778757  0.83095656  0.00013904  1
  I  I97  1  0.49550670  0.83305252  0.33668129  1
  I  I98  1  0.49188179  0.82660399  0.66203807  1
  I  I99  1  0.83402251  0.17001083  -0.00362677  1
  I  I100  1  0.83249049  0.16757161  0.33304648  1
  I  I101  1  0.82502303  0.17452075  0.67050877  1
  I  I102  1  0.83505799  0.49586319  -0.00068285  1
  I  I103  1  0.83295308  0.50101024  0.33066281  1
  I  I104  1  0.83473680  0.49650376  0.66960974  1
  I  I105  1  0.83566438  0.83434620  0.00018611  1
  I  I106  1  0.83222031  0.83215010  0.33316133  1
  I  I107  1  0.83557413  0.83112558  0.66669226  1
  I  I108  1  0.00001774  0.16715291  0.16666938  1
  I  I109  1  0.00481390  0.16737227  0.50117235  1
  I  I110  1  -0.00239074  0.16967493  0.83013466  1
  I  I111  1  -0.00182949  0.50245221  0.16563961  1
  I  I112  1  0.00325720  0.50147916  0.50122358  1
  I  I113  1  -0.00028087  0.49498096  0.83311481  1
  I  I114  1  0.00398749  0.83175010  0.17500934  1
  I  I115  1  0.00402236  0.83156485  0.49731644  1
  I  I116  1  0.00028453  0.83696566  0.83088026  1
  I  I117  1  0.33693458  0.17495663  0.16028162  1
  I  I118  1  0.33081513  0.16693283  0.50279349  1
  I  I119  1  0.33583350  0.16859753  0.83511727  1
  I  I120  1  0.33615294  0.49781964  0.16768930  1
  I  I121  1  0.33281288  0.50071334  0.50041512  1
  I  I122  1  0.33125398  0.49857103  0.83139663  1
  I  I123  1  0.33066190  0.83006586  0.17023163  1
  I  I124  1  0.33224047  0.83213742  0.49637727  1
  I  I125  1  0.33335351  0.83306986  0.83536863  1
  I  I126  1  0.66287437  0.16749254  0.16793745  1
  I  I127  1  0.66658817  0.16636191  0.49923088  1
  I  I128  1  0.66654259  0.17409765  0.83464532  1
  I  I129  1  0.66557975  0.49646941  0.16705373  1
  I  I130  1  0.66321056  0.50426136  0.49932901  1
  I  I131  1  0.66908850  0.49700675  0.83336548  1
  I  I132  1  0.66651853  0.83491982  0.16839603  1
  I  I133  1  0.66320180  0.82745429  0.50097202  1
  I  I134  1  0.66639445  0.82784104  0.83188450  1
