# generated using pymatgen
data_Cs27Sn13Pb14I81
_symmetry_space_group_name_H-M   'P 1'
_cell_length_a   18.98053159
_cell_length_b   18.96967336
_cell_length_c   18.97969572
_cell_angle_alpha   89.99770484
_cell_angle_beta   89.99916657
_cell_angle_gamma   89.99977619
_symmetry_Int_Tables_number   1
_chemical_formula_structural   Cs27Sn13Pb14I81
_chemical_formula_sum   'Cs27 Sn13 Pb14 I81'
_cell_volume   6833.72455572
_cell_formula_units_Z   1
loop_
 _symmetry_equiv_pos_site_id
 _symmetry_equiv_pos_as_xyz
  1  'x, y, z'
loop_
 _atom_site_type_symbol
 _atom_site_label
 _atom_site_symmetry_multiplicity
 _atom_site_fract_x
 _atom_site_fract_y
 _atom_site_fract_z
 _atom_site_occupancy
  Cs  Cs0  1  -0.00369841  0.00062870  -0.00342593  1
  Cs  Cs1  1  0.00137187  -0.00031074  0.33400410  1
  Cs  Cs2  1  0.00032325  -0.00087919  0.66856374  1
  Cs  Cs3  1  -0.00161159  0.33154930  -0.00116882  1
  Cs  Cs4  1  -0.00346675  0.33913311  0.33422724  1
  Cs  Cs5  1  0.00480089  0.33636278  0.66645925  1
  Cs  Cs6  1  0.00173282  0.66911491  0.00373727  1
  Cs  Cs7  1  0.00081500  0.66111324  0.33234319  1
  Cs  Cs8  1  -0.00179592  0.66705097  0.66513057  1
  Cs  Cs9  1  0.33194337  -0.00010946  0.00168615  1
  Cs  Cs10  1  0.33332587  -0.00065555  0.33352703  1
  Cs  Cs11  1  0.33336915  0.00042254  0.66507039  1
  Cs  Cs12  1  0.33421775  0.33799907  -0.00483643  1
  Cs  Cs13  1  0.33297854  0.32840747  0.33609654  1
  Cs  Cs14  1  0.33313697  0.33423109  0.66881087  1
  Cs  Cs15  1  0.33329503  0.66107543  0.00651345  1
  Cs  Cs16  1  0.33234199  0.67054300  0.32298852  1
  Cs  Cs17  1  0.33383261  0.66620725  0.66760447  1
  Cs  Cs18  1  0.67193755  0.00133892  -0.00315744  1
  Cs  Cs19  1  0.66529360  0.00014568  0.33501793  1
  Cs  Cs20  1  0.66670472  -0.00179405  0.66619066  1
  Cs  Cs21  1  0.66744149  0.33574820  0.00410471  1
  Cs  Cs22  1  0.66998105  0.33292149  0.33332367  1
  Cs  Cs23  1  0.66373214  0.33512274  0.66459830  1
  Cs  Cs24  1  0.66474715  0.66254972  -0.00276114  1
  Cs  Cs25  1  0.66559464  0.66700140  0.33129582  1
  Cs  Cs26  1  0.66756940  0.66771572  0.66818348  1
  Sn  Sn27  1  0.83408943  0.83399656  0.49888266  1
  Sn  Sn28  1  0.50001220  0.16735768  0.50007772  1
  Sn  Sn29  1  0.83367342  0.49965390  0.83292682  1
  Sn  Sn30  1  0.83370024  0.16603187  0.50034975  1
  Sn  Sn31  1  0.49866938  0.83392315  0.83334745  1
  Sn  Sn32  1  0.50006921  0.16573690  0.83339626  1
  Sn  Sn33  1  0.83314551  0.83371638  0.16797332  1
  Sn  Sn34  1  0.16808721  0.83351976  0.83270145  1
  Sn  Sn35  1  0.16640499  0.16585413  0.49931805  1
  Sn  Sn36  1  0.16706593  0.16641772  0.16728270  1
  Sn  Sn37  1  0.16605081  0.83387623  0.50064760  1
  Sn  Sn38  1  0.49947223  0.49997663  0.49958392  1
  Sn  Sn39  1  0.49931277  0.16621940  0.16659826  1
  Pb  Pb40  1  0.49963890  0.83351112  0.50109741  1
  Pb  Pb41  1  0.16428893  0.50328688  0.83312968  1
  Pb  Pb42  1  0.83325415  0.50275574  0.16423907  1
  Pb  Pb43  1  0.50108237  0.49993543  0.83172222  1
  Pb  Pb44  1  0.83354533  0.16520506  0.16898741  1
  Pb  Pb45  1  0.16943359  0.50048676  0.49984904  1
  Pb  Pb46  1  0.83157539  0.50047630  0.50118735  1
  Pb  Pb47  1  0.49992959  0.49690337  0.16977571  1
  Pb  Pb48  1  0.83097190  0.16892981  0.83043728  1
  Pb  Pb49  1  0.83343014  0.83214509  0.83273489  1
  Pb  Pb50  1  0.16868443  0.16501267  0.83310409  1
  Pb  Pb51  1  0.50220996  0.83594889  0.16354482  1
  Pb  Pb52  1  0.16492791  0.83552917  0.16697529  1
  Pb  Pb53  1  0.16668913  0.49604391  0.16683480  1
  I  I54  1  0.17120330  0.00331308  0.16959513  1
  I  I55  1  0.16808932  0.00078944  0.50033484  1
  I  I56  1  0.16661200  -0.00303669  0.83095710  1
  I  I57  1  0.16984463  0.32777006  0.17339441  1
  I  I58  1  0.16427033  0.32967418  0.49600126  1
  I  I59  1  0.16726523  0.33311270  0.83313426  1
  I  I60  1  0.16517232  0.66714652  0.16673341  1
  I  I61  1  0.16242650  0.67034237  0.50532759  1
  I  I62  1  0.17247120  0.67162109  0.82649591  1
  I  I63  1  0.49665516  0.00394178  0.17362636  1
  I  I64  1  0.50040511  0.00327807  0.49907339  1
  I  I65  1  0.49821960  0.00065176  0.82979549  1
  I  I66  1  0.49758958  0.32844226  0.16132123  1
  I  I67  1  0.50085413  0.33030735  0.50234461  1
  I  I68  1  0.50191375  0.33010992  0.83376504  1
  I  I69  1  0.50149985  0.66693717  0.16684062  1
  I  I70  1  0.50216108  0.66504609  0.50535643  1
  I  I71  1  0.49949697  0.66940351  0.82925360  1
  I  I72  1  0.83286692  -0.00265306  0.16669435  1
  I  I73  1  0.83101659  0.00005240  0.49782809  1
  I  I74  1  0.83353336  0.00007573  0.83459183  1
  I  I75  1  0.83313720  0.33302247  0.16689701  1
  I  I76  1  0.83437554  0.33031539  0.50186259  1
  I  I77  1  0.83062298  0.33605538  0.83142696  1
  I  I78  1  0.83417929  0.67083486  0.17370801  1
  I  I79  1  0.83592630  0.67001095  0.49892250  1
  I  I80  1  0.83021967  0.66488234  0.83068592  1
  I  I81  1  0.17123907  0.16474285  0.00233363  1
  I  I82  1  0.17251634  0.16056444  0.33525263  1
  I  I83  1  0.16725163  0.16442648  0.66331431  1
  I  I84  1  0.16678149  0.50067807  -0.00015403  1
  I  I85  1  0.16617746  0.50531072  0.33364729  1
  I  I86  1  0.16688524  0.49521924  0.66643353  1
  I  I87  1  0.16768538  0.83504406  -0.00233808  1
  I  I88  1  0.16489310  0.83619241  0.33649683  1
  I  I89  1  0.16426879  0.83952214  0.66540476  1
  I  I90  1  0.49574761  0.16076555  -0.00015876  1
  I  I91  1  0.49962766  0.17130053  0.33452717  1
  I  I92  1  0.50061595  0.16668947  0.66563515  1
  I  I93  1  0.50209252  0.49946479  0.00005996  1
  I  I94  1  0.50204225  0.49558479  0.33763293  1
  I  I95  1  0.50148086  0.49318944  0.66406423  1
  I  I96  1  0.49675760  0.83802392  -0.00440130  1
  I  I97  1  0.49860430  0.83305185  0.33319395  1
  I  I98  1  0.50178027  0.83885355  0.66903208  1
  I  I99  1  0.83303252  0.16548676  -0.00004176  1
  I  I100  1  0.82824816  0.16531551  0.33723598  1
  I  I101  1  0.83336349  0.15940979  0.66223015  1
  I  I102  1  0.83064787  0.50168561  -0.00339131  1
  I  I103  1  0.83189082  0.49853415  0.33347680  1
  I  I104  1  0.83076282  0.50282748  0.66862474  1
  I  I105  1  0.83286784  0.83189062  0.00152979  1
  I  I106  1  0.83759147  0.83770797  0.33536331  1
  I  I107  1  0.83383583  0.83599867  0.66374097  1
  I  I108  1  0.00266453  0.16432105  0.17104747  1
  I  I109  1  0.00049411  0.16138244  0.49555695  1
  I  I110  1  0.00004619  0.16585869  0.83420179  1
  I  I111  1  -0.00022436  0.49815477  0.16680558  1
  I  I112  1  0.00003446  0.49718554  0.50175687  1
  I  I113  1  -0.00333368  0.50100349  0.83074908  1
  I  I114  1  -0.00273035  0.83664362  0.16501190  1
  I  I115  1  0.00007326  0.84135832  0.50310784  1
  I  I116  1  0.00222710  0.83167527  0.83182974  1
  I  I117  1  0.33395931  0.16476410  0.17298589  1
  I  I118  1  0.33358867  0.16648305  0.49927220  1
  I  I119  1  0.33689649  0.16547139  0.82837689  1
  I  I120  1  0.33358837  0.50510492  0.16559530  1
  I  I121  1  0.33708543  0.49361727  0.50323491  1
  I  I122  1  0.33339690  0.49865940  0.83196276  1
  I  I123  1  0.33333217  0.83284229  0.16869333  1
  I  I124  1  0.33061519  0.83717476  0.50355283  1
  I  I125  1  0.33340976  0.83823398  0.82599105  1
  I  I126  1  0.66391900  0.16504860  0.16764505  1
  I  I127  1  0.66598877  0.16630120  0.50045767  1
  I  I128  1  0.66267931  0.15989206  0.83294659  1
  I  I129  1  0.66653729  0.49792942  0.16632649  1
  I  I130  1  0.66387136  0.49466108  0.50206430  1
  I  I131  1  0.66864716  0.50332669  0.83099811  1
  I  I132  1  0.66975761  0.83613865  0.17264902  1
  I  I133  1  0.66897928  0.83674943  0.49917003  1
  I  I134  1  0.66445120  0.83600627  0.83246483  1
