# generated using pymatgen
data_Cs27Sn14Pb13I81
_symmetry_space_group_name_H-M   'P 1'
_cell_length_a   18.96098487
_cell_length_b   18.96098490
_cell_length_c   18.95958004
_cell_angle_alpha   89.99764283
_cell_angle_beta   90.00235715
_cell_angle_gamma   90.00088602
_symmetry_Int_Tables_number   1
_chemical_formula_structural   Cs27Sn14Pb13I81
_chemical_formula_sum   'Cs27 Sn14 Pb13 I81'
_cell_volume   6816.32825517
_cell_formula_units_Z   1
loop_
 _symmetry_equiv_pos_site_id
 _symmetry_equiv_pos_as_xyz
  1  'x, y, z'
loop_
 _atom_site_type_symbol
 _atom_site_label
 _atom_site_symmetry_multiplicity
 _atom_site_fract_x
 _atom_site_fract_y
 _atom_site_fract_z
 _atom_site_occupancy
  Cs  Cs0  1  -0.00358431  -0.00075951  0.00084169  1
  Cs  Cs1  1  0.00111725  -0.00025024  0.33410514  1
  Cs  Cs2  1  0.00309228  -0.00133788  0.66508617  1
  Cs  Cs3  1  0.00083306  0.33290675  -0.00100219  1
  Cs  Cs4  1  -0.00001889  0.33490738  0.33139283  1
  Cs  Cs5  1  0.00315551  0.33122007  0.66802266  1
  Cs  Cs6  1  0.00024413  0.66642241  0.00056663  1
  Cs  Cs7  1  0.00006101  0.66660560  0.33298604  1
  Cs  Cs8  1  -0.00342261  0.67008926  0.66628297  1
  Cs  Cs9  1  0.33882507  -0.00257690  0.00143676  1
  Cs  Cs10  1  0.33357580  0.00079602  0.33450778  1
  Cs  Cs11  1  0.33010370  0.00344759  0.66402957  1
  Cs  Cs12  1  0.32986265  0.33680397  -0.00357134  1
  Cs  Cs13  1  0.33440504  0.33226165  0.33158379  1
  Cs  Cs14  1  0.33210803  0.33455877  0.67587986  1
  Cs  Cs15  1  0.33376005  0.66583350  -0.00100226  1
  Cs  Cs16  1  0.33175925  0.66668563  0.33139281  1
  Cs  Cs17  1  0.33544642  0.66351133  0.66802272  1
  Cs  Cs18  1  0.66659176  0.00007495  -0.00142846  1
  Cs  Cs19  1  0.66573067  0.00093595  0.33224695  1
  Cs  Cs20  1  0.66653236  0.00013439  0.66608751  1
  Cs  Cs21  1  0.66924369  0.32784150  0.00143677  1
  Cs  Cs22  1  0.66587051  0.33309067  0.33450786  1
  Cs  Cs23  1  0.66321898  0.33656284  0.66402923  1
  Cs  Cs24  1  0.66742604  0.67025078  0.00084177  1
  Cs  Cs25  1  0.66691686  0.66554950  0.33410516  1
  Cs  Cs26  1  0.66800448  0.66357437  0.66508621  1
  Sn  Sn27  1  0.16674456  0.49992214  0.49998164  1
  Sn  Sn28  1  0.49900920  0.16765748  0.16716303  1
  Sn  Sn29  1  0.83236628  0.83430038  0.49977129  1
  Sn  Sn30  1  0.50095713  0.49916921  0.16678782  1
  Sn  Sn31  1  0.16623601  0.83347224  0.83436647  1
  Sn  Sn32  1  0.83288051  0.16600367  0.49981599  1
  Sn  Sn33  1  0.50066297  0.83378618  0.49981599  1
  Sn  Sn34  1  0.83399697  0.83266967  0.16674817  1
  Sn  Sn35  1  0.83240603  0.50070956  0.16576938  1
  Sn  Sn36  1  0.50071680  0.16594983  0.49939306  1
  Sn  Sn37  1  0.83396380  0.83270285  0.83344840  1
  Sn  Sn38  1  0.16749742  0.16570953  0.16678783  1
  Sn  Sn39  1  0.16595708  0.83426064  0.16576938  1
  Sn  Sn40  1  0.83319439  0.50043066  0.83436646  1
  Pb  Pb41  1  0.83465436  0.50000420  0.49982482  1
  Pb  Pb42  1  0.16635013  0.50031655  0.16739319  1
  Pb  Pb43  1  0.50003350  0.16663320  0.83333691  1
  Pb  Pb44  1  0.50304095  0.50015979  0.83681508  1
  Pb  Pb45  1  0.50015738  0.83352338  0.16837486  1
  Pb  Pb46  1  0.16712587  0.16895140  0.49822317  1
  Pb  Pb47  1  0.16650687  0.16362571  0.83681510  1
  Pb  Pb48  1  0.16408286  0.50258381  0.83088369  1
  Pb  Pb49  1  0.83314323  0.16650932  0.16837489  1
  Pb  Pb50  1  0.16666243  0.83201233  0.49982482  1
  Pb  Pb51  1  0.50025486  0.83342464  0.83006063  1
  Pb  Pb52  1  0.49771528  0.49954082  0.49822314  1
  Pb  Pb53  1  0.83324199  0.16641183  0.83006063  1
  I  I54  1  0.16600867  -0.00108389  0.16525033  1
  I  I55  1  0.16649619  -0.00003388  0.50117052  1
  I  I56  1  0.15887753  -0.00438433  0.83161851  1
  I  I57  1  0.16719868  0.33135291  0.17162053  1
  I  I58  1  0.16434691  0.33611747  0.49604660  1
  I  I59  1  0.16547142  0.33349636  0.83258840  1
  I  I60  1  0.16547713  0.66959067  0.16557002  1
  I  I61  1  0.16554010  0.66472681  0.49666139  1
  I  I62  1  0.16446909  0.67048908  0.83983549  1
  I  I63  1  0.49870343  0.00245692  0.16984592  1
  I  I64  1  0.50366646  0.00033779  0.49389735  1
  I  I65  1  0.50270331  -0.00027126  0.83839208  1
  I  I66  1  0.50056811  0.33264015  0.17345971  1
  I  I67  1  0.50476249  0.33026061  0.49608038  1
  I  I68  1  0.50160271  0.33357052  0.82809525  1
  I  I69  1  0.50106131  0.66478623  0.16912343  1
  I  I70  1  0.50360024  0.66904011  0.49846193  1
  I  I71  1  0.49757642  0.66684782  0.83265520  1
  I  I72  1  0.83433538  -0.00302337  0.16505266  1
  I  I73  1  0.83055150  -0.00154260  0.49902693  1
  I  I74  1  0.83655534  -0.00381762  0.83630219  1
  I  I75  1  0.83311319  0.33576812  0.16491034  1
  I  I76  1  0.83060054  0.33103073  0.49854307  1
  I  I77  1  0.83263716  0.33618686  0.83763257  1
  I  I78  1  0.83369544  0.66764186  0.16870155  1
  I  I79  1  0.83111681  0.66976160  0.49976162  1
  I  I80  1  0.83700821  0.66816594  0.83199986  1
  I  I81  1  0.17124473  0.16780078  0.00497466  1
  I  I82  1  0.16745658  0.16016046  0.33022791  1
  I  I83  1  0.16672344  0.16694990  0.66662592  1
  I  I84  1  0.16833336  0.49833322  -0.00012079  1
  I  I85  1  0.16360240  0.50306416  0.33489351  1
  I  I86  1  0.16555143  0.50111535  0.66351299  1
  I  I87  1  0.15876400  0.83626799  0.00121241  1
  I  I88  1  0.16330613  0.83487147  0.33055617  1
  I  I89  1  0.16274211  0.82982843  0.66863196  1
  I  I90  1  0.49641495  0.17025145  0.00387607  1
  I  I91  1  0.50045944  0.16620777  0.33322273  1
  I  I92  1  0.50462490  0.16204162  0.66285698  1
  I  I93  1  0.49886583  0.49542242  0.00497468  1
  I  I94  1  0.50650632  0.49920981  0.33022788  1
  I  I95  1  0.49971679  0.49994312  0.66662595  1
  I  I96  1  0.50176105  0.83360828  0.00023038  1
  I  I97  1  0.50380059  0.83432671  0.33624968  1
  I  I98  1  0.50311935  0.83846003  0.66192355  1
  I  I99  1  0.83305833  0.16490573  0.00023037  1
  I  I100  1  0.83233972  0.16286581  0.33624968  1
  I  I101  1  0.82820678  0.16354765  0.66192351  1
  I  I102  1  0.83039888  0.50790256  0.00121241  1
  I  I103  1  0.83179516  0.50336077  0.33055615  1
  I  I104  1  0.83683813  0.50392456  0.66863200  1
  I  I105  1  0.83822535  0.82844144  0.00073621  1
  I  I106  1  0.83403579  0.83263090  0.33297919  1
  I  I107  1  0.83405838  0.83260817  0.66649932  1
  I  I108  1  0.00188045  0.16560546  0.16912328  1
  I  I109  1  -0.00237346  0.16306629  0.49846187  1
  I  I110  1  -0.00018110  0.16909032  0.83265553  1
  I  I111  1  -0.00292402  0.50118954  0.16557002  1
  I  I112  1  0.00193981  0.50112687  0.49666146  1
  I  I113  1  -0.00382237  0.50219736  0.83983543  1
  I  I114  1  -0.00097521  0.83297117  0.16870173  1
  I  I115  1  -0.00309489  0.83554981  0.49976161  1
  I  I116  1  -0.00149930  0.82965875  0.83199973  1
  I  I117  1  0.33402653  0.16609851  0.17346006  1
  I  I118  1  0.33640612  0.16190408  0.49607999  1
  I  I119  1  0.33309613  0.16506415  0.82809528  1
  I  I120  1  0.33531376  0.49946811  0.17162052  1
  I  I121  1  0.33054922  0.50231947  0.49604647  1
  I  I122  1  0.33317035  0.50119526  0.83258850  1
  I  I123  1  0.33089859  0.83355346  0.16491018  1
  I  I124  1  0.33563599  0.83606639  0.49854341  1
  I  I125  1  0.33047983  0.83402920  0.83763246  1
  I  I126  1  0.66420978  0.16796314  0.16984557  1
  I  I127  1  0.66632893  0.16300044  0.49389769  1
  I  I128  1  0.66693790  0.16396308  0.83839222  1
  I  I129  1  0.66775058  0.50065803  0.16525018  1
  I  I130  1  0.66670055  0.50017037  0.50117056  1
  I  I131  1  0.67105100  0.50778948  0.83161882  1
  I  I132  1  0.66969000  0.83233137  0.16505281  1
  I  I133  1  0.66820924  0.83611508  0.49902659  1
  I  I134  1  0.67048428  0.83011133  0.83630232  1
