# generated using pymatgen
data_Cs27Sn14Pb13I81
_symmetry_space_group_name_H-M   'P 1'
_cell_length_a   18.97928546
_cell_length_b   18.96484275
_cell_length_c   18.98421309
_cell_angle_alpha   89.99876868
_cell_angle_beta   89.99984029
_cell_angle_gamma   89.99950577
_symmetry_Int_Tables_number   1
_chemical_formula_structural   Cs27Sn14Pb13I81
_chemical_formula_sum   'Cs27 Sn14 Pb13 I81'
_cell_volume   6833.16179119
_cell_formula_units_Z   1
loop_
 _symmetry_equiv_pos_site_id
 _symmetry_equiv_pos_as_xyz
  1  'x, y, z'
loop_
 _atom_site_type_symbol
 _atom_site_label
 _atom_site_symmetry_multiplicity
 _atom_site_fract_x
 _atom_site_fract_y
 _atom_site_fract_z
 _atom_site_occupancy
  Cs  Cs0  1  0.00149230  -0.00051793  -0.00070554  1
  Cs  Cs1  1  0.00030139  -0.00142615  0.33336181  1
  Cs  Cs2  1  0.00007858  0.00100308  0.66715557  1
  Cs  Cs3  1  0.00011487  0.33672581  -0.00257134  1
  Cs  Cs4  1  0.00315895  0.33280322  0.33746315  1
  Cs  Cs5  1  -0.00009021  0.33309782  0.66578265  1
  Cs  Cs6  1  -0.00121301  0.66265829  0.00234856  1
  Cs  Cs7  1  -0.00220918  0.66999438  0.32930527  1
  Cs  Cs8  1  -0.00042214  0.66938245  0.66824885  1
  Cs  Cs9  1  0.33164689  -0.00003043  0.00083107  1
  Cs  Cs10  1  0.33102328  -0.00015559  0.33003391  1
  Cs  Cs11  1  0.33262010  -0.00100881  0.66834163  1
  Cs  Cs12  1  0.33485129  0.33701043  0.00425386  1
  Cs  Cs13  1  0.33386079  0.34133106  0.33361087  1
  Cs  Cs14  1  0.32927895  0.33727747  0.66309810  1
  Cs  Cs15  1  0.33316529  0.66322050  -0.00285856  1
  Cs  Cs16  1  0.33545358  0.66248948  0.33562906  1
  Cs  Cs17  1  0.34453569  0.66350088  0.66645599  1
  Cs  Cs18  1  0.66667890  0.00156582  0.00016317  1
  Cs  Cs19  1  0.66753948  0.00071293  0.33257766  1
  Cs  Cs20  1  0.66702664  0.00064382  0.66700745  1
  Cs  Cs21  1  0.66453363  0.33508396  0.00212912  1
  Cs  Cs22  1  0.66322808  0.33024320  0.33199500  1
  Cs  Cs23  1  0.67079929  0.32979293  0.66721234  1
  Cs  Cs24  1  0.66874192  0.65800078  -0.00000520  1
  Cs  Cs25  1  0.66832292  0.66525572  0.33401762  1
  Cs  Cs26  1  0.65883966  0.66631580  0.66626743  1
  Sn  Sn27  1  0.16791049  0.83405210  0.16627825  1
  Sn  Sn28  1  0.83276677  0.16632464  0.49986079  1
  Sn  Sn29  1  0.83376406  0.83412685  0.83282088  1
  Sn  Sn30  1  0.49931263  0.83371564  0.16636875  1
  Sn  Sn31  1  0.83354808  0.16568612  0.83375058  1
  Sn  Sn32  1  0.16571444  0.16618039  0.16593328  1
  Sn  Sn33  1  0.16684799  0.16616725  0.83425186  1
  Sn  Sn34  1  0.49948312  0.16613407  0.83248178  1
  Sn  Sn35  1  0.83374899  0.50027972  0.50027035  1
  Sn  Sn36  1  0.49996881  0.16572900  0.50060807  1
  Sn  Sn37  1  0.16607034  0.83382245  0.83312779  1
  Sn  Sn38  1  0.16647257  0.83360499  0.50052547  1
  Sn  Sn39  1  0.83397352  0.83334966  0.50105166  1
  Sn  Sn40  1  0.83464321  0.16616313  0.16644407  1
  Pb  Pb41  1  0.50285594  0.49653756  0.50011622  1
  Pb  Pb42  1  0.16635047  0.50008771  0.16669925  1
  Pb  Pb43  1  0.50010753  0.50384678  0.16676468  1
  Pb  Pb44  1  0.49928947  0.16560363  0.16666738  1
  Pb  Pb45  1  0.50036091  0.83558718  0.49828000  1
  Pb  Pb46  1  0.16672994  0.16508190  0.50000771  1
  Pb  Pb47  1  0.16395621  0.50422365  0.50027434  1
  Pb  Pb48  1  0.83345122  0.50024769  0.83102473  1
  Pb  Pb49  1  0.83366310  0.49602915  0.16943987  1
  Pb  Pb50  1  0.16642455  0.50045419  0.83308405  1
  Pb  Pb51  1  0.50038666  0.83518533  0.83548564  1
  Pb  Pb52  1  0.50016132  0.49602522  0.83317993  1
  Pb  Pb53  1  0.83367946  0.83492713  0.16599245  1
  I  I54  1  0.16629519  -0.00015756  0.16585761  1
  I  I55  1  0.16066283  -0.00304570  0.49932609  1
  I  I56  1  0.16506765  0.00030274  0.83432601  1
  I  I57  1  0.16249610  0.32948055  0.16194140  1
  I  I58  1  0.16683654  0.33315956  0.49938851  1
  I  I59  1  0.16572513  0.32911654  0.83778727  1
  I  I60  1  0.17035290  0.67076440  0.16640785  1
  I  I61  1  0.16169462  0.67254572  0.49876840  1
  I  I62  1  0.16010652  0.67108901  0.83520702  1
  I  I63  1  0.49804088  -0.00192744  0.16736537  1
  I  I64  1  0.50760446  0.00333680  0.50344574  1
  I  I65  1  0.50117108  0.00349799  0.82967927  1
  I  I66  1  0.50054980  0.33307579  0.16681798  1
  I  I67  1  0.50435838  0.32832975  0.50246347  1
  I  I68  1  0.50176452  0.32740739  0.83089595  1
  I  I69  1  0.49371814  0.67190610  0.16750957  1
  I  I70  1  0.50018478  0.66687782  0.49740000  1
  I  I71  1  0.50006133  0.66696594  0.83546987  1
  I  I72  1  0.83420031  0.00325535  0.17147304  1
  I  I73  1  0.83321060  0.00046654  0.50075004  1
  I  I74  1  0.83442200  0.00117841  0.82826892  1
  I  I75  1  0.83741364  0.32750149  0.16464236  1
  I  I76  1  0.82796427  0.33128479  0.49957478  1
  I  I77  1  0.83355384  0.32932684  0.83264193  1
  I  I78  1  0.83270642  0.66674300  0.16683441  1
  I  I79  1  0.83940012  0.66845749  0.50375679  1
  I  I80  1  0.83898627  0.67049444  0.83026323  1
  I  I81  1  0.16363394  0.15864569  -0.00048985  1
  I  I82  1  0.16296147  0.16129351  0.33096086  1
  I  I83  1  0.16472693  0.16261375  0.66946084  1
  I  I84  1  0.16590075  0.50309231  -0.00003096  1
  I  I85  1  0.16607007  0.49760607  0.33352074  1
  I  I86  1  0.16545369  0.49637094  0.66653831  1
  I  I87  1  0.16651293  0.83893913  -0.00039058  1
  I  I88  1  0.16533096  0.83836235  0.33310526  1
  I  I89  1  0.15994513  0.83907712  0.66735281  1
  I  I90  1  0.50326483  0.16403102  -0.00255637  1
  I  I91  1  0.50555603  0.16428689  0.33548652  1
  I  I92  1  0.50483548  0.16494054  0.66695007  1
  I  I93  1  0.50129676  0.49729688  0.00007105  1
  I  I94  1  0.50055865  0.49609313  0.33358426  1
  I  I95  1  0.49965310  0.50517110  0.66640231  1
  I  I96  1  0.49614962  0.83875055  0.00292578  1
  I  I97  1  0.49633006  0.83815552  0.33068985  1
  I  I98  1  0.49743849  0.83233647  0.66679243  1
  I  I99  1  0.83290644  0.16042296  -0.00110164  1
  I  I100  1  0.83225065  0.16592537  0.33423269  1
  I  I101  1  0.83236852  0.16669675  0.66667226  1
  I  I102  1  0.83274363  0.50091688  -0.00002757  1
  I  I103  1  0.83352598  0.50301563  0.33728646  1
  I  I104  1  0.83403860  0.49414698  0.66338923  1
  I  I105  1  0.83567331  0.83983616  -0.00292824  1
  I  I106  1  0.83596288  0.83491916  0.33600394  1
  I  I107  1  0.84108951  0.83859207  0.66626536  1
  I  I108  1  0.00015866  0.16025896  0.16509437  1
  I  I109  1  -0.00314318  0.16804480  0.50130631  1
  I  I110  1  -0.00046294  0.16295303  0.83346134  1
  I  I111  1  -0.00018229  0.50511499  0.16718631  1
  I  I112  1  -0.00367452  0.49129817  0.50034593  1
  I  I113  1  -0.00016532  0.49493233  0.83261333  1
  I  I114  1  0.00285175  0.83596950  0.16785102  1
  I  I115  1  -0.00106388  0.83630543  0.49811640  1
  I  I116  1  0.00001020  0.84134978  0.83324906  1
  I  I117  1  0.33025435  0.16296065  0.16346605  1
  I  I118  1  0.33536603  0.16265922  0.50302710  1
  I  I119  1  0.33231319  0.16111721  0.83350353  1
  I  I120  1  0.33322749  0.49358555  0.16851984  1
  I  I121  1  0.33341547  0.49908952  0.49940038  1
  I  I122  1  0.33329264  0.50141554  0.83219865  1
  I  I123  1  0.33111163  0.84133086  0.16703095  1
  I  I124  1  0.33065127  0.83738632  0.50172319  1
  I  I125  1  0.33020518  0.83842588  0.83149575  1
  I  I126  1  0.66902359  0.16440400  0.16564114  1
  I  I127  1  0.66880182  0.16504487  0.50221616  1
  I  I128  1  0.66814989  0.16278212  0.83217189  1
  I  I129  1  0.66700530  0.50024628  0.16678894  1
  I  I130  1  0.67063566  0.50593661  0.50034003  1
  I  I131  1  0.66694991  0.50189408  0.83300344  1
  I  I132  1  0.66532142  0.83727024  0.16800552  1
  I  I133  1  0.67032658  0.83259147  0.50270648  1
  I  I134  1  0.66989366  0.83851986  0.82916886  1
