# generated using pymatgen
data_Cs27Sn14Pb13I81
_symmetry_space_group_name_H-M   'P 1'
_cell_length_a   18.98057914
_cell_length_b   18.97140685
_cell_length_c   18.97782159
_cell_angle_alpha   89.99951612
_cell_angle_beta   90.00052985
_cell_angle_gamma   89.99987321
_symmetry_Int_Tables_number   1
_chemical_formula_structural   Cs27Sn14Pb13I81
_chemical_formula_sum   'Cs27 Sn14 Pb13 I81'
_cell_volume   6833.69130686
_cell_formula_units_Z   1
loop_
 _symmetry_equiv_pos_site_id
 _symmetry_equiv_pos_as_xyz
  1  'x, y, z'
loop_
 _atom_site_type_symbol
 _atom_site_label
 _atom_site_symmetry_multiplicity
 _atom_site_fract_x
 _atom_site_fract_y
 _atom_site_fract_z
 _atom_site_occupancy
  Cs  Cs0  1  -0.00096848  -0.00117889  0.00100339  1
  Cs  Cs1  1  -0.00033170  0.00024940  0.33297252  1
  Cs  Cs2  1  0.00079318  0.00186448  0.66685888  1
  Cs  Cs3  1  -0.00206633  0.33577746  0.00046368  1
  Cs  Cs4  1  0.00266077  0.32951324  0.33289282  1
  Cs  Cs5  1  0.00097445  0.33233366  0.66716500  1
  Cs  Cs6  1  -0.00133406  0.66615536  0.00166739  1
  Cs  Cs7  1  0.00199732  0.66835867  0.33159717  1
  Cs  Cs8  1  -0.00076928  0.66432038  0.66615235  1
  Cs  Cs9  1  0.33649828  -0.00065105  -0.00600334  1
  Cs  Cs10  1  0.33082436  0.00103132  0.33269133  1
  Cs  Cs11  1  0.33382295  -0.00117485  0.67407106  1
  Cs  Cs12  1  0.33891774  0.33416985  -0.00083697  1
  Cs  Cs13  1  0.33341746  0.33396337  0.33256317  1
  Cs  Cs14  1  0.33158618  0.33325178  0.66792870  1
  Cs  Cs15  1  0.33270100  0.66725456  -0.00142230  1
  Cs  Cs16  1  0.33193721  0.66476523  0.33271849  1
  Cs  Cs17  1  0.33519843  0.66695106  0.66923008  1
  Cs  Cs18  1  0.66725440  0.00079001  0.00136832  1
  Cs  Cs19  1  0.66820934  -0.00030705  0.33190249  1
  Cs  Cs20  1  0.66624334  -0.00247806  0.66585460  1
  Cs  Cs21  1  0.66529369  0.33499258  0.00075852  1
  Cs  Cs22  1  0.66048961  0.33588525  0.33279872  1
  Cs  Cs23  1  0.66872064  0.33639844  0.66622260  1
  Cs  Cs24  1  0.67188580  0.66631197  0.00026374  1
  Cs  Cs25  1  0.66339093  0.66347274  0.34283144  1
  Cs  Cs26  1  0.66482112  0.66465937  0.65782143  1
  Sn  Sn27  1  0.16647934  0.49989453  0.50087610  1
  Sn  Sn28  1  0.49955402  0.50025793  0.83342055  1
  Sn  Sn29  1  0.49951503  0.16603641  0.50019148  1
  Sn  Sn30  1  0.16705976  0.83470265  0.16709674  1
  Sn  Sn31  1  0.16644409  0.16564099  0.16665565  1
  Sn  Sn32  1  0.16725345  0.49992638  0.83295842  1
  Sn  Sn33  1  0.16665545  0.83387999  0.49978146  1
  Sn  Sn34  1  0.83351982  0.83395975  0.83332389  1
  Sn  Sn35  1  0.83304115  0.16654651  0.49957855  1
  Sn  Sn36  1  0.50010560  0.83325674  0.16686277  1
  Sn  Sn37  1  0.83397654  0.16619957  0.16666213  1
  Sn  Sn38  1  0.83351458  0.16573999  0.83362056  1
  Sn  Sn39  1  0.16702503  0.16609053  0.49973181  1
  Sn  Sn40  1  0.83298237  0.83386424  0.16641887  1
  Pb  Pb41  1  0.83348958  0.50039878  0.83323421  1
  Pb  Pb42  1  0.83540641  0.83523624  0.49952605  1
  Pb  Pb43  1  0.83611855  0.49697749  0.49958034  1
  Pb  Pb44  1  0.83328892  0.49996889  0.16719567  1
  Pb  Pb45  1  0.16664086  0.49962254  0.16665651  1
  Pb  Pb46  1  0.49993890  0.50303781  0.16463166  1
  Pb  Pb47  1  0.49711391  0.49777824  0.50177158  1
  Pb  Pb48  1  0.50310980  0.16816251  0.83098979  1
  Pb  Pb49  1  0.16489359  0.16837377  0.83414536  1
  Pb  Pb50  1  0.49979749  0.16494614  0.16824268  1
  Pb  Pb51  1  0.50318237  0.83133855  0.83528498  1
  Pb  Pb52  1  0.49698191  0.83560032  0.49796685  1
  Pb  Pb53  1  0.16461305  0.83141207  0.83375785  1
  I  I54  1  0.16442543  -0.00017295  0.17540610  1
  I  I55  1  0.16527903  0.00114151  0.49395819  1
  I  I56  1  0.16709955  -0.00000525  0.83031038  1
  I  I57  1  0.16071518  0.32984043  0.17042356  1
  I  I58  1  0.16560117  0.33186501  0.50001353  1
  I  I59  1  0.16693880  0.33619194  0.82876965  1
  I  I60  1  0.16524951  0.67001579  0.16973401  1
  I  I61  1  0.16623725  0.66709124  0.49892626  1
  I  I62  1  0.16735181  0.66359140  0.82920619  1
  I  I63  1  0.49995968  -0.00297788  0.16683561  1
  I  I64  1  0.49898198  0.00354176  0.50036247  1
  I  I65  1  0.49896886  -0.00009754  0.83275121  1
  I  I66  1  0.50000768  0.33309696  0.16709939  1
  I  I67  1  0.49974489  0.32979054  0.49870490  1
  I  I68  1  0.49680551  0.33597097  0.83320752  1
  I  I69  1  0.49900708  0.67122526  0.16682805  1
  I  I70  1  0.49956529  0.66678241  0.49978661  1
  I  I71  1  0.49617585  0.66369176  0.83375444  1
  I  I72  1  0.83491850  0.00034651  0.16585621  1
  I  I73  1  0.83651626  0.00375605  0.50026392  1
  I  I74  1  0.83438717  0.00076324  0.83453091  1
  I  I75  1  0.83957211  0.32910162  0.16548086  1
  I  I76  1  0.83563522  0.32820681  0.50129428  1
  I  I77  1  0.83415852  0.33032997  0.83322193  1
  I  I78  1  0.83597549  0.67074554  0.15916255  1
  I  I79  1  0.83462484  0.66691334  0.50116040  1
  I  I80  1  0.83501110  0.66955781  0.84076675  1
  I  I81  1  0.16150232  0.16313756  0.00324475  1
  I  I82  1  0.16214314  0.16814235  0.33420237  1
  I  I83  1  0.16500065  0.16514088  0.66363862  1
  I  I84  1  0.16934129  0.50018593  -0.00257529  1
  I  I85  1  0.16549228  0.49920816  0.33624500  1
  I  I86  1  0.16955660  0.49892769  0.66576365  1
  I  I87  1  0.16744079  0.83642667  0.00339360  1
  I  I88  1  0.16398510  0.83184063  0.33265049  1
  I  I89  1  0.16431440  0.83627821  0.66405593  1
  I  I90  1  0.49957212  0.16769198  -0.00007650  1
  I  I91  1  0.50329745  0.16671969  0.33626652  1
  I  I92  1  0.49738185  0.16699636  0.66304685  1
  I  I93  1  0.49254329  0.49771694  -0.00325160  1
  I  I94  1  0.49982530  0.49979052  0.33368711  1
  I  I95  1  0.49890744  0.50022305  0.66947404  1
  I  I96  1  0.49379150  0.83460368  0.00328672  1
  I  I97  1  0.50611687  0.83378457  0.33008625  1
  I  I98  1  0.50038576  0.83297646  0.66655919  1
  I  I99  1  0.83874441  0.16302998  0.00090615  1
  I  I100  1  0.83591695  0.16256030  0.33295517  1
  I  I101  1  0.83441329  0.16376617  0.66633758  1
  I  I102  1  0.83597392  0.49553513  -0.00014736  1
  I  I103  1  0.83440528  0.50161935  0.33353533  1
  I  I104  1  0.83211458  0.50024905  0.66659438  1
  I  I105  1  0.83542323  0.84054982  0.00124679  1
  I  I106  1  0.83308459  0.83786036  0.33005528  1
  I  I107  1  0.83595611  0.83762260  0.66870038  1
  I  I108  1  0.00001878  0.15988280  0.17161241  1
  I  I109  1  0.00069960  0.16733115  0.49925337  1
  I  I110  1  -0.00313861  0.16580462  0.82907111  1
  I  I111  1  0.00031388  0.50391041  0.16351235  1
  I  I112  1  0.00435350  0.49834966  0.50721407  1
  I  I113  1  0.00250992  0.49936583  0.82881841  1
  I  I114  1  0.00017722  0.83724558  0.16660821  1
  I  I115  1  0.00356183  0.83501087  0.49515758  1
  I  I116  1  -0.00302177  0.83544384  0.83883067  1
  I  I117  1  0.33015149  0.16333232  0.17278535  1
  I  I118  1  0.33137599  0.16810408  0.49397333  1
  I  I119  1  0.33337067  0.16697558  0.83304024  1
  I  I120  1  0.33302422  0.49936302  0.16793802  1
  I  I121  1  0.32916582  0.49748056  0.50111497  1
  I  I122  1  0.33217695  0.49995640  0.82897669  1
  I  I123  1  0.33171917  0.83637944  0.17224467  1
  I  I124  1  0.32882143  0.83520238  0.49475242  1
  I  I125  1  0.33324813  0.83307759  0.83422547  1
  I  I126  1  0.66982285  0.16262448  0.16739286  1
  I  I127  1  0.66769582  0.16618609  0.50029473  1
  I  I128  1  0.67122853  0.16562633  0.83494896  1
  I  I129  1  0.66654846  0.49816444  0.16267690  1
  I  I130  1  0.66636880  0.49905987  0.50219870  1
  I  I131  1  0.66460539  0.49872085  0.83531224  1
  I  I132  1  0.66813362  0.83825562  0.15996086  1
  I  I133  1  0.66670697  0.83455377  0.49966099  1
  I  I134  1  0.67094724  0.83617427  0.83902939  1
