# generated using pymatgen
data_Cs27Sn14Pb13I81
_symmetry_space_group_name_H-M   'P 1'
_cell_length_a   18.98530813
_cell_length_b   18.97125817
_cell_length_c   18.97361214
_cell_angle_alpha   90.00002743
_cell_angle_beta   89.99871677
_cell_angle_gamma   90.00234185
_symmetry_Int_Tables_number   1
_chemical_formula_structural   Cs27Sn14Pb13I81
_chemical_formula_sum   'Cs27 Sn14 Pb13 I81'
_cell_volume   6833.82419665
_cell_formula_units_Z   1
loop_
 _symmetry_equiv_pos_site_id
 _symmetry_equiv_pos_as_xyz
  1  'x, y, z'
loop_
 _atom_site_type_symbol
 _atom_site_label
 _atom_site_symmetry_multiplicity
 _atom_site_fract_x
 _atom_site_fract_y
 _atom_site_fract_z
 _atom_site_occupancy
  Cs  Cs0  1  -0.00005219  -0.00086366  -0.00054797  1
  Cs  Cs1  1  -0.00058188  0.00110037  0.33313125  1
  Cs  Cs2  1  0.00001997  0.00076784  0.66717547  1
  Cs  Cs3  1  -0.00238050  0.33552505  0.00696965  1
  Cs  Cs4  1  0.00108640  0.33240220  0.33077063  1
  Cs  Cs5  1  0.00127427  0.33189457  0.66615468  1
  Cs  Cs6  1  -0.00124191  0.66522552  0.00105499  1
  Cs  Cs7  1  0.00219545  0.66816652  0.33304254  1
  Cs  Cs8  1  0.00131932  0.66808515  0.66779286  1
  Cs  Cs9  1  0.33575422  -0.00109185  0.00628961  1
  Cs  Cs10  1  0.33543685  -0.00904377  0.32404778  1
  Cs  Cs11  1  0.32912903  0.00257756  0.66837073  1
  Cs  Cs12  1  0.33476529  0.33124941  -0.00021131  1
  Cs  Cs13  1  0.33072649  0.33551411  0.33780643  1
  Cs  Cs14  1  0.33319678  0.33300224  0.66582943  1
  Cs  Cs15  1  0.33113933  0.66780955  -0.00124931  1
  Cs  Cs16  1  0.33568595  0.66997041  0.32973809  1
  Cs  Cs17  1  0.33241347  0.66492125  0.66844402  1
  Cs  Cs18  1  0.66591151  0.00126965  0.00000355  1
  Cs  Cs19  1  0.66646561  -0.00537546  0.33041234  1
  Cs  Cs20  1  0.66862266  0.00113191  0.66754052  1
  Cs  Cs21  1  0.66807604  0.33217729  0.00163487  1
  Cs  Cs22  1  0.66801973  0.33324540  0.33642321  1
  Cs  Cs23  1  0.66602526  0.33358862  0.66670019  1
  Cs  Cs24  1  0.66951114  0.66548394  -0.00313257  1
  Cs  Cs25  1  0.66285935  0.67057948  0.33620960  1
  Cs  Cs26  1  0.66735471  0.66561964  0.66794932  1
  Sn  Sn27  1  0.83357977  0.49941930  0.50034689  1
  Sn  Sn28  1  0.16695288  0.16709973  0.50046698  1
  Sn  Sn29  1  0.50020805  0.49935217  0.16648753  1
  Sn  Sn30  1  0.16718527  0.49855448  0.83266045  1
  Sn  Sn31  1  0.16572052  0.16796958  0.83312991  1
  Sn  Sn32  1  0.49968920  0.16666895  0.50004002  1
  Sn  Sn33  1  0.83421632  0.16635034  0.83275039  1
  Sn  Sn34  1  0.16673018  0.49953514  0.50102501  1
  Sn  Sn35  1  0.83324738  0.16756422  0.50097264  1
  Sn  Sn36  1  0.83336574  0.83314164  0.16554305  1
  Sn  Sn37  1  0.49984708  0.49937533  0.50008109  1
  Sn  Sn38  1  0.83255732  0.83419300  0.83393379  1
  Sn  Sn39  1  0.50054221  0.83295177  0.83242139  1
  Sn  Sn40  1  0.49932783  0.50044957  0.83346244  1
  Pb  Pb41  1  0.16690763  0.83362861  0.50011008  1
  Pb  Pb42  1  0.83101837  0.50208941  0.17018293  1
  Pb  Pb43  1  0.83320673  0.16496657  0.16685470  1
  Pb  Pb44  1  0.49979081  0.83337732  0.50276390  1
  Pb  Pb45  1  0.50194509  0.83077492  0.16339731  1
  Pb  Pb46  1  0.83339097  0.83378716  0.50086176  1
  Pb  Pb47  1  0.16890278  0.49987261  0.16666336  1
  Pb  Pb48  1  0.16648362  0.83359128  0.83326715  1
  Pb  Pb49  1  0.49980324  0.16701297  0.83178245  1
  Pb  Pb50  1  0.50008604  0.16927902  0.17032427  1
  Pb  Pb51  1  0.83373264  0.49946657  0.83172728  1
  Pb  Pb52  1  0.16378254  0.83312538  0.16638279  1
  Pb  Pb53  1  0.16673955  0.16692548  0.16672115  1
  I  I54  1  0.16846532  0.00008698  0.16760495  1
  I  I55  1  0.16447429  0.00422558  0.50589141  1
  I  I56  1  0.16525339  0.00333462  0.82723382  1
  I  I57  1  0.16518296  0.33356077  0.16598448  1
  I  I58  1  0.16718693  0.33381848  0.50438498  1
  I  I59  1  0.16773025  0.33374435  0.82783708  1
  I  I60  1  0.16672225  0.66624195  0.16732202  1
  I  I61  1  0.16634340  0.66260388  0.50454864  1
  I  I62  1  0.16803090  0.66347123  0.82866388  1
  I  I63  1  0.50010571  -0.00033546  0.16736326  1
  I  I64  1  0.50167856  0.00323556  0.50307772  1
  I  I65  1  0.50170437  -0.00189720  0.83041042  1
  I  I66  1  0.50106450  0.33724993  0.15980830  1
  I  I67  1  0.50065785  0.33462914  0.50247225  1
  I  I68  1  0.49960353  0.33657923  0.83384524  1
  I  I69  1  0.50056829  0.66315799  0.17431197  1
  I  I70  1  0.50078543  0.66284710  0.49800313  1
  I  I71  1  0.50070407  0.66493876  0.83094457  1
  I  I72  1  0.83169118  -0.00301364  0.16738775  1
  I  I73  1  0.83374048  0.00358482  0.50092351  1
  I  I74  1  0.83294714  0.00065745  0.83070094  1
  I  I75  1  0.83253754  0.33358116  0.16431778  1
  I  I76  1  0.83202450  0.33284077  0.50568508  1
  I  I77  1  0.83317757  0.33058273  0.82932973  1
  I  I78  1  0.83260489  0.66962965  0.15924899  1
  I  I79  1  0.83204751  0.66371576  0.50005492  1
  I  I80  1  0.83197430  0.66854743  0.83498434  1
  I  I81  1  0.16131327  0.17086066  -0.00392305  1
  I  I82  1  0.16468732  0.17244221  0.33752276  1
  I  I83  1  0.16553382  0.17077476  0.66634280  1
  I  I84  1  0.17095836  0.49683761  -0.00364529  1
  I  I85  1  0.16630128  0.49537070  0.33713646  1
  I  I86  1  0.17173439  0.49674743  0.66634997  1
  I  I87  1  0.16952238  0.83318410  -0.00060535  1
  I  I88  1  0.16504358  0.83317249  0.33332165  1
  I  I89  1  0.16359977  0.83235976  0.66698377  1
  I  I90  1  0.50015393  0.16710075  -0.00018137  1
  I  I91  1  0.50085824  0.17215414  0.33888185  1
  I  I92  1  0.50109880  0.17249610  0.66360965  1
  I  I93  1  0.49534290  0.50608115  -0.00157441  1
  I  I94  1  0.50086414  0.49481467  0.33516619  1
  I  I95  1  0.49944355  0.50061975  0.66629192  1
  I  I96  1  0.50135177  0.82901296  -0.00437625  1
  I  I97  1  0.50175533  0.83327339  0.33316954  1
  I  I98  1  0.50760355  0.82649164  0.67043479  1
  I  I99  1  0.83762734  0.16461057  -0.00347100  1
  I  I100  1  0.83418567  0.16959971  0.33719028  1
  I  I101  1  0.83389801  0.16388014  0.66629023  1
  I  I102  1  0.83293078  0.49802321  -0.00005244  1
  I  I103  1  0.83443046  0.49496650  0.33841489  1
  I  I104  1  0.82815618  0.50120001  0.66361427  1
  I  I105  1  0.82866522  0.83855531  -0.00208768  1
  I  I106  1  0.83331764  0.83213304  0.33158387  1
  I  I107  1  0.82960715  0.83467755  0.66984196  1
  I  I108  1  -0.00017701  0.16587313  0.17093986  1
  I  I109  1  -0.00017471  0.17250873  0.50438174  1
  I  I110  1  -0.00038485  0.16520514  0.82488437  1
  I  I111  1  -0.00023938  0.50217993  0.16666524  1
  I  I112  1  0.00046694  0.49542917  0.50537793  1
  I  I113  1  0.00256881  0.50043591  0.82756285  1
  I  I114  1  -0.00420984  0.83250990  0.15977837  1
  I  I115  1  -0.00014294  0.83085749  0.50095963  1
  I  I116  1  -0.00309308  0.83412630  0.83670811  1
  I  I117  1  0.33351126  0.16485846  0.16458387  1
  I  I118  1  0.33286139  0.17494338  0.50594911  1
  I  I119  1  0.33084467  0.16776758  0.82805910  1
  I  I120  1  0.33681164  0.50113511  0.17150278  1
  I  I121  1  0.33368218  0.49398485  0.50127771  1
  I  I122  1  0.33395955  0.50095215  0.82868464  1
  I  I123  1  0.33387693  0.83333617  0.16663795  1
  I  I124  1  0.33350280  0.83381722  0.50153137  1
  I  I125  1  0.33593998  0.83085693  0.83114478  1
  I  I126  1  0.66666087  0.16689084  0.16577866  1
  I  I127  1  0.66718355  0.17371942  0.50437733  1
  I  I128  1  0.66904752  0.16537297  0.82871939  1
  I  I129  1  0.66327907  0.50054169  0.16503045  1
  I  I130  1  0.66594207  0.49464743  0.50032085  1
  I  I131  1  0.66413979  0.50147046  0.83149552  1
  I  I132  1  0.66952177  0.83312019  0.16573358  1
  I  I133  1  0.66669016  0.83245037  0.49852577  1
  I  I134  1  0.66724679  0.83249433  0.83610658  1
