# generated using pymatgen
data_Cs27Sn13Pb14I81
_symmetry_space_group_name_H-M   'P 1'
_cell_length_a   18.97839439
_cell_length_b   18.97410059
_cell_length_c   18.97799027
_cell_angle_alpha   89.99994141
_cell_angle_beta   89.99957062
_cell_angle_gamma   89.99986109
_symmetry_Int_Tables_number   1
_chemical_formula_structural   Cs27Sn13Pb14I81
_chemical_formula_sum   'Cs27 Sn13 Pb14 I81'
_cell_volume   6833.93566185
_cell_formula_units_Z   1
loop_
 _symmetry_equiv_pos_site_id
 _symmetry_equiv_pos_as_xyz
  1  'x, y, z'
loop_
 _atom_site_type_symbol
 _atom_site_label
 _atom_site_symmetry_multiplicity
 _atom_site_fract_x
 _atom_site_fract_y
 _atom_site_fract_z
 _atom_site_occupancy
  Cs  Cs0  1  0.00121766  0.00131626  0.00415295  1
  Cs  Cs1  1  0.00260904  -0.00607417  0.33218400  1
  Cs  Cs2  1  0.00093561  0.00160521  0.66511701  1
  Cs  Cs3  1  -0.00171913  0.33118451  -0.00225904  1
  Cs  Cs4  1  -0.00089002  0.33415026  0.33323844  1
  Cs  Cs5  1  -0.00148289  0.33226449  0.66889088  1
  Cs  Cs6  1  -0.00142385  0.66813537  0.00097922  1
  Cs  Cs7  1  0.00702497  0.67523202  0.34224306  1
  Cs  Cs8  1  0.00076490  0.66768792  0.66029174  1
  Cs  Cs9  1  0.33298457  0.00147883  0.00001519  1
  Cs  Cs10  1  0.33540979  -0.00088557  0.33414426  1
  Cs  Cs11  1  0.33511501  0.00049582  0.66651575  1
  Cs  Cs12  1  0.33069891  0.33417585  0.00017782  1
  Cs  Cs13  1  0.33578945  0.34233660  0.33269692  1
  Cs  Cs14  1  0.33528817  0.33143707  0.66689036  1
  Cs  Cs15  1  0.33479271  0.66370614  -0.00141594  1
  Cs  Cs16  1  0.32781532  0.66035588  0.33308897  1
  Cs  Cs17  1  0.33039168  0.66869963  0.66943534  1
  Cs  Cs18  1  0.66629986  -0.00186982  0.00095027  1
  Cs  Cs19  1  0.66435999  0.00227139  0.33093231  1
  Cs  Cs20  1  0.66427275  -0.00018086  0.66804011  1
  Cs  Cs21  1  0.66837579  0.33276635  0.00018969  1
  Cs  Cs22  1  0.66535988  0.33241734  0.33338983  1
  Cs  Cs23  1  0.66746642  0.33230238  0.66506407  1
  Cs  Cs24  1  0.66581294  0.66796274  -0.00170105  1
  Cs  Cs25  1  0.66757521  0.66449176  0.33497095  1
  Cs  Cs26  1  0.67019842  0.66938260  0.66878575  1
  Sn  Sn27  1  0.83427536  0.16656973  0.49968461  1
  Sn  Sn28  1  0.16595990  0.50083535  0.83340570  1
  Sn  Sn29  1  0.50004594  0.83344132  0.16787495  1
  Sn  Sn30  1  0.50024566  0.83294864  0.49875884  1
  Sn  Sn31  1  0.83338059  0.49935535  0.83413401  1
  Sn  Sn32  1  0.16634719  0.16717111  0.49949753  1
  Sn  Sn33  1  0.16623910  0.83298678  0.83390263  1
  Sn  Sn34  1  0.83376176  0.49977949  0.16630780  1
  Sn  Sn35  1  0.50080257  0.16753247  0.83438300  1
  Sn  Sn36  1  0.83266279  0.16730722  0.16669299  1
  Sn  Sn37  1  0.50037947  0.16634151  0.16572921  1
  Sn  Sn38  1  0.50056703  0.49893439  0.83331035  1
  Sn  Sn39  1  0.83245263  0.16699353  0.83346302  1
  Pb  Pb40  1  0.83138057  0.83303897  0.16669831  1
  Pb  Pb41  1  0.16690013  0.16687704  0.16952011  1
  Pb  Pb42  1  0.16661331  0.49737299  0.50258886  1
  Pb  Pb43  1  0.50019380  0.50309940  0.50302929  1
  Pb  Pb44  1  0.49867663  0.83367180  0.83384592  1
  Pb  Pb45  1  0.83594337  0.83357159  0.83339607  1
  Pb  Pb46  1  0.83089478  0.83633652  0.49992424  1
  Pb  Pb47  1  0.16902428  0.83549788  0.50192212  1
  Pb  Pb48  1  0.16663780  0.16701949  0.83224893  1
  Pb  Pb49  1  0.83331127  0.49801391  0.49989909  1
  Pb  Pb50  1  0.50024344  0.16589956  0.49970508  1
  Pb  Pb51  1  0.16973697  0.83330974  0.16435138  1
  Pb  Pb52  1  0.16293585  0.49990220  0.16437372  1
  Pb  Pb53  1  0.50202050  0.49965946  0.16464229  1
  I  I54  1  0.16252117  0.00021907  0.16270506  1
  I  I55  1  0.16219287  0.00309011  0.50450562  1
  I  I56  1  0.16870703  -0.00147861  0.83052836  1
  I  I57  1  0.17217120  0.33328228  0.16499290  1
  I  I58  1  0.16405828  0.32955274  0.50277858  1
  I  I59  1  0.16673927  0.33596947  0.83133277  1
  I  I60  1  0.16708176  0.66654260  0.16767450  1
  I  I61  1  0.16774727  0.66673437  0.50022389  1
  I  I62  1  0.16909455  0.66549276  0.83340943  1
  I  I63  1  0.50570112  0.00167727  0.16398978  1
  I  I64  1  0.50026618  -0.00186229  0.50213811  1
  I  I65  1  0.50265134  0.00304336  0.83344041  1
  I  I66  1  0.50229050  0.33018354  0.16447682  1
  I  I67  1  0.49947770  0.33326374  0.49894841  1
  I  I68  1  0.49839233  0.33230530  0.83761971  1
  I  I69  1  0.50151763  0.66885560  0.16769492  1
  I  I70  1  0.49902362  0.67084314  0.49502697  1
  I  I71  1  0.50200546  0.66409108  0.83296902  1
  I  I72  1  0.83097573  0.00366857  0.16501338  1
  I  I73  1  0.83695684  0.00486059  0.50133296  1
  I  I74  1  0.82930938  0.00384687  0.83381028  1
  I  I75  1  0.82767173  0.33164893  0.16512439  1
  I  I76  1  0.83478763  0.32932338  0.50162240  1
  I  I77  1  0.83468319  0.33263581  0.83374634  1
  I  I78  1  0.83051225  0.66348055  0.15799048  1
  I  I79  1  0.83216166  0.66673569  0.50110549  1
  I  I80  1  0.82949944  0.66313372  0.83835707  1
  I  I81  1  0.16528174  0.16627232  -0.00008697  1
  I  I82  1  0.16251541  0.16412775  0.33720535  1
  I  I83  1  0.16312541  0.16665390  0.66462018  1
  I  I84  1  0.17000487  0.50145026  -0.00430996  1
  I  I85  1  0.16672121  0.49922164  0.33337052  1
  I  I86  1  0.16410399  0.50364819  0.67119865  1
  I  I87  1  0.16848471  0.83150242  -0.00370393  1
  I  I88  1  0.16569388  0.83482213  0.33348741  1
  I  I89  1  0.17010683  0.82958850  0.66971506  1
  I  I90  1  0.50665432  0.16383847  -0.00056778  1
  I  I91  1  0.50367387  0.16290968  0.33056900  1
  I  I92  1  0.50248827  0.16801856  0.66945604  1
  I  I93  1  0.49805293  0.50117667  -0.00376665  1
  I  I94  1  0.50162681  0.49725214  0.33303125  1
  I  I95  1  0.50264726  0.49410834  0.67165895  1
  I  I96  1  0.49881900  0.83561382  0.00224483  1
  I  I97  1  0.50148743  0.84273308  0.33240623  1
  I  I98  1  0.49773391  0.83468262  0.66537237  1
  I  I99  1  0.82844034  0.17092070  -0.00047383  1
  I  I100  1  0.83163971  0.17081817  0.33228493  1
  I  I101  1  0.83302230  0.17022764  0.66795601  1
  I  I102  1  0.83348190  0.49146893  -0.00147949  1
  I  I103  1  0.82995404  0.49389588  0.33020640  1
  I  I104  1  0.83311676  0.49563362  0.67040206  1
  I  I105  1  0.83119968  0.83765260  -0.00010718  1
  I  I106  1  0.83502187  0.83262354  0.33327554  1
  I  I107  1  0.82978354  0.83381279  0.66681758  1
  I  I108  1  -0.00367957  0.17079478  0.16227918  1
  I  I109  1  -0.00145963  0.16730918  0.50316018  1
  I  I110  1  -0.00306755  0.16924017  0.83492978  1
  I  I111  1  -0.00499348  0.49111992  0.15963233  1
  I  I112  1  -0.00012282  0.50140857  0.50224034  1
  I  I113  1  -0.00108878  0.49805637  0.83729904  1
  I  I114  1  0.00003464  0.83457806  0.16513639  1
  I  I115  1  0.00018275  0.83287157  0.50148332  1
  I  I116  1  0.00358661  0.83056283  0.83198611  1
  I  I117  1  0.33689282  0.16183466  0.16217833  1
  I  I118  1  0.33179014  0.16339145  0.50352710  1
  I  I119  1  0.33613408  0.16870797  0.83491077  1
  I  I120  1  0.33348617  0.49944982  0.16485783  1
  I  I121  1  0.33343164  0.49596906  0.50165189  1
  I  I122  1  0.33377900  0.50001553  0.83202049  1
  I  I123  1  0.33788501  0.84105330  0.16920559  1
  I  I124  1  0.33654635  0.83846590  0.49797662  1
  I  I125  1  0.33100697  0.82996926  0.83286403  1
  I  I126  1  0.66700562  0.16627273  0.16740668  1
  I  I127  1  0.66940795  0.16520729  0.50112111  1
  I  I128  1  0.66687307  0.17275588  0.83129943  1
  I  I129  1  0.66983167  0.49790691  0.15987856  1
  I  I130  1  0.66672842  0.49798680  0.50321996  1
  I  I131  1  0.66717128  0.49517075  0.83667001  1
  I  I132  1  0.66323750  0.83659655  0.16738867  1
  I  I133  1  0.66308858  0.83576190  0.49936888  1
  I  I134  1  0.66655657  0.83141535  0.83266786  1
