# generated using pymatgen
data_Cs27Sn13Pb14I81
_symmetry_space_group_name_H-M   'P 1'
_cell_length_a   18.99599646
_cell_length_b   18.98371136
_cell_length_c   18.99493615
_cell_angle_alpha   89.99999989
_cell_angle_beta   89.99969140
_cell_angle_gamma   89.99999992
_symmetry_Int_Tables_number   1
_chemical_formula_structural   Cs27Sn13Pb14I81
_chemical_formula_sum   'Cs27 Sn13 Pb14 I81'
_cell_volume   6849.84966593
_cell_formula_units_Z   1
loop_
 _symmetry_equiv_pos_site_id
 _symmetry_equiv_pos_as_xyz
  1  'x, y, z'
loop_
 _atom_site_type_symbol
 _atom_site_label
 _atom_site_symmetry_multiplicity
 _atom_site_fract_x
 _atom_site_fract_y
 _atom_site_fract_z
 _atom_site_occupancy
  Cs  Cs0  1  -0.00178876  0.00008006  0.00173254  1
  Cs  Cs1  1  -0.00169464  0.00112129  0.32915283  1
  Cs  Cs2  1  -0.00048962  -0.00071196  0.66811608  1
  Cs  Cs3  1  0.00389404  0.33762087  0.00412885  1
  Cs  Cs4  1  0.00169467  0.33483162  0.33469487  1
  Cs  Cs5  1  -0.00246713  0.33319739  0.66244628  1
  Cs  Cs6  1  0.00178785  0.66283167  -0.00287316  1
  Cs  Cs7  1  -0.00327205  0.66780013  0.33176881  1
  Cs  Cs8  1  0.00365546  0.66762111  0.67076292  1
  Cs  Cs9  1  0.33333324  0.00292797  0.00000005  1
  Cs  Cs10  1  0.33473470  -0.00048349  0.33343136  1
  Cs  Cs11  1  0.33193194  -0.00048353  0.66656852  1
  Cs  Cs12  1  0.33333336  0.33886298  -0.00000001  1
  Cs  Cs13  1  0.33037137  0.33142814  0.33538226  1
  Cs  Cs14  1  0.33629543  0.33142819  0.66461772  1
  Cs  Cs15  1  0.33333314  0.65749277  0.00000013  1
  Cs  Cs16  1  0.34104575  0.66895708  0.33675545  1
  Cs  Cs17  1  0.32562091  0.66895692  0.66324453  1
  Cs  Cs18  1  0.66845553  0.00008008  -0.00173257  1
  Cs  Cs19  1  0.66715633  -0.00071199  0.33188386  1
  Cs  Cs20  1  0.66836142  0.00112130  0.67084721  1
  Cs  Cs21  1  0.66277245  0.33762079  -0.00412904  1
  Cs  Cs22  1  0.66913384  0.33319758  0.33755382  1
  Cs  Cs23  1  0.66497201  0.33483134  0.66530512  1
  Cs  Cs24  1  0.66487881  0.66283195  0.00287320  1
  Cs  Cs25  1  0.66301127  0.66762121  0.32923709  1
  Cs  Cs26  1  0.66993880  0.66780035  0.66823131  1
  Sn  Sn27  1  0.49960221  0.16670744  0.49922822  1
  Sn  Sn28  1  0.16706445  0.16670746  0.50077175  1
  Sn  Sn29  1  0.83333335  0.83362182  0.49999997  1
  Sn  Sn30  1  0.49945572  0.49952708  0.50027001  1
  Sn  Sn31  1  0.83421702  0.83410017  0.16607480  1
  Sn  Sn32  1  0.83244970  0.83410019  0.83392519  1
  Sn  Sn33  1  0.50106509  0.16641885  0.16717273  1
  Sn  Sn34  1  0.16721095  0.49952706  0.49973003  1
  Sn  Sn35  1  0.16560162  0.16641882  0.83282731  1
  Sn  Sn36  1  0.83219764  0.16653523  0.16545704  1
  Sn  Sn37  1  0.16657466  0.83338504  0.16651563  1
  Sn  Sn38  1  0.83446908  0.16653520  0.83454298  1
  Sn  Sn39  1  0.50009193  0.83338503  0.83348439  1
  Pb  Pb40  1  0.49990300  0.50332062  0.83010481  1
  Pb  Pb41  1  0.16676366  0.50332057  0.16989522  1
  Pb  Pb42  1  0.16659186  0.49645092  0.83063650  1
  Pb  Pb43  1  0.83333336  0.16505217  0.49999997  1
  Pb  Pb44  1  0.50007485  0.49645094  0.16936348  1
  Pb  Pb45  1  0.16647651  0.16565939  0.16680168  1
  Pb  Pb46  1  0.50217972  0.83397919  0.50194533  1
  Pb  Pb47  1  0.83327173  0.49947397  0.16666507  1
  Pb  Pb48  1  0.50019011  0.16565936  0.83319831  1
  Pb  Pb49  1  0.83333329  0.50310879  0.49999998  1
  Pb  Pb50  1  0.16636713  0.83527463  0.83572064  1
  Pb  Pb51  1  0.16448695  0.83397918  0.49805465  1
  Pb  Pb52  1  0.50029953  0.83527467  0.16427934  1
  Pb  Pb53  1  0.83339491  0.49947398  0.83333490  1
  I  I54  1  0.16391992  -0.00206012  0.16954100  1
  I  I55  1  0.17077845  0.00316968  0.50287933  1
  I  I56  1  0.16547509  0.00305548  0.82563121  1
  I  I57  1  0.16630536  0.33326711  0.16455401  1
  I  I58  1  0.17011125  0.33183494  0.50364865  1
  I  I59  1  0.16123530  0.32822747  0.83430659  1
  I  I60  1  0.15837883  0.67115042  0.16622703  1
  I  I61  1  0.17075524  0.66457632  0.49709377  1
  I  I62  1  0.16633182  0.66674279  0.83259832  1
  I  I63  1  0.50119140  0.00305550  0.17436889  1
  I  I64  1  0.49588826  0.00316969  0.49712070  1
  I  I65  1  0.50274714  -0.00206013  0.83045896  1
  I  I66  1  0.50543157  0.32822747  0.16569343  1
  I  I67  1  0.49655532  0.33183490  0.49635148  1
  I  I68  1  0.50036080  0.33326708  0.83544596  1
  I  I69  1  0.50033475  0.66674280  0.16740171  1
  I  I70  1  0.49591131  0.66457631  0.50290615  1
  I  I71  1  0.50828825  0.67115045  0.83377295  1
  I  I72  1  0.83361255  -0.00026158  0.16650868  1
  I  I73  1  0.83333315  -0.00283806  0.50000028  1
  I  I74  1  0.83305388  -0.00026155  0.83349109  1
  I  I75  1  0.82954467  0.32916949  0.16254049  1
  I  I76  1  0.83333341  0.33316853  0.49999993  1
  I  I77  1  0.83712250  0.32916950  0.83745968  1
  I  I78  1  0.83768406  0.67045283  0.16683239  1
  I  I79  1  0.83333336  0.67119718  0.49999984  1
  I  I80  1  0.82898256  0.67045281  0.83316782  1
  I  I81  1  0.16571935  0.16141314  -0.00210738  1
  I  I82  1  0.16744429  0.16914460  0.33610414  1
  I  I83  1  0.16677781  0.16873255  0.66584697  1
  I  I84  1  0.16595674  0.49958137  0.00005880  1
  I  I85  1  0.16959308  0.49079451  0.33744402  1
  I  I86  1  0.17076199  0.50164415  0.66276918  1
  I  I87  1  0.16087014  0.83818908  0.00311382  1
  I  I88  1  0.16007912  0.83611810  0.33056981  1
  I  I89  1  0.16528108  0.83136751  0.66664855  1
  I  I90  1  0.50094699  0.16141326  0.00210734  1
  I  I91  1  0.49988889  0.16873261  0.33415305  1
  I  I92  1  0.49922250  0.16914459  0.66389581  1
  I  I93  1  0.50071024  0.49958132  -0.00005881  1
  I  I94  1  0.49590421  0.50164393  0.33723086  1
  I  I95  1  0.49707354  0.49079462  0.66255594  1
  I  I96  1  0.50579683  0.83818907  -0.00311385  1
  I  I97  1  0.50138559  0.83136753  0.33335146  1
  I  I98  1  0.50658738  0.83611809  0.66943018  1
  I  I99  1  0.83333369  0.15682929  -0.00000002  1
  I  I100  1  0.83231815  0.16104924  0.33101265  1
  I  I101  1  0.83434813  0.16104956  0.66898736  1
  I  I102  1  0.83333289  0.50409559  -0.00000001  1
  I  I103  1  0.83371705  0.50042164  0.33358126  1
  I  I104  1  0.83295005  0.50042180  0.66641876  1
  I  I105  1  0.83333314  0.83977469  0.00000001  1
  I  I106  1  0.83838815  0.83745056  0.33230006  1
  I  I107  1  0.82827862  0.83745021  0.66769997  1
  I  I108  1  -0.00279744  0.16272647  0.16615511  1
  I  I109  1  0.00244540  0.16955354  0.50083570  1
  I  I110  1  -0.00092657  0.15940732  0.83215706  1
  I  I111  1  0.00015206  0.49531601  0.17061387  1
  I  I112  1  0.00295002  0.49463083  0.49983494  1
  I  I113  1  0.00016135  0.50541287  0.82960933  1
  I  I114  1  -0.00206793  0.84055744  0.16651985  1
  I  I115  1  -0.00327694  0.83412179  0.50464968  1
  I  I116  1  -0.00332654  0.83599454  0.83111836  1
  I  I117  1  0.33528414  0.16337661  0.16822242  1
  I  I118  1  0.33333335  0.16973284  0.50000002  1
  I  I119  1  0.33138255  0.16337633  0.83177761  1
  I  I120  1  0.33340521  0.50105190  0.16412258  1
  I  I121  1  0.33333329  0.49564865  0.50000017  1
  I  I122  1  0.33326143  0.50105230  0.83587722  1
  I  I123  1  0.33143729  0.83668744  0.16663383  1
  I  I124  1  0.33333332  0.83293567  0.49999996  1
  I  I125  1  0.33522942  0.83668755  0.83336627  1
  I  I126  1  0.66759325  0.15940729  0.16784238  1
  I  I127  1  0.66422129  0.16955374  0.49916432  1
  I  I128  1  0.66946414  0.16272693  0.83384531  1
  I  I129  1  0.66650531  0.50541286  0.17039135  1
  I  I130  1  0.66371665  0.49463075  0.50016484  1
  I  I131  1  0.66651461  0.49531544  0.82938547  1
  I  I132  1  0.66999317  0.83599449  0.16888192  1
  I  I133  1  0.66994359  0.83412154  0.49535031  1
  I  I134  1  0.66873464  0.84055731  0.83347990  1
