# generated using pymatgen
data_Cs27Sn13Pb14I81
_symmetry_space_group_name_H-M   'P 1'
_cell_length_a   18.99734911
_cell_length_b   18.98533428
_cell_length_c   18.99194211
_cell_angle_alpha   89.99890178
_cell_angle_beta   90.00027113
_cell_angle_gamma   89.99882784
_symmetry_Int_Tables_number   1
_chemical_formula_structural   Cs27Sn13Pb14I81
_chemical_formula_sum   'Cs27 Sn13 Pb14 I81'
_cell_volume   6849.84318984
_cell_formula_units_Z   1
loop_
 _symmetry_equiv_pos_site_id
 _symmetry_equiv_pos_as_xyz
  1  'x, y, z'
loop_
 _atom_site_type_symbol
 _atom_site_label
 _atom_site_symmetry_multiplicity
 _atom_site_fract_x
 _atom_site_fract_y
 _atom_site_fract_z
 _atom_site_occupancy
  Cs  Cs0  1  0.00051315  0.00066044  -0.00008160  1
  Cs  Cs1  1  -0.00097677  0.00265814  0.33086478  1
  Cs  Cs2  1  -0.00082089  0.00153091  0.66799775  1
  Cs  Cs3  1  0.00259606  0.33110493  0.00180477  1
  Cs  Cs4  1  0.00217856  0.33581939  0.33335282  1
  Cs  Cs5  1  0.00037434  0.33007016  0.66562691  1
  Cs  Cs6  1  -0.00248481  0.66921172  -0.00305352  1
  Cs  Cs7  1  0.00081609  0.65725839  0.34343583  1
  Cs  Cs8  1  -0.00538144  0.66477883  0.66107285  1
  Cs  Cs9  1  0.33226622  -0.00244493  0.00091327  1
  Cs  Cs10  1  0.33636976  -0.00208555  0.33178895  1
  Cs  Cs11  1  0.33555393  0.00064784  0.66543432  1
  Cs  Cs12  1  0.33332313  0.33765490  -0.00047580  1
  Cs  Cs13  1  0.33017733  0.33775533  0.33087535  1
  Cs  Cs14  1  0.33729956  0.33157521  0.66929120  1
  Cs  Cs15  1  0.33577562  0.67119059  -0.00000850  1
  Cs  Cs16  1  0.33183402  0.66482262  0.33827984  1
  Cs  Cs17  1  0.33007625  0.66828878  0.66383909  1
  Cs  Cs18  1  0.66683942  -0.00087402  0.00321542  1
  Cs  Cs19  1  0.66503684  -0.00021258  0.33116620  1
  Cs  Cs20  1  0.66554176  0.00154303  0.66279918  1
  Cs  Cs21  1  0.66348493  0.34059529  -0.00153338  1
  Cs  Cs22  1  0.66712300  0.33415981  0.33221551  1
  Cs  Cs23  1  0.66037231  0.33210801  0.66963722  1
  Cs  Cs24  1  0.66638289  0.66192682  -0.00092178  1
  Cs  Cs25  1  0.66780927  0.66301519  0.33413870  1
  Cs  Cs26  1  0.67778818  0.66624909  0.66538743  1
  Sn  Sn27  1  0.83227552  0.16625318  0.16629290  1
  Sn  Sn28  1  0.16660913  0.16589673  0.50050588  1
  Sn  Sn29  1  0.83378544  0.16640069  0.49978486  1
  Sn  Sn30  1  0.16616124  0.83322023  0.16661485  1
  Sn  Sn31  1  0.16646540  0.50041905  0.83354691  1
  Sn  Sn32  1  0.49996306  0.50002451  0.50042405  1
  Sn  Sn33  1  0.49998371  0.83366405  0.83342210  1
  Sn  Sn34  1  0.16707215  0.83312903  0.83371664  1
  Sn  Sn35  1  0.50020028  0.83401579  0.16578227  1
  Sn  Sn36  1  0.83341992  0.16635687  0.83383830  1
  Sn  Sn37  1  0.16634175  0.16656824  0.83273153  1
  Sn  Sn38  1  0.50050695  0.16650996  0.16618704  1
  Sn  Sn39  1  0.83361307  0.83363160  0.16685930  1
  Pb  Pb40  1  0.83112580  0.49635270  0.50018517  1
  Pb  Pb41  1  0.16652298  0.83582769  0.50045996  1
  Pb  Pb42  1  0.49793320  0.50363899  0.83130980  1
  Pb  Pb43  1  0.16661493  0.50396354  0.16400921  1
  Pb  Pb44  1  0.16673359  0.16520569  0.16627324  1
  Pb  Pb45  1  0.49964464  0.16470888  0.83578108  1
  Pb  Pb46  1  0.83343479  0.83609266  0.49676018  1
  Pb  Pb47  1  0.83366323  0.49981345  0.16647884  1
  Pb  Pb48  1  0.50011593  0.83131955  0.49997590  1
  Pb  Pb49  1  0.49982298  0.50082014  0.16806867  1
  Pb  Pb50  1  0.83605080  0.49678241  0.83342686  1
  Pb  Pb51  1  0.16825798  0.49690635  0.50278006  1
  Pb  Pb52  1  0.83345164  0.83552602  0.83508397  1
  Pb  Pb53  1  0.49966833  0.16791013  0.49730675  1
  I  I54  1  0.16711877  -0.00277774  0.16097778  1
  I  I55  1  0.16383933  0.00375204  0.50594930  1
  I  I56  1  0.16616500  0.00012023  0.83396288  1
  I  I57  1  0.16701183  0.33322985  0.16653442  1
  I  I58  1  0.16257619  0.32908720  0.50342138  1
  I  I59  1  0.16158897  0.33182516  0.82800005  1
  I  I60  1  0.16864262  0.67226119  0.16156638  1
  I  I61  1  0.16840057  0.66650613  0.49940007  1
  I  I62  1  0.17359862  0.66803727  0.84021558  1
  I  I63  1  0.50092550  -0.00081654  0.16470904  1
  I  I64  1  0.50012665  0.00014951  0.50075717  1
  I  I65  1  0.49342720  -0.00296655  0.83492537  1
  I  I66  1  0.50567456  0.33061104  0.16852417  1
  I  I67  1  0.49982279  0.33535390  0.49885229  1
  I  I68  1  0.49949482  0.33324677  0.83432246  1
  I  I69  1  0.50045396  0.67072178  0.16320623  1
  I  I70  1  0.49731179  0.66380011  0.49767651  1
  I  I71  1  0.49403238  0.67130233  0.84180610  1
  I  I72  1  0.83235678  0.00088514  0.16676173  1
  I  I73  1  0.83587164  0.00429416  0.50274000  1
  I  I74  1  0.83999628  0.00366564  0.83194426  1
  I  I75  1  0.82835357  0.32904143  0.16712399  1
  I  I76  1  0.83866714  0.32838211  0.49613159  1
  I  I77  1  0.83768436  0.32817837  0.83611486  1
  I  I78  1  0.83126377  0.67029779  0.16441281  1
  I  I79  1  0.83240836  0.66643950  0.49847579  1
  I  I80  1  0.83339129  0.66693869  0.83540863  1
  I  I81  1  0.16327973  0.16758906  -0.00307912  1
  I  I82  1  0.16395973  0.16451062  0.33513000  1
  I  I83  1  0.15894800  0.16497367  0.66809430  1
  I  I84  1  0.16784033  0.49139510  -0.00373650  1
  I  I85  1  0.16753067  0.49979763  0.33367083  1
  I  I86  1  0.16804283  0.50558751  0.67029126  1
  I  I87  1  0.16797723  0.83655667  -0.00066103  1
  I  I88  1  0.16879152  0.83740438  0.33023050  1
  I  I89  1  0.17292967  0.83279972  0.67050769  1
  I  I90  1  0.50369948  0.16451939  0.00359714  1
  I  I91  1  0.50348822  0.16009063  0.32962450  1
  I  I92  1  0.50260524  0.16609071  0.66681127  1
  I  I93  1  0.49918883  0.49802820  -0.00026396  1
  I  I94  1  0.49905660  0.50013871  0.33568606  1
  I  I95  1  0.49849068  0.49719433  0.66414876  1
  I  I96  1  0.49764521  0.83758065  0.00105042  1
  I  I97  1  0.49915137  0.83701730  0.32956172  1
  I  I98  1  0.49228836  0.83304094  0.66979282  1
  I  I99  1  0.83543082  0.16170842  0.00037560  1
  I  I100  1  0.83332667  0.16202969  0.33270600  1
  I  I101  1  0.83958486  0.16775075  0.66693409  1
  I  I102  1  0.83207879  0.49692968  -0.00018598  1
  I  I103  1  0.83373927  0.49908798  0.33346024  1
  I  I104  1  0.83254176  0.50079740  0.66675094  1
  I  I105  1  0.83403377  0.84112234  0.00316713  1
  I  I106  1  0.83173747  0.84022270  0.32835012  1
  I  I107  1  0.83270972  0.83431360  0.66677084  1
  I  I108  1  -0.00262300  0.16201042  0.16652746  1
  I  I109  1  -0.00019522  0.16612602  0.49895577  1
  I  I110  1  0.00086999  0.16479208  0.83448552  1
  I  I111  1  0.00025010  0.49802569  0.16792141  1
  I  I112  1  0.00005825  0.50151821  0.50025045  1
  I  I113  1  0.00399868  0.50641675  0.83279279  1
  I  I114  1  0.00004358  0.84028061  0.16081491  1
  I  I115  1  0.00001150  0.83048456  0.50004815  1
  I  I116  1  0.00323631  0.83310317  0.83858527  1
  I  I117  1  0.33543983  0.16176610  0.16756621  1
  I  I118  1  0.33077115  0.16783823  0.50478979  1
  I  I119  1  0.33012237  0.16771676  0.82940311  1
  I  I120  1  0.33321783  0.49635231  0.16810328  1
  I  I121  1  0.33557951  0.49791770  0.49869820  1
  I  I122  1  0.33017291  0.49296927  0.83285527  1
  I  I123  1  0.33364579  0.83850147  0.16164246  1
  I  I124  1  0.33328115  0.83609010  0.49533099  1
  I  I125  1  0.33202606  0.83574284  0.84184917  1
  I  I126  1  0.66760092  0.15822614  0.16800366  1
  I  I127  1  0.66945455  0.16823585  0.50231136  1
  I  I128  1  0.66919202  0.16380663  0.83022781  1
  I  I129  1  0.66663002  0.50285829  0.16695702  1
  I  I130  1  0.66379491  0.49937737  0.49936276  1
  I  I131  1  0.66656380  0.49976100  0.83232814  1
  I  I132  1  0.66629652  0.83958940  0.16320325  1
  I  I133  1  0.66671659  0.83515266  0.50186282  1
  I  I134  1  0.66423513  0.83552964  0.83774735  1
