# generated using pymatgen
data_Cs27Sn13Pb14I81
_symmetry_space_group_name_H-M   'P 1'
_cell_length_a   18.97620162
_cell_length_b   18.97351073
_cell_length_c   18.98108518
_cell_angle_alpha   89.99944958
_cell_angle_beta   90.00002066
_cell_angle_gamma   90.00169126
_symmetry_Int_Tables_number   1
_chemical_formula_structural   Cs27Sn13Pb14I81
_chemical_formula_sum   'Cs27 Sn13 Pb14 I81'
_cell_volume   6834.04794480
_cell_formula_units_Z   1
loop_
 _symmetry_equiv_pos_site_id
 _symmetry_equiv_pos_as_xyz
  1  'x, y, z'
loop_
 _atom_site_type_symbol
 _atom_site_label
 _atom_site_symmetry_multiplicity
 _atom_site_fract_x
 _atom_site_fract_y
 _atom_site_fract_z
 _atom_site_occupancy
  Cs  Cs0  1  -0.00185291  0.00134839  -0.00111001  1
  Cs  Cs1  1  -0.00177599  0.00488998  0.33187220  1
  Cs  Cs2  1  -0.00368399  -0.00254871  0.66919128  1
  Cs  Cs3  1  0.00012851  0.33154122  0.00171635  1
  Cs  Cs4  1  0.00084707  0.33485881  0.33071284  1
  Cs  Cs5  1  0.00282170  0.33509184  0.66703828  1
  Cs  Cs6  1  0.00098579  0.66763729  0.00104114  1
  Cs  Cs7  1  -0.00073237  0.66362809  0.33373220  1
  Cs  Cs8  1  0.00096563  0.66615552  0.66530292  1
  Cs  Cs9  1  0.33216919  -0.00576562  0.00176509  1
  Cs  Cs10  1  0.33649942  -0.00262679  0.33312200  1
  Cs  Cs11  1  0.33261178  0.00279675  0.66465710  1
  Cs  Cs12  1  0.33523905  0.33293799  -0.00182186  1
  Cs  Cs13  1  0.33288582  0.33339659  0.33352002  1
  Cs  Cs14  1  0.33285951  0.33290811  0.66752460  1
  Cs  Cs15  1  0.33463767  0.67592825  0.00018572  1
  Cs  Cs16  1  0.33282693  0.66743826  0.33111870  1
  Cs  Cs17  1  0.33267997  0.66605774  0.66997680  1
  Cs  Cs18  1  0.66970973  0.00040608  -0.00153046  1
  Cs  Cs19  1  0.66493836  -0.00107715  0.34165752  1
  Cs  Cs20  1  0.67500360  -0.00490821  0.65825390  1
  Cs  Cs21  1  0.66494936  0.33366755  -0.00013439  1
  Cs  Cs22  1  0.66540291  0.33343150  0.33267785  1
  Cs  Cs23  1  0.66484777  0.33369408  0.66726070  1
  Cs  Cs24  1  0.66384430  0.66628883  0.00133566  1
  Cs  Cs25  1  0.66830892  0.66612236  0.33123531  1
  Cs  Cs26  1  0.66570601  0.66863712  0.66951797  1
  Sn  Sn27  1  0.49971980  0.49988717  0.49934340  1
  Sn  Sn28  1  0.16666169  0.16681519  0.50064394  1
  Sn  Sn29  1  0.83259369  0.50052221  0.16635008  1
  Sn  Sn30  1  0.83308104  0.49976114  0.50026512  1
  Sn  Sn31  1  0.49996264  0.16734693  0.16582326  1
  Sn  Sn32  1  0.83340358  0.83273285  0.16673668  1
  Sn  Sn33  1  0.16668767  0.83327779  0.49981459  1
  Sn  Sn34  1  0.49964507  0.16646296  0.83367937  1
  Sn  Sn35  1  0.16701219  0.49978981  0.50060983  1
  Sn  Sn36  1  0.50034549  0.49928837  0.16716419  1
  Sn  Sn37  1  0.16762846  0.16759596  0.83279125  1
  Sn  Sn38  1  0.83410071  0.49967814  0.83361623  1
  Sn  Sn39  1  0.16619252  0.49934592  0.83309997  1
  Pb  Pb40  1  0.16666380  0.83362096  0.83127132  1
  Pb  Pb41  1  0.83563373  0.83068781  0.49803729  1
  Pb  Pb42  1  0.83346812  0.83022024  0.83553335  1
  Pb  Pb43  1  0.49951241  0.49911204  0.83365792  1
  Pb  Pb44  1  0.16922243  0.16674566  0.16612441  1
  Pb  Pb45  1  0.50009665  0.83780853  0.83305047  1
  Pb  Pb46  1  0.83347505  0.16882152  0.83320183  1
  Pb  Pb47  1  0.83046411  0.16713740  0.16680787  1
  Pb  Pb48  1  0.16389857  0.83349704  0.16927280  1
  Pb  Pb49  1  0.50234070  0.83341203  0.16673772  1
  Pb  Pb50  1  0.83625352  0.16937683  0.50009324  1
  Pb  Pb51  1  0.16720118  0.50001935  0.16590351  1
  Pb  Pb52  1  0.49779430  0.83006504  0.50008627  1
  Pb  Pb53  1  0.49818361  0.16858882  0.50031361  1
  I  I54  1  0.16623752  0.00020472  0.16737850  1
  I  I55  1  0.16791209  0.00091051  0.50339915  1
  I  I56  1  0.17164611  0.00360387  0.82942779  1
  I  I57  1  0.16208422  0.33360260  0.17160995  1
  I  I58  1  0.16656265  0.33473074  0.50422616  1
  I  I59  1  0.16640589  0.33408855  0.82509856  1
  I  I60  1  0.17108793  0.66632856  0.16662492  1
  I  I61  1  0.16579872  0.66450017  0.50299894  1
  I  I62  1  0.16258221  0.66326262  0.82903301  1
  I  I63  1  0.49915179  0.00311218  0.16174012  1
  I  I64  1  0.49776027  0.00023063  0.49893402  1
  I  I65  1  0.49147950  0.00583802  0.84104021  1
  I  I66  1  0.50544389  0.33480965  0.16731381  1
  I  I67  1  0.49817804  0.33712566  0.49826435  1
  I  I68  1  0.49800941  0.33124444  0.83469041  1
  I  I69  1  0.50191184  0.66325378  0.17109066  1
  I  I70  1  0.49859552  0.66136772  0.49376786  1
  I  I71  1  0.49931510  0.66637693  0.83391530  1
  I  I72  1  0.83411141  -0.00247232  0.16662544  1
  I  I73  1  0.83430063  -0.00017881  0.49739742  1
  I  I74  1  0.83378894  0.00002376  0.83624690  1
  I  I75  1  0.83186528  0.33720048  0.16737846  1
  I  I76  1  0.83527141  0.33816810  0.49657552  1
  I  I77  1  0.83517729  0.33757033  0.83570283  1
  I  I78  1  0.82825620  0.66373155  0.16736856  1
  I  I79  1  0.83601538  0.66203020  0.50151043  1
  I  I80  1  0.83929757  0.66145447  0.82992968  1
  I  I81  1  0.16782599  0.17351307  -0.00353409  1
  I  I82  1  0.16675801  0.16895631  0.33649853  1
  I  I83  1  0.17306521  0.16935395  0.66677553  1
  I  I84  1  0.16293127  0.49394494  -0.00344461  1
  I  I85  1  0.16434685  0.49897390  0.33657099  1
  I  I86  1  0.16384627  0.49941655  0.66557611  1
  I  I87  1  0.16654818  0.83260365  -0.00005155  1
  I  I88  1  0.16719176  0.83087097  0.33740594  1
  I  I89  1  0.16543384  0.83099082  0.66325649  1
  I  I90  1  0.49494938  0.17482768  0.00008077  1
  I  I91  1  0.49920007  0.16989118  0.33115292  1
  I  I92  1  0.49575562  0.17053458  0.66921608  1
  I  I93  1  0.50416580  0.49699747  0.00257371  1
  I  I94  1  0.50243988  0.49466866  0.33316976  1
  I  I95  1  0.50150239  0.49828748  0.66418939  1
  I  I96  1  0.49890139  0.82729996  0.00018043  1
  I  I97  1  0.49883132  0.83799386  0.33337924  1
  I  I98  1  0.50073326  0.83118098  0.66640843  1
  I  I99  1  0.83797947  0.16923865  0.00003141  1
  I  I100  1  0.83445524  0.16926013  0.33338343  1
  I  I101  1  0.82761466  0.16772906  0.66666919  1
  I  I102  1  0.83316955  0.50310634  0.00036414  1
  I  I103  1  0.83352960  0.50354106  0.33343257  1
  I  I104  1  0.83480139  0.49771540  0.66623479  1
  I  I105  1  0.83326499  0.82708095  0.00346693  1
  I  I106  1  0.83410478  0.82585036  0.33041013  1
  I  I107  1  0.83396853  0.83311240  0.66636243  1
  I  I108  1  -0.00011592  0.16696947  0.16684221  1
  I  I109  1  0.00468266  0.16873577  0.50556180  1
  I  I110  1  0.00343755  0.16911643  0.82856738  1
  I  I111  1  -0.00290290  0.50373899  0.16932328  1
  I  I112  1  0.00057679  0.50010766  0.50009457  1
  I  I113  1  0.00064519  0.49516712  0.83005219  1
  I  I114  1  -0.00368269  0.82425116  0.16702863  1
  I  I115  1  0.00350940  0.83065343  0.49942001  1
  I  I116  1  0.00008389  0.83735486  0.83428542  1
  I  I117  1  0.33699875  0.17482544  0.16644249  1
  I  I118  1  0.32992091  0.17056923  0.50092038  1
  I  I119  1  0.33223536  0.17465547  0.83273794  1
  I  I120  1  0.33649713  0.49515930  0.17092959  1
  I  I121  1  0.33232519  0.49937631  0.49977680  1
  I  I122  1  0.33049965  0.49693520  0.82863412  1
  I  I123  1  0.33350342  0.83226662  0.16702377  1
  I  I124  1  0.32952753  0.83116766  0.49959638  1
  I  I125  1  0.33309376  0.82632980  0.83456480  1
  I  I126  1  0.66263911  0.17028858  0.16041993  1
  I  I127  1  0.66646277  0.16819597  0.49988498  1
  I  I128  1  0.66379242  0.17018620  0.83966486  1
  I  I129  1  0.66697396  0.49985065  0.16985270  1
  I  I130  1  0.66690146  0.49911025  0.49900662  1
  I  I131  1  0.66896086  0.49839134  0.83106320  1
  I  I132  1  0.66988004  0.82881419  0.16749562  1
  I  I133  1  0.66701725  0.83336475  0.49887904  1
  I  I134  1  0.66690856  0.83180507  0.83303428  1
