# generated using pymatgen
data_Cs27Sn14Pb13I81
_symmetry_space_group_name_H-M   'P 1'
_cell_length_a   18.97712304
_cell_length_b   18.97978404
_cell_length_c   18.97122440
_cell_angle_alpha   89.99950402
_cell_angle_beta   90.00080022
_cell_angle_gamma   89.99929617
_symmetry_Int_Tables_number   1
_chemical_formula_structural   Cs27Sn14Pb13I81
_chemical_formula_sum   'Cs27 Sn14 Pb13 I81'
_cell_volume   6833.08779389
_cell_formula_units_Z   1
loop_
 _symmetry_equiv_pos_site_id
 _symmetry_equiv_pos_as_xyz
  1  'x, y, z'
loop_
 _atom_site_type_symbol
 _atom_site_label
 _atom_site_symmetry_multiplicity
 _atom_site_fract_x
 _atom_site_fract_y
 _atom_site_fract_z
 _atom_site_occupancy
  Cs  Cs0  1  0.00202577  -0.00035398  0.00039141  1
  Cs  Cs1  1  -0.00250721  0.00131492  0.33656842  1
  Cs  Cs2  1  0.00132291  -0.00643009  0.65939055  1
  Cs  Cs3  1  0.00121158  0.33285274  0.00133555  1
  Cs  Cs4  1  0.00088855  0.33338738  0.33594023  1
  Cs  Cs5  1  -0.00267283  0.33615286  0.65813633  1
  Cs  Cs6  1  -0.00050053  0.66798425  -0.00186041  1
  Cs  Cs7  1  -0.00076271  0.66396331  0.33764890  1
  Cs  Cs8  1  -0.00756111  0.67042247  0.66176014  1
  Cs  Cs9  1  0.33037502  0.00325291  -0.00274148  1
  Cs  Cs10  1  0.33320695  -0.00116680  0.33555105  1
  Cs  Cs11  1  0.33346523  -0.00257980  0.66818917  1
  Cs  Cs12  1  0.33267624  0.33327941  -0.00031257  1
  Cs  Cs13  1  0.33258314  0.33452347  0.33232463  1
  Cs  Cs14  1  0.33557215  0.33346256  0.66869461  1
  Cs  Cs15  1  0.33218704  0.66351768  0.00059336  1
  Cs  Cs16  1  0.33633932  0.66788796  0.33400837  1
  Cs  Cs17  1  0.33177912  0.66825609  0.66629009  1
  Cs  Cs18  1  0.66833397  0.00314654  0.00045710  1
  Cs  Cs19  1  0.66774415  -0.00703885  0.33453048  1
  Cs  Cs20  1  0.66373106  0.00103022  0.66426534  1
  Cs  Cs21  1  0.66619042  0.33274281  -0.00050290  1
  Cs  Cs22  1  0.66621135  0.33274104  0.33222740  1
  Cs  Cs23  1  0.66584724  0.33378026  0.66835394  1
  Cs  Cs24  1  0.66986754  0.66835034  0.00211857  1
  Cs  Cs25  1  0.66301104  0.67956888  0.32965593  1
  Cs  Cs26  1  0.67295661  0.66479472  0.66744745  1
  Sn  Sn27  1  0.16643756  0.16678681  0.16608247  1
  Sn  Sn28  1  0.16577130  0.49983714  0.16576361  1
  Sn  Sn29  1  0.83361595  0.16772027  0.16562708  1
  Sn  Sn30  1  0.16573467  0.16780064  0.83341770  1
  Sn  Sn31  1  0.49943069  0.50010934  0.83277440  1
  Sn  Sn32  1  0.49993306  0.16694459  0.83350082  1
  Sn  Sn33  1  0.83399631  0.49905561  0.16657241  1
  Sn  Sn34  1  0.16663864  0.49915397  0.83351233  1
  Sn  Sn35  1  0.49966059  0.16782277  0.49999034  1
  Sn  Sn36  1  0.16677630  0.83328403  0.16652212  1
  Sn  Sn37  1  0.49993716  0.16677872  0.16693982  1
  Sn  Sn38  1  0.50019655  0.83284471  0.83410441  1
  Sn  Sn39  1  0.50016854  0.49918731  0.50070452  1
  Sn  Sn40  1  0.83432084  0.16694432  0.83363906  1
  Pb  Pb41  1  0.83055501  0.16684946  0.49977602  1
  Pb  Pb42  1  0.83094730  0.83673086  0.83368739  1
  Pb  Pb43  1  0.50001111  0.49849671  0.16631349  1
  Pb  Pb44  1  0.83315117  0.83336095  0.50004103  1
  Pb  Pb45  1  0.83384853  0.49782003  0.83509443  1
  Pb  Pb46  1  0.16887060  0.49980303  0.50055019  1
  Pb  Pb47  1  0.16704203  0.83315809  0.49701071  1
  Pb  Pb48  1  0.16916755  0.16685649  0.50056631  1
  Pb  Pb49  1  0.49764301  0.83665678  0.16395168  1
  Pb  Pb50  1  0.49979014  0.83300369  0.50291519  1
  Pb  Pb51  1  0.16812046  0.83296505  0.83473282  1
  Pb  Pb52  1  0.83620097  0.83382038  0.16631734  1
  Pb  Pb53  1  0.82960179  0.49971316  0.49621784  1
  I  I54  1  0.16827820  0.00213036  0.16211341  1
  I  I55  1  0.16989870  0.00031705  0.50063967  1
  I  I56  1  0.16928269  0.00343855  0.83859402  1
  I  I57  1  0.16687781  0.33262027  0.16278959  1
  I  I58  1  0.16596717  0.33326637  0.49452695  1
  I  I59  1  0.17409713  0.33257952  0.84279201  1
  I  I60  1  0.16292386  0.66512114  0.16185002  1
  I  I61  1  0.17103542  0.66632562  0.49966082  1
  I  I62  1  0.17418733  0.66334168  0.83948766  1
  I  I63  1  0.50117354  0.00521494  0.16707797  1
  I  I64  1  0.50021237  0.00315527  0.50018489  1
  I  I65  1  0.49976729  0.00246278  0.83402421  1
  I  I66  1  0.49647142  0.32996397  0.16266071  1
  I  I67  1  0.49931594  0.33231650  0.50508859  1
  I  I68  1  0.49919824  0.33215904  0.83271379  1
  I  I69  1  0.50037582  0.66676852  0.16759322  1
  I  I70  1  0.49913014  0.66341608  0.50308591  1
  I  I71  1  0.49362904  0.66516274  0.82872635  1
  I  I72  1  0.83252546  0.00389926  0.16300178  1
  I  I73  1  0.83044867  0.00064789  0.49779183  1
  I  I74  1  0.83323350  0.00532146  0.84141930  1
  I  I75  1  0.83698718  0.33175083  0.16297917  1
  I  I76  1  0.83449544  0.33329449  0.50090162  1
  I  I77  1  0.82695273  0.32967566  0.83641866  1
  I  I78  1  0.83632638  0.66370475  0.16704936  1
  I  I79  1  0.83062091  0.66608402  0.49880156  1
  I  I80  1  0.83218913  0.66641149  0.83492940  1
  I  I81  1  0.17148733  0.16708343  0.00050467  1
  I  I82  1  0.16692561  0.16706733  0.32966476  1
  I  I83  1  0.16770440  0.17157158  0.67068556  1
  I  I84  1  0.17056897  0.49833271  0.00041818  1
  I  I85  1  0.16452352  0.49865637  0.32973298  1
  I  I86  1  0.17089407  0.49326131  0.67053621  1
  I  I87  1  0.16839161  0.83499223  0.00282493  1
  I  I88  1  0.16830332  0.83490301  0.32840562  1
  I  I89  1  0.16857986  0.83467261  0.66703587  1
  I  I90  1  0.49981656  0.16684459  -0.00075484  1
  I  I91  1  0.49905849  0.17236213  0.33267112  1
  I  I92  1  0.50026674  0.16670666  0.66842250  1
  I  I93  1  0.49857365  0.49815316  -0.00306335  1
  I  I94  1  0.49970145  0.49341432  0.33502213  1
  I  I95  1  0.49436024  0.49414090  0.66862667  1
  I  I96  1  0.49961654  0.83257085  -0.00364813  1
  I  I97  1  0.49932062  0.83317140  0.33303032  1
  I  I98  1  0.49781054  0.84018889  0.67059835  1
  I  I99  1  0.82785460  0.16979398  0.00078415  1
  I  I100  1  0.83431839  0.16974019  0.32951625  1
  I  I101  1  0.83188610  0.16652316  0.66986818  1
  I  I102  1  0.83168788  0.49692620  0.00316738  1
  I  I103  1  0.84028396  0.49179062  0.32835780  1
  I  I104  1  0.83549906  0.49900646  0.66659732  1
  I  I105  1  0.83111128  0.83167583  0.00013040  1
  I  I106  1  0.83178007  0.83554018  0.33259077  1
  I  I107  1  0.83371172  0.83447359  0.66721889  1
  I  I108  1  0.00072091  0.16665118  0.15911635  1
  I  I109  1  -0.00002063  0.16508390  0.49996859  1
  I  I110  1  0.00108768  0.17151258  0.84377110  1
  I  I111  1  0.00153663  0.49525403  0.16092842  1
  I  I112  1  -0.00028480  0.50165769  0.50202992  1
  I  I113  1  0.00330336  0.49494098  0.83790942  1
  I  I114  1  0.00386309  0.83861546  0.16401208  1
  I  I115  1  0.00022292  0.83390063  0.50138406  1
  I  I116  1  0.00012900  0.83359326  0.83454784  1
  I  I117  1  0.33300714  0.16711185  0.16393704  1
  I  I118  1  0.33737159  0.17022258  0.49937995  1
  I  I119  1  0.33404696  0.16692401  0.83625022  1
  I  I120  1  0.33055909  0.49853938  0.16594968  1
  I  I121  1  0.33683096  0.49486536  0.49884917  1
  I  I122  1  0.33385579  0.49503058  0.83615096  1
  I  I123  1  0.33011976  0.83187802  0.16576044  1
  I  I124  1  0.33384769  0.83428872  0.49887761  1
  I  I125  1  0.33620569  0.83924465  0.83465413  1
  I  I126  1  0.66649371  0.17219512  0.16297044  1
  I  I127  1  0.66224455  0.17056544  0.50108610  1
  I  I128  1  0.66514619  0.16639894  0.83646512  1
  I  I129  1  0.66861308  0.49338853  0.16639965  1
  I  I130  1  0.66192633  0.49358898  0.50739952  1
  I  I131  1  0.66365046  0.49837640  0.83098877  1
  I  I132  1  0.66648567  0.83264468  0.16731534  1
  I  I133  1  0.66584330  0.83440085  0.49758306  1
  I  I134  1  0.66246591  0.83266399  0.83368063  1
