# generated using pymatgen
data_Cs27Sn14Pb13I81
_symmetry_space_group_name_H-M   'P 1'
_cell_length_a   18.97981172
_cell_length_b   18.97193669
_cell_length_c   18.97551798
_cell_angle_alpha   89.99938959
_cell_angle_beta   90.00198555
_cell_angle_gamma   90.00024517
_symmetry_Int_Tables_number   1
_chemical_formula_structural   Cs27Sn14Pb13I81
_chemical_formula_sum   'Cs27 Sn14 Pb13 I81'
_cell_volume   6832.77636036
_cell_formula_units_Z   1
loop_
 _symmetry_equiv_pos_site_id
 _symmetry_equiv_pos_as_xyz
  1  'x, y, z'
loop_
 _atom_site_type_symbol
 _atom_site_label
 _atom_site_symmetry_multiplicity
 _atom_site_fract_x
 _atom_site_fract_y
 _atom_site_fract_z
 _atom_site_occupancy
  Cs  Cs0  1  0.00790614  -0.00730733  -0.00537219  1
  Cs  Cs1  1  0.00169908  -0.00125399  0.33202876  1
  Cs  Cs2  1  -0.00055311  0.00216561  0.67131184  1
  Cs  Cs3  1  0.00052423  0.33069286  0.00078877  1
  Cs  Cs4  1  0.00143774  0.33343139  0.33382553  1
  Cs  Cs5  1  -0.00286243  0.33612321  0.66617301  1
  Cs  Cs6  1  -0.00235794  0.67655169  -0.00236784  1
  Cs  Cs7  1  0.00066119  0.66747187  0.33535861  1
  Cs  Cs8  1  0.00037718  0.66429653  0.66521629  1
  Cs  Cs9  1  0.32633667  0.00315417  -0.00098244  1
  Cs  Cs10  1  0.33395965  -0.00009366  0.33488890  1
  Cs  Cs11  1  0.33501550  0.00128622  0.66610275  1
  Cs  Cs12  1  0.33057594  0.33143854  0.00335758  1
  Cs  Cs13  1  0.32879739  0.33634769  0.32984867  1
  Cs  Cs14  1  0.33433879  0.33302457  0.66790378  1
  Cs  Cs15  1  0.33657445  0.66541505  0.00011170  1
  Cs  Cs16  1  0.33407794  0.66433749  0.33477166  1
  Cs  Cs17  1  0.33476545  0.66677113  0.66496779  1
  Cs  Cs18  1  0.66827382  -0.00080068  0.00153739  1
  Cs  Cs19  1  0.66588298  0.00097547  0.33372891  1
  Cs  Cs20  1  0.66610178  0.00838360  0.66582098  1
  Cs  Cs21  1  0.66637319  0.33540506  0.00254017  1
  Cs  Cs22  1  0.66761706  0.33111464  0.33097294  1
  Cs  Cs23  1  0.66723367  0.32953380  0.66661635  1
  Cs  Cs24  1  0.66576558  0.66571625  -0.00029698  1
  Cs  Cs25  1  0.66602099  0.66755233  0.33357036  1
  Cs  Cs26  1  0.66483007  0.66616423  0.66593316  1
  Sn  Sn27  1  0.50060002  0.16570483  0.16678875  1
  Sn  Sn28  1  0.83343109  0.49968099  0.16682784  1
  Sn  Sn29  1  0.16659485  0.16601419  0.50018475  1
  Sn  Sn30  1  0.50006832  0.83442897  0.16662803  1
  Sn  Sn31  1  0.50037064  0.83311725  0.83293578  1
  Sn  Sn32  1  0.83206269  0.50060738  0.49965813  1
  Sn  Sn33  1  0.83281304  0.83304444  0.50019385  1
  Sn  Sn34  1  0.83314250  0.50014196  0.83338748  1
  Sn  Sn35  1  0.50058387  0.83295063  0.50033842  1
  Sn  Sn36  1  0.49995744  0.50045892  0.83250758  1
  Sn  Sn37  1  0.83325329  0.16650586  0.16635425  1
  Sn  Sn38  1  0.50100040  0.50023930  0.50053239  1
  Sn  Sn39  1  0.16687792  0.50025285  0.83368739  1
  Sn  Sn40  1  0.16671933  0.83437318  0.50019344  1
  Pb  Pb41  1  0.16935107  0.83109188  0.83054232  1
  Pb  Pb42  1  0.16607260  0.16654939  0.16845209  1
  Pb  Pb43  1  0.16682135  0.50039899  0.50133131  1
  Pb  Pb44  1  0.50011927  0.16697102  0.83617676  1
  Pb  Pb45  1  0.83520531  0.16685318  0.49812388  1
  Pb  Pb46  1  0.50143620  0.50018447  0.16685018  1
  Pb  Pb47  1  0.83072937  0.83136592  0.83044661  1
  Pb  Pb48  1  0.16976992  0.83296561  0.16897907  1
  Pb  Pb49  1  0.16283469  0.50043399  0.16342322  1
  Pb  Pb50  1  0.16669053  0.16904763  0.83055940  1
  Pb  Pb51  1  0.83155410  0.83337272  0.16853065  1
  Pb  Pb52  1  0.49845622  0.16735882  0.49791197  1
  Pb  Pb53  1  0.83327841  0.16884673  0.83659936  1
  I  I54  1  0.16213375  -0.00021721  0.16480212  1
  I  I55  1  0.16804129  -0.00142643  0.49836714  1
  I  I56  1  0.16805400  -0.00045124  0.83461461  1
  I  I57  1  0.17260348  0.33352970  0.17034680  1
  I  I58  1  0.16671616  0.33182987  0.50110592  1
  I  I59  1  0.16954117  0.33729989  0.83025148  1
  I  I60  1  0.16756944  0.66659416  0.17085004  1
  I  I61  1  0.16750116  0.66926396  0.50143749  1
  I  I62  1  0.16382043  0.66326085  0.83014008  1
  I  I63  1  0.50661174  -0.00070790  0.16882263  1
  I  I64  1  0.50208787  -0.00325014  0.50213259  1
  I  I65  1  0.49977433  -0.00320185  0.82892128  1
  I  I66  1  0.50242584  0.33157661  0.16726836  1
  I  I67  1  0.50311800  0.33674779  0.50374435  1
  I  I68  1  0.50071391  0.33726135  0.82900334  1
  I  I69  1  0.50120475  0.66914648  0.16764189  1
  I  I70  1  0.49822325  0.66723506  0.49814270  1
  I  I71  1  0.50012904  0.66567547  0.83428584  1
  I  I72  1  0.82902850  0.00222122  0.17164242  1
  I  I73  1  0.82985747  -0.00286948  0.49704464  1
  I  I74  1  0.83192102  -0.00039039  0.83275942  1
  I  I75  1  0.82635901  0.33433259  0.16828498  1
  I  I76  1  0.83082004  0.33690086  0.50216764  1
  I  I77  1  0.82994398  0.33809803  0.82660411  1
  I  I78  1  0.83150567  0.66378358  0.16532416  1
  I  I79  1  0.83446392  0.66554176  0.49765769  1
  I  I80  1  0.83532874  0.66259850  0.83892280  1
  I  I81  1  0.16722458  0.16899981  -0.00003827  1
  I  I82  1  0.16736238  0.16440293  0.33634450  1
  I  I83  1  0.16755841  0.16175171  0.66282850  1
  I  I84  1  0.17152148  0.49864347  -0.00442281  1
  I  I85  1  0.16755986  0.49937602  0.33353678  1
  I  I86  1  0.16311548  0.50026885  0.66905959  1
  I  I87  1  0.16698099  0.83239720  -0.00053579  1
  I  I88  1  0.16829981  0.83511166  0.33755161  1
  I  I89  1  0.16869398  0.83590816  0.66250642  1
  I  I90  1  0.50378934  0.16421281  0.00411157  1
  I  I91  1  0.50355456  0.16311222  0.33028006  1
  I  I92  1  0.49807611  0.16511274  0.66651019  1
  I  I93  1  0.50112481  0.50328596  -0.00261233  1
  I  I94  1  0.50395747  0.50329206  0.33614560  1
  I  I95  1  0.50359457  0.50771916  0.66635207  1
  I  I96  1  0.50151130  0.83080626  -0.00020981  1
  I  I97  1  0.49994445  0.83273301  0.33472483  1
  I  I98  1  0.49886900  0.82648266  0.66544320  1
  I  I99  1  0.82794417  0.17317191  0.00458005  1
  I  I100  1  0.82928769  0.17347454  0.33052486  1
  I  I101  1  0.83489748  0.16744500  0.66645523  1
  I  I102  1  0.83187081  0.49385579  -0.00027948  1
  I  I103  1  0.82764866  0.49999142  0.33446307  1
  I  I104  1  0.83341102  0.50535393  0.66611536  1
  I  I105  1  0.83120178  0.83193309  -0.00014979  1
  I  I106  1  0.83094489  0.82723853  0.33683042  1
  I  I107  1  0.83229670  0.82734428  0.66218969  1
  I  I108  1  -0.00309752  0.17472779  0.16970623  1
  I  I109  1  0.00282517  0.16388772  0.49714636  1
  I  I110  1  -0.00005109  0.16893723  0.83507172  1
  I  I111  1  -0.00532348  0.49274202  0.17068174  1
  I  I112  1  -0.00285619  0.50253575  0.50079028  1
  I  I113  1  -0.00107197  0.49732076  0.83136731  1
  I  I114  1  -0.00020461  0.83322990  0.16860663  1
  I  I115  1  -0.00051702  0.83127218  0.49835584  1
  I  I116  1  -0.00007302  0.83164884  0.83259693  1
  I  I117  1  0.33606664  0.16259942  0.16779896  1
  I  I118  1  0.33083129  0.16332591  0.49747380  1
  I  I119  1  0.33355528  0.17029349  0.83606392  1
  I  I120  1  0.33348117  0.49898579  0.16759561  1
  I  I121  1  0.33622919  0.50290604  0.50404328  1
  I  I122  1  0.33499122  0.50405073  0.82665569  1
  I  I123  1  0.33831259  0.83852296  0.16844058  1
  I  I124  1  0.33489728  0.83264373  0.49961537  1
  I  I125  1  0.33736304  0.82652629  0.83176675  1
  I  I126  1  0.66649023  0.16786192  0.16876504  1
  I  I127  1  0.66670066  0.16501297  0.49998828  1
  I  I128  1  0.66657595  0.16884981  0.82927561  1
  I  I129  1  0.66943119  0.49913079  0.16364933  1
  I  I130  1  0.66670848  0.50745350  0.50383204  1
  I  I131  1  0.66631067  0.50425346  0.83277933  1
  I  I132  1  0.66329047  0.83339194  0.16980902  1
  I  I133  1  0.66553124  0.82686173  0.49890424  1
  I  I134  1  0.66269589  0.82636017  0.83212686  1
