# generated using pymatgen
data_Cs27Sn14Pb13I81
_symmetry_space_group_name_H-M   'P 1'
_cell_length_a   18.96322508
_cell_length_b   18.97921786
_cell_length_c   18.98405429
_cell_angle_alpha   90.00031525
_cell_angle_beta   89.99964256
_cell_angle_gamma   90.00024914
_symmetry_Int_Tables_number   1
_chemical_formula_structural   Cs27Sn14Pb13I81
_chemical_formula_sum   'Cs27 Sn14 Pb13 I81'
_cell_volume   6832.49744530
_cell_formula_units_Z   1
loop_
 _symmetry_equiv_pos_site_id
 _symmetry_equiv_pos_as_xyz
  1  'x, y, z'
loop_
 _atom_site_type_symbol
 _atom_site_label
 _atom_site_symmetry_multiplicity
 _atom_site_fract_x
 _atom_site_fract_y
 _atom_site_fract_z
 _atom_site_occupancy
  Cs  Cs0  1  -0.00051320  -0.00077367  0.00009057  1
  Cs  Cs1  1  0.00260637  -0.00170243  0.33189994  1
  Cs  Cs2  1  0.00115239  -0.00497121  0.66757254  1
  Cs  Cs3  1  0.00197275  0.33036294  -0.00225080  1
  Cs  Cs4  1  -0.00329557  0.33395374  0.33533929  1
  Cs  Cs5  1  -0.00171556  0.33528877  0.66631416  1
  Cs  Cs6  1  0.00057092  0.66919404  -0.00584427  1
  Cs  Cs7  1  -0.00069066  0.66804827  0.33631377  1
  Cs  Cs8  1  -0.00025803  0.66774290  0.66816396  1
  Cs  Cs9  1  0.33290075  0.00195730  -0.00027031  1
  Cs  Cs10  1  0.33119687  0.00207681  0.33499161  1
  Cs  Cs11  1  0.33800845  0.00007480  0.66534131  1
  Cs  Cs12  1  0.33061569  0.33486757  0.00265871  1
  Cs  Cs13  1  0.33194860  0.33327578  0.33150644  1
  Cs  Cs14  1  0.33305774  0.33691767  0.66698778  1
  Cs  Cs15  1  0.33509430  0.66415711  -0.00046761  1
  Cs  Cs16  1  0.33443178  0.66549915  0.33399313  1
  Cs  Cs17  1  0.33375294  0.66444227  0.66697140  1
  Cs  Cs18  1  0.66793771  0.00083620  -0.00179637  1
  Cs  Cs19  1  0.66511217  -0.00044557  0.33314672  1
  Cs  Cs20  1  0.65707993  0.00616234  0.66769340  1
  Cs  Cs21  1  0.66895449  0.33220367  0.00052968  1
  Cs  Cs22  1  0.67743087  0.33636543  0.33429331  1
  Cs  Cs23  1  0.66810404  0.32825610  0.66552519  1
  Cs  Cs24  1  0.66443207  0.66699072  0.00617545  1
  Cs  Cs25  1  0.66614367  0.66444330  0.32329102  1
  Cs  Cs26  1  0.66819715  0.66629784  0.66743287  1
  Sn  Sn27  1  0.16699010  0.16675914  0.16687498  1
  Sn  Sn28  1  0.16680989  0.83300721  0.16658281  1
  Sn  Sn29  1  0.16718661  0.50013347  0.49903622  1
  Sn  Sn30  1  0.16640969  0.50016806  0.16784730  1
  Sn  Sn31  1  0.83174313  0.50073939  0.83323502  1
  Sn  Sn32  1  0.16677859  0.16541339  0.83283805  1
  Sn  Sn33  1  0.16671334  0.83438857  0.83303117  1
  Sn  Sn34  1  0.50169153  0.50005376  0.83267332  1
  Sn  Sn35  1  0.49952010  0.16699597  0.16700634  1
  Sn  Sn36  1  0.16652941  0.83322856  0.50028644  1
  Sn  Sn37  1  0.83355366  0.83262777  0.83191988  1
  Sn  Sn38  1  0.83342020  0.83333036  0.50100946  1
  Sn  Sn39  1  0.49983640  0.50013756  0.50042205  1
  Sn  Sn40  1  0.16665301  0.16673523  0.50033940  1
  Pb  Pb41  1  0.83381020  0.16650139  0.16682545  1
  Pb  Pb42  1  0.49720316  0.16946034  0.83515437  1
  Pb  Pb43  1  0.50013822  0.83094974  0.49995385  1
  Pb  Pb44  1  0.83682151  0.50015087  0.16350832  1
  Pb  Pb45  1  0.49711635  0.83607125  0.16669935  1
  Pb  Pb46  1  0.83550565  0.16577018  0.83307894  1
  Pb  Pb47  1  0.83349272  0.50221448  0.50182249  1
  Pb  Pb48  1  0.50012600  0.83136312  0.83327189  1
  Pb  Pb49  1  0.83585759  0.16309158  0.50022892  1
  Pb  Pb50  1  0.49813710  0.49792418  0.16704048  1
  Pb  Pb51  1  0.83548630  0.83336003  0.16646848  1
  Pb  Pb52  1  0.49784524  0.16965705  0.49765893  1
  Pb  Pb53  1  0.16652916  0.50026352  0.83298955  1
  I  I54  1  0.16962603  0.00005962  0.16855357  1
  I  I55  1  0.16161189  -0.00039712  0.49729535  1
  I  I56  1  0.16103326  -0.00093924  0.83472045  1
  I  I57  1  0.17087386  0.33295017  0.16726359  1
  I  I58  1  0.17195615  0.33373371  0.49781753  1
  I  I59  1  0.16731133  0.33146223  0.83465337  1
  I  I60  1  0.16543074  0.66681652  0.16843177  1
  I  I61  1  0.16666091  0.66680891  0.49780680  1
  I  I62  1  0.16577763  0.66920334  0.83384252  1
  I  I63  1  0.49248968  0.00372660  0.16639174  1
  I  I64  1  0.49949038  0.00026665  0.49893646  1
  I  I65  1  0.50187580  0.00032120  0.83485877  1
  I  I66  1  0.48906871  0.33060673  0.16528794  1
  I  I67  1  0.49266590  0.33735789  0.50458151  1
  I  I68  1  0.50317256  0.33729610  0.82931487  1
  I  I69  1  0.49829211  0.66625541  0.16648974  1
  I  I70  1  0.49133237  0.66312008  0.50335673  1
  I  I71  1  0.49609195  0.66328191  0.83063465  1
  I  I72  1  0.83584121  -0.00021336  0.16416078  1
  I  I73  1  0.84064930  -0.00483264  0.50599823  1
  I  I74  1  0.83845546  -0.00367843  0.83108167  1
  I  I75  1  0.83700262  0.33353462  0.16509619  1
  I  I76  1  0.83455031  0.33350834  0.50088570  1
  I  I77  1  0.83228000  0.33593993  0.83434988  1
  I  I78  1  0.83440542  0.66669816  0.16843115  1
  I  I79  1  0.84217420  0.66981047  0.50285827  1
  I  I80  1  0.83862188  0.66755966  0.82967551  1
  I  I81  1  0.16959981  0.16548255  0.00034966  1
  I  I82  1  0.17042375  0.16434041  0.33322388  1
  I  I83  1  0.16497495  0.16528504  0.66644095  1
  I  I84  1  0.16668737  0.49925038  0.00188687  1
  I  I85  1  0.17256709  0.50020803  0.33431528  1
  I  I86  1  0.16744825  0.49961924  0.66414739  1
  I  I87  1  0.16304153  0.83550712  -0.00046555  1
  I  I88  1  0.16339949  0.83522479  0.33386543  1
  I  I89  1  0.16250414  0.83469336  0.66659137  1
  I  I90  1  0.49111208  0.16883364  0.00273364  1
  I  I91  1  0.49041914  0.16723563  0.33021868  1
  I  I92  1  0.49821651  0.16597630  0.66650404  1
  I  I93  1  0.50096126  0.49928214  -0.00232881  1
  I  I94  1  0.49481987  0.49986690  0.33594382  1
  I  I95  1  0.49443797  0.50075413  0.66645531  1
  I  I96  1  0.49883029  0.82967544  -0.00004880  1
  I  I97  1  0.50077478  0.82993749  0.33335445  1
  I  I98  1  0.49384536  0.83505407  0.66663759  1
  I  I99  1  0.83728672  0.16565101  -0.00020223  1
  I  I100  1  0.83587486  0.16646044  0.33360463  1
  I  I101  1  0.83570312  0.17017776  0.66669660  1
  I  I102  1  0.82901268  0.50680328  -0.00434441  1
  I  I103  1  0.83085338  0.50113264  0.33343879  1
  I  I104  1  0.83670434  0.50263082  0.66970820  1
  I  I105  1  0.83923011  0.82963483  -0.00346045  1
  I  I106  1  0.83944895  0.83384946  0.33628403  1
  I  I107  1  0.84601632  0.82763006  0.66743910  1
  I  I108  1  0.00479732  0.16608115  0.16615352  1
  I  I109  1  0.00510854  0.17315625  0.49672626  1
  I  I110  1  0.00439455  0.16886186  0.83701440  1
  I  I111  1  0.00519757  0.49686144  0.17220400  1
  I  I112  1  0.00350945  0.49801753  0.49743235  1
  I  I113  1  -0.00163436  0.50123917  0.83420535  1
  I  I114  1  0.00465035  0.83647256  0.16657700  1
  I  I115  1  0.00276459  0.83120667  0.50047885  1
  I  I116  1  0.00169894  0.83037033  0.83317628  1
  I  I117  1  0.32997791  0.16670744  0.16614864  1
  I  I118  1  0.32876051  0.16100875  0.50161299  1
  I  I119  1  0.32870333  0.16210733  0.83180942  1
  I  I120  1  0.32943894  0.50174012  0.16470769  1
  I  I121  1  0.33113282  0.50197956  0.50289107  1
  I  I122  1  0.33468291  0.49923109  0.83275613  1
  I  I123  1  0.32804475  0.83069931  0.16682398  1
  I  I124  1  0.32927431  0.83518379  0.50019410  1
  I  I125  1  0.32962067  0.83556184  0.83287049  1
  I  I126  1  0.66369546  0.16852948  0.16559759  1
  I  I127  1  0.66647697  0.16681414  0.49755971  1
  I  I128  1  0.66638318  0.16441594  0.83654777  1
  I  I129  1  0.66670100  0.49736040  0.16929253  1
  I  I130  1  0.66423398  0.50147889  0.50274623  1
  I  I131  1  0.66668898  0.50558042  0.82795480  1
  I  I132  1  0.66669793  0.83478539  0.16676095  1
  I  I133  1  0.66982984  0.83148145  0.50656716  1
  I  I134  1  0.67010029  0.83059525  0.82802020  1
