# generated using pymatgen
data_Cs27Sn13Pb14I81
_symmetry_space_group_name_H-M   'P 1'
_cell_length_a   18.97964180
_cell_length_b   18.97035762
_cell_length_c   18.97880785
_cell_angle_alpha   89.99902275
_cell_angle_beta   89.99780106
_cell_angle_gamma   90.00266113
_symmetry_Int_Tables_number   1
_chemical_formula_structural   Cs27Sn13Pb14I81
_chemical_formula_sum   'Cs27 Sn13 Pb14 I81'
_cell_volume   6833.33099704
_cell_formula_units_Z   1
loop_
 _symmetry_equiv_pos_site_id
 _symmetry_equiv_pos_as_xyz
  1  'x, y, z'
loop_
 _atom_site_type_symbol
 _atom_site_label
 _atom_site_symmetry_multiplicity
 _atom_site_fract_x
 _atom_site_fract_y
 _atom_site_fract_z
 _atom_site_occupancy
  Cs  Cs0  1  -0.00357763  0.00208505  -0.00139211  1
  Cs  Cs1  1  0.00545590  0.00139039  0.33079906  1
  Cs  Cs2  1  -0.00279476  -0.00260046  0.67097678  1
  Cs  Cs3  1  -0.00547532  0.33100578  0.00308738  1
  Cs  Cs4  1  0.00334955  0.33280031  0.33463652  1
  Cs  Cs5  1  0.00237528  0.33641968  0.66138317  1
  Cs  Cs6  1  0.00137495  0.66655552  0.00183915  1
  Cs  Cs7  1  -0.00072241  0.66561213  0.33350686  1
  Cs  Cs8  1  0.00037391  0.66698387  0.66526526  1
  Cs  Cs9  1  0.33397197  -0.00098640  -0.00100994  1
  Cs  Cs10  1  0.33257955  -0.00064733  0.33339438  1
  Cs  Cs11  1  0.33298655  0.00115694  0.66717825  1
  Cs  Cs12  1  0.33484137  0.33430312  -0.00103643  1
  Cs  Cs13  1  0.33421607  0.33158520  0.33439898  1
  Cs  Cs14  1  0.33313290  0.33341620  0.66697277  1
  Cs  Cs15  1  0.33312260  0.66718278  -0.00410039  1
  Cs  Cs16  1  0.33333874  0.66993684  0.33051551  1
  Cs  Cs17  1  0.33119470  0.66663217  0.67945272  1
  Cs  Cs18  1  0.67000261  0.00067979  -0.00195331  1
  Cs  Cs19  1  0.66338616  -0.00137243  0.33580274  1
  Cs  Cs20  1  0.67042223  -0.00294710  0.66522266  1
  Cs  Cs21  1  0.66773856  0.33339037  0.00010281  1
  Cs  Cs22  1  0.66515122  0.33374314  0.33397220  1
  Cs  Cs23  1  0.66446900  0.33183658  0.66454527  1
  Cs  Cs24  1  0.66478533  0.66371658  0.00178547  1
  Cs  Cs25  1  0.66827115  0.66786483  0.33376653  1
  Cs  Cs26  1  0.66882978  0.67392746  0.66513256  1
  Sn  Sn27  1  0.83398901  0.83292342  0.16695033  1
  Sn  Sn28  1  0.16677375  0.16715978  0.83359645  1
  Sn  Sn29  1  0.50000085  0.16722487  0.16664571  1
  Sn  Sn30  1  0.50073618  0.16732702  0.49995114  1
  Sn  Sn31  1  0.83315029  0.16686615  0.49952345  1
  Sn  Sn32  1  0.83309000  0.50000265  0.83322953  1
  Sn  Sn33  1  0.16574894  0.83257916  0.16735462  1
  Sn  Sn34  1  0.49972949  0.49915086  0.16764360  1
  Sn  Sn35  1  0.49968875  0.50018362  0.49960546  1
  Sn  Sn36  1  0.49955484  0.16696707  0.83325294  1
  Sn  Sn37  1  0.83333788  0.50057118  0.16625198  1
  Sn  Sn38  1  0.16687294  0.50029214  0.16680152  1
  Sn  Sn39  1  0.16711223  0.83291397  0.49976199  1
  Pb  Pb40  1  0.50038338  0.83639258  0.83329722  1
  Pb  Pb41  1  0.49758586  0.83286936  0.50007166  1
  Pb  Pb42  1  0.16649498  0.83535464  0.83432208  1
  Pb  Pb43  1  0.83299372  0.16871640  0.83103382  1
  Pb  Pb44  1  0.16427773  0.49759814  0.83606593  1
  Pb  Pb45  1  0.16899233  0.16656947  0.16492306  1
  Pb  Pb46  1  0.16723318  0.16501967  0.50191300  1
  Pb  Pb47  1  0.83138457  0.49876826  0.49931226  1
  Pb  Pb48  1  0.50190940  0.49824348  0.83322763  1
  Pb  Pb49  1  0.83097694  0.16684086  0.16872012  1
  Pb  Pb50  1  0.83562464  0.83563840  0.49729720  1
  Pb  Pb51  1  0.83347200  0.83027055  0.83613798  1
  Pb  Pb52  1  0.16975670  0.50230080  0.49798142  1
  Pb  Pb53  1  0.49991678  0.83284414  0.16657238  1
  I  I54  1  0.16381982  -0.00265929  0.16867490  1
  I  I55  1  0.16822148  -0.00259920  0.49227530  1
  I  I56  1  0.17124022  0.00326785  0.83500641  1
  I  I57  1  0.16424883  0.33613264  0.16447723  1
  I  I58  1  0.16512347  0.33343527  0.49946050  1
  I  I59  1  0.17192451  0.33008160  0.83337456  1
  I  I60  1  0.16772695  0.66625451  0.17035950  1
  I  I61  1  0.16655746  0.66992075  0.49735062  1
  I  I62  1  0.16578924  0.66637281  0.83147558  1
  I  I63  1  0.49968563  0.00297812  0.16731009  1
  I  I64  1  0.50245029  0.00346579  0.49907030  1
  I  I65  1  0.49659716  0.00532524  0.83434387  1
  I  I66  1  0.50008062  0.33400839  0.16725981  1
  I  I67  1  0.50305014  0.33219587  0.49829965  1
  I  I68  1  0.49710420  0.32996762  0.83373909  1
  I  I69  1  0.50087653  0.66302614  0.17189486  1
  I  I70  1  0.50020343  0.66342171  0.49189302  1
  I  I71  1  0.50051698  0.66609469  0.83338959  1
  I  I72  1  0.83724409  -0.00221818  0.16898725  1
  I  I73  1  0.82549814  0.00347014  0.50002469  1
  I  I74  1  0.83302165  0.00023747  0.83397508  1
  I  I75  1  0.83506985  0.33644557  0.16388540  1
  I  I76  1  0.83156781  0.33063778  0.49827491  1
  I  I77  1  0.83299200  0.33609148  0.84241249  1
  I  I78  1  0.83187578  0.66538060  0.16336973  1
  I  I79  1  0.83182309  0.66669213  0.50211675  1
  I  I80  1  0.83295633  0.66242977  0.83412031  1
  I  I81  1  0.17207542  0.16559305  -0.00264538  1
  I  I82  1  0.16733228  0.16734086  0.33312089  1
  I  I83  1  0.17195744  0.16485574  0.66950333  1
  I  I84  1  0.17247861  0.50620939  0.00436868  1
  I  I85  1  0.16163969  0.49953986  0.32943174  1
  I  I86  1  0.16623036  0.50114568  0.66673671  1
  I  I87  1  0.16368131  0.83012873  0.00375387  1
  I  I88  1  0.16364944  0.83172722  0.33161511  1
  I  I89  1  0.16883132  0.83670613  0.66449618  1
  I  I90  1  0.49529439  0.17044248  0.00046957  1
  I  I91  1  0.50436067  0.17077954  0.33342584  1
  I  I92  1  0.49931441  0.17099493  0.66597711  1
  I  I93  1  0.49923830  0.49618210  0.00333661  1
  I  I94  1  0.50177027  0.49117290  0.33181284  1
  I  I95  1  0.50175119  0.49459968  0.66409380  1
  I  I96  1  0.49745064  0.83361863  0.00039836  1
  I  I97  1  0.50069909  0.83875106  0.33314111  1
  I  I98  1  0.49744659  0.83186274  0.66642870  1
  I  I99  1  0.83217322  0.16486438  0.00026308  1
  I  I100  1  0.82783546  0.16828491  0.33622097  1
  I  I101  1  0.82791645  0.16856882  0.66352328  1
  I  I102  1  0.83119750  0.50196505  0.00233147  1
  I  I103  1  0.83399780  0.50262193  0.32978078  1
  I  I104  1  0.83122299  0.49525564  0.66843554  1
  I  I105  1  0.83983895  0.83471233  0.00430069  1
  I  I106  1  0.83426769  0.82615053  0.32954532  1
  I  I107  1  0.83462965  0.83294957  0.66640712  1
  I  I108  1  -0.00003975  0.16877872  0.16659492  1
  I  I109  1  -0.00195263  0.16550620  0.50140683  1
  I  I110  1  0.00192838  0.16704478  0.83252269  1
  I  I111  1  -0.00027551  0.50458111  0.16180096  1
  I  I112  1  0.00013703  0.49772235  0.49949623  1
  I  I113  1  -0.00332619  0.49671795  0.83878415  1
  I  I114  1  0.00044913  0.82583283  0.17041293  1
  I  I115  1  0.00324905  0.83548417  0.49734155  1
  I  I116  1  -0.00000063  0.83817395  0.83138692  1
  I  I117  1  0.33709764  0.17006726  0.17115151  1
  I  I118  1  0.33672549  0.16879047  0.49840866  1
  I  I119  1  0.33475489  0.16715254  0.83184591  1
  I  I120  1  0.33393503  0.49951321  0.17144865  1
  I  I121  1  0.33754058  0.49174606  0.49450087  1
  I  I122  1  0.33341441  0.50046196  0.83399403  1
  I  I123  1  0.33036227  0.83143028  0.17018097  1
  I  I124  1  0.33008966  0.83646989  0.49102918  1
  I  I125  1  0.33316503  0.83082442  0.83570411  1
  I  I126  1  0.66288774  0.17043082  0.16242043  1
  I  I127  1  0.66475642  0.17001136  0.50134803  1
  I  I128  1  0.66368020  0.16876749  0.83535937  1
  I  I129  1  0.66649222  0.49971017  0.16593836  1
  I  I130  1  0.66333832  0.49666128  0.49408513  1
  I  I131  1  0.66936576  0.49653653  0.84082498  1
  I  I132  1  0.66926121  0.83036110  0.16577830  1
  I  I133  1  0.66670228  0.83315363  0.49889641  1
  I  I134  1  0.66712781  0.83592865  0.83455372  1
