# generated using pymatgen
data_Cs27Sn14Pb13I81
_symmetry_space_group_name_H-M   'P 1'
_cell_length_a   18.97196993
_cell_length_b   18.98130157
_cell_length_c   18.97260774
_cell_angle_alpha   90.00012803
_cell_angle_beta   89.99898451
_cell_angle_gamma   90.00086658
_symmetry_Int_Tables_number   1
_chemical_formula_structural   Cs27Sn14Pb13I81
_chemical_formula_sum   'Cs27 Sn14 Pb13 I81'
_cell_volume   6832.27666748
_cell_formula_units_Z   1
loop_
 _symmetry_equiv_pos_site_id
 _symmetry_equiv_pos_as_xyz
  1  'x, y, z'
loop_
 _atom_site_type_symbol
 _atom_site_label
 _atom_site_symmetry_multiplicity
 _atom_site_fract_x
 _atom_site_fract_y
 _atom_site_fract_z
 _atom_site_occupancy
  Cs  Cs0  1  0.00062243  -0.00111137  -0.00105001  1
  Cs  Cs1  1  -0.00159163  -0.00187565  0.34248070  1
  Cs  Cs2  1  -0.00011773  0.00834101  0.66046210  1
  Cs  Cs3  1  0.00181388  0.33356277  0.00133369  1
  Cs  Cs4  1  0.00864333  0.33569423  0.33758439  1
  Cs  Cs5  1  -0.00301811  0.32684316  0.65940652  1
  Cs  Cs6  1  -0.00082495  0.66659312  -0.00161891  1
  Cs  Cs7  1  -0.00089674  0.66560708  0.34315391  1
  Cs  Cs8  1  0.00098326  0.66607078  0.66623646  1
  Cs  Cs9  1  0.33144431  -0.00233756  0.00018828  1
  Cs  Cs10  1  0.33655580  0.00052098  0.33285500  1
  Cs  Cs11  1  0.33241814  -0.00184415  0.66674830  1
  Cs  Cs12  1  0.33077684  0.33190858  0.00004225  1
  Cs  Cs13  1  0.33048756  0.33416175  0.33046740  1
  Cs  Cs14  1  0.33666191  0.32980816  0.67174046  1
  Cs  Cs15  1  0.33244448  0.66747345  -0.00179699  1
  Cs  Cs16  1  0.33408735  0.66543058  0.33291968  1
  Cs  Cs17  1  0.33343827  0.66871658  0.66957586  1
  Cs  Cs18  1  0.66831946  -0.00028404  0.00327869  1
  Cs  Cs19  1  0.66517954  -0.00074298  0.33001779  1
  Cs  Cs20  1  0.66657006  0.00441796  0.66723589  1
  Cs  Cs21  1  0.66693985  0.33497945  0.00032894  1
  Cs  Cs22  1  0.66516350  0.33374153  0.33106983  1
  Cs  Cs23  1  0.66735484  0.33127125  0.66878816  1
  Cs  Cs24  1  0.66854671  0.66591108  0.00043316  1
  Cs  Cs25  1  0.66709593  0.66674837  0.33144666  1
  Cs  Cs26  1  0.66595882  0.66429953  0.66862326  1
  Sn  Sn27  1  0.50025109  0.83309138  0.49981813  1
  Sn  Sn28  1  0.49922797  0.83307269  0.16645086  1
  Sn  Sn29  1  0.50041422  0.50014105  0.16707574  1
  Sn  Sn30  1  0.50055561  0.16686416  0.16712519  1
  Sn  Sn31  1  0.83366493  0.83296876  0.83331038  1
  Sn  Sn32  1  0.83326890  0.16791800  0.16652651  1
  Sn  Sn33  1  0.16518962  0.50045277  0.83331995  1
  Sn  Sn34  1  0.16591971  0.83265181  0.83410670  1
  Sn  Sn35  1  0.83465663  0.50063330  0.83401626  1
  Sn  Sn36  1  0.50017311  0.16691164  0.49893218  1
  Sn  Sn37  1  0.50012359  0.49990960  0.49930308  1
  Sn  Sn38  1  0.50050726  0.83335012  0.83367560  1
  Sn  Sn39  1  0.16671042  0.83293341  0.16653357  1
  Sn  Sn40  1  0.83322320  0.49915834  0.16627137  1
  Pb  Pb41  1  0.83037601  0.83320531  0.50361755  1
  Pb  Pb42  1  0.16630601  0.50245936  0.16517993  1
  Pb  Pb43  1  0.16637304  0.16642404  0.83352219  1
  Pb  Pb44  1  0.50024296  0.50167775  0.83392585  1
  Pb  Pb45  1  0.16891573  0.83316564  0.50030983  1
  Pb  Pb46  1  0.83331934  0.16723403  0.83577650  1
  Pb  Pb47  1  0.83387481  0.83279330  0.16545224  1
  Pb  Pb48  1  0.50001661  0.16356184  0.83434722  1
  Pb  Pb49  1  0.16998609  0.50010479  0.50361790  1
  Pb  Pb50  1  0.83056903  0.16696345  0.49628308  1
  Pb  Pb51  1  0.17011012  0.16677938  0.49966588  1
  Pb  Pb52  1  0.16639602  0.16367459  0.16670584  1
  Pb  Pb53  1  0.83104303  0.49999839  0.49995138  1
  I  I54  1  0.17280143  -0.00429832  0.15868292  1
  I  I55  1  0.16851973  -0.00030543  0.50227297  1
  I  I56  1  0.16847415  -0.00406194  0.83746743  1
  I  I57  1  0.17002717  0.33360140  0.16423258  1
  I  I58  1  0.16892077  0.33362786  0.50148687  1
  I  I59  1  0.16374081  0.33667150  0.83381447  1
  I  I60  1  0.17337381  0.67025789  0.16320878  1
  I  I61  1  0.17001051  0.66669583  0.49753710  1
  I  I62  1  0.16754585  0.66808480  0.83741277  1
  I  I63  1  0.50046030  -0.00064487  0.16856189  1
  I  I64  1  0.49987525  -0.00049635  0.49745767  1
  I  I65  1  0.49944460  -0.00503373  0.83323706  1
  I  I66  1  0.50493447  0.33372122  0.17355664  1
  I  I67  1  0.50003963  0.33345807  0.49298330  1
  I  I68  1  0.49959130  0.33341504  0.83184335  1
  I  I69  1  0.50045084  0.66694503  0.16867543  1
  I  I70  1  0.49999072  0.66708129  0.49745970  1
  I  I71  1  0.49966115  0.67004041  0.83342109  1
  I  I72  1  0.82799499  0.00165096  0.16444934  1
  I  I73  1  0.83114228  0.00001959  0.50010575  1
  I  I74  1  0.83201103  -0.00305320  0.83518124  1
  I  I75  1  0.82236811  0.33445930  0.15952985  1
  I  I76  1  0.82958797  0.33344521  0.50700880  1
  I  I77  1  0.83659916  0.33696964  0.83535810  1
  I  I78  1  0.82773805  0.66386649  0.16316972  1
  I  I79  1  0.82925922  0.66667076  0.49430753  1
  I  I80  1  0.83222578  0.66669117  0.83987775  1
  I  I81  1  0.17164446  0.16717660  0.00031411  1
  I  I82  1  0.16426102  0.16511087  0.33287988  1
  I  I83  1  0.16871231  0.16441351  0.66663991  1
  I  I84  1  0.16910385  0.50363081  -0.00289586  1
  I  I85  1  0.16442266  0.50139845  0.33336231  1
  I  I86  1  0.16270326  0.50893912  0.67154270  1
  I  I87  1  0.17368810  0.83070054  -0.00093711  1
  I  I88  1  0.17228463  0.83451596  0.33044784  1
  I  I89  1  0.16919050  0.82906620  0.67031402  1
  I  I90  1  0.50336490  0.16714928  0.00392784  1
  I  I91  1  0.50412297  0.16125245  0.33219267  1
  I  I92  1  0.49850520  0.16699870  0.66394703  1
  I  I93  1  0.50107768  0.50017489  0.00312947  1
  I  I94  1  0.50524195  0.50471372  0.33184548  1
  I  I95  1  0.49923246  0.50093187  0.66459810  1
  I  I96  1  0.49912310  0.83305645  0.00054005  1
  I  I97  1  0.49526111  0.83379296  0.33226759  1
  I  I98  1  0.50010028  0.83259664  0.66701121  1
  I  I99  1  0.82384062  0.16710344  0.00346483  1
  I  I100  1  0.83000520  0.17086809  0.32837301  1
  I  I101  1  0.83234152  0.16591115  0.66642713  1
  I  I102  1  0.82916014  0.50063864  0.00026238  1
  I  I103  1  0.82951096  0.49679312  0.32982769  1
  I  I104  1  0.83488943  0.50624784  0.67002718  1
  I  I105  1  0.82761609  0.83227314  -0.00278259  1
  I  I106  1  0.83397013  0.83358361  0.33332249  1
  I  I107  1  0.83340817  0.82626336  0.67200098  1
  I  I108  1  -0.00309121  0.17041040  0.16231750  1
  I  I109  1  -0.00027626  0.16567004  0.49989069  1
  I  I110  1  -0.00025091  0.16091171  0.83626687  1
  I  I111  1  -0.00299802  0.49646267  0.16243948  1
  I  I112  1  0.00006427  0.50032823  0.49698780  1
  I  I113  1  -0.00095806  0.51041285  0.84125009  1
  I  I114  1  0.00246541  0.83396752  0.15895094  1
  I  I115  1  -0.00005967  0.83363963  0.49811934  1
  I  I116  1  0.00038875  0.82804170  0.84196800  1
  I  I117  1  0.33699586  0.16874218  0.17092296  1
  I  I118  1  0.33859662  0.16516200  0.49307970  1
  I  I119  1  0.33357972  0.16808381  0.83422695  1
  I  I120  1  0.33655650  0.49803635  0.16907958  1
  I  I121  1  0.33830705  0.50126153  0.49389013  1
  I  I122  1  0.33160215  0.50531054  0.83241479  1
  I  I123  1  0.33582537  0.83359389  0.16208286  1
  I  I124  1  0.33784256  0.83371955  0.50437368  1
  I  I125  1  0.33376022  0.82955294  0.83376423  1
  I  I126  1  0.66482151  0.16428991  0.16965757  1
  I  I127  1  0.66227638  0.16543465  0.49967641  1
  I  I128  1  0.66645290  0.16600047  0.83057619  1
  I  I129  1  0.66538588  0.50169903  0.16429804  1
  I  I130  1  0.66241768  0.50122707  0.50131082  1
  I  I131  1  0.66897745  0.50491908  0.83434393  1
  I  I132  1  0.66346859  0.83382020  0.16613511  1
  I  I133  1  0.66165022  0.83324749  0.49726101  1
  I  I134  1  0.66615505  0.82926902  0.83359249  1
