# generated using pymatgen
data_Cs27Sn13Pb14I81
_symmetry_space_group_name_H-M   'P 1'
_cell_length_a   18.98105903
_cell_length_b   18.97643140
_cell_length_c   18.97636878
_cell_angle_alpha   89.99947377
_cell_angle_beta   89.99885060
_cell_angle_gamma   89.99959574
_symmetry_Int_Tables_number   1
_chemical_formula_structural   Cs27Sn13Pb14I81
_chemical_formula_sum   'Cs27 Sn13 Pb14 I81'
_cell_volume   6835.15073318
_cell_formula_units_Z   1
loop_
 _symmetry_equiv_pos_site_id
 _symmetry_equiv_pos_as_xyz
  1  'x, y, z'
loop_
 _atom_site_type_symbol
 _atom_site_label
 _atom_site_symmetry_multiplicity
 _atom_site_fract_x
 _atom_site_fract_y
 _atom_site_fract_z
 _atom_site_occupancy
  Cs  Cs0  1  0.00154458  -0.00054852  -0.00080969  1
  Cs  Cs1  1  -0.00415360  0.00144110  0.33372660  1
  Cs  Cs2  1  0.00178188  0.00089948  0.66683189  1
  Cs  Cs3  1  0.00142265  0.34178070  -0.00039606  1
  Cs  Cs4  1  -0.00606699  0.33045090  0.33435796  1
  Cs  Cs5  1  -0.00099286  0.33442976  0.66599764  1
  Cs  Cs6  1  0.00103193  0.65944311  0.00102868  1
  Cs  Cs7  1  -0.00450407  0.66660708  0.33248662  1
  Cs  Cs8  1  -0.00011503  0.66445456  0.66666787  1
  Cs  Cs9  1  0.33275372  -0.00167981  -0.00114784  1
  Cs  Cs10  1  0.33189655  -0.00021230  0.33284221  1
  Cs  Cs11  1  0.33214485  -0.00129065  0.66775724  1
  Cs  Cs12  1  0.33232766  0.33525748  0.00212712  1
  Cs  Cs13  1  0.34159969  0.33394388  0.33504183  1
  Cs  Cs14  1  0.33378437  0.33184575  0.66415071  1
  Cs  Cs15  1  0.33187293  0.66804755  0.00034505  1
  Cs  Cs16  1  0.33286631  0.66660573  0.33385404  1
  Cs  Cs17  1  0.33282811  0.66861462  0.66654248  1
  Cs  Cs18  1  0.66653820  0.00069585  -0.00151333  1
  Cs  Cs19  1  0.67632343  0.00533472  0.33011868  1
  Cs  Cs20  1  0.66669569  -0.00138261  0.67046615  1
  Cs  Cs21  1  0.66670306  0.33190099  0.00540486  1
  Cs  Cs22  1  0.66421064  0.33286771  0.33207484  1
  Cs  Cs23  1  0.66621131  0.33803826  0.66227813  1
  Cs  Cs24  1  0.66753089  0.66699771  -0.00010198  1
  Cs  Cs25  1  0.67423160  0.66203274  0.33570801  1
  Cs  Cs26  1  0.66663693  0.66539901  0.66537665  1
  Sn  Sn27  1  0.49975112  0.83345858  0.16738161  1
  Sn  Sn28  1  0.16745043  0.83237128  0.49989932  1
  Sn  Sn29  1  0.49952260  0.50002216  0.83368102  1
  Sn  Sn30  1  0.83380513  0.83375448  0.83340672  1
  Sn  Sn31  1  0.50006678  0.83335984  0.83335293  1
  Sn  Sn32  1  0.49969812  0.83386697  0.49917579  1
  Sn  Sn33  1  0.16679017  0.50064902  0.49975456  1
  Sn  Sn34  1  0.16619343  0.83365048  0.83348509  1
  Sn  Sn35  1  0.83364192  0.16606845  0.83342927  1
  Sn  Sn36  1  0.16655945  0.16615123  0.83434666  1
  Sn  Sn37  1  0.16743023  0.83406637  0.16659558  1
  Sn  Sn38  1  0.16707182  0.16599116  0.16581337  1
  Sn  Sn39  1  0.49983097  0.16696315  0.83329232  1
  Pb  Pb40  1  0.49824398  0.50252643  0.50179947  1
  Pb  Pb41  1  0.50002167  0.16357512  0.50187880  1
  Pb  Pb42  1  0.83351096  0.83351661  0.50254545  1
  Pb  Pb43  1  0.16687387  0.49984691  0.16974059  1
  Pb  Pb44  1  0.83305260  0.16644281  0.50272874  1
  Pb  Pb45  1  0.83314243  0.49984043  0.16654208  1
  Pb  Pb46  1  0.49973791  0.50296456  0.16468328  1
  Pb  Pb47  1  0.16866107  0.49972082  0.83176786  1
  Pb  Pb48  1  0.83043272  0.49962206  0.83337125  1
  Pb  Pb49  1  0.83626219  0.16648416  0.16365246  1
  Pb  Pb50  1  0.83374228  0.83321780  0.16380299  1
  Pb  Pb51  1  0.83589664  0.50009756  0.50031828  1
  Pb  Pb52  1  0.16675651  0.16616140  0.49977866  1
  Pb  Pb53  1  0.49784349  0.16414123  0.16460698  1
  I  I54  1  0.17079947  -0.00168169  0.16590794  1
  I  I55  1  0.17060366  -0.00372145  0.50208985  1
  I  I56  1  0.16990774  -0.00135363  0.83166133  1
  I  I57  1  0.16507497  0.33020880  0.15997580  1
  I  I58  1  0.16556116  0.33550209  0.50320721  1
  I  I59  1  0.16657265  0.33005551  0.83586287  1
  I  I60  1  0.17037468  0.67044182  0.16250818  1
  I  I61  1  0.17107127  0.66939188  0.50214622  1
  I  I62  1  0.16722071  0.67018940  0.83546186  1
  I  I63  1  0.49683496  -0.00425260  0.16298876  1
  I  I64  1  0.49117501  -0.00487380  0.50441639  1
  I  I65  1  0.49980234  -0.00142486  0.83294293  1
  I  I66  1  0.49818607  0.33299404  0.16397903  1
  I  I67  1  0.49738251  0.33342967  0.50364097  1
  I  I68  1  0.49873822  0.33245236  0.83274803  1
  I  I69  1  0.49203655  0.67164217  0.16230140  1
  I  I70  1  0.49671307  0.67098697  0.50462597  1
  I  I71  1  0.49941356  0.66910058  0.83305949  1
  I  I72  1  0.83165140  -0.00021612  0.16807558  1
  I  I73  1  0.83633210  -0.00040646  0.49918741  1
  I  I74  1  0.82962843  -0.00084750  0.83289905  1
  I  I75  1  0.83640914  0.33277599  0.16244514  1
  I  I76  1  0.83695536  0.33337522  0.50419685  1
  I  I77  1  0.83541078  0.32983892  0.83340613  1
  I  I78  1  0.83573176  0.66728678  0.16305608  1
  I  I79  1  0.83171485  0.66714456  0.50371380  1
  I  I80  1  0.83345870  0.66985603  0.83309405  1
  I  I81  1  0.16735083  0.15811032  -0.00188153  1
  I  I82  1  0.16692564  0.16202007  0.33035983  1
  I  I83  1  0.16665451  0.16290166  0.67031469  1
  I  I84  1  0.16695443  0.50225454  -0.00003683  1
  I  I85  1  0.16766638  0.50629300  0.33719301  1
  I  I86  1  0.16845832  0.50576310  0.66428376  1
  I  I87  1  0.16987032  0.83814007  -0.00112092  1
  I  I88  1  0.17481968  0.83333887  0.33315932  1
  I  I89  1  0.16928004  0.83366904  0.66795155  1
  I  I90  1  0.50188636  0.16355615  -0.00452216  1
  I  I91  1  0.49709351  0.16595576  0.33296254  1
  I  I92  1  0.49610508  0.16345632  0.67154274  1
  I  I93  1  0.49839086  0.50249087  -0.00402946  1
  I  I94  1  0.49861170  0.50105547  0.33353718  1
  I  I95  1  0.49895717  0.50231876  0.67018478  1
  I  I96  1  0.49712572  0.83353283  -0.00177374  1
  I  I97  1  0.48895420  0.83279330  0.33334585  1
  I  I98  1  0.49697095  0.83357744  0.66848570  1
  I  I99  1  0.82978316  0.16037671  -0.00468753  1
  I  I100  1  0.83577460  0.16715882  0.33277032  1
  I  I101  1  0.83736741  0.16114743  0.67182316  1
  I  I102  1  0.83551975  0.50164804  -0.00084934  1
  I  I103  1  0.83390036  0.50143865  0.33366536  1
  I  I104  1  0.83355357  0.50024262  0.66721919  1
  I  I105  1  0.83195577  0.83774593  -0.00458596  1
  I  I106  1  0.83297879  0.83208928  0.33324561  1
  I  I107  1  0.83305122  0.83739814  0.67106186  1
  I  I108  1  0.00450507  0.15862121  0.16212321  1
  I  I109  1  0.00042968  0.16495982  0.50275863  1
  I  I110  1  0.00109220  0.15814801  0.83594693  1
  I  I111  1  0.00071087  0.50282416  0.16496191  1
  I  I112  1  0.00425767  0.50790965  0.50285711  1
  I  I113  1  0.00019591  0.50056284  0.83186611  1
  I  I114  1  0.00388369  0.83689725  0.16723923  1
  I  I115  1  0.00371050  0.83025204  0.50065461  1
  I  I116  1  0.00131343  0.84013783  0.83236939  1
  I  I117  1  0.32976167  0.16376379  0.15983663  1
  I  I118  1  0.33315252  0.16846200  0.50426386  1
  I  I119  1  0.33290930  0.16258662  0.83590708  1
  I  I120  1  0.33317960  0.49862615  0.16522786  1
  I  I121  1  0.33034778  0.50291631  0.50179889  1
  I  I122  1  0.33637280  0.50220956  0.83232178  1
  I  I123  1  0.33243617  0.83621688  0.16150119  1
  I  I124  1  0.33243309  0.83030809  0.50562594  1
  I  I125  1  0.33337049  0.83527709  0.83284098  1
  I  I126  1  0.66652843  0.16515433  0.16475644  1
  I  I127  1  0.66641685  0.16476489  0.50224494  1
  I  I128  1  0.66599523  0.16125772  0.83145811  1
  I  I129  1  0.66613348  0.50217802  0.16512599  1
  I  I130  1  0.66625921  0.50214031  0.50262592  1
  I  I131  1  0.66255723  0.50295502  0.83205924  1
  I  I132  1  0.66361970  0.83223908  0.16439667  1
  I  I133  1  0.66347519  0.83385518  0.50287938  1
  I  I134  1  0.66513587  0.83590232  0.83308726  1
