# generated using pymatgen
data_Cs27Sn14Pb13I81
_symmetry_space_group_name_H-M   'P 1'
_cell_length_a   18.97604675
_cell_length_b   18.97599371
_cell_length_c   18.97585560
_cell_angle_alpha   90.00065202
_cell_angle_beta   90.00070501
_cell_angle_gamma   90.00007767
_symmetry_Int_Tables_number   1
_chemical_formula_structural   Cs27Sn14Pb13I81
_chemical_formula_sum   'Cs27 Sn14 Pb13 I81'
_cell_volume   6833.00338733
_cell_formula_units_Z   1
loop_
 _symmetry_equiv_pos_site_id
 _symmetry_equiv_pos_as_xyz
  1  'x, y, z'
loop_
 _atom_site_type_symbol
 _atom_site_label
 _atom_site_symmetry_multiplicity
 _atom_site_fract_x
 _atom_site_fract_y
 _atom_site_fract_z
 _atom_site_occupancy
  Cs  Cs0  1  -0.00102400  0.00132464  0.00128103  1
  Cs  Cs1  1  -0.00444686  -0.00162754  0.33125079  1
  Cs  Cs2  1  -0.00039126  -0.00061458  0.66684013  1
  Cs  Cs3  1  -0.00161003  0.33128317  0.00185102  1
  Cs  Cs4  1  0.00041276  0.34103454  0.33501972  1
  Cs  Cs5  1  0.00415088  0.33467398  0.66238149  1
  Cs  Cs6  1  0.00357707  0.66289928  -0.00114673  1
  Cs  Cs7  1  0.00298252  0.66134561  0.33347963  1
  Cs  Cs8  1  0.00000957  0.66578220  0.66706344  1
  Cs  Cs9  1  0.33181432  0.00063863  0.00081146  1
  Cs  Cs10  1  0.33518306  -0.00249636  0.33296587  1
  Cs  Cs11  1  0.33245841  0.00606007  0.66764301  1
  Cs  Cs12  1  0.33463213  0.33130187  -0.00352870  1
  Cs  Cs13  1  0.33518989  0.33458758  0.33655354  1
  Cs  Cs14  1  0.33098249  0.32378460  0.66806921  1
  Cs  Cs15  1  0.33145320  0.66652285  -0.00074530  1
  Cs  Cs16  1  0.33432044  0.66803654  0.33234747  1
  Cs  Cs17  1  0.33322634  0.66808002  0.66797977  1
  Cs  Cs18  1  0.66940102  -0.00108584  0.00212476  1
  Cs  Cs19  1  0.66727762  0.00004418  0.33319813  1
  Cs  Cs20  1  0.66752016  -0.00156408  0.66546709  1
  Cs  Cs21  1  0.66728549  0.33574226  0.00147937  1
  Cs  Cs22  1  0.66639299  0.33317678  0.33172245  1
  Cs  Cs23  1  0.66460118  0.33551717  0.66885447  1
  Cs  Cs24  1  0.66683842  0.66542144  -0.00838284  1
  Cs  Cs25  1  0.66349437  0.66840804  0.33436903  1
  Cs  Cs26  1  0.66712136  0.66650079  0.67323621  1
  Sn  Sn27  1  0.83317144  0.16631572  0.49969717  1
  Sn  Sn28  1  0.49999714  0.50082794  0.49976711  1
  Sn  Sn29  1  0.83352199  0.16617038  0.16732107  1
  Sn  Sn30  1  0.83267373  0.83318082  0.16735692  1
  Sn  Sn31  1  0.50015245  0.50060021  0.16716765  1
  Sn  Sn32  1  0.83332103  0.83363722  0.49906140  1
  Sn  Sn33  1  0.16689416  0.50019461  0.83313348  1
  Sn  Sn34  1  0.49990360  0.16643479  0.16691433  1
  Sn  Sn35  1  0.16660612  0.83365041  0.50063206  1
  Sn  Sn36  1  0.16641346  0.16666975  0.16761215  1
  Sn  Sn37  1  0.83307191  0.16660913  0.83304581  1
  Sn  Sn38  1  0.50110118  0.83292713  0.16698062  1
  Sn  Sn39  1  0.50011829  0.83260941  0.49960670  1
  Sn  Sn40  1  0.16660802  0.83307224  0.83262905  1
  Pb  Pb41  1  0.49788876  0.49998533  0.83280928  1
  Pb  Pb42  1  0.83078960  0.50093240  0.49988903  1
  Pb  Pb43  1  0.16636161  0.83450211  0.16705284  1
  Pb  Pb44  1  0.83099913  0.50096221  0.16675573  1
  Pb  Pb45  1  0.83595198  0.49711881  0.83318511  1
  Pb  Pb46  1  0.50291132  0.16630555  0.83615009  1
  Pb  Pb47  1  0.49772829  0.83364458  0.83326652  1
  Pb  Pb48  1  0.16455817  0.16620450  0.83506548  1
  Pb  Pb49  1  0.50217569  0.16612259  0.49813079  1
  Pb  Pb50  1  0.83554081  0.83471703  0.83354699  1
  Pb  Pb51  1  0.16406079  0.16413135  0.49723791  1
  Pb  Pb52  1  0.16967031  0.50238957  0.50180817  1
  Pb  Pb53  1  0.16955795  0.49721797  0.16514174  1
  I  I54  1  0.17021991  0.00245330  0.16405923  1
  I  I55  1  0.17277304  -0.00395470  0.50677803  1
  I  I56  1  0.16573110  -0.00251036  0.83049807  1
  I  I57  1  0.16406705  0.32923173  0.16361048  1
  I  I58  1  0.16668575  0.33314337  0.50153889  1
  I  I59  1  0.16604754  0.33513382  0.83689519  1
  I  I60  1  0.16626075  0.66668498  0.16714401  1
  I  I61  1  0.16114243  0.67073991  0.49961311  1
  I  I62  1  0.16675709  0.66775436  0.83073824  1
  I  I63  1  0.50089603  -0.00043306  0.17016276  1
  I  I64  1  0.49858103  -0.00340219  0.49595865  1
  I  I65  1  0.49538462  -0.00003778  0.83279645  1
  I  I66  1  0.50003306  0.33285409  0.16985764  1
  I  I67  1  0.50203023  0.33526432  0.49528117  1
  I  I68  1  0.49681039  0.33316787  0.83276564  1
  I  I69  1  0.50356391  0.66791370  0.17142402  1
  I  I70  1  0.50080264  0.66830493  0.49075977  1
  I  I71  1  0.50203443  0.66686570  0.83853928  1
  I  I72  1  0.82901670  0.00066631  0.16699344  1
  I  I73  1  0.83117966  -0.00095821  0.49885734  1
  I  I74  1  0.83661385  0.00269342  0.83524815  1
  I  I75  1  0.83269537  0.32995286  0.16640113  1
  I  I76  1  0.83189451  0.33042528  0.49862868  1
  I  I77  1  0.83465575  0.32890155  0.83585234  1
  I  I78  1  0.83003393  0.67055697  0.17229413  1
  I  I79  1  0.83577777  0.67076785  0.49442500  1
  I  I80  1  0.83260596  0.66681247  0.83380958  1
  I  I81  1  0.16503322  0.16391500  0.00308110  1
  I  I82  1  0.16623813  0.16457359  0.32938725  1
  I  I83  1  0.16498067  0.16858889  0.66632450  1
  I  I84  1  0.16847410  0.50774179  -0.00255249  1
  I  I85  1  0.16540886  0.49993677  0.33347210  1
  I  I86  1  0.16812590  0.50024855  0.66955920  1
  I  I87  1  0.16670415  0.83185246  -0.00176460  1
  I  I88  1  0.16717191  0.83660848  0.33599125  1
  I  I89  1  0.16616428  0.82979661  0.66576450  1
  I  I90  1  0.50126296  0.16667453  0.00497930  1
  I  I91  1  0.50204299  0.16640319  0.32960669  1
  I  I92  1  0.50099113  0.16778912  0.66636750  1
  I  I93  1  0.49925140  0.49931588  0.00314107  1
  I  I94  1  0.49964627  0.50064015  0.33251390  1
  I  I95  1  0.50076794  0.50675810  0.66344264  1
  I  I96  1  0.50356855  0.83364116  0.00375125  1
  I  I97  1  0.49839684  0.83330482  0.33296691  1
  I  I98  1  0.50372507  0.82733812  0.66301357  1
  I  I99  1  0.83362997  0.16282600  0.00197755  1
  I  I100  1  0.83226534  0.16097604  0.33219314  1
  I  I101  1  0.83422928  0.16147454  0.66571196  1
  I  I102  1  0.83042549  0.49983541  0.00010171  1
  I  I103  1  0.83721970  0.49444592  0.33328706  1
  I  I104  1  0.82960053  0.49937429  0.66649383  1
  I  I105  1  0.82951979  0.83877272  0.00319130  1
  I  I106  1  0.83391025  0.84245725  0.33344827  1
  I  I107  1  0.83078554  0.83797559  0.66352181  1
  I  I108  1  -0.00174942  0.16007735  0.16495483  1
  I  I109  1  -0.00401579  0.16118515  0.49803402  1
  I  I110  1  -0.00314858  0.16573576  0.83730198  1
  I  I111  1  0.00020872  0.49930106  0.16458632  1
  I  I112  1  0.00025097  0.49973285  0.50197240  1
  I  I113  1  0.00355216  0.50547855  0.83384491  1
  I  I114  1  -0.00277461  0.84090930  0.16907814  1
  I  I115  1  -0.00080880  0.83978028  0.50007522  1
  I  I116  1  0.00327610  0.83093919  0.83013941  1
  I  I117  1  0.33432434  0.16551886  0.16537660  1
  I  I118  1  0.33339451  0.16644199  0.49868829  1
  I  I119  1  0.33305231  0.16752427  0.83561168  1
  I  I120  1  0.33759596  0.50190754  0.17023336  1
  I  I121  1  0.33736942  0.50522059  0.49441228  1
  I  I122  1  0.33032073  0.50407999  0.83512980  1
  I  I123  1  0.33618110  0.83501216  0.16925849  1
  I  I124  1  0.33417715  0.82794389  0.49856291  1
  I  I125  1  0.32971415  0.83052876  0.83102760  1
  I  I126  1  0.66721691  0.16596496  0.16655011  1
  I  I127  1  0.67023558  0.16117950  0.49769328  1
  I  I128  1  0.67084382  0.16548193  0.83490826  1
  I  I129  1  0.66282656  0.49466705  0.16995354  1
  I  I130  1  0.66295453  0.50449241  0.49540437  1
  I  I131  1  0.66648390  0.49839898  0.83385719  1
  I  I132  1  0.66642223  0.83917571  0.17437227  1
  I  I133  1  0.66673712  0.83436034  0.49408983  1
  I  I134  1  0.66692168  0.83479255  0.83182953  1
