# generated using pymatgen
data_Cs27Sn14Pb13I81
_symmetry_space_group_name_H-M   'P 1'
_cell_length_a   18.97515318
_cell_length_b   18.96531077
_cell_length_c   18.98855791
_cell_angle_alpha   90.00066553
_cell_angle_beta   90.00061001
_cell_angle_gamma   89.99984544
_symmetry_Int_Tables_number   1
_chemical_formula_structural   Cs27Sn14Pb13I81
_chemical_formula_sum   'Cs27 Sn14 Pb13 I81'
_cell_volume   6833.40620225
_cell_formula_units_Z   1
loop_
 _symmetry_equiv_pos_site_id
 _symmetry_equiv_pos_as_xyz
  1  'x, y, z'
loop_
 _atom_site_type_symbol
 _atom_site_label
 _atom_site_symmetry_multiplicity
 _atom_site_fract_x
 _atom_site_fract_y
 _atom_site_fract_z
 _atom_site_occupancy
  Cs  Cs0  1  -0.00092157  -0.00354446  -0.00351782  1
  Cs  Cs1  1  -0.00005600  -0.00080542  0.33080510  1
  Cs  Cs2  1  -0.00177416  -0.00223066  0.67490259  1
  Cs  Cs3  1  0.00331874  0.33423714  0.00131984  1
  Cs  Cs4  1  0.00023425  0.33325423  0.33646141  1
  Cs  Cs5  1  0.00250427  0.33435621  0.66136382  1
  Cs  Cs6  1  -0.00227332  0.66855684  0.00050754  1
  Cs  Cs7  1  -0.00216488  0.66685035  0.33450548  1
  Cs  Cs8  1  -0.00097075  0.66799215  0.66494312  1
  Cs  Cs9  1  0.33114867  0.00009679  0.00089994  1
  Cs  Cs10  1  0.33410286  -0.00282419  0.33792417  1
  Cs  Cs11  1  0.33527614  -0.00078854  0.66062556  1
  Cs  Cs12  1  0.33264857  0.33435114  -0.00082129  1
  Cs  Cs13  1  0.33077716  0.33353628  0.33120171  1
  Cs  Cs14  1  0.33071059  0.33375341  0.66993100  1
  Cs  Cs15  1  0.33639706  0.66408909  0.00093581  1
  Cs  Cs16  1  0.33493540  0.66912809  0.33396312  1
  Cs  Cs17  1  0.33588500  0.66757798  0.66426352  1
  Cs  Cs18  1  0.66892724  0.00573253  -0.00101114  1
  Cs  Cs19  1  0.66583071  0.00294366  0.33505282  1
  Cs  Cs20  1  0.66700604  0.00645680  0.66605786  1
  Cs  Cs21  1  0.66491253  0.33262398  0.00127052  1
  Cs  Cs22  1  0.67027556  0.32790541  0.33328221  1
  Cs  Cs23  1  0.66868060  0.32876264  0.66516314  1
  Cs  Cs24  1  0.66561863  0.66537255  0.00125529  1
  Cs  Cs25  1  0.66713383  0.66704713  0.33211028  1
  Cs  Cs26  1  0.66503510  0.66635002  0.66724812  1
  Sn  Sn27  1  0.83310982  0.83312014  0.49932422  1
  Sn  Sn28  1  0.50025032  0.50032402  0.16700467  1
  Sn  Sn29  1  0.83328019  0.50051939  0.16590317  1
  Sn  Sn30  1  0.50029739  0.50044971  0.83322409  1
  Sn  Sn31  1  0.16672670  0.16720907  0.16655998  1
  Sn  Sn32  1  0.50013182  0.49960004  0.49966974  1
  Sn  Sn33  1  0.83193878  0.83260031  0.16738297  1
  Sn  Sn34  1  0.16699826  0.16733280  0.83348590  1
  Sn  Sn35  1  0.50010565  0.83292922  0.83443865  1
  Sn  Sn36  1  0.50121655  0.83283779  0.16550575  1
  Sn  Sn37  1  0.16631846  0.49996182  0.83404174  1
  Sn  Sn38  1  0.83341436  0.50002523  0.83394933  1
  Sn  Sn39  1  0.16657120  0.16648115  0.50002030  1
  Sn  Sn40  1  0.16651897  0.49971435  0.16614184  1
  Pb  Pb41  1  0.83591945  0.16675963  0.16646846  1
  Pb  Pb42  1  0.83614663  0.17028736  0.83362381  1
  Pb  Pb43  1  0.49777150  0.16694051  0.83353639  1
  Pb  Pb44  1  0.16683053  0.83238726  0.16653626  1
  Pb  Pb45  1  0.50202686  0.83163511  0.49973337  1
  Pb  Pb46  1  0.83587281  0.16367280  0.49998481  1
  Pb  Pb47  1  0.83108907  0.50119505  0.49970220  1
  Pb  Pb48  1  0.16402427  0.83576292  0.50008314  1
  Pb  Pb49  1  0.49763723  0.16644777  0.16661702  1
  Pb  Pb50  1  0.83055081  0.83117116  0.83413435  1
  Pb  Pb51  1  0.16957135  0.83212470  0.83348160  1
  Pb  Pb52  1  0.16855577  0.49909395  0.49983978  1
  Pb  Pb53  1  0.49794085  0.16971295  0.49985952  1
  I  I54  1  0.16679550  0.00265174  0.16626070  1
  I  I55  1  0.16796945  0.00417055  0.49910587  1
  I  I56  1  0.16809559  0.00269191  0.83400289  1
  I  I57  1  0.16730312  0.33501812  0.16595177  1
  I  I58  1  0.16746961  0.33088949  0.49994664  1
  I  I59  1  0.16891454  0.33491353  0.83417343  1
  I  I60  1  0.16710332  0.66282358  0.16081318  1
  I  I61  1  0.16728161  0.66662429  0.50013409  1
  I  I62  1  0.16522058  0.66251987  0.83955465  1
  I  I63  1  0.50321420  -0.00355639  0.16222914  1
  I  I64  1  0.49938228  -0.00013809  0.50034435  1
  I  I65  1  0.49846437  -0.00299176  0.83802107  1
  I  I66  1  0.50208866  0.33724466  0.16492248  1
  I  I67  1  0.50105447  0.33790837  0.50043184  1
  I  I68  1  0.50090295  0.33742399  0.83485226  1
  I  I69  1  0.49777097  0.66505538  0.16575273  1
  I  I70  1  0.49807944  0.66357565  0.50055440  1
  I  I71  1  0.49710304  0.66449809  0.83433028  1
  I  I72  1  0.82998839  -0.00328730  0.17142149  1
  I  I73  1  0.83208160  -0.00420069  0.49275482  1
  I  I74  1  0.83391246  -0.00012747  0.83290763  1
  I  I75  1  0.83014013  0.33714328  0.16245840  1
  I  I76  1  0.83254114  0.33339180  0.50017549  1
  I  I77  1  0.82671080  0.33858411  0.83934709  1
  I  I78  1  0.83531725  0.66541088  0.16671183  1
  I  I79  1  0.83375633  0.66895632  0.49767533  1
  I  I80  1  0.83921166  0.66288586  0.83461720  1
  I  I81  1  0.16745046  0.17264823  0.00001763  1
  I  I82  1  0.16674191  0.17163941  0.33241285  1
  I  I83  1  0.16700919  0.17223390  0.66762304  1
  I  I84  1  0.17062496  0.49203940  0.00028194  1
  I  I85  1  0.16670838  0.49591160  0.33002267  1
  I  I86  1  0.16682156  0.49576359  0.66976755  1
  I  I87  1  0.16193774  0.83963624  0.00007810  1
  I  I88  1  0.17145188  0.83376599  0.33308429  1
  I  I89  1  0.16641892  0.83310448  0.66690693  1
  I  I90  1  0.49697754  0.16969695  0.00008263  1
  I  I91  1  0.49536270  0.16689818  0.33316113  1
  I  I92  1  0.49633418  0.16593387  0.66676748  1
  I  I93  1  0.49893290  0.50382702  0.00022925  1
  I  I94  1  0.49826154  0.50413404  0.33158212  1
  I  I95  1  0.49851050  0.50428975  0.66823105  1
  I  I96  1  0.50377591  0.82416349  0.00102953  1
  I  I97  1  0.50062242  0.82834976  0.33015160  1
  I  I98  1  0.49942578  0.82769059  0.66908047  1
  I  I99  1  0.83573677  0.16084049  0.00005370  1
  I  I100  1  0.83736072  0.17171385  0.33314757  1
  I  I101  1  0.83608604  0.16598857  0.66683293  1
  I  I102  1  0.83117595  0.50538718  0.00099513  1
  I  I103  1  0.83421957  0.50197378  0.32987721  1
  I  I104  1  0.83412666  0.50162962  0.66944009  1
  I  I105  1  0.83259698  0.83064029  0.00312380  1
  I  I106  1  0.82913918  0.82709780  0.33123221  1
  I  I107  1  0.83368498  0.83175264  0.66522847  1
  I  I108  1  0.00416072  0.17127421  0.16646735  1
  I  I109  1  0.00395074  0.17012683  0.49943728  1
  I  I110  1  0.00449631  0.17026880  0.83390069  1
  I  I111  1  0.00000330  0.50007996  0.16007967  1
  I  I112  1  -0.00011079  0.49974798  0.50049126  1
  I  I113  1  0.00053200  0.49519234  0.84029070  1
  I  I114  1  -0.00282010  0.83032707  0.17097425  1
  I  I115  1  -0.00379783  0.83107882  0.49302268  1
  I  I116  1  -0.00023961  0.83350539  0.83302241  1
  I  I117  1  0.32940488  0.17181208  0.16546877  1
  I  I118  1  0.32976187  0.16603389  0.50002873  1
  I  I119  1  0.32957959  0.17364579  0.83448769  1
  I  I120  1  0.33365989  0.49945538  0.16418209  1
  I  I121  1  0.33653489  0.50009453  0.50010030  1
  I  I122  1  0.33346061  0.49895448  0.83602366  1
  I  I123  1  0.33645916  0.82996492  0.16273868  1
  I  I124  1  0.33376296  0.83424420  0.49968591  1
  I  I125  1  0.33733015  0.82726972  0.83934915  1
  I  I126  1  0.66672521  0.16945797  0.16786914  1
  I  I127  1  0.66681307  0.16670857  0.50021040  1
  I  I128  1  0.66666114  0.16706224  0.83183744  1
  I  I129  1  0.66637872  0.50561134  0.16358854  1
  I  I130  1  0.66322455  0.50208648  0.50081011  1
  I  I131  1  0.66593964  0.50613294  0.83599890  1
  I  I132  1  0.66634342  0.82357253  0.16704123  1
  I  I133  1  0.66951644  0.83089538  0.49766510  1
  I  I134  1  0.66288644  0.82548830  0.83443867  1
