# generated using pymatgen
data_Cs27Sn13Pb14I81
_symmetry_space_group_name_H-M   'P 1'
_cell_length_a   18.97749133
_cell_length_b   18.97852994
_cell_length_c   18.97624782
_cell_angle_alpha   89.99991617
_cell_angle_beta   90.00154297
_cell_angle_gamma   90.00083482
_symmetry_Int_Tables_number   1
_chemical_formula_structural   Cs27Sn13Pb14I81
_chemical_formula_sum   'Cs27 Sn13 Pb14 I81'
_cell_volume   6834.57815510
_cell_formula_units_Z   1
loop_
 _symmetry_equiv_pos_site_id
 _symmetry_equiv_pos_as_xyz
  1  'x, y, z'
loop_
 _atom_site_type_symbol
 _atom_site_label
 _atom_site_symmetry_multiplicity
 _atom_site_fract_x
 _atom_site_fract_y
 _atom_site_fract_z
 _atom_site_occupancy
  Cs  Cs0  1  -0.00145003  -0.00006755  0.00019634  1
  Cs  Cs1  1  -0.00139297  0.00094968  0.33345711  1
  Cs  Cs2  1  0.00255821  -0.00082248  0.66515881  1
  Cs  Cs3  1  0.00255947  0.33202508  0.00140492  1
  Cs  Cs4  1  0.00084782  0.33402776  0.33281515  1
  Cs  Cs5  1  -0.00153558  0.33265403  0.66416796  1
  Cs  Cs6  1  -0.00116865  0.66903784  0.00154084  1
  Cs  Cs7  1  -0.00057613  0.66511050  0.32909368  1
  Cs  Cs8  1  -0.00118658  0.66813744  0.66953322  1
  Cs  Cs9  1  0.33451329  0.00120328  -0.00097127  1
  Cs  Cs10  1  0.33612662  -0.00080572  0.33937267  1
  Cs  Cs11  1  0.33295547  -0.00381471  0.66276121  1
  Cs  Cs12  1  0.33273243  0.33284247  0.00045113  1
  Cs  Cs13  1  0.33712188  0.33187371  0.33104716  1
  Cs  Cs14  1  0.33149714  0.33334652  0.66979176  1
  Cs  Cs15  1  0.33261234  0.66605603  0.00037201  1
  Cs  Cs16  1  0.33434538  0.66764600  0.33399401  1
  Cs  Cs17  1  0.33371193  0.67103880  0.66376376  1
  Cs  Cs18  1  0.66739739  -0.00009802  0.00050766  1
  Cs  Cs19  1  0.66495875  -0.00024192  0.33620904  1
  Cs  Cs20  1  0.66399235  0.00153161  0.66457104  1
  Cs  Cs21  1  0.66301578  0.33217214  -0.00080012  1
  Cs  Cs22  1  0.66129259  0.33315355  0.33830854  1
  Cs  Cs23  1  0.67104522  0.34234556  0.66257612  1
  Cs  Cs24  1  0.66836687  0.66743728  -0.00283493  1
  Cs  Cs25  1  0.66589182  0.66838185  0.33656590  1
  Cs  Cs26  1  0.66807114  0.65711970  0.66485101  1
  Sn  Sn27  1  0.16614422  0.49975293  0.16653618  1
  Sn  Sn28  1  0.16760424  0.83395698  0.16640191  1
  Sn  Sn29  1  0.50006720  0.16599557  0.83351540  1
  Sn  Sn30  1  0.83366657  0.16796058  0.16606731  1
  Sn  Sn31  1  0.83343455  0.16663679  0.83394077  1
  Sn  Sn32  1  0.83347406  0.49863533  0.16631356  1
  Sn  Sn33  1  0.16650766  0.49964330  0.83347696  1
  Sn  Sn34  1  0.49929796  0.83345934  0.16550569  1
  Sn  Sn35  1  0.16660727  0.49992190  0.49982816  1
  Sn  Sn36  1  0.16646769  0.16701165  0.83410662  1
  Sn  Sn37  1  0.50015747  0.83383224  0.83428357  1
  Sn  Sn38  1  0.16617510  0.16626689  0.16613493  1
  Sn  Sn39  1  0.83384662  0.83342814  0.50026669  1
  Pb  Pb40  1  0.49752194  0.49988994  0.83354124  1
  Pb  Pb41  1  0.83313687  0.83384371  0.16751599  1
  Pb  Pb42  1  0.16665202  0.16871059  0.49969514  1
  Pb  Pb43  1  0.83602188  0.49753831  0.83587192  1
  Pb  Pb44  1  0.49692738  0.49995625  0.49990812  1
  Pb  Pb45  1  0.49986502  0.16686794  0.50387673  1
  Pb  Pb46  1  0.50007197  0.50241143  0.16649221  1
  Pb  Pb47  1  0.50003800  0.16468900  0.16520206  1
  Pb  Pb48  1  0.83070372  0.83566795  0.83111621  1
  Pb  Pb49  1  0.83358025  0.16535021  0.49955549  1
  Pb  Pb50  1  0.16812162  0.83380298  0.83523697  1
  Pb  Pb51  1  0.16470152  0.83113405  0.49707426  1
  Pb  Pb52  1  0.50210332  0.83321652  0.50042419  1
  Pb  Pb53  1  0.83565492  0.50173063  0.49716299  1
  I  I54  1  0.16515300  0.00101627  0.16082258  1
  I  I55  1  0.16641570  -0.00022379  0.50015120  1
  I  I56  1  0.16492933  0.00339887  0.83859899  1
  I  I57  1  0.16162699  0.33329290  0.16581639  1
  I  I58  1  0.16481361  0.33663361  0.49599744  1
  I  I59  1  0.16912860  0.33240904  0.83785007  1
  I  I60  1  0.16603169  0.66584211  0.16653450  1
  I  I61  1  0.16582556  0.66326207  0.50077320  1
  I  I62  1  0.16890936  0.66413412  0.83487355  1
  I  I63  1  0.49644612  -0.00319232  0.16431798  1
  I  I64  1  0.49953166  -0.00023711  0.49767168  1
  I  I65  1  0.49784590  0.00070254  0.83830667  1
  I  I66  1  0.49762031  0.33306666  0.16529811  1
  I  I67  1  0.50167207  0.33338023  0.49976614  1
  I  I68  1  0.50021090  0.33001223  0.83389903  1
  I  I69  1  0.49595415  0.67050269  0.16107754  1
  I  I70  1  0.50072521  0.66691815  0.50210834  1
  I  I71  1  0.49774299  0.66954145  0.83699493  1
  I  I72  1  0.83725720  0.00300341  0.16407050  1
  I  I73  1  0.83347394  -0.00236200  0.49666825  1
  I  I74  1  0.83930902  0.00392372  0.84057767  1
  I  I75  1  0.84299919  0.33259883  0.16306515  1
  I  I76  1  0.83386742  0.33362778  0.50186551  1
  I  I77  1  0.82825809  0.32930324  0.83373089  1
  I  I78  1  0.83790681  0.66468312  0.16953483  1
  I  I79  1  0.83343877  0.66927315  0.49748774  1
  I  I80  1  0.83298346  0.66647208  0.83371520  1
  I  I81  1  0.16643486  0.17108638  0.00024285  1
  I  I82  1  0.16110294  0.16704314  0.32944379  1
  I  I83  1  0.16635357  0.17113211  0.67036095  1
  I  I84  1  0.16411216  0.49876937  0.00098507  1
  I  I85  1  0.16209302  0.50117778  0.33151611  1
  I  I86  1  0.16847162  0.49446345  0.66760594  1
  I  I87  1  0.16668765  0.82901823  0.00356982  1
  I  I88  1  0.17199985  0.83401749  0.32861673  1
  I  I89  1  0.16772593  0.83266869  0.66672317  1
  I  I90  1  0.49907782  0.16447997  -0.00302616  1
  I  I91  1  0.49997646  0.16476457  0.33305226  1
  I  I92  1  0.49782420  0.15856859  0.67244503  1
  I  I93  1  0.49723682  0.49970229  0.00001622  1
  I  I94  1  0.49832434  0.50249659  0.33291316  1
  I  I95  1  0.49908974  0.50187942  0.66699111  1
  I  I96  1  0.49635725  0.83686571  0.00026719  1
  I  I97  1  0.49665984  0.83239750  0.33045987  1
  I  I98  1  0.49984900  0.83910382  0.66986462  1
  I  I99  1  0.83521830  0.16874622  0.00051617  1
  I  I100  1  0.83991901  0.16840440  0.32952404  1
  I  I101  1  0.83425615  0.16358341  0.67002283  1
  I  I102  1  0.83982623  0.50150874  0.00373479  1
  I  I103  1  0.84040616  0.49497052  0.32925637  1
  I  I104  1  0.83450741  0.50002454  0.66678788  1
  I  I105  1  0.83416357  0.83170425  0.00002921  1
  I  I106  1  0.83276830  0.83416113  0.33492609  1
  I  I107  1  0.83325681  0.83465427  0.66380103  1
  I  I108  1  0.00104313  0.16515794  0.15947085  1
  I  I109  1  0.00015607  0.16494566  0.50467476  1
  I  I110  1  0.00080547  0.17139177  0.83769843  1
  I  I111  1  0.00185117  0.50187317  0.16664979  1
  I  I112  1  0.00344510  0.50042638  0.50109500  1
  I  I113  1  0.00427001  0.49602087  0.83211210  1
  I  I114  1  0.00271342  0.83234035  0.16864098  1
  I  I115  1  -0.00253500  0.83405697  0.49804741  1
  I  I116  1  0.00001939  0.83359394  0.83364057  1
  I  I117  1  0.33002852  0.17003178  0.16254085  1
  I  I118  1  0.33303849  0.16645369  0.49842807  1
  I  I119  1  0.33221205  0.16779920  0.83791346  1
  I  I120  1  0.32941911  0.49743028  0.16656126  1
  I  I121  1  0.32857111  0.50123174  0.49667398  1
  I  I122  1  0.32905014  0.49428871  0.83720981  1
  I  I123  1  0.33221036  0.83238927  0.16319549  1
  I  I124  1  0.33317397  0.83175144  0.50078722  1
  I  I125  1  0.33601542  0.83833704  0.83489266  1
  I  I126  1  0.66955970  0.16882277  0.16222762  1
  I  I127  1  0.66681748  0.16523904  0.49800379  1
  I  I128  1  0.66693700  0.15976430  0.83862757  1
  I  I129  1  0.66979907  0.49691141  0.16644387  1
  I  I130  1  0.66719100  0.50155745  0.49919899  1
  I  I131  1  0.66696571  0.49965395  0.83440157  1
  I  I132  1  0.66428334  0.83355597  0.16478951  1
  I  I133  1  0.66947439  0.83390647  0.49585312  1
  I  I134  1  0.66285331  0.83914120  0.84104511  1
