# generated using pymatgen
data_Cs27Sn14Pb13I81
_symmetry_space_group_name_H-M   'P 1'
_cell_length_a   18.96846462
_cell_length_b   18.97839306
_cell_length_c   18.97859167
_cell_angle_alpha   90.00016445
_cell_angle_beta   90.00116139
_cell_angle_gamma   89.99846639
_symmetry_Int_Tables_number   1
_chemical_formula_structural   Cs27Sn14Pb13I81
_chemical_formula_sum   'Cs27 Sn14 Pb13 I81'
_cell_volume   6832.12175798
_cell_formula_units_Z   1
loop_
 _symmetry_equiv_pos_site_id
 _symmetry_equiv_pos_as_xyz
  1  'x, y, z'
loop_
 _atom_site_type_symbol
 _atom_site_label
 _atom_site_symmetry_multiplicity
 _atom_site_fract_x
 _atom_site_fract_y
 _atom_site_fract_z
 _atom_site_occupancy
  Cs  Cs0  1  -0.00234413  -0.00102414  0.00053433  1
  Cs  Cs1  1  0.00089759  -0.00244445  0.33223516  1
  Cs  Cs2  1  0.01121695  -0.00539806  0.66667994  1
  Cs  Cs3  1  -0.00298940  0.33324328  0.00051707  1
  Cs  Cs4  1  0.00008711  0.33662461  0.33381755  1
  Cs  Cs5  1  0.00283411  0.33357329  0.66503188  1
  Cs  Cs6  1  -0.00137891  0.66704527  -0.00012125  1
  Cs  Cs7  1  -0.00060843  0.66525806  0.34179388  1
  Cs  Cs8  1  0.00455308  0.67534999  0.65450204  1
  Cs  Cs9  1  0.33371347  0.00039916  0.00280395  1
  Cs  Cs10  1  0.33599930  0.00033053  0.33207989  1
  Cs  Cs11  1  0.32589210  -0.00061701  0.66679101  1
  Cs  Cs12  1  0.33163464  0.33623125  0.00074035  1
  Cs  Cs13  1  0.33527276  0.33306633  0.33144912  1
  Cs  Cs14  1  0.32761084  0.33324818  0.67006845  1
  Cs  Cs15  1  0.33265967  0.66300943  -0.00455115  1
  Cs  Cs16  1  0.33501159  0.66655846  0.33089458  1
  Cs  Cs17  1  0.33093470  0.66787719  0.67858728  1
  Cs  Cs18  1  0.66833567  0.00147994  0.00081784  1
  Cs  Cs19  1  0.66419273  0.00174670  0.33209123  1
  Cs  Cs20  1  0.66612846  0.00284816  0.66798273  1
  Cs  Cs21  1  0.66800663  0.33245066  -0.00009302  1
  Cs  Cs22  1  0.66585744  0.33218476  0.33316623  1
  Cs  Cs23  1  0.66776826  0.33257085  0.66738640  1
  Cs  Cs24  1  0.66709896  0.66699977  -0.00276661  1
  Cs  Cs25  1  0.66664427  0.66584963  0.33415706  1
  Cs  Cs26  1  0.66681545  0.66694712  0.66868375  1
  Sn  Sn27  1  0.49943276  0.83307472  0.16712658  1
  Sn  Sn28  1  0.50035564  0.16671604  0.83336220  1
  Sn  Sn29  1  0.50024622  0.83325270  0.49954344  1
  Sn  Sn30  1  0.49999370  0.49988636  0.49987258  1
  Sn  Sn31  1  0.50113495  0.49997032  0.16712941  1
  Sn  Sn32  1  0.50059195  0.16688422  0.50052910  1
  Sn  Sn33  1  0.83296606  0.16636134  0.50017677  1
  Sn  Sn34  1  0.50012240  0.16682422  0.16646613  1
  Sn  Sn35  1  0.16645245  0.16616443  0.16676907  1
  Sn  Sn36  1  0.83225657  0.49936651  0.16611319  1
  Sn  Sn37  1  0.83272701  0.16712598  0.83279337  1
  Sn  Sn38  1  0.83347766  0.49946187  0.83335700  1
  Sn  Sn39  1  0.83349720  0.16739173  0.16701491  1
  Sn  Sn40  1  0.16742772  0.83363700  0.16673544  1
  Pb  Pb41  1  0.50021284  0.83633324  0.83369171  1
  Pb  Pb42  1  0.17065817  0.49986493  0.49975583  1
  Pb  Pb43  1  0.83324414  0.83366576  0.83310310  1
  Pb  Pb44  1  0.17036787  0.83339765  0.49693209  1
  Pb  Pb45  1  0.83033877  0.83679237  0.49989066  1
  Pb  Pb46  1  0.16602632  0.16685305  0.83630816  1
  Pb  Pb47  1  0.16206680  0.49978631  0.83344966  1
  Pb  Pb48  1  0.83128430  0.49791422  0.50001653  1
  Pb  Pb49  1  0.83289363  0.83278606  0.16675731  1
  Pb  Pb50  1  0.16668994  0.83341211  0.83686907  1
  Pb  Pb51  1  0.50163341  0.49747944  0.83346747  1
  Pb  Pb52  1  0.16632500  0.50030220  0.16671153  1
  Pb  Pb53  1  0.16708033  0.16691927  0.49705395  1
  I  I54  1  0.17068532  0.00114660  0.16685972  1
  I  I55  1  0.16711424  0.00022321  0.50130223  1
  I  I56  1  0.16493883  0.00040840  0.83174569  1
  I  I57  1  0.16970884  0.33043211  0.16643405  1
  I  I58  1  0.16891922  0.33298058  0.49711338  1
  I  I59  1  0.17095733  0.33300558  0.83626931  1
  I  I60  1  0.17170600  0.66950784  0.16645278  1
  I  I61  1  0.16429457  0.66685779  0.49621839  1
  I  I62  1  0.16799752  0.66657727  0.83666836  1
  I  I63  1  0.49968768  0.00148213  0.16867529  1
  I  I64  1  0.50428722  0.00119215  0.49567766  1
  I  I65  1  0.50709456  0.00463099  0.83519143  1
  I  I66  1  0.50022724  0.33227145  0.16919046  1
  I  I67  1  0.50436276  0.33222886  0.49526191  1
  I  I68  1  0.50247434  0.32934973  0.83449979  1
  I  I69  1  0.49996846  0.66631641  0.17384091  1
  I  I70  1  0.49980704  0.66649192  0.48988054  1
  I  I71  1  0.50133154  0.66642303  0.83322752  1
  I  I72  1  0.83073223  0.00360681  0.16569698  1
  I  I73  1  0.82671379  0.00513550  0.49775279  1
  I  I74  1  0.82835028  0.00435938  0.83636581  1
  I  I75  1  0.83029790  0.33176703  0.16597830  1
  I  I76  1  0.82633842  0.32969737  0.49844108  1
  I  I77  1  0.82803175  0.33162691  0.83616429  1
  I  I78  1  0.82969813  0.66321737  0.16099296  1
  I  I79  1  0.83246417  0.66650967  0.49970390  1
  I  I80  1  0.83173344  0.66319205  0.84182318  1
  I  I81  1  0.16821411  0.16280598  0.00444902  1
  I  I82  1  0.16773654  0.16319047  0.32893832  1
  I  I83  1  0.16728220  0.16666763  0.66663298  1
  I  I84  1  0.17306835  0.50010987  0.00046207  1
  I  I85  1  0.16077641  0.49930024  0.33280692  1
  I  I86  1  0.16780389  0.49928540  0.66669941  1
  I  I87  1  0.17410976  0.83862017  0.00482963  1
  I  I88  1  0.16832325  0.83900156  0.32926577  1
  I  I89  1  0.16690491  0.83282365  0.66633694  1
  I  I90  1  0.50219616  0.16599179  0.00159397  1
  I  I91  1  0.50191690  0.16623365  0.33245841  1
  I  I92  1  0.50831302  0.16681715  0.66590885  1
  I  I93  1  0.50093010  0.50008468  0.00330216  1
  I  I94  1  0.50505885  0.49613394  0.33166037  1
  I  I95  1  0.50200172  0.49975821  0.66409260  1
  I  I96  1  0.49632639  0.83371493  0.00372563  1
  I  I97  1  0.49690434  0.83787851  0.33199510  1
  I  I98  1  0.50294452  0.83316373  0.66362084  1
  I  I99  1  0.83032957  0.16990403  0.00110094  1
  I  I100  1  0.82978279  0.16973068  0.33217714  1
  I  I101  1  0.82230649  0.17138531  0.66691778  1
  I  I102  1  0.82711835  0.49118793  0.00159829  1
  I  I103  1  0.83153400  0.49566478  0.33036434  1
  I  I104  1  0.83021309  0.49342175  0.66907847  1
  I  I105  1  0.83147571  0.83795975  0.00037213  1
  I  I106  1  0.83608810  0.83294571  0.33308320  1
  I  I107  1  0.83051440  0.83199236  0.66640179  1
  I  I108  1  -0.00124377  0.16640938  0.16603255  1
  I  I109  1  -0.00310561  0.16835584  0.49982402  1
  I  I110  1  -0.00382185  0.17093997  0.83420244  1
  I  I111  1  -0.00346573  0.49549963  0.16143443  1
  I  I112  1  -0.00041107  0.49826098  0.49928661  1
  I  I113  1  -0.00575629  0.48987778  0.84376186  1
  I  I114  1  0.00237584  0.83878073  0.16402986  1
  I  I115  1  0.00023258  0.83394984  0.49977890  1
  I  I116  1  0.00000044  0.83582681  0.83575696  1
  I  I117  1  0.33525501  0.16618281  0.16711325  1
  I  I118  1  0.33757066  0.16609968  0.49968080  1
  I  I119  1  0.33632495  0.16559046  0.83274642  1
  I  I120  1  0.33680627  0.49683161  0.17141490  1
  I  I121  1  0.33920217  0.49541566  0.49101137  1
  I  I122  1  0.33344378  0.49902627  0.83326417  1
  I  I123  1  0.33517360  0.83844024  0.17112386  1
  I  I124  1  0.33831838  0.83844993  0.49695839  1
  I  I125  1  0.33378443  0.83513093  0.83077327  1
  I  I126  1  0.66588152  0.16656828  0.16672447  1
  I  I127  1  0.66520411  0.16642746  0.49540819  1
  I  I128  1  0.66670927  0.16921408  0.83769864  1
  I  I129  1  0.66581871  0.49634711  0.16701634  1
  I  I130  1  0.66294850  0.50111832  0.49688664  1
  I  I131  1  0.66956038  0.49657302  0.83614555  1
  I  I132  1  0.66305202  0.83661573  0.17033863  1
  I  I133  1  0.66228100  0.83204637  0.49108693  1
  I  I134  1  0.66641527  0.83257605  0.83692281  1
