# generated using pymatgen
data_Cs27Sn13Pb14I81
_symmetry_space_group_name_H-M   'P 1'
_cell_length_a   18.97406143
_cell_length_b   18.97543740
_cell_length_c   18.98110359
_cell_angle_alpha   89.99981983
_cell_angle_beta   89.99935138
_cell_angle_gamma   90.00047369
_symmetry_Int_Tables_number   1
_chemical_formula_structural   Cs27Sn13Pb14I81
_chemical_formula_sum   'Cs27 Sn13 Pb14 I81'
_cell_volume   6833.97769588
_cell_formula_units_Z   1
loop_
 _symmetry_equiv_pos_site_id
 _symmetry_equiv_pos_as_xyz
  1  'x, y, z'
loop_
 _atom_site_type_symbol
 _atom_site_label
 _atom_site_symmetry_multiplicity
 _atom_site_fract_x
 _atom_site_fract_y
 _atom_site_fract_z
 _atom_site_occupancy
  Cs  Cs0  1  -0.00243434  0.00034440  0.00082387  1
  Cs  Cs1  1  -0.00079917  0.00057311  0.33403643  1
  Cs  Cs2  1  -0.00018440  -0.00008804  0.66520438  1
  Cs  Cs3  1  0.00118054  0.33358774  0.00244972  1
  Cs  Cs4  1  -0.00030926  0.33488684  0.33001297  1
  Cs  Cs5  1  -0.00090860  0.33546975  0.67065101  1
  Cs  Cs6  1  0.00126680  0.66583190  0.00140454  1
  Cs  Cs7  1  0.00223906  0.66477805  0.33155034  1
  Cs  Cs8  1  -0.00134769  0.66552695  0.66658885  1
  Cs  Cs9  1  0.33594505  0.00023961  -0.00092814  1
  Cs  Cs10  1  0.33294690  0.00312584  0.33766135  1
  Cs  Cs11  1  0.33240319  0.00228343  0.66410300  1
  Cs  Cs12  1  0.33830442  0.33236730  -0.00681249  1
  Cs  Cs13  1  0.33905518  0.33377141  0.33464580  1
  Cs  Cs14  1  0.33873752  0.32569608  0.67346769  1
  Cs  Cs15  1  0.33241444  0.66621010  0.00041747  1
  Cs  Cs16  1  0.32929436  0.66522450  0.33215810  1
  Cs  Cs17  1  0.33359576  0.67001077  0.66793772  1
  Cs  Cs18  1  0.66832842  -0.00223901  0.00109208  1
  Cs  Cs19  1  0.66815490  -0.00089438  0.33131623  1
  Cs  Cs20  1  0.66887674  -0.00172178  0.66753896  1
  Cs  Cs21  1  0.66114773  0.33315507  -0.00108753  1
  Cs  Cs22  1  0.66164596  0.33498503  0.33642759  1
  Cs  Cs23  1  0.66393968  0.34174473  0.66377301  1
  Cs  Cs24  1  0.66309354  0.66982148  0.00142436  1
  Cs  Cs25  1  0.66362833  0.66674167  0.33314295  1
  Cs  Cs26  1  0.66779048  0.66453773  0.66557846  1
  Sn  Sn27  1  0.83345322  0.16640287  0.83323959  1
  Sn  Sn28  1  0.83279020  0.83367960  0.50043588  1
  Sn  Sn29  1  0.16673659  0.49917472  0.50017264  1
  Sn  Sn30  1  0.83383745  0.16796871  0.16674339  1
  Sn  Sn31  1  0.16631161  0.83396145  0.16609433  1
  Sn  Sn32  1  0.50085670  0.83335033  0.50042409  1
  Sn  Sn33  1  0.83355096  0.83383801  0.83268121  1
  Sn  Sn34  1  0.16605771  0.49913433  0.16740089  1
  Sn  Sn35  1  0.83375124  0.16654508  0.50004006  1
  Sn  Sn36  1  0.16619245  0.83354547  0.83408853  1
  Sn  Sn37  1  0.83353213  0.49901988  0.16657080  1
  Sn  Sn38  1  0.50031929  0.83359675  0.83232084  1
  Sn  Sn39  1  0.16632865  0.16696323  0.16677586  1
  Pb  Pb40  1  0.16438141  0.16972605  0.49809358  1
  Pb  Pb41  1  0.49663964  0.83353263  0.16714686  1
  Pb  Pb42  1  0.50033864  0.16651214  0.16670340  1
  Pb  Pb43  1  0.49658816  0.50261842  0.50009095  1
  Pb  Pb44  1  0.16659512  0.50172881  0.83365774  1
  Pb  Pb45  1  0.50012390  0.50281060  0.83321100  1
  Pb  Pb46  1  0.49949327  0.50002082  0.16667724  1
  Pb  Pb47  1  0.50341764  0.16384902  0.83317170  1
  Pb  Pb48  1  0.83501629  0.83331126  0.16691827  1
  Pb  Pb49  1  0.16444808  0.16418114  0.83550220  1
  Pb  Pb50  1  0.83484439  0.50025497  0.49783447  1
  Pb  Pb51  1  0.50299561  0.16412780  0.50007622  1
  Pb  Pb52  1  0.83332652  0.50029603  0.83623856  1
  Pb  Pb53  1  0.16612297  0.83233053  0.50013205  1
  I  I54  1  0.16177017  0.00004717  0.16195154  1
  I  I55  1  0.16828596  0.00012685  0.49835922  1
  I  I56  1  0.16787432  -0.00432394  0.83772045  1
  I  I57  1  0.15925070  0.33338465  0.17255493  1
  I  I58  1  0.16286731  0.33722957  0.49282876  1
  I  I59  1  0.16436005  0.33292984  0.83395719  1
  I  I60  1  0.16267943  0.66655432  0.16667585  1
  I  I61  1  0.16462083  0.66484098  0.49314541  1
  I  I62  1  0.16414882  0.67075830  0.83883316  1
  I  I63  1  0.50064406  -0.00029195  0.16627356  1
  I  I64  1  0.49882167  -0.00411387  0.50376667  1
  I  I65  1  0.49712736  -0.00439158  0.83011256  1
  I  I66  1  0.49711675  0.33326750  0.16683152  1
  I  I67  1  0.50105120  0.33332088  0.49857336  1
  I  I68  1  0.50030568  0.33282010  0.83453537  1
  I  I69  1  0.50139912  0.66703811  0.16567595  1
  I  I70  1  0.50765253  0.67078833  0.50409789  1
  I  I71  1  0.50290352  0.67169108  0.83050220  1
  I  I72  1  0.83770303  0.00256630  0.16666937  1
  I  I73  1  0.83091015  -0.00073201  0.49824499  1
  I  I74  1  0.83360904  -0.00117687  0.83551628  1
  I  I75  1  0.84249809  0.33226187  0.16657352  1
  I  I76  1  0.83693430  0.33055392  0.50189951  1
  I  I77  1  0.83536326  0.33013030  0.83122425  1
  I  I78  1  0.83885349  0.66482989  0.16687360  1
  I  I79  1  0.83134798  0.66979831  0.50366289  1
  I  I80  1  0.83332648  0.67052748  0.82981800  1
  I  I81  1  0.16012252  0.17041583  0.00391006  1
  I  I82  1  0.15981444  0.15989243  0.32956141  1
  I  I83  1  0.16506141  0.16650976  0.66673523  1
  I  I84  1  0.16186003  0.50023785  0.00370197  1
  I  I85  1  0.16198228  0.50464544  0.33138851  1
  I  I86  1  0.16523444  0.50534885  0.66421550  1
  I  I87  1  0.16556898  0.83108344  0.00009479  1
  I  I88  1  0.16562542  0.83362352  0.33074819  1
  I  I89  1  0.16621614  0.83032573  0.66923601  1
  I  I90  1  0.50199603  0.16375795  -0.00015350  1
  I  I91  1  0.50203646  0.16275576  0.33343914  1
  I  I92  1  0.49859074  0.16761158  0.66669421  1
  I  I93  1  0.49871581  0.50297064  0.00007809  1
  I  I94  1  0.50182007  0.50396858  0.33343806  1
  I  I95  1  0.49932389  0.49938021  0.66642129  1
  I  I96  1  0.50341542  0.83346004  -0.00305438  1
  I  I97  1  0.50507488  0.83309827  0.33638577  1
  I  I98  1  0.49885866  0.83290786  0.66724226  1
  I  I99  1  0.83767953  0.16482116  0.00037814  1
  I  I100  1  0.83776686  0.16452781  0.33293104  1
  I  I101  1  0.83339158  0.15890244  0.66669710  1
  I  I102  1  0.84145651  0.49790738  0.00416801  1
  I  I103  1  0.83718963  0.49771294  0.32990106  1
  I  I104  1  0.83529340  0.49823253  0.66654246  1
  I  I105  1  0.83159336  0.83582262  -0.00258535  1
  I  I106  1  0.83084376  0.83618912  0.33587629  1
  I  I107  1  0.83515940  0.84013206  0.66708291  1
  I  I108  1  -0.00080825  0.16671637  0.16626226  1
  I  I109  1  -0.00393539  0.15788694  0.50107155  1
  I  I110  1  -0.00378912  0.15961587  0.83204980  1
  I  I111  1  0.00086967  0.50010969  0.16988752  1
  I  I112  1  0.00248274  0.50446259  0.49632552  1
  I  I113  1  -0.00011688  0.50466151  0.83163672  1
  I  I114  1  0.00307379  0.83263353  0.16359449  1
  I  I115  1  -0.00291670  0.83594800  0.50278063  1
  I  I116  1  -0.00083050  0.83639980  0.83347373  1
  I  I117  1  0.32979096  0.16613815  0.16704310  1
  I  I118  1  0.33315824  0.16566114  0.49712903  1
  I  I119  1  0.33333436  0.16570145  0.83599169  1
  I  I120  1  0.32923875  0.50188023  0.17077072  1
  I  I121  1  0.32896317  0.50376229  0.49031780  1
  I  I122  1  0.33311333  0.50246053  0.83613898  1
  I  I123  1  0.32835745  0.83181156  0.16309718  1
  I  I124  1  0.33513063  0.82978592  0.50260020  1
  I  I125  1  0.33305565  0.83036932  0.83401167  1
  I  I126  1  0.67103813  0.17012036  0.16636468  1
  I  I127  1  0.67163965  0.16557002  0.49632889  1
  I  I128  1  0.67166866  0.16010574  0.83780615  1
  I  I129  1  0.66986677  0.49578647  0.16614728  1
  I  I130  1  0.66673706  0.49884203  0.49808994  1
  I  I131  1  0.66709437  0.50186098  0.83546006  1
  I  I132  1  0.66684597  0.83289259  0.16437120  1
  I  I133  1  0.66806373  0.83640542  0.50698191  1
  I  I134  1  0.66770147  0.83728325  0.82929396  1
