# generated using pymatgen
data_Cs27Sn14Pb13I81
_symmetry_space_group_name_H-M   'P 1'
_cell_length_a   18.97951615
_cell_length_b   18.97432862
_cell_length_c   18.97249397
_cell_angle_alpha   90.00162656
_cell_angle_beta   90.00085125
_cell_angle_gamma   90.00094543
_symmetry_Int_Tables_number   1
_chemical_formula_structural   Cs27Sn14Pb13I81
_chemical_formula_sum   'Cs27 Sn14 Pb13 I81'
_cell_volume   6832.44238017
_cell_formula_units_Z   1
loop_
 _symmetry_equiv_pos_site_id
 _symmetry_equiv_pos_as_xyz
  1  'x, y, z'
loop_
 _atom_site_type_symbol
 _atom_site_label
 _atom_site_symmetry_multiplicity
 _atom_site_fract_x
 _atom_site_fract_y
 _atom_site_fract_z
 _atom_site_occupancy
  Cs  Cs0  1  0.00005785  -0.00070831  0.00144288  1
  Cs  Cs1  1  -0.00063343  0.00144141  0.33171473  1
  Cs  Cs2  1  0.00066299  0.00267888  0.66694936  1
  Cs  Cs3  1  -0.00207891  0.32958513  -0.00182619  1
  Cs  Cs4  1  0.00065808  0.33450664  0.33361366  1
  Cs  Cs5  1  0.00088260  0.33325651  0.66841904  1
  Cs  Cs6  1  -0.00082383  0.66862168  0.00160712  1
  Cs  Cs7  1  0.00104546  0.66486907  0.33233384  1
  Cs  Cs8  1  0.00158442  0.66597684  0.66580091  1
  Cs  Cs9  1  0.33428592  -0.00132478  -0.00195017  1
  Cs  Cs10  1  0.33394279  0.00149983  0.33379433  1
  Cs  Cs11  1  0.33234285  0.00033960  0.66767225  1
  Cs  Cs12  1  0.34416701  0.33209650  0.00033025  1
  Cs  Cs13  1  0.33476276  0.33501610  0.33165265  1
  Cs  Cs14  1  0.33023836  0.33317699  0.66790875  1
  Cs  Cs15  1  0.33390986  0.66807050  0.00233266  1
  Cs  Cs16  1  0.32979347  0.66419897  0.33316132  1
  Cs  Cs17  1  0.33140011  0.66746474  0.66476669  1
  Cs  Cs18  1  0.66610684  -0.00443784  0.00208412  1
  Cs  Cs19  1  0.66571388  0.00152738  0.33845573  1
  Cs  Cs20  1  0.66682968  0.00283332  0.65565489  1
  Cs  Cs21  1  0.65935203  0.33460920  -0.00533975  1
  Cs  Cs22  1  0.66555523  0.33102472  0.33183977  1
  Cs  Cs23  1  0.66739979  0.32999919  0.67440527  1
  Cs  Cs24  1  0.66722282  0.66813430  -0.00224440  1
  Cs  Cs25  1  0.66945167  0.66805880  0.33537955  1
  Cs  Cs26  1  0.66567793  0.66723420  0.66743225  1
  Sn  Sn27  1  0.16647194  0.49995357  0.50045406  1
  Sn  Sn28  1  0.50085378  0.83294834  0.16675302  1
  Sn  Sn29  1  0.83353945  0.49960460  0.16677485  1
  Sn  Sn30  1  0.83337726  0.83348921  0.83327077  1
  Sn  Sn31  1  0.83250440  0.83339265  0.16635588  1
  Sn  Sn32  1  0.16631223  0.16695007  0.16698749  1
  Sn  Sn33  1  0.16633446  0.16698372  0.49878386  1
  Sn  Sn34  1  0.83379152  0.16691494  0.16645235  1
  Sn  Sn35  1  0.16637658  0.83222319  0.83259315  1
  Sn  Sn36  1  0.16646333  0.50082877  0.83363561  1
  Sn  Sn37  1  0.16622973  0.83339520  0.50043748  1
  Sn  Sn38  1  0.50031739  0.49985696  0.50012186  1
  Sn  Sn39  1  0.83302381  0.49990760  0.49973545  1
  Sn  Sn40  1  0.50017245  0.83321015  0.83336627  1
  Pb  Pb41  1  0.49729122  0.50249654  0.83111152  1
  Pb  Pb42  1  0.49757101  0.83169349  0.49985209  1
  Pb  Pb43  1  0.83529670  0.50194340  0.83346398  1
  Pb  Pb44  1  0.16670886  0.16668884  0.83380388  1
  Pb  Pb45  1  0.16499351  0.49747977  0.16589538  1
  Pb  Pb46  1  0.50043729  0.16414348  0.16676142  1
  Pb  Pb47  1  0.16639011  0.83489640  0.16645015  1
  Pb  Pb48  1  0.83324828  0.16340433  0.83607344  1
  Pb  Pb49  1  0.49730981  0.16984584  0.49998649  1
  Pb  Pb50  1  0.83567238  0.83164106  0.49974373  1
  Pb  Pb51  1  0.50298906  0.50265702  0.16863398  1
  Pb  Pb52  1  0.83542114  0.16973142  0.49794974  1
  Pb  Pb53  1  0.50017810  0.16327042  0.83308837  1
  I  I54  1  0.16155922  0.00257670  0.17103087  1
  I  I55  1  0.16656272  -0.00042887  0.50037717  1
  I  I56  1  0.16704616  -0.00355339  0.83017916  1
  I  I57  1  0.16024703  0.32985268  0.17149771  1
  I  I58  1  0.16633966  0.33451558  0.50010548  1
  I  I59  1  0.16477189  0.33615776  0.82849660  1
  I  I60  1  0.16584044  0.66665114  0.16943260  1
  I  I61  1  0.16676920  0.66595244  0.50477272  1
  I  I62  1  0.16646880  0.66794053  0.82481875  1
  I  I63  1  0.50417399  -0.00394342  0.16312793  1
  I  I64  1  0.49820189  -0.00020028  0.50038559  1
  I  I65  1  0.49507230  -0.00533741  0.83772212  1
  I  I66  1  0.49977077  0.33357813  0.16815306  1
  I  I67  1  0.49783758  0.33781434  0.49804452  1
  I  I68  1  0.49773654  0.33389529  0.83287390  1
  I  I69  1  0.50345228  0.67052174  0.16266142  1
  I  I70  1  0.49658964  0.66391682  0.49961219  1
  I  I71  1  0.50157138  0.67049356  0.83735524  1
  I  I72  1  0.83467151  -0.00081101  0.16064348  1
  I  I73  1  0.83523992  0.00003301  0.49997309  1
  I  I74  1  0.83774621  -0.00511932  0.83858754  1
  I  I75  1  0.84112821  0.33355022  0.17419392  1
  I  I76  1  0.83637569  0.33784730  0.49452428  1
  I  I77  1  0.83652226  0.33351016  0.83356515  1
  I  I78  1  0.82961384  0.66729420  0.16698849  1
  I  I79  1  0.83729366  0.66367804  0.49412607  1
  I  I80  1  0.83278951  0.67013279  0.83942609  1
  I  I81  1  0.16133219  0.16471012  0.00290843  1
  I  I82  1  0.16252733  0.16584095  0.33403498  1
  I  I83  1  0.16775040  0.16690966  0.66374791  1
  I  I84  1  0.16351910  0.50610411  -0.00267348  1
  I  I85  1  0.16761726  0.50313133  0.33641071  1
  I  I86  1  0.16459576  0.49941499  0.66492021  1
  I  I87  1  0.16667855  0.83031943  -0.00280906  1
  I  I88  1  0.16671586  0.83019158  0.33578230  1
  I  I89  1  0.16686394  0.83380665  0.66699805  1
  I  I90  1  0.49605836  0.17029224  0.00027028  1
  I  I91  1  0.50056003  0.16277118  0.33335491  1
  I  I92  1  0.49801332  0.16382968  0.66633248  1
  I  I93  1  0.49910692  0.49870458  -0.00012885  1
  I  I94  1  0.49264649  0.50319447  0.33641308  1
  I  I95  1  0.50359836  0.50352381  0.66321490  1
  I  I96  1  0.49806027  0.83304989  -0.00024649  1
  I  I97  1  0.50429050  0.83251092  0.33091940  1
  I  I98  1  0.50138368  0.83091506  0.66932945  1
  I  I99  1  0.84223131  0.17128504  0.00455669  1
  I  I100  1  0.83576531  0.16025227  0.32981198  1
  I  I101  1  0.83472632  0.16639684  0.66651565  1
  I  I102  1  0.83692766  0.49962979  0.00283969  1
  I  I103  1  0.83666749  0.50342349  0.33330319  1
  I  I104  1  0.83375400  0.50324882  0.66390800  1
  I  I105  1  0.83542153  0.83139260  0.00085439  1
  I  I106  1  0.83031099  0.83457797  0.33018889  1
  I  I107  1  0.83197935  0.82977600  0.66913774  1
  I  I108  1  -0.00038558  0.16328926  0.17081138  1
  I  I109  1  0.00372396  0.16773110  0.49833806  1
  I  I110  1  0.00017165  0.16373678  0.83205221  1
  I  I111  1  -0.00303849  0.50664226  0.17256348  1
  I  I112  1  0.00111625  0.50069989  0.49931392  1
  I  I113  1  0.00319958  0.50657445  0.82704564  1
  I  I114  1  -0.00279096  0.83207876  0.16415095  1
  I  I115  1  0.00384992  0.83053614  0.50286609  1
  I  I116  1  0.00055935  0.82953263  0.83450209  1
  I  I117  1  0.33057689  0.16488193  0.17075664  1
  I  I118  1  0.32866563  0.16725944  0.49361257  1
  I  I119  1  0.33291114  0.16487906  0.83576767  1
  I  I120  1  0.33335710  0.50026943  0.16768632  1
  I  I121  1  0.33151286  0.50071981  0.50472806  1
  I  I122  1  0.32923506  0.50518649  0.82786098  1
  I  I123  1  0.33503482  0.83542279  0.16401340  1
  I  I124  1  0.32937329  0.83088366  0.50287415  1
  I  I125  1  0.33253620  0.82972129  0.83369952  1
  I  I126  1  0.67013968  0.16790517  0.16616566  1
  I  I127  1  0.66688875  0.16637560  0.49835833  1
  I  I128  1  0.66689145  0.16857525  0.83527971  1
  I  I129  1  0.67120025  0.49570904  0.17194556  1
  I  I130  1  0.66748426  0.50334287  0.49324544  1
  I  I131  1  0.66664904  0.50143086  0.83189580  1
  I  I132  1  0.66805697  0.83388179  0.15863008  1
  I  I133  1  0.66681911  0.83071352  0.50248803  1
  I  I134  1  0.66698322  0.83299800  0.84084996  1
