# generated using pymatgen
data_Cs27Sn14Pb13I81
_symmetry_space_group_name_H-M   'P 1'
_cell_length_a   18.98344334
_cell_length_b   18.97264120
_cell_length_c   18.97253751
_cell_angle_alpha   89.99946210
_cell_angle_beta   90.00086341
_cell_angle_gamma   90.00091601
_symmetry_Int_Tables_number   1
_chemical_formula_structural   Cs27Sn14Pb13I81
_chemical_formula_sum   'Cs27 Sn14 Pb13 I81'
_cell_volume   6833.26406552
_cell_formula_units_Z   1
loop_
 _symmetry_equiv_pos_site_id
 _symmetry_equiv_pos_as_xyz
  1  'x, y, z'
loop_
 _atom_site_type_symbol
 _atom_site_label
 _atom_site_symmetry_multiplicity
 _atom_site_fract_x
 _atom_site_fract_y
 _atom_site_fract_z
 _atom_site_occupancy
  Cs  Cs0  1  -0.00039008  -0.00042579  0.00253208  1
  Cs  Cs1  1  -0.00303202  0.00087813  0.32737233  1
  Cs  Cs2  1  0.00278170  -0.00075707  0.66827111  1
  Cs  Cs3  1  0.00100236  0.33384177  -0.00134440  1
  Cs  Cs4  1  0.00164233  0.33312036  0.33408967  1
  Cs  Cs5  1  -0.00212572  0.33346923  0.66743212  1
  Cs  Cs6  1  -0.00164186  0.66653307  0.00052545  1
  Cs  Cs7  1  0.00427188  0.66578860  0.32886856  1
  Cs  Cs8  1  -0.00110733  0.66677408  0.66813537  1
  Cs  Cs9  1  0.33366727  0.00291640  -0.00205685  1
  Cs  Cs10  1  0.33204197  0.00027772  0.33277763  1
  Cs  Cs11  1  0.33067274  -0.00224726  0.66899583  1
  Cs  Cs12  1  0.33447734  0.33167566  0.00102797  1
  Cs  Cs13  1  0.33167326  0.33666213  0.33376036  1
  Cs  Cs14  1  0.33375478  0.33108583  0.66561247  1
  Cs  Cs15  1  0.33595707  0.66667925  -0.00077435  1
  Cs  Cs16  1  0.33422580  0.66365792  0.33275150  1
  Cs  Cs17  1  0.33332625  0.66953899  0.66692936  1
  Cs  Cs18  1  0.66650400  0.00190959  0.00080738  1
  Cs  Cs19  1  0.67130860  0.00541427  0.33249265  1
  Cs  Cs20  1  0.66677472  -0.00143504  0.66692791  1
  Cs  Cs21  1  0.66441665  0.33799124  -0.00008164  1
  Cs  Cs22  1  0.66859122  0.32630100  0.34089323  1
  Cs  Cs23  1  0.66981499  0.33145260  0.65754241  1
  Cs  Cs24  1  0.66582333  0.66519831  0.00089694  1
  Cs  Cs25  1  0.66316137  0.66775768  0.32939424  1
  Cs  Cs26  1  0.66833065  0.66764559  0.66762871  1
  Sn  Sn27  1  0.83332728  0.83415740  0.83294182  1
  Sn  Sn28  1  0.83362109  0.16599594  0.83352812  1
  Sn  Sn29  1  0.16766497  0.50024636  0.83324874  1
  Sn  Sn30  1  0.16570626  0.16647602  0.83270682  1
  Sn  Sn31  1  0.83236191  0.49989972  0.16696870  1
  Sn  Sn32  1  0.50125254  0.50056004  0.16611682  1
  Sn  Sn33  1  0.49987468  0.83325878  0.16634589  1
  Sn  Sn34  1  0.83378147  0.83282826  0.50036460  1
  Sn  Sn35  1  0.49948416  0.50054844  0.83329738  1
  Sn  Sn36  1  0.16624303  0.83414732  0.50054172  1
  Sn  Sn37  1  0.50005888  0.83324543  0.49991555  1
  Sn  Sn38  1  0.16672477  0.16549419  0.50099836  1
  Sn  Sn39  1  0.50017773  0.83264223  0.83346163  1
  Sn  Sn40  1  0.16645995  0.83319089  0.83301880  1
  Pb  Pb41  1  0.49712760  0.16345507  0.50021449  1
  Pb  Pb42  1  0.83105344  0.83200028  0.16631240  1
  Pb  Pb43  1  0.83604473  0.16388359  0.50242993  1
  Pb  Pb44  1  0.83342042  0.50297247  0.49689169  1
  Pb  Pb45  1  0.50019699  0.16698742  0.83321643  1
  Pb  Pb46  1  0.16935829  0.83338269  0.16652733  1
  Pb  Pb47  1  0.83326624  0.16975766  0.16368092  1
  Pb  Pb48  1  0.16662120  0.50055948  0.50289296  1
  Pb  Pb49  1  0.16666537  0.16652682  0.16658089  1
  Pb  Pb50  1  0.50008672  0.50203200  0.50041645  1
  Pb  Pb51  1  0.50002326  0.16735624  0.16676058  1
  Pb  Pb52  1  0.16745964  0.50010681  0.16396496  1
  Pb  Pb53  1  0.83270959  0.50009805  0.83412155  1
  I  I54  1  0.16881594  -0.00031505  0.16176337  1
  I  I55  1  0.16846867  -0.00166758  0.50947839  1
  I  I56  1  0.16709079  -0.00111550  0.82947134  1
  I  I57  1  0.16901866  0.33348829  0.16634949  1
  I  I58  1  0.16642717  0.33048395  0.50440396  1
  I  I59  1  0.16599087  0.33301082  0.83072297  1
  I  I60  1  0.16415783  0.66676564  0.16768088  1
  I  I61  1  0.16744688  0.67065993  0.50386926  1
  I  I62  1  0.16719254  0.66796450  0.83011844  1
  I  I63  1  0.49861317  -0.00353649  0.16493709  1
  I  I64  1  0.50245426  -0.00526144  0.50189756  1
  I  I65  1  0.49757663  -0.00369990  0.83335664  1
  I  I66  1  0.50223595  0.33737115  0.15845470  1
  I  I67  1  0.49875100  0.33317027  0.49918983  1
  I  I68  1  0.49612383  0.33662653  0.84095322  1
  I  I69  1  0.50350253  0.66714592  0.16509489  1
  I  I70  1  0.49612179  0.67096878  0.50073442  1
  I  I71  1  0.49684293  0.66822022  0.83405545  1
  I  I72  1  0.83206328  -0.00009482  0.16833567  1
  I  I73  1  0.82923191  -0.00434019  0.50058193  1
  I  I74  1  0.83596384  -0.00178842  0.83012805  1
  I  I75  1  0.82618991  0.33745178  0.16342370  1
  I  I76  1  0.83432799  0.33292859  0.50078826  1
  I  I77  1  0.83799544  0.33120178  0.83696334  1
  I  I78  1  0.83109830  0.66428765  0.16333950  1
  I  I79  1  0.83578120  0.67144209  0.50930056  1
  I  I80  1  0.83571644  0.66988763  0.83089454  1
  I  I81  1  0.16379618  0.16545791  -0.00415419  1
  I  I82  1  0.16798159  0.16028122  0.33682280  1
  I  I83  1  0.16364371  0.16476562  0.66838197  1
  I  I84  1  0.16767889  0.50102199  -0.00449127  1
  I  I85  1  0.16680109  0.49939295  0.33338106  1
  I  I86  1  0.17214653  0.50120976  0.67124337  1
  I  I87  1  0.16588201  0.83379949  -0.00392016  1
  I  I88  1  0.16596252  0.83856392  0.33679167  1
  I  I89  1  0.17089142  0.83365697  0.66800490  1
  I  I90  1  0.49704749  0.16103075  -0.00041819  1
  I  I91  1  0.49795315  0.16632150  0.33360714  1
  I  I92  1  0.50256753  0.16918474  0.66692532  1
  I  I93  1  0.49964104  0.50867783  -0.00092483  1
  I  I94  1  0.50343191  0.50580330  0.33030434  1
  I  I95  1  0.49509531  0.50459723  0.67023521  1
  I  I96  1  0.49985779  0.82902137  -0.00138210  1
  I  I97  1  0.49894467  0.82881253  0.33354218  1
  I  I98  1  0.49930525  0.82981335  0.66770476  1
  I  I99  1  0.84065686  0.15808717  -0.00433234  1
  I  I100  1  0.83458867  0.16602716  0.33361754  1
  I  I101  1  0.83452601  0.16706502  0.67046209  1
  I  I102  1  0.83177397  0.50269966  0.00184803  1
  I  I103  1  0.82621119  0.50231549  0.32908480  1
  I  I104  1  0.83317649  0.49821016  0.66681513  1
  I  I105  1  0.83442480  0.83534570  -0.00349781  1
  I  I106  1  0.83406930  0.83058771  0.33603451  1
  I  I107  1  0.82940745  0.83605104  0.66806234  1
  I  I108  1  -0.00016525  0.16828326  0.16755883  1
  I  I109  1  0.00373997  0.16086928  0.50296335  1
  I  I110  1  0.00111183  0.16412180  0.83002124  1
  I  I111  1  -0.00214684  0.50028212  0.16479167  1
  I  I112  1  0.00011035  0.50316734  0.49948387  1
  I  I113  1  0.00227126  0.50254459  0.83481361  1
  I  I114  1  -0.00018019  0.83121556  0.16660358  1
  I  I115  1  0.00060070  0.83639423  0.50876851  1
  I  I116  1  0.00045240  0.83295351  0.82698140  1
  I  I117  1  0.33328721  0.16798052  0.16383248  1
  I  I118  1  0.32926294  0.16145264  0.50801437  1
  I  I119  1  0.33012923  0.16401460  0.83010588  1
  I  I120  1  0.33686379  0.50491232  0.16469346  1
  I  I121  1  0.33328688  0.50162772  0.49499817  1
  I  I122  1  0.33370214  0.50375876  0.83858570  1
  I  I123  1  0.33744909  0.82608026  0.16607738  1
  I  I124  1  0.33311326  0.83674142  0.50352240  1
  I  I125  1  0.33325315  0.83276555  0.83138966  1
  I  I126  1  0.66681244  0.16354321  0.16456752  1
  I  I127  1  0.66702202  0.16643651  0.50068550  1
  I  I128  1  0.66937891  0.16211702  0.83529643  1
  I  I129  1  0.66507602  0.50627976  0.15758229  1
  I  I130  1  0.66667104  0.50156798  0.50610015  1
  I  I131  1  0.66381611  0.50478975  0.83704280  1
  I  I132  1  0.66305064  0.83031592  0.16558860  1
  I  I133  1  0.66641175  0.83037829  0.50436397  1
  I  I134  1  0.66626109  0.83283456  0.83065790  1
