# generated using pymatgen
data_Cs27Sn13Pb14I81
_symmetry_space_group_name_H-M   'P 1'
_cell_length_a   18.97631073
_cell_length_b   18.97681697
_cell_length_c   18.97599977
_cell_angle_alpha   90.00262538
_cell_angle_beta   90.00127625
_cell_angle_gamma   90.00047746
_symmetry_Int_Tables_number   1
_chemical_formula_structural   Cs27Sn13Pb14I81
_chemical_formula_sum   'Cs27 Sn13 Pb14 I81'
_cell_volume   6833.44680015
_cell_formula_units_Z   1
loop_
 _symmetry_equiv_pos_site_id
 _symmetry_equiv_pos_as_xyz
  1  'x, y, z'
loop_
 _atom_site_type_symbol
 _atom_site_label
 _atom_site_symmetry_multiplicity
 _atom_site_fract_x
 _atom_site_fract_y
 _atom_site_fract_z
 _atom_site_occupancy
  Cs  Cs0  1  -0.00000824  0.00080268  -0.00064750  1
  Cs  Cs1  1  -0.00026363  -0.00073612  0.33624715  1
  Cs  Cs2  1  -0.00165468  -0.00227165  0.66697437  1
  Cs  Cs3  1  -0.00052537  0.33510203  0.00128543  1
  Cs  Cs4  1  -0.00087437  0.33294424  0.33247379  1
  Cs  Cs5  1  0.00329580  0.33557542  0.66713216  1
  Cs  Cs6  1  -0.00525206  0.66404290  -0.00383622  1
  Cs  Cs7  1  0.00199441  0.66682462  0.33445518  1
  Cs  Cs8  1  -0.00367860  0.66699155  0.66949001  1
  Cs  Cs9  1  0.33397707  0.00001693  -0.00007982  1
  Cs  Cs10  1  0.33098349  -0.01036616  0.32953205  1
  Cs  Cs11  1  0.33354218  0.00324903  0.66971998  1
  Cs  Cs12  1  0.33279366  0.33290605  -0.00033021  1
  Cs  Cs13  1  0.33130370  0.33523439  0.33158573  1
  Cs  Cs14  1  0.33349600  0.33335266  0.66656170  1
  Cs  Cs15  1  0.33387554  0.66684468  0.00077225  1
  Cs  Cs16  1  0.33498231  0.67158202  0.33263233  1
  Cs  Cs17  1  0.33410232  0.66454758  0.66664020  1
  Cs  Cs18  1  0.66619447  -0.00036368  -0.00098454  1
  Cs  Cs19  1  0.67040157  -0.00170922  0.33973353  1
  Cs  Cs20  1  0.66973244  0.00291112  0.66200106  1
  Cs  Cs21  1  0.66611504  0.33356883  0.00312782  1
  Cs  Cs22  1  0.67055922  0.33289260  0.33371118  1
  Cs  Cs23  1  0.65859112  0.32821909  0.66132992  1
  Cs  Cs24  1  0.66927409  0.66725973  -0.00032491  1
  Cs  Cs25  1  0.66104066  0.66684554  0.33412160  1
  Cs  Cs26  1  0.66879848  0.66892924  0.66569940  1
  Sn  Sn27  1  0.49939248  0.16704530  0.16687825  1
  Sn  Sn28  1  0.49940887  0.83262469  0.83344704  1
  Sn  Sn29  1  0.16743831  0.16717708  0.16693958  1
  Sn  Sn30  1  0.16713278  0.16715380  0.49958466  1
  Sn  Sn31  1  0.49901800  0.49902541  0.16566520  1
  Sn  Sn32  1  0.16560843  0.16598650  0.83349492  1
  Sn  Sn33  1  0.16583808  0.49936159  0.49906714  1
  Sn  Sn34  1  0.16729438  0.83376035  0.83364525  1
  Sn  Sn35  1  0.83411885  0.49976105  0.50001301  1
  Sn  Sn36  1  0.83361702  0.83336883  0.16667008  1
  Sn  Sn37  1  0.49992221  0.50074444  0.83413929  1
  Sn  Sn38  1  0.83403670  0.16737909  0.83364481  1
  Sn  Sn39  1  0.16724708  0.49952493  0.16723494  1
  Pb  Pb40  1  0.50183586  0.83332520  0.16483677  1
  Pb  Pb41  1  0.83601818  0.16874655  0.50235203  1
  Pb  Pb42  1  0.83377005  0.16510654  0.16544543  1
  Pb  Pb43  1  0.16805258  0.49967417  0.83351732  1
  Pb  Pb44  1  0.82993746  0.49714655  0.83099430  1
  Pb  Pb45  1  0.83335840  0.50158821  0.16829211  1
  Pb  Pb46  1  0.49974921  0.83365133  0.50354555  1
  Pb  Pb47  1  0.83311146  0.83521380  0.83446251  1
  Pb  Pb48  1  0.49953254  0.16672873  0.83493725  1
  Pb  Pb49  1  0.83366127  0.83079770  0.49743281  1
  Pb  Pb50  1  0.16678439  0.83290891  0.50298947  1
  Pb  Pb51  1  0.49905825  0.49991410  0.49928881  1
  Pb  Pb52  1  0.49652600  0.16660634  0.49593963  1
  Pb  Pb53  1  0.16487505  0.83290293  0.16424845  1
  I  I54  1  0.16999133  0.00312283  0.16814319  1
  I  I55  1  0.16763078  0.00325907  0.49726537  1
  I  I56  1  0.16899207  0.00135331  0.83381308  1
  I  I57  1  0.16985552  0.33297456  0.16491224  1
  I  I58  1  0.16308036  0.33340620  0.50157422  1
  I  I59  1  0.16501087  0.33044484  0.83347875  1
  I  I60  1  0.17026855  0.66343951  0.17039345  1
  I  I61  1  0.16403099  0.66312486  0.49630118  1
  I  I62  1  0.16963636  0.66856624  0.83386969  1
  I  I63  1  0.49521343  0.00264679  0.16396271  1
  I  I64  1  0.49966701  0.00042756  0.50015951  1
  I  I65  1  0.49800931  -0.00186252  0.83605724  1
  I  I66  1  0.49627634  0.33419487  0.15947269  1
  I  I67  1  0.50243901  0.33333639  0.50729997  1
  I  I68  1  0.49984715  0.33562621  0.83532260  1
  I  I69  1  0.49677439  0.66357766  0.16512708  1
  I  I70  1  0.49789569  0.66634200  0.49569412  1
  I  I71  1  0.49409882  0.66637529  0.83892754  1
  I  I72  1  0.83317905  -0.00239510  0.16385176  1
  I  I73  1  0.83361002  0.00028680  0.50035902  1
  I  I74  1  0.83364721  0.00302850  0.83458240  1
  I  I75  1  0.83272377  0.33338438  0.16642586  1
  I  I76  1  0.83495891  0.33642182  0.49857550  1
  I  I77  1  0.84098011  0.32981025  0.83562536  1
  I  I78  1  0.83367331  0.66906186  0.16523570  1
  I  I79  1  0.84052933  0.66296008  0.50134530  1
  I  I80  1  0.83551101  0.66641375  0.83316152  1
  I  I81  1  0.16708646  0.16678373  0.00022419  1
  I  I82  1  0.17088511  0.17249604  0.33247937  1
  I  I83  1  0.16189118  0.16700495  0.66723162  1
  I  I84  1  0.16960126  0.49691754  0.00269047  1
  I  I85  1  0.16764988  0.49236956  0.33253696  1
  I  I86  1  0.16521601  0.49710827  0.66449281  1
  I  I87  1  0.16999981  0.83795143  -0.00342794  1
  I  I88  1  0.16476661  0.83574807  0.33303734  1
  I  I89  1  0.16974062  0.83727784  0.67100689  1
  I  I90  1  0.49412947  0.16819081  0.00270455  1
  I  I91  1  0.49769047  0.17467040  0.32806241  1
  I  I92  1  0.50009211  0.16666480  0.66666981  1
  I  I93  1  0.49416486  0.49972395  0.00092567  1
  I  I94  1  0.49939757  0.49560487  0.32983766  1
  I  I95  1  0.49969146  0.50430190  0.66919308  1
  I  I96  1  0.49623493  0.83229451  -0.00294420  1
  I  I97  1  0.50173081  0.83263354  0.33286444  1
  I  I98  1  0.49639175  0.82687984  0.67192164  1
  I  I99  1  0.83922129  0.16602485  -0.00247160  1
  I  I100  1  0.83276564  0.16559442  0.33351377  1
  I  I101  1  0.83680731  0.16543984  0.67031198  1
  I  I102  1  0.83541758  0.50083714  -0.00006831  1
  I  I103  1  0.83388318  0.49986394  0.33600325  1
  I  I104  1  0.84097839  0.50049032  0.66359086  1
  I  I105  1  0.83375438  0.83234469  0.00204553  1
  I  I106  1  0.83335642  0.83555076  0.32984565  1
  I  I107  1  0.83281241  0.83354972  0.66672982  1
  I  I108  1  0.00375180  0.17001042  0.16706251  1
  I  I109  1  0.00418445  0.16876914  0.49493304  1
  I  I110  1  0.00245826  0.16102094  0.83539405  1
  I  I111  1  0.00317533  0.49630940  0.16844344  1
  I  I112  1  0.00198518  0.49589623  0.49447844  1
  I  I113  1  0.00003178  0.50244460  0.83548963  1
  I  I114  1  -0.00230448  0.83363326  0.16323719  1
  I  I115  1  0.00033180  0.83459992  0.50229183  1
  I  I116  1  0.00257148  0.83635884  0.83483765  1
  I  I117  1  0.33186635  0.17069763  0.16350710  1
  I  I118  1  0.32851958  0.17491505  0.50817961  1
  I  I119  1  0.33020903  0.16552973  0.83203366  1
  I  I120  1  0.33275529  0.49637689  0.16796354  1
  I  I121  1  0.32989812  0.49524537  0.49989864  1
  I  I122  1  0.33596842  0.49918627  0.83311346  1
  I  I123  1  0.33323693  0.83350275  0.16662067  1
  I  I124  1  0.33290377  0.83060769  0.49601870  1
  I  I125  1  0.33296136  0.83599848  0.83492427  1
  I  I126  1  0.66409725  0.17022824  0.16149723  1
  I  I127  1  0.66666219  0.16786606  0.50170034  1
  I  I128  1  0.66818883  0.16705307  0.83634189  1
  I  I129  1  0.66361629  0.49716029  0.16420187  1
  I  I130  1  0.66860075  0.50152663  0.50073745  1
  I  I131  1  0.66234448  0.50482020  0.83879233  1
  I  I132  1  0.66905607  0.83282981  0.16299831  1
  I  I133  1  0.66688191  0.83106050  0.50122336  1
  I  I134  1  0.66401966  0.83028663  0.83640475  1
