# generated using pymatgen
data_Cs27Sn13Pb14I81
_symmetry_space_group_name_H-M   'P 1'
_cell_length_a   18.97180110
_cell_length_b   18.97786241
_cell_length_c   18.98237830
_cell_angle_alpha   89.99943018
_cell_angle_beta   89.99834262
_cell_angle_gamma   90.00234566
_symmetry_Int_Tables_number   1
_chemical_formula_structural   Cs27Sn13Pb14I81
_chemical_formula_sum   'Cs27 Sn13 Pb14 I81'
_cell_volume   6834.49578998
_cell_formula_units_Z   1
loop_
 _symmetry_equiv_pos_site_id
 _symmetry_equiv_pos_as_xyz
  1  'x, y, z'
loop_
 _atom_site_type_symbol
 _atom_site_label
 _atom_site_symmetry_multiplicity
 _atom_site_fract_x
 _atom_site_fract_y
 _atom_site_fract_z
 _atom_site_occupancy
  Cs  Cs0  1  0.00350811  0.00065800  -0.00031143  1
  Cs  Cs1  1  0.00102693  0.00140278  0.33213152  1
  Cs  Cs2  1  -0.00229770  -0.00389612  0.66887231  1
  Cs  Cs3  1  -0.00123067  0.33399994  -0.00054679  1
  Cs  Cs4  1  0.00049418  0.33350910  0.33258011  1
  Cs  Cs5  1  0.00058052  0.33521607  0.66986989  1
  Cs  Cs6  1  0.00099483  0.66270623  -0.00208504  1
  Cs  Cs7  1  -0.00193446  0.66461488  0.33463555  1
  Cs  Cs8  1  -0.00025193  0.66802279  0.66755137  1
  Cs  Cs9  1  0.33110156  -0.00825440  0.00154434  1
  Cs  Cs10  1  0.32893303  0.00002803  0.33319642  1
  Cs  Cs11  1  0.33779603  0.00066941  0.66606916  1
  Cs  Cs12  1  0.33261264  0.33451083  -0.00271820  1
  Cs  Cs13  1  0.33136531  0.33255850  0.34270468  1
  Cs  Cs14  1  0.33877479  0.33211072  0.66095158  1
  Cs  Cs15  1  0.33934931  0.67310853  0.00177677  1
  Cs  Cs16  1  0.33785138  0.66710599  0.33527623  1
  Cs  Cs17  1  0.33429106  0.66594707  0.66380004  1
  Cs  Cs18  1  0.66532318  0.00228372  -0.00006336  1
  Cs  Cs19  1  0.66911702  0.00034421  0.33337804  1
  Cs  Cs20  1  0.66601541  -0.00118815  0.66735416  1
  Cs  Cs21  1  0.66812802  0.33265331  0.00048369  1
  Cs  Cs22  1  0.66799719  0.33278954  0.33146002  1
  Cs  Cs23  1  0.66329968  0.33125067  0.66828263  1
  Cs  Cs24  1  0.65975898  0.66671872  0.00212450  1
  Cs  Cs25  1  0.66648859  0.66728277  0.33176771  1
  Cs  Cs26  1  0.66758468  0.67068147  0.66795675  1
  Sn  Sn27  1  0.16641737  0.49986281  0.16612767  1
  Sn  Sn28  1  0.16718795  0.83339066  0.49989804  1
  Sn  Sn29  1  0.83399165  0.50016755  0.16636601  1
  Sn  Sn30  1  0.16625583  0.49903830  0.83422709  1
  Sn  Sn31  1  0.83342003  0.49902745  0.50029193  1
  Sn  Sn32  1  0.16611669  0.16744086  0.83332385  1
  Sn  Sn33  1  0.49969824  0.16722381  0.16659842  1
  Sn  Sn34  1  0.83360703  0.49918195  0.83346106  1
  Sn  Sn35  1  0.83297563  0.16655503  0.16646903  1
  Sn  Sn36  1  0.49924648  0.83360825  0.49972497  1
  Sn  Sn37  1  0.83370274  0.16757306  0.50025257  1
  Sn  Sn38  1  0.83422357  0.16748891  0.83337204  1
  Sn  Sn39  1  0.83395107  0.83325271  0.16599147  1
  Pb  Pb40  1  0.16458644  0.50133123  0.50043197  1
  Pb  Pb41  1  0.49988493  0.16671288  0.83568750  1
  Pb  Pb42  1  0.49959994  0.49753547  0.16679172  1
  Pb  Pb43  1  0.83335828  0.83309411  0.83655089  1
  Pb  Pb44  1  0.50220177  0.83584349  0.16849783  1
  Pb  Pb45  1  0.83344523  0.83337596  0.49833718  1
  Pb  Pb46  1  0.16652785  0.83270877  0.83142825  1
  Pb  Pb47  1  0.49984540  0.49982411  0.83342187  1
  Pb  Pb48  1  0.16447537  0.83034836  0.16850525  1
  Pb  Pb49  1  0.50346898  0.50186239  0.49991724  1
  Pb  Pb50  1  0.50259672  0.16492576  0.49769108  1
  Pb  Pb51  1  0.16403034  0.16489009  0.50281295  1
  Pb  Pb52  1  0.50007385  0.83348851  0.83093573  1
  Pb  Pb53  1  0.16639144  0.16885198  0.16483009  1
  I  I54  1  0.16539887  0.00009664  0.16578666  1
  I  I55  1  0.16716438  -0.00283571  0.50023666  1
  I  I56  1  0.16097569  0.00293888  0.83211679  1
  I  I57  1  0.15951654  0.33670096  0.16632827  1
  I  I58  1  0.16699020  0.33335570  0.49789907  1
  I  I59  1  0.15997517  0.33398310  0.83731726  1
  I  I60  1  0.15957705  0.66249309  0.16061696  1
  I  I61  1  0.16670808  0.66915197  0.50102055  1
  I  I62  1  0.15985429  0.66286367  0.83539097  1
  I  I63  1  0.50752740  0.00345494  0.16687798  1
  I  I64  1  0.49895717  -0.00282625  0.49906722  1
  I  I65  1  0.50112919  0.00042667  0.83363856  1
  I  I66  1  0.50934648  0.33011945  0.16646222  1
  I  I67  1  0.49920939  0.33303592  0.49951660  1
  I  I68  1  0.50064098  0.33315222  0.83237070  1
  I  I69  1  0.50183449  0.66675026  0.16751723  1
  I  I70  1  0.49819923  0.66976623  0.49862736  1
  I  I71  1  0.50141115  0.66652957  0.83424475  1
  I  I72  1  0.82846083  0.00136614  0.16855877  1
  I  I73  1  0.83322862  0.00266967  0.49929834  1
  I  I74  1  0.83675324  0.00354198  0.83228894  1
  I  I75  1  0.83266288  0.33337615  0.16716438  1
  I  I76  1  0.83405234  0.33328817  0.49521994  1
  I  I77  1  0.83697547  0.33320763  0.83669128  1
  I  I78  1  0.83794906  0.66521690  0.16889240  1
  I  I79  1  0.83365497  0.66399428  0.49940940  1
  I  I80  1  0.83819400  0.66296613  0.83128987  1
  I  I81  1  0.16008825  0.16785385  -0.00305056  1
  I  I82  1  0.16587406  0.16686840  0.33336123  1
  I  I83  1  0.16090096  0.17280275  0.67065520  1
  I  I84  1  0.15659001  0.49595051  -0.00030386  1
  I  I85  1  0.16072094  0.50184932  0.33098766  1
  I  I86  1  0.16087211  0.49876203  0.66978339  1
  I  I87  1  0.16499932  0.83510667  0.00013594  1
  I  I88  1  0.16862966  0.83260926  0.33623725  1
  I  I89  1  0.16809526  0.83163738  0.66355158  1
  I  I90  1  0.50900312  0.16688583  0.00320392  1
  I  I91  1  0.50739057  0.16661928  0.33007179  1
  I  I92  1  0.50138851  0.16461512  0.66652037  1
  I  I93  1  0.50475573  0.50060575  0.00021439  1
  I  I94  1  0.50021122  0.50003205  0.33329944  1
  I  I95  1  0.50018958  0.50061984  0.66656997  1
  I  I96  1  0.50138918  0.83373038  0.00056922  1
  I  I97  1  0.49743424  0.83338952  0.33613448  1
  I  I98  1  0.49882660  0.83409753  0.66276034  1
  I  I99  1  0.83250148  0.16889202  0.00027581  1
  I  I100  1  0.82856707  0.16842146  0.33261143  1
  I  I101  1  0.83773148  0.17225510  0.66712897  1
  I  I102  1  0.83762132  0.49706825  0.00030841  1
  I  I103  1  0.83670738  0.49816526  0.33239512  1
  I  I104  1  0.83706122  0.49446224  0.66723486  1
  I  I105  1  0.83358836  0.83401347  0.00439788  1
  I  I106  1  0.83326681  0.83323321  0.33058128  1
  I  I107  1  0.83235456  0.83334923  0.66662051  1
  I  I108  1  -0.00376938  0.16514647  0.16872879  1
  I  I109  1  -0.00428914  0.16741537  0.49343974  1
  I  I110  1  -0.00186108  0.17026991  0.83544980  1
  I  I111  1  -0.00226703  0.49823158  0.16641518  1
  I  I112  1  -0.00384952  0.49982875  0.49873259  1
  I  I113  1  -0.00136480  0.49604789  0.83448676  1
  I  I114  1  -0.00358872  0.83888046  0.17053961  1
  I  I115  1  0.00157701  0.83276365  0.49911698  1
  I  I116  1  -0.00023712  0.83434874  0.82876195  1
  I  I117  1  0.33531788  0.16784342  0.16475511  1
  I  I118  1  0.33321392  0.16668346  0.49949572  1
  I  I119  1  0.33007908  0.17122861  0.83461315  1
  I  I120  1  0.33004798  0.49888123  0.16113455  1
  I  I121  1  0.33317157  0.50043993  0.49960306  1
  I  I122  1  0.32934474  0.49612651  0.83802455  1
  I  I123  1  0.33322331  0.83386935  0.16623434  1
  I  I124  1  0.33310238  0.83264764  0.49980180  1
  I  I125  1  0.33301749  0.83399590  0.83621135  1
  I  I126  1  0.67004176  0.16790438  0.16548728  1
  I  I127  1  0.67115010  0.16735915  0.50402801  1
  I  I128  1  0.67052687  0.17067804  0.83190926  1
  I  I129  1  0.67062456  0.50190940  0.16630880  1
  I  I130  1  0.67203061  0.49871780  0.49878168  1
  I  I131  1  0.67089953  0.49569864  0.83428010  1
  I  I132  1  0.67039790  0.82834655  0.17007208  1
  I  I133  1  0.66518138  0.83338105  0.49751844  1
  I  I134  1  0.66721411  0.83323704  0.82997780  1
