# generated using pymatgen
data_Cs27Sn13Pb14I81
_symmetry_space_group_name_H-M   'P 1'
_cell_length_a   18.97577836
_cell_length_b   18.98176777
_cell_length_c   18.97407276
_cell_angle_alpha   90.00070223
_cell_angle_beta   89.99897088
_cell_angle_gamma   89.99908772
_symmetry_Int_Tables_number   1
_chemical_formula_structural   Cs27Sn13Pb14I81
_chemical_formula_sum   'Cs27 Sn13 Pb14 I81'
_cell_volume   6834.34371240
_cell_formula_units_Z   1
loop_
 _symmetry_equiv_pos_site_id
 _symmetry_equiv_pos_as_xyz
  1  'x, y, z'
loop_
 _atom_site_type_symbol
 _atom_site_label
 _atom_site_symmetry_multiplicity
 _atom_site_fract_x
 _atom_site_fract_y
 _atom_site_fract_z
 _atom_site_occupancy
  Cs  Cs0  1  0.00083868  0.00094455  0.00249759  1
  Cs  Cs1  1  -0.00063500  0.00024774  0.33265207  1
  Cs  Cs2  1  0.00074168  0.00088343  0.66579527  1
  Cs  Cs3  1  0.00076133  0.33390702  -0.00023266  1
  Cs  Cs4  1  0.00143516  0.33333830  0.33303302  1
  Cs  Cs5  1  -0.00049843  0.33268262  0.66703297  1
  Cs  Cs6  1  0.00054010  0.66475804  -0.00287198  1
  Cs  Cs7  1  0.00138229  0.66604711  0.33406552  1
  Cs  Cs8  1  -0.00223171  0.66647852  0.66840819  1
  Cs  Cs9  1  0.33580294  -0.00077396  -0.00490083  1
  Cs  Cs10  1  0.33162593  0.00019762  0.33613312  1
  Cs  Cs11  1  0.33712331  0.00104691  0.66884129  1
  Cs  Cs12  1  0.33207493  0.33470393  -0.00047390  1
  Cs  Cs13  1  0.33779974  0.33564609  0.34028417  1
  Cs  Cs14  1  0.33503195  0.33235298  0.66264960  1
  Cs  Cs15  1  0.33249382  0.66625066  0.00021119  1
  Cs  Cs16  1  0.33425662  0.66437316  0.33349259  1
  Cs  Cs17  1  0.33291755  0.66700582  0.66664468  1
  Cs  Cs18  1  0.65886234  -0.00361504  0.00811096  1
  Cs  Cs19  1  0.66880433  -0.00048403  0.32644755  1
  Cs  Cs20  1  0.66325027  0.00164673  0.66671477  1
  Cs  Cs21  1  0.66395174  0.33161600  0.00105299  1
  Cs  Cs22  1  0.66194701  0.33360626  0.33035970  1
  Cs  Cs23  1  0.66804324  0.33243950  0.66840280  1
  Cs  Cs24  1  0.66674429  0.67155364  -0.00041862  1
  Cs  Cs25  1  0.66375790  0.66681544  0.33325933  1
  Cs  Cs26  1  0.67241371  0.66668597  0.66697836  1
  Sn  Sn27  1  0.83380900  0.16608456  0.83352744  1
  Sn  Sn28  1  0.16664862  0.83321551  0.49956061  1
  Sn  Sn29  1  0.16631005  0.83313857  0.16731344  1
  Sn  Sn30  1  0.16651458  0.16721851  0.16620702  1
  Sn  Sn31  1  0.16752045  0.49900399  0.83366040  1
  Sn  Sn32  1  0.83330375  0.83363546  0.50001428  1
  Sn  Sn33  1  0.16563286  0.16769685  0.83386491  1
  Sn  Sn34  1  0.83380474  0.49966437  0.49879363  1
  Sn  Sn35  1  0.50016770  0.83327640  0.50010122  1
  Sn  Sn36  1  0.16598651  0.49954332  0.16635395  1
  Sn  Sn37  1  0.49918447  0.50009212  0.83329233  1
  Sn  Sn38  1  0.83375170  0.16664518  0.50039924  1
  Sn  Sn39  1  0.83403379  0.50000125  0.16729949  1
  Pb  Pb40  1  0.50006059  0.83074455  0.83125287  1
  Pb  Pb41  1  0.16640918  0.83356623  0.83346251  1
  Pb  Pb42  1  0.50340415  0.16431668  0.49989023  1
  Pb  Pb43  1  0.49675214  0.83311716  0.16906217  1
  Pb  Pb44  1  0.49968217  0.50014597  0.16457363  1
  Pb  Pb45  1  0.83501917  0.16869574  0.16653662  1
  Pb  Pb46  1  0.16501827  0.50182397  0.50035626  1
  Pb  Pb47  1  0.16505325  0.16461273  0.50034035  1
  Pb  Pb48  1  0.50308789  0.50182730  0.50229184  1
  Pb  Pb49  1  0.83336691  0.83703209  0.83167706  1
  Pb  Pb50  1  0.83376385  0.49833115  0.83378692  1
  Pb  Pb51  1  0.49978154  0.16858465  0.83337959  1
  Pb  Pb52  1  0.83558923  0.83089095  0.16867293  1
  Pb  Pb53  1  0.49609127  0.16684950  0.16665718  1
  I  I54  1  0.16636882  0.00011708  0.16746818  1
  I  I55  1  0.16377366  -0.00349058  0.49623038  1
  I  I56  1  0.16196204  0.00314569  0.83566034  1
  I  I57  1  0.16132336  0.33400631  0.16042034  1
  I  I58  1  0.16426137  0.33332267  0.49779312  1
  I  I59  1  0.16594937  0.33362098  0.84083003  1
  I  I60  1  0.16300078  0.66584565  0.16701073  1
  I  I61  1  0.16388064  0.66998105  0.49669535  1
  I  I62  1  0.16990009  0.66371883  0.83598219  1
  I  I63  1  0.50090415  -0.00018277  0.16654965  1
  I  I64  1  0.49927037  -0.00379097  0.50136084  1
  I  I65  1  0.49912646  0.00004803  0.83165686  1
  I  I66  1  0.49953171  0.33371417  0.16755150  1
  I  I67  1  0.50054090  0.33352810  0.50062605  1
  I  I68  1  0.49841617  0.33641235  0.83234867  1
  I  I69  1  0.49816871  0.66658180  0.16631798  1
  I  I70  1  0.50107896  0.66975348  0.50083473  1
  I  I71  1  0.49342691  0.66289640  0.83335966  1
  I  I72  1  0.83558920  0.00006965  0.16791671  1
  I  I73  1  0.83460001  -0.00022270  0.50588595  1
  I  I74  1  0.84153768  0.00499260  0.82736747  1
  I  I75  1  0.83997017  0.33654102  0.17211259  1
  I  I76  1  0.83551909  0.33340827  0.50126212  1
  I  I77  1  0.83559839  0.33069201  0.82642485  1
  I  I78  1  0.83920429  0.66287158  0.17062939  1
  I  I79  1  0.83371499  0.66678647  0.49588186  1
  I  I80  1  0.83393172  0.66643669  0.83158899  1
  I  I81  1  0.16012699  0.16594091  -0.00037625  1
  I  I82  1  0.16444206  0.16821876  0.33075005  1
  I  I83  1  0.16395562  0.17017124  0.66949393  1
  I  I84  1  0.16419635  0.50187745  0.00053430  1
  I  I85  1  0.16328728  0.49833606  0.33056194  1
  I  I86  1  0.16812645  0.49710797  0.66948420  1
  I  I87  1  0.16607386  0.83268198  0.00304813  1
  I  I88  1  0.16573070  0.83328750  0.33341798  1
  I  I89  1  0.16567467  0.83282072  0.66354468  1
  I  I90  1  0.50626910  0.16588503  -0.00019985  1
  I  I91  1  0.49980540  0.16780282  0.33350905  1
  I  I92  1  0.49549352  0.16624948  0.66658997  1
  I  I93  1  0.50012644  0.49925443  -0.00325794  1
  I  I94  1  0.49798196  0.50107522  0.33356095  1
  I  I95  1  0.49368396  0.50056941  0.66983391  1
  I  I96  1  0.49900401  0.83344760  0.00021826  1
  I  I97  1  0.50341666  0.83168612  0.33712137  1
  I  I98  1  0.49713873  0.83324207  0.66291152  1
  I  I99  1  0.83729427  0.17139508  -0.00251922  1
  I  I100  1  0.83527637  0.16410715  0.33611028  1
  I  I101  1  0.83978567  0.16866616  0.66614369  1
  I  I102  1  0.83568620  0.49749676  0.00249578  1
  I  I103  1  0.83998526  0.49916223  0.33382693  1
  I  I104  1  0.83339154  0.50248417  0.66416993  1
  I  I105  1  0.83523254  0.83182921  0.00042028  1
  I  I106  1  0.83220655  0.83836129  0.33744074  1
  I  I107  1  0.83726031  0.82672128  0.66227552  1
  I  I108  1  0.00337976  0.16494094  0.16584004  1
  I  I109  1  -0.00309886  0.16442917  0.50137387  1
  I  I110  1  0.00110485  0.17296295  0.83218996  1
  I  I111  1  0.00146622  0.50051039  0.16501563  1
  I  I112  1  -0.00316963  0.50267733  0.50127106  1
  I  I113  1  0.00281699  0.49817512  0.83464728  1
  I  I114  1  0.00381308  0.83503960  0.17291921  1
  I  I115  1  -0.00027046  0.83332767  0.49612653  1
  I  I116  1  0.00012512  0.82798018  0.82954301  1
  I  I117  1  0.32743427  0.16861098  0.16034031  1
  I  I118  1  0.33314470  0.16450023  0.50011194  1
  I  I119  1  0.32966244  0.16779024  0.83804575  1
  I  I120  1  0.32938648  0.50060022  0.16404392  1
  I  I121  1  0.33324711  0.50242335  0.49805400  1
  I  I122  1  0.33094025  0.49575311  0.83850896  1
  I  I123  1  0.32840755  0.83037280  0.17230574  1
  I  I124  1  0.33234266  0.83257259  0.49562821  1
  I  I125  1  0.33290162  0.83711369  0.82971982  1
  I  I126  1  0.66702008  0.16823155  0.16648244  1
  I  I127  1  0.67183719  0.16622857  0.50715095  1
  I  I128  1  0.66965083  0.16933337  0.82610897  1
  I  I129  1  0.66968203  0.49938565  0.17024840  1
  I  I130  1  0.67127897  0.50203278  0.49650897  1
  I  I131  1  0.66522825  0.49899681  0.83094727  1
  I  I132  1  0.66679149  0.83191854  0.16763686  1
  I  I133  1  0.66785414  0.83225886  0.50331625  1
  I  I134  1  0.66683687  0.83104164  0.83054012  1
