# generated using pymatgen
data_Cs27Sn13Pb14I81
_symmetry_space_group_name_H-M   'P 1'
_cell_length_a   18.98942362
_cell_length_b   19.00234191
_cell_length_c   18.98449506
_cell_angle_alpha   89.99892154
_cell_angle_beta   90.00220118
_cell_angle_gamma   89.99894383
_symmetry_Int_Tables_number   1
_chemical_formula_structural   Cs27Sn13Pb14I81
_chemical_formula_sum   'Cs27 Sn13 Pb14 I81'
_cell_volume   6850.43202039
_cell_formula_units_Z   1
loop_
 _symmetry_equiv_pos_site_id
 _symmetry_equiv_pos_as_xyz
  1  'x, y, z'
loop_
 _atom_site_type_symbol
 _atom_site_label
 _atom_site_symmetry_multiplicity
 _atom_site_fract_x
 _atom_site_fract_y
 _atom_site_fract_z
 _atom_site_occupancy
  Cs  Cs0  1  -0.00208492  0.00176666  -0.00026520  1
  Cs  Cs1  1  -0.00332782  0.00556867  0.33239883  1
  Cs  Cs2  1  -0.00226455  0.00470445  0.66704564  1
  Cs  Cs3  1  0.00116725  0.33045033  -0.00442398  1
  Cs  Cs4  1  -0.00308291  0.32461978  0.33387698  1
  Cs  Cs5  1  -0.00122410  0.33117075  0.66867639  1
  Cs  Cs6  1  0.00436671  0.66751130  -0.00102793  1
  Cs  Cs7  1  -0.00172541  0.66812100  0.33269953  1
  Cs  Cs8  1  0.00174974  0.66503041  0.66786597  1
  Cs  Cs9  1  0.33758713  -0.00079389  -0.00008080  1
  Cs  Cs10  1  0.33068834  -0.00317310  0.33535779  1
  Cs  Cs11  1  0.33741318  -0.00239525  0.66526898  1
  Cs  Cs12  1  0.33609600  0.33215544  0.00479458  1
  Cs  Cs13  1  0.33223728  0.33288762  0.33259957  1
  Cs  Cs14  1  0.33390719  0.33622553  0.66422160  1
  Cs  Cs15  1  0.32889209  0.66848680  0.00178289  1
  Cs  Cs16  1  0.33401216  0.66766513  0.33402192  1
  Cs  Cs17  1  0.33264208  0.66619724  0.66535418  1
  Cs  Cs18  1  0.66514790  0.00284557  -0.00267632  1
  Cs  Cs19  1  0.67442065  -0.00453873  0.33325461  1
  Cs  Cs20  1  0.66380354  0.00002056  0.66880968  1
  Cs  Cs21  1  0.66309719  0.33393121  0.00496546  1
  Cs  Cs22  1  0.67043729  0.33663744  0.32450494  1
  Cs  Cs23  1  0.66636526  0.33554261  0.66674770  1
  Cs  Cs24  1  0.66785450  0.66482755  0.00287666  1
  Cs  Cs25  1  0.67111953  0.66648698  0.33143379  1
  Cs  Cs26  1  0.66609929  0.66482859  0.66533064  1
  Sn  Sn27  1  0.50030102  0.16707152  0.49939907  1
  Sn  Sn28  1  0.49931932  0.83311865  0.16758786  1
  Sn  Sn29  1  0.16646945  0.50034494  0.16824591  1
  Sn  Sn30  1  0.16747390  0.16648453  0.83302777  1
  Sn  Sn31  1  0.83331496  0.83288665  0.83294871  1
  Sn  Sn32  1  0.49956263  0.49976520  0.50014477  1
  Sn  Sn33  1  0.50028424  0.50043380  0.83314278  1
  Sn  Sn34  1  0.83345816  0.16698765  0.83297042  1
  Sn  Sn35  1  0.49950451  0.83301736  0.49901008  1
  Sn  Sn36  1  0.16692539  0.50046427  0.49880652  1
  Sn  Sn37  1  0.16678136  0.83270206  0.49943642  1
  Sn  Sn38  1  0.83233661  0.50025102  0.83312338  1
  Sn  Sn39  1  0.16732314  0.83273187  0.16771926  1
  Pb  Pb40  1  0.49797795  0.50215078  0.16744462  1
  Pb  Pb41  1  0.16714993  0.49847369  0.83302603  1
  Pb  Pb42  1  0.83310915  0.16672007  0.16392870  1
  Pb  Pb43  1  0.83380707  0.83316318  0.50222535  1
  Pb  Pb44  1  0.16696277  0.16600994  0.16458838  1
  Pb  Pb45  1  0.83003410  0.16686507  0.50216691  1
  Pb  Pb46  1  0.49973018  0.16342944  0.17030776  1
  Pb  Pb47  1  0.50012555  0.16923984  0.83174410  1
  Pb  Pb48  1  0.50170429  0.83085454  0.83316157  1
  Pb  Pb49  1  0.83390110  0.83319658  0.16421772  1
  Pb  Pb50  1  0.83380133  0.50002714  0.50147701  1
  Pb  Pb51  1  0.83705106  0.50012053  0.16391417  1
  Pb  Pb52  1  0.16834046  0.16661675  0.50182958  1
  Pb  Pb53  1  0.16506303  0.83542839  0.83290746  1
  I  I54  1  0.17028706  -0.00371476  0.16996015  1
  I  I55  1  0.17132998  -0.00315522  0.49791704  1
  I  I56  1  0.16046460  0.00294088  0.83292371  1
  I  I57  1  0.16651358  0.33618211  0.16918302  1
  I  I58  1  0.17157723  0.33640845  0.49827292  1
  I  I59  1  0.16061055  0.33102052  0.83254838  1
  I  I60  1  0.17074417  0.66734863  0.16802877  1
  I  I61  1  0.17474838  0.66668785  0.49863436  1
  I  I62  1  0.16451356  0.66671660  0.83381318  1
  I  I63  1  0.49257665  -0.00456435  0.16843329  1
  I  I64  1  0.49525476  -0.00140728  0.49761913  1
  I  I65  1  0.50164832  -0.00015874  0.83251207  1
  I  I66  1  0.49906814  0.33355259  0.16559689  1
  I  I67  1  0.49519599  0.33482875  0.50878113  1
  I  I68  1  0.50414760  0.33699120  0.82768735  1
  I  I69  1  0.49808785  0.66981797  0.17064563  1
  I  I70  1  0.49531960  0.66659729  0.50198341  1
  I  I71  1  0.50448119  0.66328716  0.82746309  1
  I  I72  1  0.83496680  -0.00034351  0.16362964  1
  I  I73  1  0.83330999  -0.00011186  0.50421237  1
  I  I74  1  0.83898693  0.00037809  0.83313019  1
  I  I75  1  0.83387974  0.33365743  0.16473361  1
  I  I76  1  0.83486165  0.33344567  0.50448098  1
  I  I77  1  0.83477968  0.33349041  0.83200536  1
  I  I78  1  0.83119369  0.66670745  0.16188783  1
  I  I79  1  0.82920211  0.66667800  0.50556770  1
  I  I80  1  0.82875739  0.66599898  0.83286475  1
  I  I81  1  0.16149234  0.16790340  -0.00340947  1
  I  I82  1  0.16823454  0.16721760  0.33353068  1
  I  I83  1  0.16174534  0.16745281  0.66953256  1
  I  I84  1  0.16584595  0.50396193  0.00187760  1
  I  I85  1  0.17459605  0.50415298  0.33454375  1
  I  I86  1  0.16825604  0.50388315  0.66392635  1
  I  I87  1  0.16957965  0.82939925  0.00265102  1
  I  I88  1  0.17190183  0.82912477  0.33394373  1
  I  I89  1  0.17098266  0.82915693  0.66349980  1
  I  I90  1  0.50098800  0.16659199  0.00002251  1
  I  I91  1  0.49649098  0.17417666  0.33806263  1
  I  I92  1  0.49974950  0.16101330  0.66399281  1
  I  I93  1  0.50311746  0.50080147  -0.00219296  1
  I  I94  1  0.49670469  0.49796468  0.33688747  1
  I  I95  1  0.49807654  0.50222719  0.66549173  1
  I  I96  1  0.49627476  0.83113944  0.00229053  1
  I  I97  1  0.49541734  0.83196054  0.33470171  1
  I  I98  1  0.49666835  0.83473986  0.66336536  1
  I  I99  1  0.83716369  0.16605204  -0.00489394  1
  I  I100  1  0.83345564  0.16602438  0.33358857  1
  I  I101  1  0.83834581  0.16673838  0.67057580  1
  I  I102  1  0.82728550  0.49950676  -0.00460848  1
  I  I103  1  0.82945103  0.50063971  0.33313539  1
  I  I104  1  0.83417569  0.49976537  0.67025897  1
  I  I105  1  0.83343962  0.83373361  -0.00380570  1
  I  I106  1  0.83241312  0.83345603  0.33332315  1
  I  I107  1  0.83310740  0.83356274  0.67025703  1
  I  I108  1  0.00026359  0.16465851  0.16862514  1
  I  I109  1  0.00003686  0.16629719  0.50039989  1
  I  I110  1  -0.00083679  0.16935015  0.83261229  1
  I  I111  1  0.00488381  0.50807119  0.17066978  1
  I  I112  1  0.00379199  0.50630143  0.49889251  1
  I  I113  1  -0.00221086  0.50051998  0.83396411  1
  I  I114  1  0.00362937  0.82909209  0.16929398  1
  I  I115  1  0.00368187  0.82771445  0.49755600  1
  I  I116  1  -0.00286041  0.82843925  0.83345386  1
  I  I117  1  0.33338383  0.16904699  0.15953147  1
  I  I118  1  0.33611214  0.16636625  0.50545424  1
  I  I119  1  0.33141365  0.16830938  0.83214372  1
  I  I120  1  0.33025542  0.50210044  0.16339896  1
  I  I121  1  0.33392781  0.50110548  0.50428847  1
  I  I122  1  0.33570492  0.49810325  0.83096668  1
  I  I123  1  0.33262698  0.82935453  0.16923670  1
  I  I124  1  0.33377751  0.83289675  0.49774279  1
  I  I125  1  0.33339778  0.83409711  0.83370102  1
  I  I126  1  0.66619021  0.16558943  0.16398042  1
  I  I127  1  0.66199109  0.16534299  0.50400567  1
  I  I128  1  0.66938497  0.16436792  0.83091688  1
  I  I129  1  0.66659747  0.50115328  0.16778494  1
  I  I130  1  0.66319850  0.50122021  0.50451678  1
  I  I131  1  0.66640931  0.49868218  0.82665477  1
  I  I132  1  0.66383505  0.83366826  0.17121409  1
  I  I133  1  0.66311442  0.83269934  0.49704433  1
  I  I134  1  0.66962559  0.83848863  0.83296962  1
