# generated using pymatgen
data_Cs27Sn13Pb14I81
_symmetry_space_group_name_H-M   'P 1'
_cell_length_a   18.98572087
_cell_length_b   18.97264813
_cell_length_c   18.97141350
_cell_angle_alpha   89.99988279
_cell_angle_beta   89.99954096
_cell_angle_gamma   89.99953647
_symmetry_Int_Tables_number   1
_chemical_formula_structural   Cs27Sn13Pb14I81
_chemical_formula_sum   'Cs27 Sn13 Pb14 I81'
_cell_volume   6833.68150490
_cell_formula_units_Z   1
loop_
 _symmetry_equiv_pos_site_id
 _symmetry_equiv_pos_as_xyz
  1  'x, y, z'
loop_
 _atom_site_type_symbol
 _atom_site_label
 _atom_site_symmetry_multiplicity
 _atom_site_fract_x
 _atom_site_fract_y
 _atom_site_fract_z
 _atom_site_occupancy
  Cs  Cs0  1  -0.00035022  -0.00271085  0.00176659  1
  Cs  Cs1  1  0.00176444  -0.00870214  0.33715729  1
  Cs  Cs2  1  0.00072267  0.00497207  0.66121810  1
  Cs  Cs3  1  0.00006800  0.33295182  0.00032650  1
  Cs  Cs4  1  0.00060963  0.33558007  0.33059436  1
  Cs  Cs5  1  0.00126286  0.33027227  0.66969842  1
  Cs  Cs6  1  -0.00054964  0.66846366  -0.00123093  1
  Cs  Cs7  1  0.00029182  0.66950255  0.33396941  1
  Cs  Cs8  1  -0.00026167  0.66573420  0.66744770  1
  Cs  Cs9  1  0.33532817  -0.00248048  0.00044994  1
  Cs  Cs10  1  0.33198648  -0.00050787  0.33381421  1
  Cs  Cs11  1  0.33486466  0.00766040  0.66653643  1
  Cs  Cs12  1  0.33106228  0.33674200  -0.00120979  1
  Cs  Cs13  1  0.33374474  0.33387671  0.33169404  1
  Cs  Cs14  1  0.32988071  0.32677631  0.67183594  1
  Cs  Cs15  1  0.33642307  0.66568759  -0.00483074  1
  Cs  Cs16  1  0.33416215  0.66653632  0.33394518  1
  Cs  Cs17  1  0.33434995  0.66663076  0.67000535  1
  Cs  Cs18  1  0.66574336  -0.00068742  -0.00096616  1
  Cs  Cs19  1  0.66686267  -0.00104386  0.33388501  1
  Cs  Cs20  1  0.66563691  0.00904664  0.66753470  1
  Cs  Cs21  1  0.66753935  0.33421408  0.00324180  1
  Cs  Cs22  1  0.66564738  0.33509191  0.33114139  1
  Cs  Cs23  1  0.66877240  0.32450765  0.66478339  1
  Cs  Cs24  1  0.66537289  0.66687543  -0.00167649  1
  Cs  Cs25  1  0.66608827  0.66548041  0.33427766  1
  Cs  Cs26  1  0.66679248  0.66718673  0.66670021  1
  Sn  Sn27  1  0.83390992  0.16670787  0.16700812  1
  Sn  Sn28  1  0.83307054  0.50065566  0.83330471  1
  Sn  Sn29  1  0.83348143  0.50025596  0.50008392  1
  Sn  Sn30  1  0.50014363  0.83276336  0.49957937  1
  Sn  Sn31  1  0.16575116  0.83348057  0.83295779  1
  Sn  Sn32  1  0.49985097  0.16581854  0.16692742  1
  Sn  Sn33  1  0.50014936  0.83365711  0.16751267  1
  Sn  Sn34  1  0.83421282  0.49983906  0.16661962  1
  Sn  Sn35  1  0.49970861  0.50038164  0.50026156  1
  Sn  Sn36  1  0.83427219  0.83309750  0.83294892  1
  Sn  Sn37  1  0.16589654  0.49985054  0.16720944  1
  Sn  Sn38  1  0.16684962  0.50019076  0.49966613  1
  Sn  Sn39  1  0.16627244  0.16686522  0.16684740  1
  Pb  Pb40  1  0.49983274  0.50009212  0.16792200  1
  Pb  Pb41  1  0.83356671  0.16666304  0.83588004  1
  Pb  Pb42  1  0.16463752  0.50127527  0.83353295  1
  Pb  Pb43  1  0.83130523  0.83272194  0.16532170  1
  Pb  Pb44  1  0.83113388  0.83143437  0.50273433  1
  Pb  Pb45  1  0.83368295  0.16925249  0.49662029  1
  Pb  Pb46  1  0.50049543  0.83336896  0.83247619  1
  Pb  Pb47  1  0.16909739  0.83099656  0.50256764  1
  Pb  Pb48  1  0.16632872  0.16371955  0.83633160  1
  Pb  Pb49  1  0.16887267  0.83244049  0.16541329  1
  Pb  Pb50  1  0.49990341  0.16700629  0.49750737  1
  Pb  Pb51  1  0.49994455  0.16705623  0.83668630  1
  Pb  Pb52  1  0.50304990  0.49967893  0.82958563  1
  Pb  Pb53  1  0.16651037  0.16936765  0.49715155  1
  I  I54  1  0.16524496  0.00242146  0.16293996  1
  I  I55  1  0.16870945  -0.00020143  0.49976040  1
  I  I56  1  0.16122142  -0.00403092  0.83543281  1
  I  I57  1  0.16808644  0.33420585  0.17005180  1
  I  I58  1  0.16895192  0.33810390  0.49936969  1
  I  I59  1  0.16614489  0.33338357  0.83165973  1
  I  I60  1  0.16250316  0.66327384  0.16941167  1
  I  I61  1  0.16400766  0.66267493  0.49249529  1
  I  I62  1  0.16499118  0.66898013  0.83654189  1
  I  I63  1  0.50020252  0.00011994  0.17133390  1
  I  I64  1  0.50010722  -0.00273473  0.49799998  1
  I  I65  1  0.50238688  -0.00020344  0.82970532  1
  I  I66  1  0.50087901  0.33117974  0.16819699  1
  I  I67  1  0.50172877  0.33671454  0.49782755  1
  I  I68  1  0.50084741  0.33363502  0.83368969  1
  I  I69  1  0.50031975  0.66878374  0.16853900  1
  I  I70  1  0.50080960  0.66596587  0.49260519  1
  I  I71  1  0.49864719  0.66660193  0.83956691  1
  I  I72  1  0.83423710  0.00240413  0.16309263  1
  I  I73  1  0.83090153  -0.00009730  0.50046651  1
  I  I74  1  0.83512343  -0.00286054  0.83689508  1
  I  I75  1  0.83107713  0.33471119  0.16511863  1
  I  I76  1  0.82967382  0.33831618  0.50510229  1
  I  I77  1  0.83254505  0.33669306  0.83154763  1
  I  I78  1  0.83630820  0.66309852  0.16828884  1
  I  I79  1  0.83467738  0.66262694  0.49400652  1
  I  I80  1  0.83663506  0.66554932  0.83624410  1
  I  I81  1  0.16722427  0.17489534  0.00460649  1
  I  I82  1  0.16731927  0.16763172  0.32875626  1
  I  I83  1  0.16770033  0.16753152  0.66665055  1
  I  I84  1  0.16272120  0.49698947  0.00322288  1
  I  I85  1  0.16253572  0.49694730  0.33261986  1
  I  I86  1  0.16648284  0.50389797  0.66394099  1
  I  I87  1  0.16515065  0.83135852  -0.00229734  1
  I  I88  1  0.16683728  0.83480499  0.33340536  1
  I  I89  1  0.16375557  0.82908641  0.67010349  1
  I  I90  1  0.50103832  0.16029610  0.00529703  1
  I  I91  1  0.50055484  0.16612301  0.32925128  1
  I  I92  1  0.50055818  0.16558895  0.66626826  1
  I  I93  1  0.49992330  0.50055967  0.00009345  1
  I  I94  1  0.50447062  0.50112104  0.33592853  1
  I  I95  1  0.49833782  0.50897204  0.66140620  1
  I  I96  1  0.50006365  0.83801322  0.00248785  1
  I  I97  1  0.50004378  0.83282002  0.33290690  1
  I  I98  1  0.50008351  0.82557495  0.66365005  1
  I  I99  1  0.83233716  0.17314635  0.00412329  1
  I  I100  1  0.83183593  0.17234933  0.32841071  1
  I  I101  1  0.83197258  0.16728684  0.66657039  1
  I  I102  1  0.83792339  0.49948890  0.00115429  1
  I  I103  1  0.83305606  0.49479823  0.33291814  1
  I  I104  1  0.83248218  0.50705915  0.66632596  1
  I  I105  1  0.83386478  0.82736414  -0.00253669  1
  I  I106  1  0.83310317  0.83296612  0.33342426  1
  I  I107  1  0.83505175  0.82593182  0.67058276  1
  I  I108  1  -0.00009756  0.17421489  0.16495365  1
  I  I109  1  0.00003368  0.16706939  0.49838009  1
  I  I110  1  -0.00011661  0.16850596  0.83625381  1
  I  I111  1  -0.00058906  0.49264786  0.17046109  1
  I  I112  1  -0.00036034  0.49905153  0.49821920  1
  I  I113  1  -0.00346738  0.50232719  0.83061629  1
  I  I114  1  -0.00002827  0.83581722  0.16610095  1
  I  I115  1  0.00000651  0.83192763  0.49880485  1
  I  I116  1  -0.00085207  0.82771158  0.83653489  1
  I  I117  1  0.33316012  0.16735007  0.16723085  1
  I  I118  1  0.33333089  0.16896546  0.49751051  1
  I  I119  1  0.33303418  0.16472001  0.83503947  1
  I  I120  1  0.33079684  0.49736458  0.17118451  1
  I  I121  1  0.33316947  0.50458378  0.49223163  1
  I  I122  1  0.33313001  0.50264503  0.83481023  1
  I  I123  1  0.33670190  0.83647250  0.16738806  1
  I  I124  1  0.33684679  0.82665808  0.49703272  1
  I  I125  1  0.33132689  0.83234775  0.83528041  1
  I  I126  1  0.66697715  0.16827937  0.16642493  1
  I  I127  1  0.66671859  0.16892694  0.49777585  1
  I  I128  1  0.66698648  0.16467047  0.83530841  1
  I  I129  1  0.66941344  0.49736103  0.16716437  1
  I  I130  1  0.66708775  0.50452228  0.49862642  1
  I  I131  1  0.67137744  0.50727523  0.83749561  1
  I  I132  1  0.66341923  0.83607437  0.16760706  1
  I  I133  1  0.66334702  0.82650312  0.49660777  1
  I  I134  1  0.66950413  0.82779349  0.83502772  1
