# generated using pymatgen
data_Cs27Sn13Pb14I81
_symmetry_space_group_name_H-M   'P 1'
_cell_length_a   19.00474433
_cell_length_b   18.98235007
_cell_length_c   18.98896633
_cell_angle_alpha   89.99902333
_cell_angle_beta   90.00059154
_cell_angle_gamma   90.00036445
_symmetry_Int_Tables_number   1
_chemical_formula_structural   Cs27Sn13Pb14I81
_chemical_formula_sum   'Cs27 Sn13 Pb14 I81'
_cell_volume   6850.35903649
_cell_formula_units_Z   1
loop_
 _symmetry_equiv_pos_site_id
 _symmetry_equiv_pos_as_xyz
  1  'x, y, z'
loop_
 _atom_site_type_symbol
 _atom_site_label
 _atom_site_symmetry_multiplicity
 _atom_site_fract_x
 _atom_site_fract_y
 _atom_site_fract_z
 _atom_site_occupancy
  Cs  Cs0  1  0.00186469  -0.00205977  -0.00020762  1
  Cs  Cs1  1  -0.00085479  -0.00038709  0.33458087  1
  Cs  Cs2  1  -0.00109392  0.00176487  0.66615093  1
  Cs  Cs3  1  -0.00043228  0.33819366  0.01063021  1
  Cs  Cs4  1  -0.00274696  0.33468441  0.32871260  1
  Cs  Cs5  1  0.00082336  0.32852007  0.66489001  1
  Cs  Cs6  1  0.00815852  0.66232795  -0.01006900  1
  Cs  Cs7  1  -0.00090333  0.66697314  0.33366907  1
  Cs  Cs8  1  -0.00171832  0.66533573  0.67273878  1
  Cs  Cs9  1  0.33438537  -0.00054982  0.00141831  1
  Cs  Cs10  1  0.33405272  -0.00146344  0.33480852  1
  Cs  Cs11  1  0.33540577  0.00289500  0.66529718  1
  Cs  Cs12  1  0.33368680  0.34038638  0.00712130  1
  Cs  Cs13  1  0.33466628  0.33473491  0.32840657  1
  Cs  Cs14  1  0.33313571  0.32954341  0.66636964  1
  Cs  Cs15  1  0.32410646  0.66059522  -0.00155306  1
  Cs  Cs16  1  0.33348947  0.66891065  0.33407917  1
  Cs  Cs17  1  0.33408206  0.66366183  0.66641503  1
  Cs  Cs18  1  0.66554088  -0.00004482  -0.00059041  1
  Cs  Cs19  1  0.66643206  -0.00192016  0.33339562  1
  Cs  Cs20  1  0.66600020  0.00117501  0.66652139  1
  Cs  Cs21  1  0.66671959  0.33884728  0.00993591  1
  Cs  Cs22  1  0.66831398  0.34178612  0.32602684  1
  Cs  Cs23  1  0.66629977  0.33476640  0.66622938  1
  Cs  Cs24  1  0.66864208  0.66432918  -0.00404340  1
  Cs  Cs25  1  0.66657277  0.66798147  0.33526404  1
  Cs  Cs26  1  0.66786140  0.66081250  0.66823050  1
  Sn  Sn27  1  0.16692944  0.16652750  0.83318497  1
  Sn  Sn28  1  0.16678311  0.16673072  0.50010431  1
  Sn  Sn29  1  0.50077450  0.83369620  0.16620514  1
  Sn  Sn30  1  0.83303328  0.83414766  0.49984387  1
  Sn  Sn31  1  0.83293542  0.16651503  0.83311309  1
  Sn  Sn32  1  0.49990609  0.83389563  0.83303260  1
  Sn  Sn33  1  0.83259888  0.16603633  0.50041666  1
  Sn  Sn34  1  0.50041443  0.83410170  0.50069898  1
  Sn  Sn35  1  0.83297449  0.83365872  0.16656711  1
  Sn  Sn36  1  0.50018371  0.16634485  0.83303412  1
  Sn  Sn37  1  0.16657696  0.49959604  0.50038747  1
  Sn  Sn38  1  0.50063008  0.16628222  0.50011238  1
  Sn  Sn39  1  0.16641768  0.83334361  0.50050013  1
  Pb  Pb40  1  0.83350131  0.50475318  0.16678868  1
  Pb  Pb41  1  0.50006037  0.16462475  0.16680742  1
  Pb  Pb42  1  0.16673164  0.16625931  0.16694436  1
  Pb  Pb43  1  0.49996444  0.49893248  0.83297598  1
  Pb  Pb44  1  0.83320447  0.16418047  0.16693512  1
  Pb  Pb45  1  0.83567326  0.49984313  0.50024063  1
  Pb  Pb46  1  0.16636379  0.83354799  0.16865868  1
  Pb  Pb47  1  0.83333823  0.49573232  0.83294229  1
  Pb  Pb48  1  0.49803985  0.49949346  0.50008375  1
  Pb  Pb49  1  0.83135433  0.83511004  0.83294919  1
  Pb  Pb50  1  0.16661941  0.50034288  0.16987179  1
  Pb  Pb51  1  0.16934549  0.83577713  0.83035547  1
  Pb  Pb52  1  0.50001193  0.50443840  0.16687183  1
  Pb  Pb53  1  0.16673298  0.49609251  0.83049565  1
  I  I54  1  0.16676561  -0.00033374  0.16954349  1
  I  I55  1  0.16704970  0.00036227  0.50266503  1
  I  I56  1  0.16439002  0.00366525  0.82644986  1
  I  I57  1  0.16682711  0.33333323  0.16811126  1
  I  I58  1  0.16695898  0.33154296  0.50532508  1
  I  I59  1  0.16962139  0.32809033  0.82535597  1
  I  I60  1  0.16768108  0.66707913  0.16858590  1
  I  I61  1  0.16822738  0.66788553  0.49674255  1
  I  I62  1  0.16827338  0.66666750  0.83267487  1
  I  I63  1  0.50328245  -0.00353600  0.16829951  1
  I  I64  1  0.49594696  -0.00063359  0.50019762  1
  I  I65  1  0.49979534  0.00060402  0.83150506  1
  I  I66  1  0.49918087  0.33350858  0.16680260  1
  I  I67  1  0.49947931  0.32934189  0.50657449  1
  I  I68  1  0.49937708  0.32864833  0.82515463  1
  I  I69  1  0.50461086  0.67253500  0.17022064  1
  I  I70  1  0.49975259  0.67060152  0.49965725  1
  I  I71  1  0.50112025  0.67008566  0.83176782  1
  I  I72  1  0.82895656  -0.00350734  0.17049598  1
  I  I73  1  0.83720854  -0.00005002  0.49970085  1
  I  I74  1  0.83539436  0.00339395  0.83059551  1
  I  I75  1  0.83406485  0.33352143  0.16667962  1
  I  I76  1  0.83352143  0.32945750  0.50537011  1
  I  I77  1  0.83087287  0.32726039  0.82374824  1
  I  I78  1  0.82688409  0.67240968  0.17665929  1
  I  I79  1  0.83238696  0.67035982  0.49475318  1
  I  I80  1  0.83128550  0.66691900  0.83350921  1
  I  I81  1  0.16711993  0.16483617  -0.00338623  1
  I  I82  1  0.16684214  0.16619447  0.33809459  1
  I  I83  1  0.16683274  0.16617846  0.66489545  1
  I  I84  1  0.16660614  0.49942626  -0.00032394  1
  I  I85  1  0.16721695  0.49712245  0.33792813  1
  I  I86  1  0.16727738  0.50348844  0.66287418  1
  I  I87  1  0.16679458  0.83491099  -0.00057343  1
  I  I88  1  0.17151693  0.83682813  0.33792147  1
  I  I89  1  0.16475084  0.83184537  0.66189858  1
  I  I90  1  0.49953260  0.16130273  -0.00345328  1
  I  I91  1  0.49809867  0.16208893  0.33706288  1
  I  I92  1  0.49877372  0.15873304  0.66573033  1
  I  I93  1  0.49894085  0.49794284  0.00003728  1
  I  I94  1  0.49809221  0.49806776  0.33352903  1
  I  I95  1  0.49979863  0.50599696  0.66644643  1
  I  I96  1  0.50640744  0.83966416  -0.00042100  1
  I  I97  1  0.49965430  0.83699495  0.33514100  1
  I  I98  1  0.49892153  0.83820609  0.66538037  1
  I  I99  1  0.83319140  0.16471062  -0.00306594  1
  I  I100  1  0.83497916  0.16446686  0.33709058  1
  I  I101  1  0.83433837  0.16053484  0.66508147  1
  I  I102  1  0.83402591  0.49928434  0.00009131  1
  I  I103  1  0.83487275  0.49410021  0.33354522  1
  I  I104  1  0.83303967  0.50673022  0.66635753  1
  I  I105  1  0.82619900  0.83620490  0.00211769  1
  I  I106  1  0.82923320  0.83889599  0.33559060  1
  I  I107  1  0.83400171  0.83556040  0.66314252  1
  I  I108  1  -0.00012523  0.16388730  0.16686232  1
  I  I109  1  0.00005151  0.16322276  0.50597540  1
  I  I110  1  0.00000675  0.16616926  0.82430220  1
  I  I111  1  -0.00000376  0.50028308  0.16770546  1
  I  I112  1  0.00351868  0.49974358  0.50010370  1
  I  I113  1  0.00023109  0.50256091  0.83237138  1
  I  I114  1  -0.00313219  0.83528782  0.17394886  1
  I  I115  1  -0.00026899  0.83679296  0.49382672  1
  I  I116  1  0.00010005  0.83446745  0.83460147  1
  I  I117  1  0.33347950  0.16356302  0.16805368  1
  I  I118  1  0.33343444  0.16309356  0.50592225  1
  I  I119  1  0.33385826  0.16143403  0.82424668  1
  I  I120  1  0.33331734  0.50109655  0.16663668  1
  I  I121  1  0.33016971  0.50054192  0.50065976  1
  I  I122  1  0.33320046  0.49978239  0.83279102  1
  I  I123  1  0.33642253  0.83463916  0.16887130  1
  I  I124  1  0.33396199  0.83587264  0.49938674  1
  I  I125  1  0.33731384  0.83940672  0.83391725  1
  I  I126  1  0.66664464  0.16746112  0.16670852  1
  I  I127  1  0.66647755  0.15726930  0.50725012  1
  I  I128  1  0.66604255  0.16070358  0.82488142  1
  I  I129  1  0.66677015  0.49574267  0.16785557  1
  I  I130  1  0.66678099  0.50008775  0.49912175  1
  I  I131  1  0.66657872  0.49968879  0.83249739  1
  I  I132  1  0.66606469  0.83551489  0.17379385  1
  I  I133  1  0.66615849  0.84058396  0.49816350  1
  I  I134  1  0.66338206  0.83976960  0.82911646  1
