# generated using pymatgen
data_Cs27Sn13Pb14I81
_symmetry_space_group_name_H-M   'P 1'
_cell_length_a   18.98125394
_cell_length_b   18.97510239
_cell_length_c   18.97579926
_cell_angle_alpha   90.00018560
_cell_angle_beta   89.99838014
_cell_angle_gamma   89.99998493
_symmetry_Int_Tables_number   1
_chemical_formula_structural   Cs27Sn13Pb14I81
_chemical_formula_sum   'Cs27 Sn13 Pb14 I81'
_cell_volume   6834.53708718
_cell_formula_units_Z   1
loop_
 _symmetry_equiv_pos_site_id
 _symmetry_equiv_pos_as_xyz
  1  'x, y, z'
loop_
 _atom_site_type_symbol
 _atom_site_label
 _atom_site_symmetry_multiplicity
 _atom_site_fract_x
 _atom_site_fract_y
 _atom_site_fract_z
 _atom_site_occupancy
  Cs  Cs0  1  0.00232133  -0.00102603  0.00094954  1
  Cs  Cs1  1  0.00100949  -0.00031942  0.33090912  1
  Cs  Cs2  1  0.00167078  0.00336770  0.66699605  1
  Cs  Cs3  1  0.00087823  0.33245240  -0.00174669  1
  Cs  Cs4  1  0.00091637  0.33296518  0.33381306  1
  Cs  Cs5  1  -0.00196247  0.33028123  0.66768160  1
  Cs  Cs6  1  0.00065221  0.66827011  0.00146936  1
  Cs  Cs7  1  -0.00292407  0.66688770  0.33212270  1
  Cs  Cs8  1  0.00014458  0.66581850  0.66623598  1
  Cs  Cs9  1  0.33200019  0.00032353  -0.00203854  1
  Cs  Cs10  1  0.33468527  0.00131163  0.33885661  1
  Cs  Cs11  1  0.33185929  -0.00138310  0.66714440  1
  Cs  Cs12  1  0.33444856  0.33656565  0.00217405  1
  Cs  Cs13  1  0.34162638  0.33929858  0.33784133  1
  Cs  Cs14  1  0.33228834  0.34136996  0.66166577  1
  Cs  Cs15  1  0.33199498  0.66466623  -0.00010630  1
  Cs  Cs16  1  0.33314860  0.66062211  0.34140706  1
  Cs  Cs17  1  0.33422818  0.66142641  0.65938204  1
  Cs  Cs18  1  0.66521704  -0.00136569  -0.00017028  1
  Cs  Cs19  1  0.66503995  0.00147717  0.33239390  1
  Cs  Cs20  1  0.66620926  0.00193465  0.66762983  1
  Cs  Cs21  1  0.66417840  0.33430108  -0.00185595  1
  Cs  Cs22  1  0.66123127  0.33062657  0.33254472  1
  Cs  Cs23  1  0.67023571  0.33286240  0.66944614  1
  Cs  Cs24  1  0.66693380  0.66976347  -0.00072908  1
  Cs  Cs25  1  0.67131155  0.66807217  0.33395214  1
  Cs  Cs26  1  0.66602477  0.66603610  0.66628946  1
  Sn  Sn27  1  0.83359323  0.83326832  0.50004651  1
  Sn  Sn28  1  0.16707416  0.83356892  0.83398691  1
  Sn  Sn29  1  0.83329917  0.83367420  0.16653618  1
  Sn  Sn30  1  0.83362738  0.83364598  0.83309118  1
  Sn  Sn31  1  0.49908068  0.83341851  0.16629567  1
  Sn  Sn32  1  0.83352381  0.50047064  0.49910331  1
  Sn  Sn33  1  0.49839686  0.16585079  0.83357751  1
  Sn  Sn34  1  0.49932697  0.83383450  0.83421574  1
  Sn  Sn35  1  0.16805777  0.16591751  0.83439604  1
  Sn  Sn36  1  0.16669062  0.16598247  0.16634003  1
  Sn  Sn37  1  0.16757544  0.83398902  0.16633579  1
  Sn  Sn38  1  0.83342231  0.49963082  0.16713186  1
  Sn  Sn39  1  0.83384587  0.16658003  0.16620712  1
  Pb  Pb40  1  0.16417463  0.83349092  0.49982751  1
  Pb  Pb41  1  0.49907593  0.16455857  0.16503943  1
  Pb  Pb42  1  0.83340295  0.16649956  0.49704045  1
  Pb  Pb43  1  0.16330250  0.49992611  0.49975853  1
  Pb  Pb44  1  0.83365185  0.16433555  0.83576657  1
  Pb  Pb45  1  0.16471308  0.49991405  0.16664013  1
  Pb  Pb46  1  0.50367279  0.50013413  0.50001473  1
  Pb  Pb47  1  0.16656084  0.50001397  0.83359411  1
  Pb  Pb48  1  0.49993729  0.50048286  0.83356449  1
  Pb  Pb49  1  0.16671329  0.16651092  0.49958591  1
  Pb  Pb50  1  0.50250146  0.83360544  0.50030324  1
  Pb  Pb51  1  0.83348692  0.50259650  0.83369493  1
  Pb  Pb52  1  0.50277990  0.50339559  0.16642586  1
  Pb  Pb53  1  0.49998078  0.16626305  0.50378784  1
  I  I54  1  0.15904556  -0.00115409  0.16185971  1
  I  I55  1  0.16260634  -0.00023094  0.49992034  1
  I  I56  1  0.16618178  -0.00125832  0.83744442  1
  I  I57  1  0.15992570  0.32967151  0.16099896  1
  I  I58  1  0.16326998  0.33318794  0.50138668  1
  I  I59  1  0.17020129  0.32939032  0.83826396  1
  I  I60  1  0.16456939  0.67048513  0.16154896  1
  I  I61  1  0.16775654  0.66707152  0.50077926  1
  I  I62  1  0.16549261  0.67093487  0.83843839  1
  I  I63  1  0.50725405  -0.00370019  0.16450741  1
  I  I64  1  0.50425474  -0.00043992  0.49724170  1
  I  I65  1  0.50066998  -0.00174317  0.83732004  1
  I  I66  1  0.50124267  0.33315614  0.16492348  1
  I  I67  1  0.50240559  0.33331565  0.50033132  1
  I  I68  1  0.49647688  0.32996352  0.83381691  1
  I  I69  1  0.50039778  0.67193254  0.15933690  1
  I  I70  1  0.49858736  0.66706903  0.50230738  1
  I  I71  1  0.50154737  0.67104117  0.83723291  1
  I  I72  1  0.83403895  -0.00169144  0.16639483  1
  I  I73  1  0.83323257  -0.00328234  0.49955166  1
  I  I74  1  0.83272197  -0.00424651  0.83294779  1
  I  I75  1  0.83870960  0.33295146  0.17122935  1
  I  I76  1  0.83347468  0.33631377  0.49561839  1
  I  I77  1  0.83296092  0.33297715  0.83279808  1
  I  I78  1  0.83303593  0.66871933  0.16734212  1
  I  I79  1  0.83345509  0.66809520  0.49477594  1
  I  I80  1  0.83301792  0.67151320  0.83788887  1
  I  I81  1  0.16473743  0.16128708  0.00015197  1
  I  I82  1  0.15918392  0.16033017  0.32914428  1
  I  I83  1  0.16923602  0.16090829  0.67052309  1
  I  I84  1  0.16242065  0.50109856  0.00020489  1
  I  I85  1  0.16712186  0.50101499  0.33292052  1
  I  I86  1  0.16426889  0.50056444  0.66677054  1
  I  I87  1  0.16122855  0.83666643  0.00024158  1
  I  I88  1  0.16521018  0.83754592  0.32951737  1
  I  I89  1  0.16579277  0.83771724  0.67029828  1
  I  I90  1  0.50046772  0.16291507  -0.00301973  1
  I  I91  1  0.50088820  0.16540807  0.33299108  1
  I  I92  1  0.49648275  0.15800466  0.67220123  1
  I  I93  1  0.50417359  0.49917148  0.00014649  1
  I  I94  1  0.49817361  0.50088382  0.33303882  1
  I  I95  1  0.50253726  0.50169074  0.66680028  1
  I  I96  1  0.50615658  0.83634897  -0.00035687  1
  I  I97  1  0.50154840  0.83323240  0.33011645  1
  I  I98  1  0.50095551  0.83704623  0.67048619  1
  I  I99  1  0.83443081  0.16664398  0.00394111  1
  I  I100  1  0.83873565  0.16127301  0.32871826  1
  I  I101  1  0.83322480  0.16692289  0.66701145  1
  I  I102  1  0.83355486  0.50188021  0.00337517  1
  I  I103  1  0.83423529  0.50743207  0.33222488  1
  I  I104  1  0.83289857  0.50578745  0.66387102  1
  I  I105  1  0.83293156  0.83305580  0.00100670  1
  I  I106  1  0.83335109  0.83204909  0.33148705  1
  I  I107  1  0.83293039  0.82823847  0.66727033  1
  I  I108  1  -0.00025781  0.16184029  0.16179294  1
  I  I109  1  -0.00025260  0.16708237  0.50542340  1
  I  I110  1  0.00277884  0.16245094  0.83500652  1
  I  I111  1  -0.00390312  0.50569498  0.17003286  1
  I  I112  1  -0.00463134  0.50589913  0.49542094  1
  I  I113  1  -0.00026650  0.50014280  0.83239869  1
  I  I114  1  -0.00109368  0.83322796  0.16449716  1
  I  I115  1  -0.00421436  0.82935090  0.49924391  1
  I  I116  1  0.00001634  0.83601553  0.83613907  1
  I  I117  1  0.32997570  0.16029281  0.16360524  1
  I  I118  1  0.33334016  0.16632419  0.49439852  1
  I  I119  1  0.33242508  0.15615519  0.83970139  1
  I  I120  1  0.33345730  0.49997797  0.16608921  1
  I  I121  1  0.33352780  0.49962739  0.50078276  1
  I  I122  1  0.33328632  0.50458655  0.83305885  1
  I  I123  1  0.33248389  0.83920933  0.15776375  1
  I  I124  1  0.33328693  0.83336012  0.49955962  1
  I  I125  1  0.33302920  0.83837546  0.84212641  1
  I  I126  1  0.66910931  0.16535497  0.16613905  1
  I  I127  1  0.66704743  0.16632051  0.49977364  1
  I  I128  1  0.66476562  0.16204155  0.83445396  1
  I  I129  1  0.67136651  0.49970619  0.17031718  1
  I  I130  1  0.67141278  0.50643574  0.49565636  1
  I  I131  1  0.66694290  0.49934851  0.83303551  1
  I  I132  1  0.66825795  0.83265784  0.16409412  1
  I  I133  1  0.67097988  0.82912761  0.49914576  1
  I  I134  1  0.66688287  0.83606785  0.83648934  1
