# generated using pymatgen
data_Cs27Sn13Pb14I81
_symmetry_space_group_name_H-M   'P 1'
_cell_length_a   18.97929666
_cell_length_b   18.97906120
_cell_length_c   18.97311534
_cell_angle_alpha   90.00083104
_cell_angle_beta   90.00027519
_cell_angle_gamma   89.99949083
_symmetry_Int_Tables_number   1
_chemical_formula_structural   Cs27Sn13Pb14I81
_chemical_formula_sum   'Cs27 Sn13 Pb14 I81'
_cell_volume   6834.29131947
_cell_formula_units_Z   1
loop_
 _symmetry_equiv_pos_site_id
 _symmetry_equiv_pos_as_xyz
  1  'x, y, z'
loop_
 _atom_site_type_symbol
 _atom_site_label
 _atom_site_symmetry_multiplicity
 _atom_site_fract_x
 _atom_site_fract_y
 _atom_site_fract_z
 _atom_site_occupancy
  Cs  Cs0  1  -0.00247036  -0.00225311  0.00106358  1
  Cs  Cs1  1  0.00148717  -0.00003539  0.33024108  1
  Cs  Cs2  1  -0.00069369  0.00033032  0.66558806  1
  Cs  Cs3  1  -0.00012533  0.34315300  0.00113425  1
  Cs  Cs4  1  0.00232467  0.33099018  0.32563210  1
  Cs  Cs5  1  -0.00027504  0.33132841  0.66930002  1
  Cs  Cs6  1  0.00188552  0.66081607  0.00528850  1
  Cs  Cs7  1  -0.00044445  0.66843394  0.32651568  1
  Cs  Cs8  1  0.00065177  0.66746131  0.66790388  1
  Cs  Cs9  1  0.33752451  0.00219251  -0.00239948  1
  Cs  Cs10  1  0.33066516  0.00137962  0.33481246  1
  Cs  Cs11  1  0.33199151  -0.00077717  0.66757902  1
  Cs  Cs12  1  0.33554641  0.33480513  0.00205315  1
  Cs  Cs13  1  0.33167091  0.32855176  0.33457498  1
  Cs  Cs14  1  0.33109728  0.33367066  0.66536799  1
  Cs  Cs15  1  0.33377596  0.66476608  0.00052210  1
  Cs  Cs16  1  0.33603755  0.66730811  0.33439009  1
  Cs  Cs17  1  0.33303822  0.66799663  0.66603332  1
  Cs  Cs18  1  0.66541307  0.00414660  -0.00173463  1
  Cs  Cs19  1  0.66793252  -0.00090055  0.33395033  1
  Cs  Cs20  1  0.66858917  -0.00087153  0.66823136  1
  Cs  Cs21  1  0.66497035  0.33011995  0.00287798  1
  Cs  Cs22  1  0.66768037  0.33558292  0.33452885  1
  Cs  Cs23  1  0.66924631  0.33506385  0.66389095  1
  Cs  Cs24  1  0.66449150  0.66616973  0.00120151  1
  Cs  Cs25  1  0.66459566  0.66502166  0.33525732  1
  Cs  Cs26  1  0.66744455  0.66677076  0.66427266  1
  Sn  Sn27  1  0.50092351  0.16553026  0.50052619  1
  Sn  Sn28  1  0.16570345  0.83405041  0.83284185  1
  Sn  Sn29  1  0.83365402  0.83402170  0.50067892  1
  Sn  Sn30  1  0.83437210  0.83366830  0.83277631  1
  Sn  Sn31  1  0.16604471  0.50096229  0.50014121  1
  Sn  Sn32  1  0.16569897  0.16591651  0.83318529  1
  Sn  Sn33  1  0.83280008  0.16575774  0.50060101  1
  Sn  Sn34  1  0.83454686  0.16588169  0.83256161  1
  Sn  Sn35  1  0.50004652  0.83428831  0.49937117  1
  Sn  Sn36  1  0.49984101  0.50069296  0.16601899  1
  Sn  Sn37  1  0.49997146  0.83315604  0.16741941  1
  Sn  Sn38  1  0.16624902  0.83219758  0.50067721  1
  Sn  Sn39  1  0.50029025  0.50005984  0.83344832  1
  Pb  Pb40  1  0.49855423  0.50003465  0.49976243  1
  Pb  Pb41  1  0.83075756  0.83342124  0.16640959  1
  Pb  Pb42  1  0.50007726  0.16638163  0.16981443  1
  Pb  Pb43  1  0.83347079  0.16638252  0.16642168  1
  Pb  Pb44  1  0.16652437  0.16628147  0.16220932  1
  Pb  Pb45  1  0.83046566  0.50016195  0.16685409  1
  Pb  Pb46  1  0.16840492  0.50049926  0.83184988  1
  Pb  Pb47  1  0.83655019  0.50003625  0.49997475  1
  Pb  Pb48  1  0.50018035  0.83206836  0.83285337  1
  Pb  Pb49  1  0.16573045  0.16592090  0.50125728  1
  Pb  Pb50  1  0.50042229  0.16890950  0.83082653  1
  Pb  Pb51  1  0.16918974  0.83367226  0.16611438  1
  Pb  Pb52  1  0.16940047  0.50024390  0.16978593  1
  Pb  Pb53  1  0.83106301  0.50030606  0.83313618  1
  I  I54  1  0.17031416  -0.00028116  0.17313099  1
  I  I55  1  0.16869065  -0.00333389  0.50225979  1
  I  I56  1  0.16517088  -0.00114004  0.82622799  1
  I  I57  1  0.17003947  0.33344301  0.16914370  1
  I  I58  1  0.17006970  0.33463629  0.50211022  1
  I  I59  1  0.16405691  0.33088925  0.83006492  1
  I  I60  1  0.16601757  0.66692013  0.16268673  1
  I  I61  1  0.16933996  0.66918660  0.50618021  1
  I  I62  1  0.16429027  0.67004357  0.83005291  1
  I  I63  1  0.50011298  -0.00305058  0.16889981  1
  I  I64  1  0.49816951  -0.00156206  0.49539116  1
  I  I65  1  0.49913477  -0.00000172  0.83598330  1
  I  I66  1  0.49961195  0.33603928  0.16316322  1
  I  I67  1  0.50222079  0.33097850  0.50121019  1
  I  I68  1  0.49893971  0.33641658  0.83721350  1
  I  I69  1  0.49996753  0.66726323  0.16923882  1
  I  I70  1  0.50174998  0.66967260  0.49938066  1
  I  I71  1  0.49915850  0.66442685  0.83214076  1
  I  I72  1  0.82935869  -0.00026173  0.16658972  1
  I  I73  1  0.83254949  -0.00097607  0.50438397  1
  I  I74  1  0.83582460  -0.00050004  0.82848964  1
  I  I75  1  0.83069325  0.33315056  0.16736562  1
  I  I76  1  0.82788870  0.32987999  0.50486004  1
  I  I77  1  0.83623822  0.32993237  0.82821533  1
  I  I78  1  0.83401517  0.66712640  0.16668256  1
  I  I79  1  0.82902938  0.67049257  0.50474958  1
  I  I80  1  0.83573418  0.67036079  0.82773767  1
  I  I81  1  0.16278737  0.16035193  -0.00595253  1
  I  I82  1  0.16765431  0.16797842  0.33364941  1
  I  I83  1  0.16671614  0.16557171  0.66917154  1
  I  I84  1  0.16703404  0.49933945  0.00001795  1
  I  I85  1  0.16884406  0.50583508  0.33771549  1
  I  I86  1  0.17203743  0.50230846  0.66412292  1
  I  I87  1  0.16378025  0.83765035  -0.00380812  1
  I  I88  1  0.16486008  0.82915767  0.33685732  1
  I  I89  1  0.16938890  0.83305915  0.66585503  1
  I  I90  1  0.49962725  0.16553925  -0.00021822  1
  I  I91  1  0.50462528  0.16791544  0.33796635  1
  I  I92  1  0.50066831  0.16176004  0.66302749  1
  I  I93  1  0.49926698  0.50611635  0.00035669  1
  I  I94  1  0.49809703  0.50200588  0.33127626  1
  I  I95  1  0.49818499  0.50023176  0.66822314  1
  I  I96  1  0.49962565  0.82933488  0.00178932  1
  I  I97  1  0.50013983  0.83036417  0.33521746  1
  I  I98  1  0.49946596  0.83472588  0.66352574  1
  I  I99  1  0.83599213  0.16162085  -0.00402927  1
  I  I100  1  0.82824816  0.16262230  0.33717815  1
  I  I101  1  0.83239879  0.16232578  0.66641940  1
  I  I102  1  0.83535542  0.50019954  -0.00031784  1
  I  I103  1  0.83099838  0.49994480  0.33383042  1
  I  I104  1  0.82792923  0.49989443  0.66650075  1
  I  I105  1  0.83567525  0.83750406  -0.00370030  1
  I  I106  1  0.83563105  0.83726518  0.33709625  1
  I  I107  1  0.83118656  0.83713548  0.66579581  1
  I  I108  1  -0.00002943  0.16659000  0.17437277  1
  I  I109  1  -0.00305602  0.16411366  0.50305718  1
  I  I110  1  -0.00062311  0.16294827  0.82531027  1
  I  I111  1  0.00044011  0.49899954  0.16707645  1
  I  I112  1  0.00418581  0.50404011  0.50360450  1
  I  I113  1  0.00008498  0.49915432  0.83157462  1
  I  I114  1  -0.00002978  0.83363400  0.16932106  1
  I  I115  1  -0.00013290  0.83327490  0.50574635  1
  I  I116  1  0.00008071  0.83730808  0.82412733  1
  I  I117  1  0.33366984  0.16688885  0.16804884  1
  I  I118  1  0.33506951  0.16463521  0.50097426  1
  I  I119  1  0.33116737  0.16301266  0.83073522  1
  I  I120  1  0.33716479  0.50496963  0.16233477  1
  I  I121  1  0.33094778  0.50397379  0.50088906  1
  I  I122  1  0.33621724  0.50052810  0.83550435  1
  I  I123  1  0.33721440  0.82904848  0.17106058  1
  I  I124  1  0.33345891  0.83285840  0.50034316  1
  I  I125  1  0.33086011  0.83581960  0.82962795  1
  I  I126  1  0.66644023  0.16726477  0.16177077  1
  I  I127  1  0.66700263  0.16020824  0.50514636  1
  I  I128  1  0.66965814  0.16262083  0.83127683  1
  I  I129  1  0.66214743  0.50444716  0.16450777  1
  I  I130  1  0.66661867  0.50145049  0.49929013  1
  I  I131  1  0.66313066  0.50079788  0.83579989  1
  I  I132  1  0.66276522  0.82859699  0.17110007  1
  I  I133  1  0.66660350  0.83738725  0.50038608  1
  I  I134  1  0.66935289  0.83619422  0.83029930  1
