# generated using pymatgen
data_Cs27Sn13Pb14I81
_symmetry_space_group_name_H-M   'P 1'
_cell_length_a   18.98000500
_cell_length_b   18.97565898
_cell_length_c   18.97527693
_cell_angle_alpha   89.99968363
_cell_angle_beta   89.99929201
_cell_angle_gamma   89.99886868
_symmetry_Int_Tables_number   1
_chemical_formula_structural   Cs27Sn13Pb14I81
_chemical_formula_sum   'Cs27 Sn13 Pb14 I81'
_cell_volume   6834.09972687
_cell_formula_units_Z   1
loop_
 _symmetry_equiv_pos_site_id
 _symmetry_equiv_pos_as_xyz
  1  'x, y, z'
loop_
 _atom_site_type_symbol
 _atom_site_label
 _atom_site_symmetry_multiplicity
 _atom_site_fract_x
 _atom_site_fract_y
 _atom_site_fract_z
 _atom_site_occupancy
  Cs  Cs0  1  0.00066515  0.00152392  0.00217742  1
  Cs  Cs1  1  -0.00078634  -0.00051061  0.33441690  1
  Cs  Cs2  1  0.00440990  -0.00911695  0.66257830  1
  Cs  Cs3  1  0.00123842  0.33340759  -0.00060113  1
  Cs  Cs4  1  -0.00056114  0.33307474  0.33316831  1
  Cs  Cs5  1  -0.00066888  0.33515333  0.66661743  1
  Cs  Cs6  1  -0.00141158  0.66718645  -0.00145230  1
  Cs  Cs7  1  -0.00282792  0.66674390  0.33459944  1
  Cs  Cs8  1  0.00022487  0.66952903  0.66635055  1
  Cs  Cs9  1  0.33387024  -0.00093743  0.00025676  1
  Cs  Cs10  1  0.33343048  0.00108190  0.33381246  1
  Cs  Cs11  1  0.33298506  -0.00078149  0.66607951  1
  Cs  Cs12  1  0.32946788  0.33604324  0.00216075  1
  Cs  Cs13  1  0.33584704  0.33517977  0.33474706  1
  Cs  Cs14  1  0.33403077  0.33284116  0.66398214  1
  Cs  Cs15  1  0.33262866  0.66531833  0.00042591  1
  Cs  Cs16  1  0.33810819  0.66330592  0.33035829  1
  Cs  Cs17  1  0.33213739  0.66753899  0.66968640  1
  Cs  Cs18  1  0.66533231  0.00002797  -0.00233823  1
  Cs  Cs19  1  0.66801562  -0.00222067  0.33078411  1
  Cs  Cs20  1  0.66281223  0.00064294  0.67736970  1
  Cs  Cs21  1  0.67020959  0.33098914  -0.00208882  1
  Cs  Cs22  1  0.66732614  0.33418655  0.33466277  1
  Cs  Cs23  1  0.66662081  0.33156481  0.66772479  1
  Cs  Cs24  1  0.66981006  0.66866389  -0.00326322  1
  Cs  Cs25  1  0.66577554  0.66779604  0.33387088  1
  Cs  Cs26  1  0.66805527  0.66680878  0.66905738  1
  Sn  Sn27  1  0.49898597  0.83408570  0.16751663  1
  Sn  Sn28  1  0.83331608  0.49924820  0.16743143  1
  Sn  Sn29  1  0.83333316  0.16769037  0.16751170  1
  Sn  Sn30  1  0.16739165  0.83393308  0.16701815  1
  Sn  Sn31  1  0.16748730  0.49894672  0.83226649  1
  Sn  Sn32  1  0.83408954  0.49903730  0.49904002  1
  Sn  Sn33  1  0.16634943  0.16725845  0.83339612  1
  Sn  Sn34  1  0.16693019  0.16609727  0.16639510  1
  Sn  Sn35  1  0.50007413  0.83362177  0.49958348  1
  Sn  Sn36  1  0.16633750  0.49979272  0.50047095  1
  Sn  Sn37  1  0.49924439  0.49937471  0.83344475  1
  Sn  Sn38  1  0.49982094  0.16645765  0.16690373  1
  Sn  Sn39  1  0.83329439  0.16688729  0.49967139  1
  Pb  Pb40  1  0.83311555  0.83391844  0.16663122  1
  Pb  Pb41  1  0.50268131  0.16459688  0.49801337  1
  Pb  Pb42  1  0.83414845  0.49981250  0.83277683  1
  Pb  Pb43  1  0.83640499  0.16651135  0.83301854  1
  Pb  Pb44  1  0.16476944  0.49991717  0.16675234  1
  Pb  Pb45  1  0.16891284  0.83044249  0.49705168  1
  Pb  Pb46  1  0.50284447  0.50003765  0.16477970  1
  Pb  Pb47  1  0.83080177  0.83365582  0.49996327  1
  Pb  Pb48  1  0.49719233  0.16893535  0.83591020  1
  Pb  Pb49  1  0.83365407  0.83384012  0.83319171  1
  Pb  Pb50  1  0.16496062  0.16834423  0.49959980  1
  Pb  Pb51  1  0.49965971  0.83132172  0.83418534  1
  Pb  Pb52  1  0.16680270  0.83332541  0.83584784  1
  Pb  Pb53  1  0.50056242  0.50151971  0.50198699  1
  I  I54  1  0.16506133  0.00153362  0.16106640  1
  I  I55  1  0.16501630  -0.00005030  0.50303069  1
  I  I56  1  0.16485076  0.00306520  0.83682672  1
  I  I57  1  0.16824424  0.33056453  0.16510950  1
  I  I58  1  0.16569732  0.33652626  0.49897937  1
  I  I59  1  0.16990987  0.33394257  0.83739473  1
  I  I60  1  0.17022453  0.66866268  0.16695653  1
  I  I61  1  0.15981867  0.66259035  0.50509646  1
  I  I62  1  0.16958292  0.66338038  0.83125873  1
  I  I63  1  0.50119413  0.00033851  0.17005170  1
  I  I64  1  0.50057284  -0.00320037  0.49771126  1
  I  I65  1  0.49979299  0.00026544  0.83154464  1
  I  I66  1  0.49720059  0.33052130  0.16438235  1
  I  I67  1  0.49879813  0.33331057  0.49927015  1
  I  I68  1  0.49858247  0.33658764  0.83396083  1
  I  I69  1  0.49636862  0.66926927  0.16842522  1
  I  I70  1  0.50092993  0.66920830  0.49231048  1
  I  I71  1  0.49428617  0.66345433  0.83552879  1
  I  I72  1  0.83420231  0.00362861  0.17079118  1
  I  I73  1  0.83349315  0.00319139  0.49318100  1
  I  I74  1  0.83342397  0.00077021  0.83431048  1
  I  I75  1  0.83368281  0.33231959  0.17011907  1
  I  I76  1  0.83646354  0.33420263  0.49452209  1
  I  I77  1  0.83104375  0.33333892  0.83489111  1
  I  I78  1  0.83401359  0.66399471  0.16996020  1
  I  I79  1  0.83600754  0.66333501  0.49595373  1
  I  I80  1  0.83436086  0.66597029  0.83517568  1
  I  I81  1  0.16496072  0.16926334  0.00160207  1
  I  I82  1  0.16731628  0.16439857  0.32988438  1
  I  I83  1  0.16456314  0.17065684  0.66897083  1
  I  I84  1  0.16866866  0.49935052  -0.00206836  1
  I  I85  1  0.16355238  0.50046457  0.33544405  1
  I  I86  1  0.16505474  0.49463428  0.66713763  1
  I  I87  1  0.17270408  0.83227616  0.00392810  1
  I  I88  1  0.16765378  0.83903803  0.32930038  1
  I  I89  1  0.16770655  0.83569250  0.66638169  1
  I  I90  1  0.50566753  0.16035603  0.00427336  1
  I  I91  1  0.49468739  0.16687713  0.32934185  1
  I  I92  1  0.50099999  0.16499522  0.66679100  1
  I  I93  1  0.49388743  0.50139160  -0.00266281  1
  I  I94  1  0.49767984  0.49947552  0.33312035  1
  I  I95  1  0.49992493  0.50255062  0.66969244  1
  I  I96  1  0.49686082  0.83649740  0.00367348  1
  I  I97  1  0.49665467  0.83501018  0.33154475  1
  I  I98  1  0.50255406  0.83019922  0.66440307  1
  I  I99  1  0.83203131  0.17072989  0.00360123  1
  I  I100  1  0.83561000  0.17149817  0.33167601  1
  I  I101  1  0.83374640  0.17286198  0.66353237  1
  I  I102  1  0.83322054  0.49638866  0.00262354  1
  I  I103  1  0.83869558  0.49620328  0.33365357  1
  I  I104  1  0.83378755  0.49602636  0.66336470  1
  I  I105  1  0.83115130  0.83066866  0.00075122  1
  I  I106  1  0.83488343  0.83178010  0.33313087  1
  I  I107  1  0.83124002  0.83241376  0.66602044  1
  I  I108  1  0.00023648  0.16679070  0.16569624  1
  I  I109  1  -0.00303641  0.16901650  0.49375300  1
  I  I110  1  0.00402376  0.17510715  0.84133263  1
  I  I111  1  -0.00296742  0.49645379  0.16602456  1
  I  I112  1  -0.00042462  0.49682627  0.50141652  1
  I  I113  1  0.00322818  0.49602296  0.83331569  1
  I  I114  1  0.00261330  0.83598030  0.16480554  1
  I  I115  1  0.00012401  0.83397989  0.49939439  1
  I  I116  1  0.00074248  0.83014060  0.83511382  1
  I  I117  1  0.33282055  0.16171592  0.16158097  1
  I  I118  1  0.33333648  0.16786790  0.49898070  1
  I  I119  1  0.32941055  0.16898476  0.83882331  1
  I  I120  1  0.33330764  0.49825622  0.16840247  1
  I  I121  1  0.33095265  0.50168248  0.50211822  1
  I  I122  1  0.33174266  0.49716330  0.82920262  1
  I  I123  1  0.33366978  0.84035297  0.16973332  1
  I  I124  1  0.33645746  0.83190870  0.49733494  1
  I  I125  1  0.33322767  0.83346999  0.83194038  1
  I  I126  1  0.66703051  0.16675912  0.17139215  1
  I  I127  1  0.67061735  0.17432434  0.49371749  1
  I  I128  1  0.66658529  0.16784070  0.83424029  1
  I  I129  1  0.67052205  0.49667961  0.17090613  1
  I  I130  1  0.66976372  0.49808113  0.49704499  1
  I  I131  1  0.66475236  0.50243516  0.83470743  1
  I  I132  1  0.66362741  0.83534987  0.16988680  1
  I  I133  1  0.66332763  0.83033608  0.49134816  1
  I  I134  1  0.66611096  0.83040211  0.83536363  1
