# generated using pymatgen
data_Cs27Sn13Pb14I81
_symmetry_space_group_name_H-M   'P 1'
_cell_length_a   18.98835496
_cell_length_b   18.99914225
_cell_length_c   18.98824678
_cell_angle_alpha   90.00067591
_cell_angle_beta   89.99888310
_cell_angle_gamma   90.00078997
_symmetry_Int_Tables_number   1
_chemical_formula_structural   Cs27Sn13Pb14I81
_chemical_formula_sum   'Cs27 Sn13 Pb14 I81'
_cell_volume   6850.24656118
_cell_formula_units_Z   1
loop_
 _symmetry_equiv_pos_site_id
 _symmetry_equiv_pos_as_xyz
  1  'x, y, z'
loop_
 _atom_site_type_symbol
 _atom_site_label
 _atom_site_symmetry_multiplicity
 _atom_site_fract_x
 _atom_site_fract_y
 _atom_site_fract_z
 _atom_site_occupancy
  Cs  Cs0  1  0.00099342  0.00205346  0.00379712  1
  Cs  Cs1  1  -0.00312559  0.00224335  0.32979980  1
  Cs  Cs2  1  -0.00183447  -0.00462150  0.66794418  1
  Cs  Cs3  1  -0.00115255  0.33487607  -0.00105723  1
  Cs  Cs4  1  -0.00124595  0.33259166  0.33249373  1
  Cs  Cs5  1  0.00194665  0.33430019  0.66725510  1
  Cs  Cs6  1  0.00093638  0.66228140  -0.00017665  1
  Cs  Cs7  1  -0.00108350  0.66615782  0.33612811  1
  Cs  Cs8  1  0.00189650  0.66897781  0.66496991  1
  Cs  Cs9  1  0.33328114  -0.00576197  0.00482249  1
  Cs  Cs10  1  0.33320798  0.00322316  0.33056078  1
  Cs  Cs11  1  0.33480459  0.00297542  0.66500569  1
  Cs  Cs12  1  0.33250112  0.33531569  -0.00183811  1
  Cs  Cs13  1  0.33264157  0.32971532  0.33656381  1
  Cs  Cs14  1  0.33365408  0.33134763  0.66400894  1
  Cs  Cs15  1  0.33858566  0.67015148  0.00221806  1
  Cs  Cs16  1  0.33469377  0.66732939  0.33439871  1
  Cs  Cs17  1  0.32992921  0.66545616  0.66456014  1
  Cs  Cs18  1  0.66476349  0.00030177  -0.00440334  1
  Cs  Cs19  1  0.67143680  0.00229179  0.33339162  1
  Cs  Cs20  1  0.66763159  -0.00048996  0.67553707  1
  Cs  Cs21  1  0.66695562  0.33861474  -0.00347972  1
  Cs  Cs22  1  0.66859375  0.33195165  0.33185165  1
  Cs  Cs23  1  0.66369078  0.32935392  0.67194153  1
  Cs  Cs24  1  0.65696009  0.65992634  -0.00312590  1
  Cs  Cs25  1  0.66586172  0.66567088  0.33364638  1
  Cs  Cs26  1  0.66749950  0.67176830  0.66820191  1
  Sn  Sn27  1  0.83354395  0.16736411  0.50015262  1
  Sn  Sn28  1  0.83297557  0.83289208  0.16605893  1
  Sn  Sn29  1  0.49935409  0.83340748  0.49957536  1
  Sn  Sn30  1  0.50017820  0.50043305  0.49989188  1
  Sn  Sn31  1  0.16660014  0.16624338  0.83321643  1
  Sn  Sn32  1  0.50105395  0.16688924  0.16678551  1
  Sn  Sn33  1  0.83309932  0.49891124  0.50012570  1
  Sn  Sn34  1  0.16666838  0.50043190  0.49972182  1
  Sn  Sn35  1  0.16756877  0.83322051  0.49995676  1
  Sn  Sn36  1  0.16686636  0.50016802  0.16735584  1
  Sn  Sn37  1  0.16646360  0.83336575  0.83279501  1
  Sn  Sn38  1  0.83202266  0.16614732  0.16688039  1
  Sn  Sn39  1  0.16669778  0.50032465  0.83317459  1
  Pb  Pb40  1  0.16611053  0.16881939  0.16458244  1
  Pb  Pb41  1  0.50263646  0.16628012  0.49883823  1
  Pb  Pb42  1  0.83534941  0.16665593  0.83385301  1
  Pb  Pb43  1  0.49711645  0.16665062  0.83647742  1
  Pb  Pb44  1  0.16510529  0.83115197  0.16734697  1
  Pb  Pb45  1  0.83464122  0.49985335  0.16827621  1
  Pb  Pb46  1  0.50269085  0.83507563  0.16927188  1
  Pb  Pb47  1  0.83334303  0.83336099  0.49892154  1
  Pb  Pb48  1  0.83513680  0.50026503  0.83013100  1
  Pb  Pb49  1  0.83560967  0.83302022  0.83702319  1
  Pb  Pb50  1  0.49728608  0.50005701  0.83015853  1
  Pb  Pb51  1  0.16448249  0.16611795  0.50148389  1
  Pb  Pb52  1  0.49760686  0.49793248  0.16924985  1
  Pb  Pb53  1  0.49724225  0.83331374  0.83060159  1
  I  I54  1  0.16774914  0.00006183  0.16587364  1
  I  I55  1  0.16980790  -0.00304120  0.50494957  1
  I  I56  1  0.16572039  -0.00076636  0.82796622  1
  I  I57  1  0.16473380  0.33663094  0.16882986  1
  I  I58  1  0.16883929  0.33642287  0.50097764  1
  I  I59  1  0.16588932  0.33441657  0.83316412  1
  I  I60  1  0.16370002  0.66335378  0.16403902  1
  I  I61  1  0.16462481  0.66541064  0.50418942  1
  I  I62  1  0.16520302  0.66627646  0.83038178  1
  I  I63  1  0.49873306  0.00289926  0.16994874  1
  I  I64  1  0.49408202  -0.00264197  0.49780351  1
  I  I65  1  0.49647898  0.00003380  0.82964145  1
  I  I66  1  0.50625783  0.33040780  0.16945829  1
  I  I67  1  0.49538301  0.33605797  0.49841058  1
  I  I68  1  0.49606600  0.33335242  0.83034028  1
  I  I69  1  0.50064157  0.66655791  0.16554924  1
  I  I70  1  0.49966019  0.66598072  0.49894515  1
  I  I71  1  0.49888942  0.66663295  0.83784765  1
  I  I72  1  0.83302686  0.00137420  0.17466905  1
  I  I73  1  0.83499301  0.00222379  0.49629121  1
  I  I74  1  0.83816437  -0.00004977  0.82695986  1
  I  I75  1  0.83224223  0.33052895  0.17025838  1
  I  I76  1  0.83562499  0.33387603  0.49319798  1
  I  I77  1  0.83803403  0.33339701  0.83689525  1
  I  I78  1  0.83902969  0.66859859  0.17026663  1
  I  I79  1  0.83542742  0.66410485  0.49791008  1
  I  I80  1  0.83751125  0.66666852  0.83282576  1
  I  I81  1  0.16505120  0.16697502  -0.00323390  1
  I  I82  1  0.16757589  0.16738984  0.33321747  1
  I  I83  1  0.16479188  0.17159151  0.66929755  1
  I  I84  1  0.16446974  0.49862402  -0.00046334  1
  I  I85  1  0.16592978  0.50441733  0.33524949  1
  I  I86  1  0.16616236  0.50067695  0.66558028  1
  I  I87  1  0.16303475  0.83240400  -0.00247710  1
  I  I88  1  0.16863635  0.82732162  0.33658778  1
  I  I89  1  0.16880003  0.82812336  0.66566083  1
  I  I90  1  0.50750359  0.16671303  0.00411536  1
  I  I91  1  0.49981417  0.16736363  0.33103718  1
  I  I92  1  0.50074587  0.16702336  0.66659743  1
  I  I93  1  0.49803377  0.49848173  0.00007296  1
  I  I94  1  0.49617244  0.50352791  0.33724282  1
  I  I95  1  0.49805647  0.50216238  0.66191060  1
  I  I96  1  0.49885904  0.83529079  0.00019970  1
  I  I97  1  0.49145749  0.82855600  0.33699501  1
  I  I98  1  0.50034790  0.82977455  0.66236208  1
  I  I99  1  0.83198332  0.16150866  0.00343812  1
  I  I100  1  0.83201217  0.16674821  0.33316483  1
  I  I101  1  0.83567991  0.17144866  0.66389939  1
  I  I102  1  0.83778013  0.49876881  0.00002893  1
  I  I103  1  0.83832293  0.49889218  0.33667336  1
  I  I104  1  0.83612975  0.49449778  0.66146887  1
  I  I105  1  0.83704227  0.84242279  0.00462466  1
  I  I106  1  0.83723865  0.83564504  0.33141669  1
  I  I107  1  0.83204791  0.83392565  0.66654872  1
  I  I108  1  -0.00276604  0.16415467  0.16976430  1
  I  I109  1  -0.00310953  0.17077006  0.49334268  1
  I  I110  1  0.00351690  0.16803742  0.83483469  1
  I  I111  1  0.00300275  0.49787650  0.16907907  1
  I  I112  1  0.00143824  0.50037340  0.50018063  1
  I  I113  1  0.00436849  0.49958914  0.83129953  1
  I  I114  1  -0.00229675  0.84082433  0.16973735  1
  I  I115  1  0.00285243  0.82931142  0.50320473  1
  I  I116  1  0.00426222  0.83228888  0.82424628  1
  I  I117  1  0.33499650  0.16917930  0.16570072  1
  I  I118  1  0.33327079  0.16892695  0.49901434  1
  I  I119  1  0.32904691  0.16853047  0.83260986  1
  I  I120  1  0.32943419  0.49868535  0.16799001  1
  I  I121  1  0.33187886  0.50484850  0.50059412  1
  I  I122  1  0.32850508  0.49968648  0.83148816  1
  I  I123  1  0.33331474  0.83473293  0.16473369  1
  I  I124  1  0.33196862  0.82462104  0.50340875  1
  I  I125  1  0.32871288  0.83212002  0.83378456  1
  I  I126  1  0.66800870  0.16289328  0.17361885  1
  I  I127  1  0.67039453  0.17086418  0.49705351  1
  I  I128  1  0.66664840  0.16604680  0.83057691  1
  I  I129  1  0.66653883  0.50149039  0.16949824  1
  I  I130  1  0.66676155  0.50082590  0.49637445  1
  I  I131  1  0.66629531  0.49882923  0.83359385  1
  I  I132  1  0.67035653  0.83489992  0.17197503  1
  I  I133  1  0.66448718  0.82901866  0.49544293  1
  I  I134  1  0.66644484  0.83517636  0.83112420  1
