# generated using pymatgen
data_Cs27Sn13Pb14I81
_symmetry_space_group_name_H-M   'P 1'
_cell_length_a   18.99120700
_cell_length_b   18.98030399
_cell_length_c   19.00203608
_cell_angle_alpha   90.00171801
_cell_angle_beta   90.00018320
_cell_angle_gamma   90.00214404
_symmetry_Int_Tables_number   1
_chemical_formula_structural   Cs27Sn13Pb14I81
_chemical_formula_sum   'Cs27 Sn13 Pb14 I81'
_cell_volume   6849.45267478
_cell_formula_units_Z   1
loop_
 _symmetry_equiv_pos_site_id
 _symmetry_equiv_pos_as_xyz
  1  'x, y, z'
loop_
 _atom_site_type_symbol
 _atom_site_label
 _atom_site_symmetry_multiplicity
 _atom_site_fract_x
 _atom_site_fract_y
 _atom_site_fract_z
 _atom_site_occupancy
  Cs  Cs0  1  -0.00542009  0.00183436  0.00128005  1
  Cs  Cs1  1  0.00016105  0.00288468  0.33141496  1
  Cs  Cs2  1  -0.00379273  0.00290441  0.66838359  1
  Cs  Cs3  1  0.00941404  0.32669094  0.00180815  1
  Cs  Cs4  1  0.00395435  0.32317408  0.34262534  1
  Cs  Cs5  1  0.01010837  0.33086663  0.65462902  1
  Cs  Cs6  1  -0.00304205  0.66911642  -0.00195133  1
  Cs  Cs7  1  -0.00278028  0.66704520  0.33522051  1
  Cs  Cs8  1  -0.00139237  0.66502489  0.66673812  1
  Cs  Cs9  1  0.33528074  -0.00058773  -0.00097260  1
  Cs  Cs10  1  0.33616042  -0.00334841  0.33478227  1
  Cs  Cs11  1  0.33651249  -0.00047231  0.66682321  1
  Cs  Cs12  1  0.32669909  0.33526488  -0.00103658  1
  Cs  Cs13  1  0.33047063  0.33532668  0.33007755  1
  Cs  Cs14  1  0.32930514  0.33078822  0.67024858  1
  Cs  Cs15  1  0.33345601  0.66571620  0.00090976  1
  Cs  Cs16  1  0.33514913  0.66869115  0.33017534  1
  Cs  Cs17  1  0.33444911  0.66839285  0.66734184  1
  Cs  Cs18  1  0.66792272  0.00218153  -0.00211526  1
  Cs  Cs19  1  0.66407112  -0.00064626  0.33310069  1
  Cs  Cs20  1  0.66531676  0.00165721  0.67218391  1
  Cs  Cs21  1  0.66458930  0.33533250  -0.00025678  1
  Cs  Cs22  1  0.66785166  0.33384405  0.33466326  1
  Cs  Cs23  1  0.66667669  0.33442440  0.66554680  1
  Cs  Cs24  1  0.66879049  0.66487664  -0.00028331  1
  Cs  Cs25  1  0.66638768  0.66641861  0.33263673  1
  Cs  Cs26  1  0.66649306  0.66557928  0.66766251  1
  Sn  Sn27  1  0.50024391  0.16824481  0.49906603  1
  Sn  Sn28  1  0.83310646  0.83257735  0.16760845  1
  Sn  Sn29  1  0.83344501  0.49954010  0.83408170  1
  Sn  Sn30  1  0.83391361  0.49988989  0.16604005  1
  Sn  Sn31  1  0.83379526  0.83325169  0.49933926  1
  Sn  Sn32  1  0.49988572  0.49893998  0.50079789  1
  Sn  Sn33  1  0.49952369  0.83212505  0.83466419  1
  Sn  Sn34  1  0.16722401  0.83301999  0.83341707  1
  Sn  Sn35  1  0.50044322  0.83387457  0.16529340  1
  Sn  Sn36  1  0.50029784  0.16633167  0.16723893  1
  Sn  Sn37  1  0.16643104  0.83291134  0.16643442  1
  Sn  Sn38  1  0.50074931  0.50085055  0.83266410  1
  Sn  Sn39  1  0.16524898  0.83303447  0.50015125  1
  Pb  Pb40  1  0.16662659  0.16316083  0.83331442  1
  Pb  Pb41  1  0.83106896  0.16701305  0.16648044  1
  Pb  Pb42  1  0.16980948  0.50276695  0.49974642  1
  Pb  Pb43  1  0.16977522  0.16370251  0.16671976  1
  Pb  Pb44  1  0.50018868  0.16733323  0.83380215  1
  Pb  Pb45  1  0.16260523  0.50230730  0.16691014  1
  Pb  Pb46  1  0.50035990  0.83310482  0.50024204  1
  Pb  Pb47  1  0.83312902  0.83235545  0.83348848  1
  Pb  Pb48  1  0.16632703  0.50215759  0.83343201  1
  Pb  Pb49  1  0.83057015  0.16354979  0.50002168  1
  Pb  Pb50  1  0.16991983  0.16326497  0.49987843  1
  Pb  Pb51  1  0.83173091  0.50166195  0.49985175  1
  Pb  Pb52  1  0.50126778  0.50002763  0.16623674  1
  Pb  Pb53  1  0.83333943  0.17170357  0.83329702  1
  I  I54  1  0.16142842  -0.00517337  0.16665522  1
  I  I55  1  0.16577581  -0.00492818  0.49931982  1
  I  I56  1  0.17494804  -0.00574484  0.83313402  1
  I  I57  1  0.16768797  0.33315906  0.16568137  1
  I  I58  1  0.16462215  0.33309818  0.50038643  1
  I  I59  1  0.16765749  0.33360495  0.83376239  1
  I  I60  1  0.17483090  0.67141834  0.16674167  1
  I  I61  1  0.16601963  0.67123019  0.49990092  1
  I  I62  1  0.16960096  0.67074568  0.83383640  1
  I  I63  1  0.50104559  -0.00237437  0.16801553  1
  I  I64  1  0.49921336  0.00137399  0.49840621  1
  I  I65  1  0.49554013  -0.00310817  0.83302038  1
  I  I66  1  0.50420022  0.33118044  0.16846496  1
  I  I67  1  0.50288978  0.33376761  0.49958458  1
  I  I68  1  0.50607838  0.33675546  0.83207879  1
  I  I69  1  0.49797894  0.66998008  0.16687344  1
  I  I70  1  0.50009893  0.66492081  0.50123666  1
  I  I71  1  0.49965212  0.66756036  0.83252640  1
  I  I72  1  0.83556242  -0.00373529  0.17074955  1
  I  I73  1  0.83555987  -0.00487915  0.49336810  1
  I  I74  1  0.83293363  -0.00023268  0.83302078  1
  I  I75  1  0.82717014  0.33663685  0.16076195  1
  I  I76  1  0.83297313  0.33340614  0.49984938  1
  I  I77  1  0.82120482  0.33942127  0.84067651  1
  I  I78  1  0.82992946  0.66863629  0.16677151  1
  I  I79  1  0.83355288  0.66995103  0.49789396  1
  I  I80  1  0.83039625  0.66458623  0.83461817  1
  I  I81  1  0.16991493  0.16583290  0.00023027  1
  I  I82  1  0.16569252  0.16422595  0.33333849  1
  I  I83  1  0.16929365  0.16448236  0.66634986  1
  I  I84  1  0.17280779  0.50271890  0.00013002  1
  I  I85  1  0.16914259  0.50487551  0.33330608  1
  I  I86  1  0.16240588  0.50424222  0.66663697  1
  I  I87  1  0.16874162  0.83241603  0.00031614  1
  I  I88  1  0.16802789  0.83308753  0.33282112  1
  I  I89  1  0.16887416  0.83225453  0.66681608  1
  I  I90  1  0.50089680  0.16265841  0.00280385  1
  I  I91  1  0.50080210  0.16356807  0.33290378  1
  I  I92  1  0.50007156  0.16523077  0.66426205  1
  I  I93  1  0.50268116  0.50263742  -0.00260424  1
  I  I94  1  0.50184594  0.50108024  0.33513516  1
  I  I95  1  0.50630343  0.50275110  0.66762057  1
  I  I96  1  0.49704834  0.83371597  0.00056721  1
  I  I97  1  0.49803552  0.83359142  0.33102268  1
  I  I98  1  0.49731492  0.83278841  0.66893845  1
  I  I99  1  0.82953822  0.15915233  0.00012437  1
  I  I100  1  0.83306546  0.17060771  0.33324931  1
  I  I101  1  0.82886221  0.16242096  0.66654452  1
  I  I102  1  0.82432822  0.51000818  0.00015454  1
  I  I103  1  0.82931192  0.50581406  0.33071676  1
  I  I104  1  0.82836138  0.50460941  0.66915785  1
  I  I105  1  0.83481195  0.83124982  0.00283103  1
  I  I106  1  0.83437928  0.82746070  0.33190618  1
  I  I107  1  0.83520618  0.83150598  0.66467819  1
  I  I108  1  0.00011401  0.16623582  0.16564187  1
  I  I109  1  0.00025530  0.16846692  0.50066537  1
  I  I110  1  -0.00000918  0.16394585  0.83469329  1
  I  I111  1  -0.00526801  0.50848101  0.15924777  1
  I  I112  1  -0.00004137  0.50039700  0.50112114  1
  I  I113  1  -0.00321061  0.50477463  0.83900641  1
  I  I114  1  -0.00038974  0.82713724  0.16717652  1
  I  I115  1  0.00005211  0.83137471  0.49701283  1
  I  I116  1  0.00227620  0.83158779  0.83507422  1
  I  I117  1  0.33779696  0.16127229  0.17066106  1
  I  I118  1  0.33761420  0.16755458  0.49612846  1
  I  I119  1  0.33380263  0.17029171  0.83335485  1
  I  I120  1  0.33328835  0.50053549  0.16663788  1
  I  I121  1  0.33812769  0.49889496  0.50610690  1
  I  I122  1  0.33656297  0.50264519  0.82914576  1
  I  I123  1  0.33401289  0.83823554  0.16713000  1
  I  I124  1  0.33157429  0.83353291  0.49786159  1
  I  I125  1  0.33472608  0.82805961  0.83556093  1
  I  I126  1  0.66314083  0.15840988  0.17041007  1
  I  I127  1  0.66265632  0.16696725  0.49576299  1
  I  I128  1  0.66620324  0.15837022  0.83284423  1
  I  I129  1  0.66893585  0.50799961  0.16601703  1
  I  I130  1  0.66357758  0.50096604  0.50126425  1
  I  I131  1  0.66536580  0.50820600  0.83324122  1
  I  I132  1  0.66635259  0.83327299  0.16804083  1
  I  I133  1  0.66861159  0.83275748  0.49582627  1
  I  I134  1  0.66373553  0.83170129  0.83521927  1
