# generated using pymatgen
data_Cs27Sn14Pb13I81
_symmetry_space_group_name_H-M   'P 1'
_cell_length_a   18.97097980
_cell_length_b   18.98751128
_cell_length_c   18.97097991
_cell_angle_alpha   89.99941532
_cell_angle_beta   90.00108417
_cell_angle_gamma   90.00058467
_symmetry_Int_Tables_number   1
_chemical_formula_structural   Cs27Sn14Pb13I81
_chemical_formula_sum   'Cs27 Sn14 Pb13 I81'
_cell_volume   6833.56879028
_cell_formula_units_Z   1
loop_
 _symmetry_equiv_pos_site_id
 _symmetry_equiv_pos_as_xyz
  1  'x, y, z'
loop_
 _atom_site_type_symbol
 _atom_site_label
 _atom_site_symmetry_multiplicity
 _atom_site_fract_x
 _atom_site_fract_y
 _atom_site_fract_z
 _atom_site_occupancy
  Cs  Cs0  1  -0.00007937  0.00289251  -0.00097681  1
  Cs  Cs1  1  0.00334931  0.00094129  0.33570983  1
  Cs  Cs2  1  0.00015491  0.00296159  0.66651181  1
  Cs  Cs3  1  0.00061684  0.33326879  0.00061458  1
  Cs  Cs4  1  0.00256656  0.33338513  0.33238908  1
  Cs  Cs5  1  -0.00051285  0.32975907  0.66717936  1
  Cs  Cs6  1  -0.00241807  0.66546776  -0.00163676  1
  Cs  Cs7  1  0.00222467  0.66575615  0.33340135  1
  Cs  Cs8  1  -0.00272262  0.66763247  0.66938911  1
  Cs  Cs9  1  0.33376677  0.00172143  0.00100090  1
  Cs  Cs10  1  0.32655830  -0.01358280  0.34010829  1
  Cs  Cs11  1  0.33095696  0.00094130  0.66331752  1
  Cs  Cs12  1  0.33644642  0.33193195  -0.00163274  1
  Cs  Cs13  1  0.32617364  0.33650660  0.34049291  1
  Cs  Cs14  1  0.33427764  0.33338516  0.66410012  1
  Cs  Cs15  1  0.33491119  0.66715790  -0.00008084  1
  Cs  Cs16  1  0.32488201  0.67538854  0.34178499  1
  Cs  Cs17  1  0.33326519  0.66575607  0.66444190  1
  Cs  Cs18  1  0.66585347  0.00114459  0.00081329  1
  Cs  Cs19  1  0.66566569  0.00172156  0.33289980  1
  Cs  Cs20  1  0.66764332  0.00289242  0.66674598  1
  Cs  Cs21  1  0.66539342  0.33360443  0.00127320  1
  Cs  Cs22  1  0.66829950  0.33193208  0.33022018  1
  Cs  Cs23  1  0.66605200  0.33326874  0.66604991  1
  Cs  Cs24  1  0.66709625  0.66555468  -0.00042960  1
  Cs  Cs25  1  0.66674745  0.66715785  0.33175529  1
  Cs  Cs26  1  0.66830355  0.66546778  0.66908464  1
  Sn  Sn27  1  0.50113112  0.16672973  0.83396234  1
  Sn  Sn28  1  0.83268597  0.50072794  0.49972264  1
  Sn  Sn29  1  0.83318891  0.83347429  0.16752079  1
  Sn  Sn30  1  0.49993658  0.16748721  0.16673002  1
  Sn  Sn31  1  0.50008117  0.49951421  0.16658547  1
  Sn  Sn32  1  0.83320769  0.49881945  0.83345899  1
  Sn  Sn33  1  0.16774382  0.83254791  0.83405718  1
  Sn  Sn34  1  0.83261863  0.49991903  0.16679061  1
  Sn  Sn35  1  0.83270429  0.16672975  0.16553556  1
  Sn  Sn36  1  0.83260946  0.83254792  0.49892279  1
  Sn  Sn37  1  0.83213344  0.16794468  0.83453313  1
  Sn  Sn38  1  0.49914588  0.83347427  0.83347775  1
  Sn  Sn39  1  0.49987600  0.49991908  0.83404804  1
  Sn  Sn40  1  0.16694403  0.50072796  0.83398064  1
  Pb  Pb41  1  0.16773821  0.49995979  0.16441180  1
  Pb  Pb42  1  0.16681886  0.16678402  0.49984785  1
  Pb  Pb43  1  0.83310422  0.16708312  0.49943021  1
  Pb  Pb44  1  0.83300115  0.83383285  0.83366553  1
  Pb  Pb45  1  0.16344965  0.49996183  0.50321700  1
  Pb  Pb46  1  0.16723648  0.16708319  0.83356244  1
  Pb  Pb47  1  0.50225492  0.49995978  0.49892851  1
  Pb  Pb48  1  0.16368794  0.83316275  0.16371904  1
  Pb  Pb49  1  0.50172061  0.83304455  0.16494602  1
  Pb  Pb50  1  0.16329655  0.83303616  0.50337012  1
  Pb  Pb51  1  0.16813746  0.16680642  0.16652226  1
  Pb  Pb52  1  0.50294765  0.83316271  0.50297875  1
  Pb  Pb53  1  0.50014439  0.16680639  0.49852915  1
  I  I54  1  0.16518087  -0.00010460  0.16355647  1
  I  I55  1  0.16374835  -0.00064627  0.50291766  1
  I  I56  1  0.16762619  -0.00250580  0.83280747  1
  I  I57  1  0.16012105  0.33350815  0.16396497  1
  I  I58  1  0.16408449  0.33388754  0.50258288  1
  I  I59  1  0.16645705  0.33641735  0.83338916  1
  I  I60  1  0.16552862  0.66653844  0.16595778  1
  I  I61  1  0.16750365  0.66655075  0.49916318  1
  I  I62  1  0.16743813  0.66577281  0.83373716  1
  I  I63  1  0.50724845  0.00277188  0.15941829  1
  I  I64  1  0.50311081  -0.00010457  0.50148545  1
  I  I65  1  0.50188145  0.00080232  0.83710348  1
  I  I66  1  0.51079726  0.33379078  0.15586957  1
  I  I67  1  0.50270135  0.33350809  0.50654593  1
  I  I68  1  0.50118865  0.33393962  0.83668359  1
  I  I69  1  0.50743593  0.66363236  0.15923061  1
  I  I70  1  0.50070837  0.66653851  0.50113778  1
  I  I71  1  0.50127515  0.66530777  0.83667563  1
  I  I72  1  0.82956325  0.00080231  0.16478548  1
  I  I73  1  0.83385924  -0.00250584  0.49904030  1
  I  I74  1  0.83109532  0.00253093  0.83557126  1
  I  I75  1  0.82998274  0.33393962  0.16547806  1
  I  I76  1  0.83327725  0.33641731  0.50020942  1
  I  I77  1  0.83213044  0.33442614  0.83453648  1
  I  I78  1  0.82999125  0.66530781  0.16539132  1
  I  I79  1  0.83292982  0.66577280  0.49922910  1
  I  I80  1  0.83159596  0.66402354  0.83507058  1
  I  I81  1  0.16329036  0.16550034  -0.00034724  1
  I  I82  1  0.16397144  0.16730750  0.33294787  1
  I  I83  1  0.16404172  0.16594469  0.66756538  1
  I  I84  1  0.16008769  0.50370427  -0.00396333  1
  I  I85  1  0.16661910  0.49908566  0.33341755  1
  I  I86  1  0.16778339  0.50391088  0.67164011  1
  I  I87  1  0.16741802  0.82924303  -0.00414468  1
  I  I88  1  0.16836756  0.83436779  0.33357087  1
  I  I89  1  0.16832750  0.82904870  0.67104774  1
  I  I90  1  0.50534705  0.16766338  -0.00127855  1
  I  I91  1  0.50907856  0.17323728  0.32865420  1
  I  I92  1  0.50470636  0.16747791  0.67051807  1
  I  I93  1  0.50538893  0.49969236  -0.00151194  1
  I  I94  1  0.50783101  0.49339549  0.32926937  1
  I  I95  1  0.50098743  0.49958436  0.67038257  1
  I  I96  1  0.50031497  0.83270139  -0.00366252  1
  I  I97  1  0.49967965  0.83396117  0.33314150  1
  I  I98  1  0.49892123  0.83257926  0.67174834  1
  I  I99  1  0.83040121  0.16864594  -0.00044381  1
  I  I100  1  0.82886575  0.16859282  0.32957406  1
  I  I101  1  0.83034897  0.16876201  0.66992482  1
  I  I102  1  0.83342596  0.50052566  -0.00052334  1
  I  I103  1  0.82791933  0.50049779  0.33192826  1
  I  I104  1  0.83373474  0.50141327  0.66839188  1
  I  I105  1  0.83355762  0.83093522  0.00221113  1
  I  I106  1  0.83215423  0.82997719  0.33240974  1
  I  I107  1  0.83374418  0.82945403  0.66532443  1
  I  I108  1  -0.00385142  0.16747821  0.16196039  1
  I  I109  1  -0.00089870  0.16594528  0.50262381  1
  I  I110  1  -0.00325813  0.16876186  0.83631843  1
  I  I111  1  -0.00371587  0.49958405  0.16567933  1
  I  I112  1  -0.00497342  0.50391051  0.49888354  1
  I  I113  1  -0.00172518  0.50141352  0.83293169  1
  I  I114  1  -0.00508166  0.83257916  0.16774544  1
  I  I115  1  -0.00438105  0.82904861  0.49833896  1
  I  I116  1  0.00134225  0.82945376  0.83292266  1
  I  I117  1  0.33801249  0.17323714  0.15758868  1
  I  I118  1  0.33371877  0.16730664  0.50269564  1
  I  I119  1  0.33709262  0.16859279  0.83780023  1
  I  I120  1  0.33739733  0.49339548  0.15883519  1
  I  I121  1  0.33324915  0.49908572  0.50004757  1
  I  I122  1  0.33473842  0.50049754  0.83874765  1
  I  I123  1  0.33352515  0.83396127  0.16698697  1
  I  I124  1  0.33309581  0.83436828  0.49829923  1
  I  I125  1  0.33425692  0.82997764  0.83451241  1
  I  I126  1  0.66794518  0.16766317  0.16131908  1
  I  I127  1  0.66701391  0.16550056  0.50337705  1
  I  I128  1  0.66711049  0.16864618  0.83626553  1
  I  I129  1  0.66817862  0.49969258  0.16127810  1
  I  I130  1  0.67062997  0.50370452  0.50657863  1
  I  I131  1  0.66718999  0.50052553  0.83324070  1
  I  I132  1  0.67032918  0.83270125  0.16635173  1
  I  I133  1  0.67081137  0.82924264  0.49924889  1
  I  I134  1  0.66445551  0.83093495  0.83310899  1
