# generated using pymatgen
data_Cs27Sn13Pb14I81
_symmetry_space_group_name_H-M   'P 1'
_cell_length_a   18.97534138
_cell_length_b   18.98019405
_cell_length_c   18.97572539
_cell_angle_alpha   90.00003885
_cell_angle_beta   89.99900817
_cell_angle_gamma   89.99972578
_symmetry_Int_Tables_number   1
_chemical_formula_structural   Cs27Sn13Pb14I81
_chemical_formula_sum   'Cs27 Sn13 Pb14 I81'
_cell_volume   6834.21493414
_cell_formula_units_Z   1
loop_
 _symmetry_equiv_pos_site_id
 _symmetry_equiv_pos_as_xyz
  1  'x, y, z'
loop_
 _atom_site_type_symbol
 _atom_site_label
 _atom_site_symmetry_multiplicity
 _atom_site_fract_x
 _atom_site_fract_y
 _atom_site_fract_z
 _atom_site_occupancy
  Cs  Cs0  1  0.00004490  -0.00141093  -0.00138232  1
  Cs  Cs1  1  -0.00081338  0.00407141  0.33520412  1
  Cs  Cs2  1  -0.00088273  0.00019896  0.66549389  1
  Cs  Cs3  1  -0.00058604  0.33394808  0.00304091  1
  Cs  Cs4  1  0.00169090  0.32700002  0.32530697  1
  Cs  Cs5  1  0.00140523  0.33484354  0.66751772  1
  Cs  Cs6  1  0.00003625  0.66664207  -0.00144599  1
  Cs  Cs7  1  0.00074882  0.66745597  0.33375714  1
  Cs  Cs8  1  0.00007700  0.66629427  0.66726164  1
  Cs  Cs9  1  0.33807954  -0.00496788  -0.00333450  1
  Cs  Cs10  1  0.33375388  0.00133884  0.33417526  1
  Cs  Cs11  1  0.33268405  0.00017783  0.66760285  1
  Cs  Cs12  1  0.33251766  0.33398825  0.00010948  1
  Cs  Cs13  1  0.33050541  0.33202518  0.33229422  1
  Cs  Cs14  1  0.33442534  0.33437954  0.66613343  1
  Cs  Cs15  1  0.33925896  0.67244092  0.00364487  1
  Cs  Cs16  1  0.33466422  0.66649495  0.33375754  1
  Cs  Cs17  1  0.33073669  0.66598725  0.66567588  1
  Cs  Cs18  1  0.66304228  -0.00059645  -0.00011116  1
  Cs  Cs19  1  0.66690353  0.00026395  0.33534488  1
  Cs  Cs20  1  0.66846463  0.00174432  0.66408760  1
  Cs  Cs21  1  0.66815276  0.33351946  -0.00185053  1
  Cs  Cs22  1  0.66640001  0.33356147  0.32927795  1
  Cs  Cs23  1  0.66424186  0.33691770  0.66951784  1
  Cs  Cs24  1  0.66302408  0.66817038  0.00463892  1
  Cs  Cs25  1  0.66318016  0.66647854  0.33267718  1
  Cs  Cs26  1  0.67023978  0.66076153  0.66395098  1
  Sn  Sn27  1  0.16575880  0.83342644  0.16767781  1
  Sn  Sn28  1  0.83436161  0.16674298  0.83304591  1
  Sn  Sn29  1  0.16518666  0.50042204  0.50028186  1
  Sn  Sn30  1  0.16606656  0.49950506  0.83286922  1
  Sn  Sn31  1  0.83424147  0.83339332  0.16626943  1
  Sn  Sn32  1  0.49992834  0.16668369  0.16735652  1
  Sn  Sn33  1  0.16593652  0.16736814  0.83311339  1
  Sn  Sn34  1  0.83488954  0.49951606  0.49986389  1
  Sn  Sn35  1  0.16713609  0.83298586  0.49919669  1
  Sn  Sn36  1  0.83449941  0.50011698  0.83278383  1
  Sn  Sn37  1  0.49922354  0.83402857  0.50053253  1
  Sn  Sn38  1  0.83336452  0.83308052  0.83399077  1
  Sn  Sn39  1  0.49987882  0.16616379  0.49929024  1
  Pb  Pb40  1  0.83355783  0.50226771  0.16638183  1
  Pb  Pb41  1  0.50345496  0.83305353  0.82988488  1
  Pb  Pb42  1  0.49943678  0.49978510  0.49995165  1
  Pb  Pb43  1  0.83129481  0.16990964  0.50203707  1
  Pb  Pb44  1  0.83164721  0.16407560  0.16411841  1
  Pb  Pb45  1  0.16854938  0.16367230  0.16356343  1
  Pb  Pb46  1  0.49980588  0.16670560  0.83299145  1
  Pb  Pb47  1  0.16811795  0.16692326  0.50180110  1
  Pb  Pb48  1  0.49981892  0.49696784  0.16675669  1
  Pb  Pb49  1  0.50011094  0.83490797  0.16916141  1
  Pb  Pb50  1  0.16661224  0.50231638  0.16637574  1
  Pb  Pb51  1  0.83378700  0.83184895  0.49996243  1
  Pb  Pb52  1  0.16512204  0.83283539  0.83290681  1
  Pb  Pb53  1  0.49949857  0.50035325  0.83350051  1
  I  I54  1  0.16255219  -0.00401670  0.17188534  1
  I  I55  1  0.16945791  -0.00270582  0.49849237  1
  I  I56  1  0.16289013  0.00175689  0.83349285  1
  I  I57  1  0.16903897  0.33298824  0.16874807  1
  I  I58  1  0.16532778  0.33623852  0.50396391  1
  I  I59  1  0.15994381  0.33404562  0.82748956  1
  I  I60  1  0.16383908  0.67044476  0.16574007  1
  I  I61  1  0.16898049  0.66687924  0.50270176  1
  I  I62  1  0.16148771  0.66399769  0.83119015  1
  I  I63  1  0.50015953  0.00247660  0.16817536  1
  I  I64  1  0.49541553  -0.00052256  0.49702733  1
  I  I65  1  0.49924814  -0.00006298  0.83450422  1
  I  I66  1  0.50042216  0.32896070  0.17335303  1
  I  I67  1  0.50070251  0.33064326  0.49720237  1
  I  I68  1  0.50425994  0.33322020  0.83156036  1
  I  I69  1  0.50036011  0.66730275  0.16704105  1
  I  I70  1  0.49932295  0.66921351  0.50052771  1
  I  I71  1  0.49897932  0.66693701  0.83267057  1
  I  I72  1  0.83661513  -0.00384279  0.16211562  1
  I  I73  1  0.83398454  0.00006959  0.50183924  1
  I  I74  1  0.83676722  -0.00001791  0.83765449  1
  I  I75  1  0.83051128  0.33309815  0.16625657  1
  I  I76  1  0.83721300  0.33776768  0.50616497  1
  I  I77  1  0.83582637  0.33382000  0.82785511  1
  I  I78  1  0.83574200  0.67032189  0.16105635  1
  I  I79  1  0.83243590  0.66407225  0.50611066  1
  I  I80  1  0.83766088  0.66606430  0.83229967  1
  I  I81  1  0.16447046  0.17189303  -0.00421483  1
  I  I82  1  0.16718518  0.16889173  0.33326325  1
  I  I83  1  0.16529467  0.16516068  0.66977999  1
  I  I84  1  0.16125073  0.49631556  -0.00360020  1
  I  I85  1  0.16367155  0.50302703  0.33674871  1
  I  I86  1  0.16294988  0.50264174  0.66644551  1
  I  I87  1  0.16418312  0.83432703  0.00177969  1
  I  I88  1  0.16523412  0.82781343  0.33443667  1
  I  I89  1  0.16940624  0.83223002  0.66391991  1
  I  I90  1  0.50055938  0.16577120  0.00202813  1
  I  I91  1  0.49970884  0.16182756  0.33431652  1
  I  I92  1  0.50036300  0.16286762  0.66399453  1
  I  I93  1  0.50045854  0.49863465  -0.00004201  1
  I  I94  1  0.50165771  0.50259704  0.33385767  1
  I  I95  1  0.50148899  0.49761248  0.66647549  1
  I  I96  1  0.49744796  0.83524676  0.00017464  1
  I  I97  1  0.50120389  0.83480687  0.33682854  1
  I  I98  1  0.49392865  0.83996735  0.66221069  1
  I  I99  1  0.83429502  0.17181009  -0.00415735  1
  I  I100  1  0.83310689  0.16650476  0.33334351  1
  I  I101  1  0.83447022  0.16049666  0.67034215  1
  I  I102  1  0.83768106  0.49783594  -0.00376878  1
  I  I103  1  0.83589251  0.50318297  0.33633727  1
  I  I104  1  0.83592271  0.50328683  0.66771152  1
  I  I105  1  0.83926525  0.83197184  -0.00062283  1
  I  I106  1  0.83337851  0.83093654  0.33128204  1
  I  I107  1  0.83290417  0.83445713  0.66932141  1
  I  I108  1  0.00008031  0.16696826  0.16703478  1
  I  I109  1  -0.00000889  0.16327536  0.50029175  1
  I  I110  1  -0.00052653  0.16700472  0.83270805  1
  I  I111  1  0.00006655  0.49790151  0.16750960  1
  I  I112  1  0.00084993  0.50783093  0.50642304  1
  I  I113  1  -0.00054942  0.49951543  0.82806843  1
  I  I114  1  0.00009704  0.83283531  0.16809987  1
  I  I115  1  0.00274825  0.83026962  0.49966090  1
  I  I116  1  -0.00305285  0.83353681  0.83238142  1
  I  I117  1  0.33619842  0.16438129  0.16918659  1
  I  I118  1  0.33615270  0.16650801  0.49956194  1
  I  I119  1  0.33046028  0.17138835  0.83291436  1
  I  I120  1  0.33295790  0.50344854  0.16610008  1
  I  I121  1  0.32985533  0.50171430  0.50511498  1
  I  I122  1  0.32922311  0.49402505  0.82785148  1
  I  I123  1  0.33082100  0.83404466  0.16793323  1
  I  I124  1  0.33205301  0.83100782  0.49471932  1
  I  I125  1  0.33315437  0.83411950  0.83642434  1
  I  I126  1  0.66386106  0.16375704  0.16927518  1
  I  I127  1  0.66341686  0.16033821  0.49882018  1
  I  I128  1  0.66969439  0.16717772  0.83312394  1
  I  I129  1  0.66697651  0.50365193  0.16704723  1
  I  I130  1  0.66939043  0.50074082  0.50570778  1
  I  I131  1  0.67054495  0.49872694  0.82827487  1
  I  I132  1  0.66915481  0.83408504  0.16260487  1
  I  I133  1  0.66483335  0.83553389  0.50072269  1
  I  I134  1  0.67174112  0.83416308  0.83911619  1
