# generated using pymatgen
data_Cs27Sn14Pb13I81
_symmetry_space_group_name_H-M   'P 1'
_cell_length_a   18.96663457
_cell_length_b   18.97804061
_cell_length_c   18.98235657
_cell_angle_alpha   89.99803302
_cell_angle_beta   90.00007472
_cell_angle_gamma   90.00040722
_symmetry_Int_Tables_number   1
_chemical_formula_structural   Cs27Sn14Pb13I81
_chemical_formula_sum   'Cs27 Sn14 Pb13 I81'
_cell_volume   6832.69091083
_cell_formula_units_Z   1
loop_
 _symmetry_equiv_pos_site_id
 _symmetry_equiv_pos_as_xyz
  1  'x, y, z'
loop_
 _atom_site_type_symbol
 _atom_site_label
 _atom_site_symmetry_multiplicity
 _atom_site_fract_x
 _atom_site_fract_y
 _atom_site_fract_z
 _atom_site_occupancy
  Cs  Cs0  1  -0.00041380  -0.00045642  -0.00021502  1
  Cs  Cs1  1  0.00060661  0.00012012  0.33376625  1
  Cs  Cs2  1  0.00009584  0.00019076  0.66687994  1
  Cs  Cs3  1  0.00059260  0.32812864  0.00507312  1
  Cs  Cs4  1  -0.00228739  0.33131625  0.33291397  1
  Cs  Cs5  1  0.00170057  0.33069865  0.66402956  1
  Cs  Cs6  1  0.00107801  0.67032797  -0.00239112  1
  Cs  Cs7  1  0.00148344  0.66756746  0.33477366  1
  Cs  Cs8  1  -0.00006679  0.66798652  0.66617537  1
  Cs  Cs9  1  0.33375726  0.00032947  0.00002423  1
  Cs  Cs10  1  0.34020542  -0.00113032  0.33365914  1
  Cs  Cs11  1  0.33429409  0.00013633  0.66606819  1
  Cs  Cs12  1  0.33807133  0.33253733  -0.00098124  1
  Cs  Cs13  1  0.33209788  0.33222169  0.33493326  1
  Cs  Cs14  1  0.33331884  0.33324612  0.66718451  1
  Cs  Cs15  1  0.33211923  0.66729913  0.00021362  1
  Cs  Cs16  1  0.33306168  0.66815594  0.33445863  1
  Cs  Cs17  1  0.33105473  0.66714876  0.66504278  1
  Cs  Cs18  1  0.66629296  0.00110744  0.00075768  1
  Cs  Cs19  1  0.65926655  -0.00121016  0.33414840  1
  Cs  Cs20  1  0.66732449  0.00174694  0.66533045  1
  Cs  Cs21  1  0.65805872  0.34095927  0.00720022  1
  Cs  Cs22  1  0.67087014  0.33606477  0.32418658  1
  Cs  Cs23  1  0.66408775  0.33341109  0.66909784  1
  Cs  Cs24  1  0.66572774  0.65921143  -0.00231607  1
  Cs  Cs25  1  0.66409447  0.66610474  0.33083668  1
  Cs  Cs26  1  0.67323595  0.66424181  0.67006705  1
  Sn  Sn27  1  0.16619517  0.16618854  0.50070951  1
  Sn  Sn28  1  0.16637608  0.50068000  0.16676138  1
  Sn  Sn29  1  0.16725517  0.49995668  0.50000039  1
  Sn  Sn30  1  0.16599718  0.83276783  0.16698897  1
  Sn  Sn31  1  0.49960838  0.50002161  0.50023901  1
  Sn  Sn32  1  0.16584378  0.16658183  0.83249408  1
  Sn  Sn33  1  0.49947921  0.83342695  0.83283926  1
  Sn  Sn34  1  0.16613626  0.49969525  0.83346991  1
  Sn  Sn35  1  0.16621550  0.83382978  0.49978254  1
  Sn  Sn36  1  0.83410914  0.83425078  0.49895385  1
  Sn  Sn37  1  0.83411249  0.83349158  0.16768176  1
  Sn  Sn38  1  0.83389423  0.16710148  0.83300573  1
  Sn  Sn39  1  0.16741153  0.83356752  0.83313938  1
  Sn  Sn40  1  0.83396166  0.16575017  0.50079391  1
  Pb  Pb41  1  0.83626555  0.49617088  0.83335155  1
  Pb  Pb42  1  0.49986364  0.83313940  0.16408407  1
  Pb  Pb43  1  0.50055025  0.16923168  0.50001786  1
  Pb  Pb44  1  0.50059280  0.83141456  0.50206866  1
  Pb  Pb45  1  0.49737039  0.50230394  0.83113508  1
  Pb  Pb46  1  0.49984211  0.16476019  0.83314688  1
  Pb  Pb47  1  0.83349247  0.16405265  0.16696239  1
  Pb  Pb48  1  0.49656442  0.50049298  0.16936266  1
  Pb  Pb49  1  0.83370724  0.83486497  0.83314100  1
  Pb  Pb50  1  0.83640042  0.50313716  0.16655902  1
  Pb  Pb51  1  0.16699915  0.16603413  0.16694612  1
  Pb  Pb52  1  0.83388569  0.49977977  0.50009561  1
  Pb  Pb53  1  0.49998836  0.16659668  0.16678120  1
  I  I54  1  0.16234481  -0.00369080  0.16551657  1
  I  I55  1  0.16193425  -0.00051294  0.50295661  1
  I  I56  1  0.16667002  -0.00043968  0.83115484  1
  I  I57  1  0.16838259  0.33611365  0.16700636  1
  I  I58  1  0.16710803  0.33323004  0.50271356  1
  I  I59  1  0.16155582  0.33308923  0.82970223  1
  I  I60  1  0.16324677  0.66765987  0.16676236  1
  I  I61  1  0.16671191  0.66724809  0.50192619  1
  I  I62  1  0.17150263  0.66729480  0.83142092  1
  I  I63  1  0.49684017  -0.00079042  0.16742258  1
  I  I64  1  0.49738673  -0.00015940  0.50057254  1
  I  I65  1  0.49219753  -0.00301632  0.83232132  1
  I  I66  1  0.49899041  0.33400848  0.16586685  1
  I  I67  1  0.49229270  0.33671678  0.50174789  1
  I  I68  1  0.49965415  0.33360470  0.83274828  1
  I  I69  1  0.50247116  0.66682945  0.16646032  1
  I  I70  1  0.49254786  0.66399176  0.50076115  1
  I  I71  1  0.49456513  0.67002870  0.83296052  1
  I  I72  1  0.84286496  -0.00373946  0.16679876  1
  I  I73  1  0.84193826  -0.00054531  0.50060952  1
  I  I74  1  0.84022425  0.00256375  0.83203518  1
  I  I75  1  0.83349295  0.33328665  0.16739084  1
  I  I76  1  0.83789239  0.33012716  0.50533329  1
  I  I77  1  0.83939237  0.32827676  0.82428782  1
  I  I78  1  0.83577503  0.67117833  0.17335149  1
  I  I79  1  0.83727585  0.66979328  0.49666083  1
  I  I80  1  0.83309308  0.66677758  0.83300749  1
  I  I81  1  0.16272663  0.16623784  -0.00332674  1
  I  I82  1  0.16222315  0.16802972  0.33701018  1
  I  I83  1  0.16325886  0.16657139  0.66633736  1
  I  I84  1  0.16412873  0.50410265  -0.00049939  1
  I  I85  1  0.17054028  0.50332028  0.33427815  1
  I  I86  1  0.17037020  0.50239007  0.66621885  1
  I  I87  1  0.16646347  0.83036839  -0.00040156  1
  I  I88  1  0.16190549  0.83008036  0.33415174  1
  I  I89  1  0.16662231  0.83110632  0.66633406  1
  I  I90  1  0.49926663  0.16618983  -0.00057573  1
  I  I91  1  0.49829468  0.16514918  0.33401953  1
  I  I92  1  0.49963173  0.16655142  0.66656094  1
  I  I93  1  0.49989898  0.50025716  -0.00009418  1
  I  I94  1  0.49358247  0.50150400  0.33697189  1
  I  I95  1  0.49236820  0.50040720  0.66369894  1
  I  I96  1  0.49425211  0.83393561  -0.00359134  1
  I  I97  1  0.49784744  0.83248975  0.33355415  1
  I  I98  1  0.49312760  0.83286146  0.66946307  1
  I  I99  1  0.84046438  0.16361299  -0.00294115  1
  I  I100  1  0.83949305  0.16604798  0.33689164  1
  I  I101  1  0.83900706  0.15956673  0.66569997  1
  I  I102  1  0.83449702  0.50109800  -0.00009014  1
  I  I103  1  0.83493530  0.49473518  0.33351913  1
  I  I104  1  0.83508918  0.50694799  0.66659312  1
  I  I105  1  0.83812959  0.83488550  0.00190119  1
  I  I106  1  0.84256264  0.83819689  0.33465882  1
  I  I107  1  0.83683076  0.83449742  0.66380645  1
  I  I108  1  0.00040853  0.16979250  0.16595955  1
  I  I109  1  0.00152695  0.16751037  0.50416355  1
  I  I110  1  0.00195503  0.16404946  0.82885127  1
  I  I111  1  0.00462583  0.50092887  0.17065331  1
  I  I112  1  0.00410155  0.50062754  0.50036965  1
  I  I113  1  0.00504029  0.50818475  0.82880356  1
  I  I114  1  0.00189261  0.82946566  0.16534725  1
  I  I115  1  0.00188343  0.83155952  0.50174997  1
  I  I116  1  0.00365468  0.83115392  0.83345068  1
  I  I117  1  0.33249294  0.16396872  0.16656890  1
  I  I118  1  0.32968504  0.16417403  0.50408142  1
  I  I119  1  0.32938002  0.16839468  0.82903346  1
  I  I120  1  0.32843646  0.50757302  0.16402533  1
  I  I121  1  0.32986751  0.50071396  0.50013517  1
  I  I122  1  0.32852445  0.49521392  0.83527005  1
  I  I123  1  0.32946209  0.82956749  0.16929854  1
  I  I124  1  0.32974653  0.83551490  0.49777391  1
  I  I125  1  0.32990050  0.83493296  0.83318907  1
  I  I126  1  0.66732307  0.16406470  0.16674085  1
  I  I127  1  0.67037840  0.16166821  0.50482466  1
  I  I128  1  0.66983373  0.16135608  0.82734770  1
  I  I129  1  0.66654702  0.50007624  0.16823850  1
  I  I130  1  0.66440750  0.50142352  0.50114553  1
  I  I131  1  0.66649875  0.50171885  0.83114084  1
  I  I132  1  0.66977091  0.83681114  0.17124970  1
  I  I133  1  0.66997579  0.83659532  0.49729195  1
  I  I134  1  0.66496408  0.83614297  0.83222091  1
