# generated using pymatgen
data_Cs27Sn14Pb13I81
_symmetry_space_group_name_H-M   'P 1'
_cell_length_a   18.97414191
_cell_length_b   18.97848301
_cell_length_c   18.97451200
_cell_angle_alpha   90.00038392
_cell_angle_beta   90.00128828
_cell_angle_gamma   90.00059277
_symmetry_Int_Tables_number   1
_chemical_formula_structural   Cs27Sn14Pb13I81
_chemical_formula_sum   'Cs27 Sn14 Pb13 I81'
_cell_volume   6832.72992985
_cell_formula_units_Z   1
loop_
 _symmetry_equiv_pos_site_id
 _symmetry_equiv_pos_as_xyz
  1  'x, y, z'
loop_
 _atom_site_type_symbol
 _atom_site_label
 _atom_site_symmetry_multiplicity
 _atom_site_fract_x
 _atom_site_fract_y
 _atom_site_fract_z
 _atom_site_occupancy
  Cs  Cs0  1  0.00062737  0.00238118  0.00266998  1
  Cs  Cs1  1  -0.00010487  0.00065610  0.33154483  1
  Cs  Cs2  1  -0.00127342  -0.01088955  0.66730877  1
  Cs  Cs3  1  0.00055269  0.33250726  0.00079870  1
  Cs  Cs4  1  0.00162369  0.33166422  0.33284162  1
  Cs  Cs5  1  -0.00106292  0.33427038  0.66530686  1
  Cs  Cs6  1  -0.00313356  0.66623151  -0.00051451  1
  Cs  Cs7  1  0.00158189  0.66944447  0.33358924  1
  Cs  Cs8  1  -0.00673334  0.67484162  0.66827775  1
  Cs  Cs9  1  0.33539650  0.00062917  -0.00623236  1
  Cs  Cs10  1  0.33278763  0.00112747  0.33332770  1
  Cs  Cs11  1  0.33311997  -0.00149110  0.67320610  1
  Cs  Cs12  1  0.33127142  0.33285265  -0.00294229  1
  Cs  Cs13  1  0.33238860  0.33325544  0.33498760  1
  Cs  Cs14  1  0.33407294  0.33462652  0.66649091  1
  Cs  Cs15  1  0.33698628  0.66594759  0.00116331  1
  Cs  Cs16  1  0.33453158  0.66632908  0.33453804  1
  Cs  Cs17  1  0.33162390  0.66248531  0.66331226  1
  Cs  Cs18  1  0.66504390  -0.00019588  -0.00098205  1
  Cs  Cs19  1  0.66656021  0.00322334  0.33353372  1
  Cs  Cs20  1  0.66743219  -0.00173225  0.66812618  1
  Cs  Cs21  1  0.66977136  0.33395495  0.00146968  1
  Cs  Cs22  1  0.66710570  0.33230214  0.33422585  1
  Cs  Cs23  1  0.66633112  0.33345553  0.66366194  1
  Cs  Cs24  1  0.66697906  0.66752963  0.00093093  1
  Cs  Cs25  1  0.66252746  0.66241322  0.32982327  1
  Cs  Cs26  1  0.67390305  0.66623605  0.66897650  1
  Sn  Sn27  1  0.83353618  0.83415765  0.16717510  1
  Sn  Sn28  1  0.83370919  0.16693312  0.83355427  1
  Sn  Sn29  1  0.49867695  0.16625902  0.49953168  1
  Sn  Sn30  1  0.49938286  0.16697150  0.16693187  1
  Sn  Sn31  1  0.16687141  0.50007325  0.16674601  1
  Sn  Sn32  1  0.16671683  0.49947541  0.50038516  1
  Sn  Sn33  1  0.49961515  0.49968292  0.83270648  1
  Sn  Sn34  1  0.49935088  0.50000138  0.50089992  1
  Sn  Sn35  1  0.16741532  0.16678777  0.49993126  1
  Sn  Sn36  1  0.49990145  0.83347983  0.50003372  1
  Sn  Sn37  1  0.16656629  0.83370161  0.16657175  1
  Sn  Sn38  1  0.16729117  0.16646251  0.16707134  1
  Sn  Sn39  1  0.16697793  0.49998051  0.83281606  1
  Sn  Sn40  1  0.83343355  0.16602778  0.16579241  1
  Pb  Pb41  1  0.83608912  0.49969393  0.16692773  1
  Pb  Pb42  1  0.50169574  0.16874284  0.83270560  1
  Pb  Pb43  1  0.83028276  0.83343350  0.49661037  1
  Pb  Pb44  1  0.83390779  0.50006820  0.49980625  1
  Pb  Pb45  1  0.16835308  0.83362019  0.49810759  1
  Pb  Pb46  1  0.49970517  0.83587018  0.16824765  1
  Pb  Pb47  1  0.49984990  0.83004095  0.83036432  1
  Pb  Pb48  1  0.83402118  0.16659036  0.49969794  1
  Pb  Pb49  1  0.83321997  0.83621165  0.83642463  1
  Pb  Pb50  1  0.16695195  0.83004663  0.83644623  1
  Pb  Pb51  1  0.49775304  0.49750660  0.16689193  1
  Pb  Pb52  1  0.16484697  0.16831100  0.83242204  1
  Pb  Pb53  1  0.83338576  0.49792708  0.83339325  1
  I  I54  1  0.16480433  0.00152469  0.17269634  1
  I  I55  1  0.17035225  0.00317830  0.49375364  1
  I  I56  1  0.16453778  0.00001923  0.83287471  1
  I  I57  1  0.16668418  0.33260766  0.16743462  1
  I  I58  1  0.17410225  0.33340823  0.49429617  1
  I  I59  1  0.16967285  0.33641611  0.83817658  1
  I  I60  1  0.16164964  0.66619557  0.16700504  1
  I  I61  1  0.17167736  0.66361669  0.49782710  1
  I  I62  1  0.17035915  0.66165681  0.83165098  1
  I  I63  1  0.49658680  0.00404090  0.17221449  1
  I  I64  1  0.49718289  0.00163063  0.49281071  1
  I  I65  1  0.50223834  0.00023602  0.83288021  1
  I  I66  1  0.50152717  0.32937898  0.17165343  1
  I  I67  1  0.49622800  0.33317218  0.49990154  1
  I  I68  1  0.49588660  0.33639988  0.82826138  1
  I  I69  1  0.50075908  0.66646255  0.16759051  1
  I  I70  1  0.49544239  0.66520642  0.50319299  1
  I  I71  1  0.49571873  0.66188381  0.83041864  1
  I  I72  1  0.83867798  0.00156340  0.16338357  1
  I  I73  1  0.83339099  0.00022626  0.50283819  1
  I  I74  1  0.83303410  0.00394844  0.83464562  1
  I  I75  1  0.83370454  0.32974773  0.16331257  1
  I  I76  1  0.82889144  0.33303496  0.49740866  1
  I  I77  1  0.83355741  0.33040771  0.84210727  1
  I  I78  1  0.83778624  0.66946858  0.16820288  1
  I  I79  1  0.83388817  0.66687023  0.49878703  1
  I  I80  1  0.83306776  0.66674576  0.83424940  1
  I  I81  1  0.16818619  0.16781056  0.00321321  1
  I  I82  1  0.16542005  0.17128306  0.33215382  1
  I  I83  1  0.17075870  0.17260505  0.66323444  1
  I  I84  1  0.17017920  0.49916539  0.00052628  1
  I  I85  1  0.17021546  0.49861879  0.33350277  1
  I  I86  1  0.17259822  0.49270714  0.66548606  1
  I  I87  1  0.16336503  0.83587298  0.00489572  1
  I  I88  1  0.16343367  0.82967500  0.32987787  1
  I  I89  1  0.16761942  0.83431933  0.66652187  1
  I  I90  1  0.49760493  0.16807275  0.00273244  1
  I  I91  1  0.50180871  0.16911282  0.33372956  1
  I  I92  1  0.49705471  0.16584421  0.66307565  1
  I  I93  1  0.49531644  0.49734001  -0.00195827  1
  I  I94  1  0.49649548  0.50157566  0.33645625  1
  I  I95  1  0.49140748  0.49745710  0.66521459  1
  I  I96  1  0.50084345  0.83287655  0.00023451  1
  I  I97  1  0.49983193  0.82758281  0.33604554  1
  I  I98  1  0.49825265  0.84088826  0.66231869  1
  I  I99  1  0.83366430  0.16393106  0.00240465  1
  I  I100  1  0.83344275  0.16285711  0.32993052  1
  I  I101  1  0.83211563  0.17049174  0.66884800  1
  I  I102  1  0.83252284  0.50127531  0.00026200  1
  I  I103  1  0.83134131  0.49745966  0.33311186  1
  I  I104  1  0.83706017  0.49707823  0.66672593  1
  I  I105  1  0.83693705  0.83451467  0.00428576  1
  I  I106  1  0.83895393  0.84171318  0.32912600  1
  I  I107  1  0.83286197  0.83422029  0.66662451  1
  I  I108  1  0.00112441  0.16682543  0.16674997  1
  I  I109  1  0.00366681  0.17363932  0.49563687  1
  I  I110  1  -0.00268387  0.17036300  0.83937428  1
  I  I111  1  0.00470582  0.49498627  0.16668313  1
  I  I112  1  0.00441813  0.49318964  0.49916260  1
  I  I113  1  0.00332206  0.49771364  0.83430101  1
  I  I114  1  0.00085320  0.83797605  0.16743276  1
  I  I115  1  0.00012339  0.83316508  0.50115964  1
  I  I116  1  0.00005966  0.83017924  0.82913405  1
  I  I117  1  0.33232007  0.16742851  0.17219413  1
  I  I118  1  0.33357921  0.16876739  0.49085845  1
  I  I119  1  0.33325002  0.16617080  0.83684174  1
  I  I120  1  0.32939576  0.50093384  0.16692433  1
  I  I121  1  0.33310555  0.49896803  0.50010038  1
  I  I122  1  0.33260813  0.49795971  0.83267220  1
  I  I123  1  0.33040051  0.83275451  0.16885465  1
  I  I124  1  0.33616672  0.83262872  0.49539364  1
  I  I125  1  0.33338978  0.83829349  0.83785585  1
  I  I126  1  0.66666022  0.16220136  0.16716873  1
  I  I127  1  0.66344347  0.16835172  0.49641547  1
  I  I128  1  0.66936201  0.16949142  0.83888800  1
  I  I129  1  0.66632141  0.50006372  0.16648263  1
  I  I130  1  0.66277393  0.49854328  0.50470457  1
  I  I131  1  0.66368035  0.49820514  0.82706355  1
  I  I132  1  0.66897931  0.83909072  0.16858457  1
  I  I133  1  0.66228318  0.83407478  0.49821275  1
  I  I134  1  0.66657263  0.83052533  0.83536241  1
