# generated using pymatgen
data_Cs27Sn13Pb14I81
_symmetry_space_group_name_H-M   'P 1'
_cell_length_a   18.99954489
_cell_length_b   18.98632902
_cell_length_c   18.99054954
_cell_angle_alpha   89.99908257
_cell_angle_beta   90.00030401
_cell_angle_gamma   90.00003567
_symmetry_Int_Tables_number   1
_chemical_formula_structural   Cs27Sn13Pb14I81
_chemical_formula_sum   'Cs27 Sn13 Pb14 I81'
_cell_volume   6850.49151946
_cell_formula_units_Z   1
loop_
 _symmetry_equiv_pos_site_id
 _symmetry_equiv_pos_as_xyz
  1  'x, y, z'
loop_
 _atom_site_type_symbol
 _atom_site_label
 _atom_site_symmetry_multiplicity
 _atom_site_fract_x
 _atom_site_fract_y
 _atom_site_fract_z
 _atom_site_occupancy
  Cs  Cs0  1  -0.00592848  0.00078115  -0.00409479  1
  Cs  Cs1  1  0.00543188  -0.00022125  0.33404000  1
  Cs  Cs2  1  -0.00412605  0.00073186  0.67037934  1
  Cs  Cs3  1  0.00261715  0.33447102  0.00140789  1
  Cs  Cs4  1  -0.00050784  0.33422642  0.33240721  1
  Cs  Cs5  1  0.00009216  0.33188271  0.66639070  1
  Cs  Cs6  1  -0.00405863  0.66551876  -0.00236589  1
  Cs  Cs7  1  0.00043580  0.66651956  0.33347522  1
  Cs  Cs8  1  0.00187489  0.66752332  0.66910692  1
  Cs  Cs9  1  0.33437357  0.00126921  0.00178524  1
  Cs  Cs10  1  0.33142481  -0.00271360  0.33190285  1
  Cs  Cs11  1  0.33400395  -0.00135022  0.66750779  1
  Cs  Cs12  1  0.33266982  0.33315125  0.00040521  1
  Cs  Cs13  1  0.33238466  0.33250042  0.33093123  1
  Cs  Cs14  1  0.33900816  0.33325457  0.66875553  1
  Cs  Cs15  1  0.33434408  0.66510259  -0.00147259  1
  Cs  Cs16  1  0.33046282  0.67103246  0.33273325  1
  Cs  Cs17  1  0.33407171  0.66683985  0.66726482  1
  Cs  Cs18  1  0.67211740  -0.00422966  -0.00029382  1
  Cs  Cs19  1  0.66428816  0.00100218  0.33474820  1
  Cs  Cs20  1  0.67012261  0.00294113  0.66519450  1
  Cs  Cs21  1  0.66122261  0.33379231  0.00178604  1
  Cs  Cs22  1  0.66954513  0.33351802  0.33849365  1
  Cs  Cs23  1  0.65798919  0.32885863  0.65769914  1
  Cs  Cs24  1  0.67160950  0.66973598  0.00048943  1
  Cs  Cs25  1  0.67133746  0.66561489  0.33336837  1
  Cs  Cs26  1  0.66367781  0.66661040  0.66525174  1
  Sn  Sn27  1  0.49927385  0.83328852  0.83278875  1
  Sn  Sn28  1  0.16657311  0.16734412  0.16729072  1
  Sn  Sn29  1  0.16750276  0.83283062  0.83374467  1
  Sn  Sn30  1  0.16603261  0.50060541  0.83325228  1
  Sn  Sn31  1  0.16692205  0.16762363  0.49972425  1
  Sn  Sn32  1  0.49939186  0.49979830  0.16688073  1
  Sn  Sn33  1  0.83353689  0.16692675  0.16669071  1
  Sn  Sn34  1  0.16738751  0.49965516  0.16677631  1
  Sn  Sn35  1  0.16689237  0.49916092  0.50010935  1
  Sn  Sn36  1  0.49998480  0.16744867  0.16670000  1
  Sn  Sn37  1  0.83269657  0.83307187  0.49987785  1
  Sn  Sn38  1  0.83312325  0.49879657  0.83256895  1
  Sn  Sn39  1  0.50093200  0.83317269  0.50061593  1
  Pb  Pb40  1  0.50016054  0.16382574  0.83583230  1
  Pb  Pb41  1  0.83591310  0.16497021  0.49794404  1
  Pb  Pb42  1  0.16643183  0.83322155  0.16353076  1
  Pb  Pb43  1  0.49989144  0.83291566  0.16655355  1
  Pb  Pb44  1  0.83305194  0.17033051  0.83502293  1
  Pb  Pb45  1  0.83308824  0.83152925  0.83133869  1
  Pb  Pb46  1  0.49730096  0.16448292  0.49756582  1
  Pb  Pb47  1  0.16675339  0.16728589  0.83352189  1
  Pb  Pb48  1  0.16682658  0.83352845  0.50216157  1
  Pb  Pb49  1  0.49985567  0.50163751  0.83526350  1
  Pb  Pb50  1  0.83570105  0.50140231  0.50250485  1
  Pb  Pb51  1  0.49737004  0.50214644  0.49720762  1
  Pb  Pb52  1  0.83355141  0.49809973  0.16518084  1
  Pb  Pb53  1  0.83356474  0.83573004  0.16934179  1
  I  I54  1  0.16851101  0.00337773  0.17175082  1
  I  I55  1  0.16729828  0.00221629  0.49443748  1
  I  I56  1  0.17073565  -0.00252961  0.83264542  1
  I  I57  1  0.16743591  0.33365544  0.16507057  1
  I  I58  1  0.16540608  0.33400964  0.50007915  1
  I  I59  1  0.16208859  0.33683502  0.83453258  1
  I  I60  1  0.17235128  0.66309044  0.17002129  1
  I  I61  1  0.16685861  0.66399127  0.49700666  1
  I  I62  1  0.16673116  0.66549041  0.83293313  1
  I  I63  1  0.49797560  0.00288865  0.16693957  1
  I  I64  1  0.50068614  -0.00336275  0.50167942  1
  I  I65  1  0.49266087  -0.00435004  0.83145385  1
  I  I66  1  0.49766071  0.33319782  0.16491500  1
  I  I67  1  0.50128867  0.33339431  0.50156638  1
  I  I68  1  0.49912533  0.33351832  0.83343261  1
  I  I69  1  0.49274495  0.66381178  0.16632602  1
  I  I70  1  0.50056805  0.66993176  0.50161719  1
  I  I71  1  0.49727069  0.66953475  0.83244371  1
  I  I72  1  0.83369946  0.00391290  0.16523826  1
  I  I73  1  0.83180100  -0.00301777  0.50082577  1
  I  I74  1  0.83442594  -0.00006989  0.83427341  1
  I  I75  1  0.83460940  0.33026111  0.16609748  1
  I  I76  1  0.83295107  0.33330994  0.50032992  1
  I  I77  1  0.84456625  0.33781884  0.83466763  1
  I  I78  1  0.83276277  0.66631983  0.16590250  1
  I  I79  1  0.83158704  0.66942026  0.49954103  1
  I  I80  1  0.83700246  0.66397228  0.83568299  1
  I  I81  1  0.16747418  0.16948882  0.00346695  1
  I  I82  1  0.16639325  0.17336161  0.33205627  1
  I  I83  1  0.16595084  0.16860326  0.66400269  1
  I  I84  1  0.16688654  0.49983911  0.00041809  1
  I  I85  1  0.17122203  0.49557602  0.33273506  1
  I  I86  1  0.16090644  0.50149837  0.66699277  1
  I  I87  1  0.17296426  0.82944566  -0.00423656  1
  I  I88  1  0.16720323  0.83128038  0.33339831  1
  I  I89  1  0.16802058  0.82867880  0.66967260  1
  I  I90  1  0.49477725  0.16908054  0.00434604  1
  I  I91  1  0.50123496  0.16805869  0.32951312  1
  I  I92  1  0.49836465  0.16757982  0.66626050  1
  I  I93  1  0.49345182  0.49777557  0.00311159  1
  I  I94  1  0.49489166  0.49782162  0.32934641  1
  I  I95  1  0.49898868  0.50048672  0.66649679  1
  I  I96  1  0.49457841  0.83353640  -0.00249603  1
  I  I97  1  0.50339782  0.83412405  0.33581362  1
  I  I98  1  0.49839693  0.83152390  0.66685185  1
  I  I99  1  0.83776349  0.16467585  0.00359079  1
  I  I100  1  0.83155857  0.16739981  0.32984419  1
  I  I101  1  0.83644691  0.16476374  0.66627855  1
  I  I102  1  0.84027706  0.50155827  -0.00249724  1
  I  I103  1  0.83395914  0.50118238  0.33343340  1
  I  I104  1  0.84109886  0.50268321  0.67019889  1
  I  I105  1  0.83281302  0.83396617  -0.00031439  1
  I  I106  1  0.82721520  0.83175971  0.33704590  1
  I  I107  1  0.83347810  0.83351527  0.66387749  1
  I  I108  1  0.00162317  0.17053678  0.17064012  1
  I  I109  1  0.00374235  0.16745067  0.49347521  1
  I  I110  1  0.00024188  0.16014876  0.83598036  1
  I  I111  1  0.00350711  0.49599604  0.16780683  1
  I  I112  1  0.00409004  0.49979167  0.49388200  1
  I  I113  1  0.00262880  0.50694044  0.83629716  1
  I  I114  1  0.00019297  0.83344175  0.16768404  1
  I  I115  1  -0.00133286  0.83370580  0.50090751  1
  I  I116  1  0.00247313  0.83110080  0.83206351  1
  I  I117  1  0.33243632  0.17049308  0.17006436  1
  I  I118  1  0.32962756  0.16804639  0.49382872  1
  I  I119  1  0.33318769  0.16945340  0.83576976  1
  I  I120  1  0.33168380  0.49230669  0.16422051  1
  I  I121  1  0.32922781  0.49888896  0.50529078  1
  I  I122  1  0.33002271  0.50292397  0.83271747  1
  I  I123  1  0.33314340  0.83781683  0.17109732  1
  I  I124  1  0.33519464  0.83337214  0.50208243  1
  I  I125  1  0.33283157  0.82746462  0.82770882  1
  I  I126  1  0.66602243  0.16991027  0.16411729  1
  I  I127  1  0.66646593  0.16617041  0.49801029  1
  I  I128  1  0.66666433  0.16612122  0.83663147  1
  I  I129  1  0.66410499  0.49682100  0.16333861  1
  I  I130  1  0.66642692  0.50048615  0.50003098  1
  I  I131  1  0.66869893  0.50336476  0.83854230  1
  I  I132  1  0.66654143  0.83277663  0.16120806  1
  I  I133  1  0.66577365  0.83365153  0.50585677  1
  I  I134  1  0.66406754  0.83173337  0.83284195  1
