# generated using pymatgen
data_Cs27Sn14Pb13I81
_symmetry_space_group_name_H-M   'P 1'
_cell_length_a   18.98240341
_cell_length_b   18.97767209
_cell_length_c   18.96609286
_cell_angle_alpha   90.00051189
_cell_angle_beta   90.00005709
_cell_angle_gamma   89.99976504
_symmetry_Int_Tables_number   1
_chemical_formula_structural   Cs27Sn14Pb13I81
_chemical_formula_sum   'Cs27 Sn14 Pb13 I81'
_cell_volume   6832.37994967
_cell_formula_units_Z   1
loop_
 _symmetry_equiv_pos_site_id
 _symmetry_equiv_pos_as_xyz
  1  'x, y, z'
loop_
 _atom_site_type_symbol
 _atom_site_label
 _atom_site_symmetry_multiplicity
 _atom_site_fract_x
 _atom_site_fract_y
 _atom_site_fract_z
 _atom_site_occupancy
  Cs  Cs0  1  0.00072207  0.00029791  -0.00305712  1
  Cs  Cs1  1  -0.00081003  0.00609609  0.33011900  1
  Cs  Cs2  1  0.00089722  -0.00278225  0.66945629  1
  Cs  Cs3  1  -0.00161934  0.33240492  -0.00284229  1
  Cs  Cs4  1  0.00503439  0.32833173  0.33318826  1
  Cs  Cs5  1  0.00184745  0.33405078  0.66742258  1
  Cs  Cs6  1  -0.00306376  0.66723803  0.00036070  1
  Cs  Cs7  1  -0.00104768  0.66527799  0.33464378  1
  Cs  Cs8  1  -0.00103402  0.66767729  0.66612866  1
  Cs  Cs9  1  0.33230904  -0.00232385  0.00191924  1
  Cs  Cs10  1  0.33568096  0.00272913  0.32409800  1
  Cs  Cs11  1  0.33449452  -0.00144831  0.66718212  1
  Cs  Cs12  1  0.33717414  0.33865978  0.00030109  1
  Cs  Cs13  1  0.32424395  0.32688778  0.32815986  1
  Cs  Cs14  1  0.33151739  0.33255020  0.66766032  1
  Cs  Cs15  1  0.33624676  0.66504888  0.00700562  1
  Cs  Cs16  1  0.33126021  0.66702320  0.32810107  1
  Cs  Cs17  1  0.33524626  0.66811549  0.66563935  1
  Cs  Cs18  1  0.66691417  -0.00041565  -0.00053061  1
  Cs  Cs19  1  0.66563032  0.00722773  0.33313110  1
  Cs  Cs20  1  0.66480893  -0.00266484  0.66651831  1
  Cs  Cs21  1  0.66567473  0.33669054  0.00042451  1
  Cs  Cs22  1  0.66814776  0.32422711  0.33402572  1
  Cs  Cs23  1  0.66553937  0.33505333  0.66663464  1
  Cs  Cs24  1  0.66811663  0.66436021  0.00151965  1
  Cs  Cs25  1  0.66884083  0.66784606  0.33747049  1
  Cs  Cs26  1  0.66679346  0.66767485  0.66511432  1
  Sn  Sn27  1  0.16616702  0.50093841  0.83300649  1
  Sn  Sn28  1  0.16804979  0.83250128  0.83269235  1
  Sn  Sn29  1  0.16695396  0.83340534  0.50029218  1
  Sn  Sn30  1  0.83346739  0.83302923  0.49873587  1
  Sn  Sn31  1  0.16721960  0.16657402  0.83293402  1
  Sn  Sn32  1  0.50002513  0.50018702  0.49980380  1
  Sn  Sn33  1  0.83269454  0.50027885  0.49947910  1
  Sn  Sn34  1  0.50000101  0.16576113  0.83279691  1
  Sn  Sn35  1  0.83317829  0.50053844  0.16753945  1
  Sn  Sn36  1  0.49902956  0.83356759  0.83294466  1
  Sn  Sn37  1  0.83390922  0.49931936  0.83294098  1
  Sn  Sn38  1  0.83285203  0.16773783  0.83265631  1
  Sn  Sn39  1  0.49959327  0.83250834  0.50043543  1
  Sn  Sn40  1  0.83319284  0.83278591  0.16826371  1
  Pb  Pb41  1  0.16684777  0.16324864  0.50227413  1
  Pb  Pb42  1  0.83331586  0.16693852  0.16376435  1
  Pb  Pb43  1  0.50009708  0.50068966  0.83182233  1
  Pb  Pb44  1  0.50278860  0.50013020  0.17125195  1
  Pb  Pb45  1  0.83305340  0.83283255  0.83285921  1
  Pb  Pb46  1  0.50288645  0.83307239  0.16720188  1
  Pb  Pb47  1  0.16673687  0.50188424  0.50176988  1
  Pb  Pb48  1  0.16392292  0.50026221  0.16389934  1
  Pb  Pb49  1  0.50010279  0.16684643  0.16329294  1
  Pb  Pb50  1  0.16386892  0.83319020  0.16663525  1
  Pb  Pb51  1  0.83350622  0.16676192  0.50276304  1
  Pb  Pb52  1  0.16655405  0.16659018  0.16319934  1
  Pb  Pb53  1  0.49977629  0.16665350  0.50190324  1
  I  I54  1  0.16307877  -0.00033983  0.16463857  1
  I  I55  1  0.16518130  -0.00517406  0.50754065  1
  I  I56  1  0.16555002  -0.00056858  0.82935503  1
  I  I57  1  0.16384379  0.33346564  0.16680950  1
  I  I58  1  0.16582299  0.33345484  0.50201665  1
  I  I59  1  0.16465677  0.33347680  0.83416582  1
  I  I60  1  0.16771833  0.66680565  0.16169318  1
  I  I61  1  0.16516375  0.67011019  0.50823502  1
  I  I62  1  0.16432329  0.66735414  0.82895189  1
  I  I63  1  0.50365545  -0.00026562  0.17018487  1
  I  I64  1  0.50194225  -0.00370191  0.50370957  1
  I  I65  1  0.49884766  -0.00095734  0.82779545  1
  I  I66  1  0.50371365  0.33363188  0.16485976  1
  I  I67  1  0.50867408  0.33644932  0.50339404  1
  I  I68  1  0.49837476  0.33136873  0.83176736  1
  I  I69  1  0.49877203  0.66662575  0.15841597  1
  I  I70  1  0.50285660  0.66810107  0.50827311  1
  I  I71  1  0.49783721  0.66963741  0.83049189  1
  I  I72  1  0.83336402  -0.00280024  0.16987789  1
  I  I73  1  0.83231053  -0.00363579  0.49755097  1
  I  I74  1  0.83552019  0.00159876  0.83353376  1
  I  I75  1  0.83276550  0.33667687  0.16769034  1
  I  I76  1  0.82773061  0.33691944  0.49873194  1
  I  I77  1  0.83632257  0.33449713  0.83376139  1
  I  I78  1  0.83368865  0.66626338  0.16316974  1
  I  I79  1  0.83267865  0.66692079  0.50278911  1
  I  I80  1  0.83631901  0.66392985  0.83335742  1
  I  I81  1  0.16454336  0.16251240  -0.00565750  1
  I  I82  1  0.16613446  0.16595349  0.33339211  1
  I  I83  1  0.16568296  0.16901635  0.67115738  1
  I  I84  1  0.16227128  0.50171598  -0.00509858  1
  I  I85  1  0.16650470  0.50242828  0.33353820  1
  I  I86  1  0.15982335  0.49812880  0.67038335  1
  I  I87  1  0.16900352  0.83498917  -0.00387796  1
  I  I88  1  0.16921345  0.83100688  0.33668629  1
  I  I89  1  0.16403860  0.83368829  0.66791555  1
  I  I90  1  0.50056792  0.16057795  -0.00563672  1
  I  I91  1  0.50146861  0.16573694  0.33351900  1
  I  I92  1  0.50046238  0.16447110  0.67065958  1
  I  I93  1  0.50041061  0.49904903  -0.00004871  1
  I  I94  1  0.50495101  0.50990054  0.33896117  1
  I  I95  1  0.50713779  0.50232763  0.66417612  1
  I  I96  1  0.49672076  0.83842703  -0.00319064  1
  I  I97  1  0.49719193  0.82790253  0.33717770  1
  I  I98  1  0.50232557  0.83386856  0.66683841  1
  I  I99  1  0.83418362  0.16903945  -0.00467487  1
  I  I100  1  0.83300152  0.16809082  0.33342024  1
  I  I101  1  0.83398156  0.16974388  0.67107580  1
  I  I102  1  0.83855564  0.50057303  -0.00098276  1
  I  I103  1  0.82742616  0.50796014  0.33441643  1
  I  I104  1  0.83348430  0.50083054  0.66674940  1
  I  I105  1  0.83362564  0.83090772  0.00129265  1
  I  I106  1  0.83383366  0.82441776  0.33492431  1
  I  I107  1  0.83321714  0.83078113  0.66408035  1
  I  I108  1  -0.00040662  0.16575282  0.16389990  1
  I  I109  1  0.00000485  0.16652030  0.50370523  1
  I  I110  1  0.00011467  0.16649997  0.83348749  1
  I  I111  1  -0.00447723  0.50496784  0.17062969  1
  I  I112  1  -0.00332005  0.50490312  0.50007993  1
  I  I113  1  -0.00117189  0.49735204  0.83177371  1
  I  I114  1  -0.00400451  0.82881346  0.16827729  1
  I  I115  1  -0.00059660  0.82908131  0.50263211  1
  I  I116  1  0.00203653  0.83568434  0.83102230  1
  I  I117  1  0.33329141  0.16597398  0.16613266  1
  I  I118  1  0.33334388  0.16936866  0.50434464  1
  I  I119  1  0.33310821  0.16557422  0.83201626  1
  I  I120  1  0.33340641  0.49897007  0.16500986  1
  I  I121  1  0.33590627  0.50509053  0.50626537  1
  I  I122  1  0.33098298  0.49714296  0.82995282  1
  I  I123  1  0.33336049  0.83488936  0.16778318  1
  I  I124  1  0.33387171  0.82883419  0.50911982  1
  I  I125  1  0.33303264  0.83702767  0.82535126  1
  I  I126  1  0.66710250  0.16583608  0.16336948  1
  I  I127  1  0.66676027  0.16251481  0.50432910  1
  I  I128  1  0.66676099  0.16599969  0.83298985  1
  I  I129  1  0.67105062  0.50493396  0.15735272  1
  I  I130  1  0.66824295  0.50887550  0.50426661  1
  I  I131  1  0.66969552  0.49716250  0.83487828  1
  I  I132  1  0.67075209  0.82873384  0.16747145  1
  I  I133  1  0.66683261  0.82889218  0.50229546  1
  I  I134  1  0.66448876  0.83664745  0.83065353  1
