# generated using pymatgen
data_Cs27Sn13Pb14I81
_symmetry_space_group_name_H-M   'P 1'
_cell_length_a   18.97747655
_cell_length_b   18.97729427
_cell_length_c   18.97740576
_cell_angle_alpha   90.00087743
_cell_angle_beta   90.00185805
_cell_angle_gamma   90.00181535
_symmetry_Int_Tables_number   1
_chemical_formula_structural   Cs27Sn13Pb14I81
_chemical_formula_sum   'Cs27 Sn13 Pb14 I81'
_cell_volume   6834.54486115
_cell_formula_units_Z   1
loop_
 _symmetry_equiv_pos_site_id
 _symmetry_equiv_pos_as_xyz
  1  'x, y, z'
loop_
 _atom_site_type_symbol
 _atom_site_label
 _atom_site_symmetry_multiplicity
 _atom_site_fract_x
 _atom_site_fract_y
 _atom_site_fract_z
 _atom_site_occupancy
  Cs  Cs0  1  0.00269533  -0.00006370  -0.00233668  1
  Cs  Cs1  1  -0.00197144  -0.00201395  0.33216283  1
  Cs  Cs2  1  0.00145223  0.00447805  0.67021831  1
  Cs  Cs3  1  -0.00042501  0.33267860  -0.00006314  1
  Cs  Cs4  1  -0.00072063  0.33573224  0.33084866  1
  Cs  Cs5  1  0.00078784  0.33174884  0.66865727  1
  Cs  Cs6  1  0.00217799  0.66733499  0.00811629  1
  Cs  Cs7  1  -0.00512493  0.66713950  0.32847900  1
  Cs  Cs8  1  -0.00172179  0.66457040  0.66368274  1
  Cs  Cs9  1  0.33148648  -0.00473661  -0.00099712  1
  Cs  Cs10  1  0.33711608  0.00331025  0.33620551  1
  Cs  Cs11  1  0.32809544  -0.00106632  0.66445737  1
  Cs  Cs12  1  0.33688919  0.33627928  0.00362711  1
  Cs  Cs13  1  0.33488076  0.33109190  0.33453718  1
  Cs  Cs14  1  0.33044077  0.33583862  0.66303379  1
  Cs  Cs15  1  0.33282759  0.66922038  -0.00179926  1
  Cs  Cs16  1  0.33269954  0.66640006  0.33438843  1
  Cs  Cs17  1  0.33469883  0.66609229  0.66705585  1
  Cs  Cs18  1  0.66680674  0.00341142  -0.00070006  1
  Cs  Cs19  1  0.66476885  -0.00007069  0.33273189  1
  Cs  Cs20  1  0.66959866  -0.00031413  0.66802774  1
  Cs  Cs21  1  0.66536115  0.33070088  -0.00239129  1
  Cs  Cs22  1  0.66543074  0.33215785  0.33275738  1
  Cs  Cs23  1  0.66846710  0.33451274  0.66981071  1
  Cs  Cs24  1  0.66403963  0.66700602  -0.00279092  1
  Cs  Cs25  1  0.67107702  0.66794946  0.33504603  1
  Cs  Cs26  1  0.66579964  0.66662578  0.66640442  1
  Sn  Sn27  1  0.16601359  0.16663005  0.16687617  1
  Sn  Sn28  1  0.83456021  0.50136868  0.83352657  1
  Sn  Sn29  1  0.49946372  0.83245053  0.49936451  1
  Sn  Sn30  1  0.16686708  0.83236931  0.49974371  1
  Sn  Sn31  1  0.83365126  0.83199876  0.83346030  1
  Sn  Sn32  1  0.83434898  0.16673597  0.16764055  1
  Sn  Sn33  1  0.50011559  0.83222599  0.16734262  1
  Sn  Sn34  1  0.16699445  0.50110209  0.50025912  1
  Sn  Sn35  1  0.83334017  0.16687930  0.49905928  1
  Sn  Sn36  1  0.49889455  0.16648573  0.83260653  1
  Sn  Sn37  1  0.49969816  0.50071228  0.49901866  1
  Sn  Sn38  1  0.16568144  0.50020530  0.83311976  1
  Sn  Sn39  1  0.50022185  0.50120401  0.16778249  1
  Pb  Pb40  1  0.49999034  0.16635328  0.16532185  1
  Pb  Pb41  1  0.16937931  0.16911584  0.83545754  1
  Pb  Pb42  1  0.83058333  0.49815979  0.16409784  1
  Pb  Pb43  1  0.83334742  0.49825911  0.50145345  1
  Pb  Pb44  1  0.49958981  0.49891378  0.83271758  1
  Pb  Pb45  1  0.16444099  0.16704028  0.49822708  1
  Pb  Pb46  1  0.83333944  0.83515808  0.50149885  1
  Pb  Pb47  1  0.16903437  0.83537787  0.16937615  1
  Pb  Pb48  1  0.16868186  0.49879630  0.16731653  1
  Pb  Pb49  1  0.50164927  0.16670212  0.50215203  1
  Pb  Pb50  1  0.50115631  0.83526321  0.83252225  1
  Pb  Pb51  1  0.83255365  0.16691021  0.83366875  1
  Pb  Pb52  1  0.83098868  0.83546346  0.16438982  1
  Pb  Pb53  1  0.16428051  0.83067019  0.83104531  1
  I  I54  1  0.16497620  0.00317843  0.16722897  1
  I  I55  1  0.17114718  -0.00238933  0.49787783  1
  I  I56  1  0.16565085  -0.00012914  0.83231517  1
  I  I57  1  0.16602513  0.33087356  0.16782087  1
  I  I58  1  0.17068585  0.33648570  0.50288570  1
  I  I59  1  0.16080509  0.33687065  0.82625584  1
  I  I60  1  0.16689452  0.66671672  0.16441305  1
  I  I61  1  0.17183346  0.66579536  0.50483348  1
  I  I62  1  0.16779472  0.66268812  0.83272007  1
  I  I63  1  0.50049583  -0.00232948  0.16981775  1
  I  I64  1  0.49733458  -0.00289563  0.49685552  1
  I  I65  1  0.50495772  0.00265264  0.83532377  1
  I  I66  1  0.49963397  0.33547408  0.16874342  1
  I  I67  1  0.49659417  0.33634125  0.49718527  1
  I  I68  1  0.50377701  0.33142534  0.83518934  1
  I  I69  1  0.49956667  0.66643118  0.16894840  1
  I  I70  1  0.49686636  0.66633373  0.49723368  1
  I  I71  1  0.50021624  0.66668956  0.83449589  1
  I  I72  1  0.83362873  0.00345701  0.16759814  1
  I  I73  1  0.83216112  0.00293932  0.49977089  1
  I  I74  1  0.82885978  -0.00153474  0.83268656  1
  I  I75  1  0.83364676  0.33016308  0.16779601  1
  I  I76  1  0.83223703  0.33045947  0.49943105  1
  I  I77  1  0.83441527  0.33564557  0.83286096  1
  I  I78  1  0.83375078  0.66664730  0.16674065  1
  I  I79  1  0.83280731  0.66659335  0.50138499  1
  I  I80  1  0.83376314  0.66582861  0.83087327  1
  I  I81  1  0.16069699  0.16815355  0.00313355  1
  I  I82  1  0.16678069  0.16890849  0.33056960  1
  I  I83  1  0.16555083  0.16532413  0.66645350  1
  I  I84  1  0.16464365  0.49605921  -0.00218758  1
  I  I85  1  0.17008368  0.50127913  0.33659481  1
  I  I86  1  0.16958164  0.50172481  0.66571144  1
  I  I87  1  0.16781219  0.83383064  0.00010021  1
  I  I88  1  0.16691159  0.82679891  0.33727344  1
  I  I89  1  0.17403645  0.83372418  0.66312865  1
  I  I90  1  0.50351744  0.16847159  -0.00206262  1
  I  I91  1  0.49999245  0.16697974  0.33351418  1
  I  I92  1  0.50444833  0.16795098  0.66931278  1
  I  I93  1  0.50048435  0.50070261  0.00196275  1
  I  I94  1  0.49445455  0.50130475  0.33437154  1
  I  I95  1  0.49937586  0.50255988  0.66372140  1
  I  I96  1  0.50277155  0.83141025  0.00227212  1
  I  I97  1  0.49719635  0.83129041  0.33418151  1
  I  I98  1  0.49823854  0.82981153  0.66330684  1
  I  I99  1  0.83383000  0.16705542  0.00227094  1
  I  I100  1  0.83495904  0.16662828  0.33286509  1
  I  I101  1  0.83013600  0.16649477  0.66516833  1
  I  I102  1  0.83707378  0.50055218  -0.00387046  1
  I  I103  1  0.83503457  0.49895985  0.33318760  1
  I  I104  1  0.83122359  0.49933112  0.66947915  1
  I  I105  1  0.83058555  0.83186306  -0.00336302  1
  I  I106  1  0.83412285  0.83445006  0.33330920  1
  I  I107  1  0.82993322  0.83319499  0.66923434  1
  I  I108  1  -0.00070876  0.16799870  0.16973688  1
  I  I109  1  -0.00320323  0.16634322  0.50037970  1
  I  I110  1  0.00032906  0.16563064  0.83239191  1
  I  I111  1  -0.00008818  0.49889975  0.16809430  1
  I  I112  1  0.00291508  0.50207771  0.50336184  1
  I  I113  1  0.00017876  0.50123992  0.82652599  1
  I  I114  1  0.00002928  0.83375992  0.16728464  1
  I  I115  1  0.00262948  0.83042013  0.50278728  1
  I  I116  1  -0.00346221  0.83520086  0.83117621  1
  I  I117  1  0.33173256  0.16770285  0.16442311  1
  I  I118  1  0.33320680  0.16670515  0.49936419  1
  I  I119  1  0.33663766  0.16776457  0.83510645  1
  I  I120  1  0.33669253  0.49927290  0.16483503  1
  I  I121  1  0.33362551  0.50209517  0.50309150  1
  I  I122  1  0.33114307  0.49614504  0.83196976  1
  I  I123  1  0.33705623  0.83272684  0.16587011  1
  I  I124  1  0.33431141  0.83084529  0.49733176  1
  I  I125  1  0.33312419  0.83403321  0.83531472  1
  I  I126  1  0.66864317  0.16680358  0.16751119  1
  I  I127  1  0.66932978  0.16662290  0.49523002  1
  I  I128  1  0.66492848  0.16942185  0.83572118  1
  I  I129  1  0.66262339  0.50030611  0.17098865  1
  I  I130  1  0.66367233  0.50255776  0.49846924  1
  I  I131  1  0.66851782  0.50010331  0.83352535  1
  I  I132  1  0.66302008  0.83239277  0.17303475  1
  I  I133  1  0.66359470  0.83051868  0.49803273  1
  I  I134  1  0.66901964  0.82861931  0.83130033  1
