# generated using pymatgen
data_Cs27Sn13Pb14I81
_symmetry_space_group_name_H-M   'P 1'
_cell_length_a   18.98241264
_cell_length_b   18.97430201
_cell_length_c   18.97361163
_cell_angle_alpha   89.99788389
_cell_angle_beta   89.99941904
_cell_angle_gamma   90.00201115
_symmetry_Int_Tables_number   1
_chemical_formula_structural   Cs27Sn13Pb14I81
_chemical_formula_sum   'Cs27 Sn13 Pb14 I81'
_cell_volume   6833.87805502
_cell_formula_units_Z   1
loop_
 _symmetry_equiv_pos_site_id
 _symmetry_equiv_pos_as_xyz
  1  'x, y, z'
loop_
 _atom_site_type_symbol
 _atom_site_label
 _atom_site_symmetry_multiplicity
 _atom_site_fract_x
 _atom_site_fract_y
 _atom_site_fract_z
 _atom_site_occupancy
  Cs  Cs0  1  -0.00026847  -0.00118982  -0.00206380  1
  Cs  Cs1  1  0.00049804  0.00116488  0.33204476  1
  Cs  Cs2  1  0.00346430  0.00039308  0.67070719  1
  Cs  Cs3  1  -0.00072855  0.33209787  -0.00027019  1
  Cs  Cs4  1  -0.00211775  0.33568765  0.33494745  1
  Cs  Cs5  1  0.00070908  0.33237048  0.66593830  1
  Cs  Cs6  1  -0.00225313  0.66949208  0.00004517  1
  Cs  Cs7  1  -0.00235516  0.66391579  0.33174623  1
  Cs  Cs8  1  0.00084794  0.66744696  0.66894382  1
  Cs  Cs9  1  0.33358254  0.00013642  0.00078257  1
  Cs  Cs10  1  0.33466924  -0.00147430  0.33252353  1
  Cs  Cs11  1  0.33153309  0.00107059  0.66512259  1
  Cs  Cs12  1  0.33699968  0.33442513  0.00103252  1
  Cs  Cs13  1  0.33161952  0.33425744  0.33261071  1
  Cs  Cs14  1  0.33134519  0.33525613  0.66517369  1
  Cs  Cs15  1  0.33595540  0.66495376  0.00105449  1
  Cs  Cs16  1  0.33157214  0.66758369  0.33452388  1
  Cs  Cs17  1  0.33299459  0.66459188  0.66506013  1
  Cs  Cs18  1  0.66550446  0.00267412  0.00078908  1
  Cs  Cs19  1  0.66382759  -0.00137077  0.33794731  1
  Cs  Cs20  1  0.66474037  -0.00247090  0.65999168  1
  Cs  Cs21  1  0.66404833  0.33109728  -0.00250605  1
  Cs  Cs22  1  0.67235329  0.33346235  0.33534379  1
  Cs  Cs23  1  0.66821356  0.33384258  0.66929972  1
  Cs  Cs24  1  0.66534732  0.66647474  0.00091094  1
  Cs  Cs25  1  0.67722044  0.66717470  0.33566465  1
  Cs  Cs26  1  0.66695852  0.66847979  0.66459814  1
  Sn  Sn27  1  0.83254823  0.16708455  0.83394242  1
  Sn  Sn28  1  0.16740997  0.83395244  0.16734323  1
  Sn  Sn29  1  0.83294401  0.16643910  0.16592717  1
  Sn  Sn30  1  0.83426394  0.49957330  0.83360361  1
  Sn  Sn31  1  0.50048900  0.16560847  0.83348869  1
  Sn  Sn32  1  0.16599379  0.49995775  0.83319998  1
  Sn  Sn33  1  0.50010861  0.16604898  0.16623556  1
  Sn  Sn34  1  0.49975174  0.83425646  0.83381887  1
  Sn  Sn35  1  0.49963652  0.49986146  0.49949222  1
  Sn  Sn36  1  0.49940195  0.83374019  0.16606891  1
  Sn  Sn37  1  0.16755084  0.50098641  0.50074603  1
  Sn  Sn38  1  0.16691114  0.16606164  0.16652304  1
  Sn  Sn39  1  0.16678916  0.83273988  0.49932757  1
  Pb  Pb40  1  0.83339579  0.16643180  0.50082736  1
  Pb  Pb41  1  0.83311911  0.49739745  0.16358317  1
  Pb  Pb42  1  0.16718379  0.16864608  0.83557548  1
  Pb  Pb43  1  0.83032434  0.83415193  0.83349577  1
  Pb  Pb44  1  0.16674392  0.16679576  0.49727090  1
  Pb  Pb45  1  0.50020239  0.50030268  0.16957729  1
  Pb  Pb46  1  0.83305122  0.83599998  0.16652084  1
  Pb  Pb47  1  0.50010671  0.49984150  0.83188942  1
  Pb  Pb48  1  0.49828139  0.83131674  0.49936671  1
  Pb  Pb49  1  0.83419212  0.49992108  0.50274149  1
  Pb  Pb50  1  0.16672429  0.50054155  0.16670158  1
  Pb  Pb51  1  0.83735687  0.83348411  0.50009337  1
  Pb  Pb52  1  0.16902269  0.83117578  0.83402943  1
  Pb  Pb53  1  0.49989056  0.16898785  0.49990905  1
  I  I54  1  0.16762724  -0.00018271  0.17179144  1
  I  I55  1  0.16718192  -0.00294324  0.49780515  1
  I  I56  1  0.16398678  -0.00004259  0.83001052  1
  I  I57  1  0.16761407  0.33042727  0.16588463  1
  I  I58  1  0.16960402  0.33655335  0.50280293  1
  I  I59  1  0.16756199  0.33656866  0.82879005  1
  I  I60  1  0.17292006  0.66991526  0.16751200  1
  I  I61  1  0.17158055  0.66610983  0.49821493  1
  I  I62  1  0.16305103  0.66322159  0.83335197  1
  I  I63  1  0.49860944  0.00062648  0.16265691  1
  I  I64  1  0.49865429  -0.00020851  0.50085304  1
  I  I65  1  0.50452288  0.00097045  0.83730918  1
  I  I66  1  0.49872200  0.32976315  0.16223920  1
  I  I67  1  0.49274708  0.33668983  0.50106419  1
  I  I68  1  0.50097861  0.33052325  0.83723849  1
  I  I69  1  0.49250274  0.67021293  0.16162894  1
  I  I70  1  0.49647647  0.66371969  0.50229703  1
  I  I71  1  0.49874913  0.66889429  0.83675999  1
  I  I72  1  0.83466167  0.00416479  0.15850054  1
  I  I73  1  0.83307108  0.00003662  0.50229910  1
  I  I74  1  0.83232365  0.00374584  0.83861918  1
  I  I75  1  0.83349890  0.32888410  0.16613923  1
  I  I76  1  0.83562171  0.33337707  0.49678561  1
  I  I77  1  0.83092154  0.33248391  0.83722295  1
  I  I78  1  0.83356490  0.66684838  0.16667129  1
  I  I79  1  0.82969853  0.66639770  0.50146375  1
  I  I80  1  0.83627932  0.66406113  0.83082945  1
  I  I81  1  0.16668145  0.16233286  0.00369115  1
  I  I82  1  0.16746510  0.16771220  0.32883208  1
  I  I83  1  0.16603622  0.16490723  0.66691872  1
  I  I84  1  0.16314132  0.49911755  -0.00263232  1
  I  I85  1  0.17155295  0.50039457  0.33609288  1
  I  I86  1  0.16719452  0.50471666  0.66625463  1
  I  I87  1  0.16855265  0.83628951  0.00309608  1
  I  I88  1  0.17282049  0.83207420  0.33235515  1
  I  I89  1  0.16830155  0.82973644  0.66463260  1
  I  I90  1  0.50057543  0.16425991  0.00029047  1
  I  I91  1  0.50025806  0.16294212  0.32961945  1
  I  I92  1  0.50541210  0.16372186  0.67012835  1
  I  I93  1  0.49923641  0.50015839  -0.00005118  1
  I  I94  1  0.49115615  0.49929180  0.33710841  1
  I  I95  1  0.49753784  0.50027871  0.66426784  1
  I  I96  1  0.49413754  0.83626906  0.00075429  1
  I  I97  1  0.49690959  0.83829203  0.33010723  1
  I  I98  1  0.49961359  0.83628368  0.66901684  1
  I  I99  1  0.83229902  0.17152058  -0.00012654  1
  I  I100  1  0.83263025  0.16573378  0.32977218  1
  I  I101  1  0.82852118  0.17148919  0.67088515  1
  I  I102  1  0.83897256  0.49874017  -0.00432751  1
  I  I103  1  0.83357805  0.49857876  0.33342831  1
  I  I104  1  0.83427906  0.49211426  0.67044992  1
  I  I105  1  0.83927067  0.82950233  -0.00004298  1
  I  I106  1  0.82809532  0.83500454  0.33307936  1
  I  I107  1  0.83181931  0.83538075  0.66702161  1
  I  I108  1  0.00013146  0.16370331  0.16325961  1
  I  I109  1  0.00026799  0.16827752  0.49946269  1
  I  I110  1  -0.00232167  0.17012165  0.83745341  1
  I  I111  1  0.00013550  0.49939060  0.17056236  1
  I  I112  1  0.00353234  0.50373836  0.50149465  1
  I  I113  1  0.00028030  0.49453199  0.82796825  1
  I  I114  1  0.00321807  0.83644700  0.17119170  1
  I  I115  1  0.00549410  0.82638164  0.49394640  1
  I  I116  1  0.00029187  0.83454260  0.83231545  1
  I  I117  1  0.33397986  0.16314447  0.16313918  1
  I  I118  1  0.33326590  0.16717100  0.50127085  1
  I  I119  1  0.33632483  0.16501658  0.83763132  1
  I  I120  1  0.33334502  0.49441237  0.16201610  1
  I  I121  1  0.33176181  0.50245552  0.50649478  1
  I  I122  1  0.33124827  0.50002333  0.83043215  1
  I  I123  1  0.33330761  0.84138803  0.16664467  1
  I  I124  1  0.33039162  0.83029849  0.49822324  1
  I  I125  1  0.33678332  0.83783614  0.83481435  1
  I  I126  1  0.66582790  0.16409107  0.16153953  1
  I  I127  1  0.66645769  0.16953604  0.49579566  1
  I  I128  1  0.66631951  0.17047559  0.84191883  1
  I  I129  1  0.66653225  0.50120141  0.16795064  1
  I  I130  1  0.66454589  0.49897119  0.50058563  1
  I  I131  1  0.66867856  0.49776201  0.83199438  1
  I  I132  1  0.66310336  0.83624168  0.16195865  1
  I  I133  1  0.66632119  0.83097150  0.49960569  1
  I  I134  1  0.66231981  0.83135875  0.83970448  1
