# generated using pymatgen
data_Cs27Sn14Pb13I81
_symmetry_space_group_name_H-M   'P 1'
_cell_length_a   18.97453882
_cell_length_b   18.97883138
_cell_length_c   18.97336292
_cell_angle_alpha   90.00021443
_cell_angle_beta   89.99877871
_cell_angle_gamma   90.00045756
_symmetry_Int_Tables_number   1
_chemical_formula_structural   Cs27Sn14Pb13I81
_chemical_formula_sum   'Cs27 Sn14 Pb13 I81'
_cell_volume   6832.58447987
_cell_formula_units_Z   1
loop_
 _symmetry_equiv_pos_site_id
 _symmetry_equiv_pos_as_xyz
  1  'x, y, z'
loop_
 _atom_site_type_symbol
 _atom_site_label
 _atom_site_symmetry_multiplicity
 _atom_site_fract_x
 _atom_site_fract_y
 _atom_site_fract_z
 _atom_site_occupancy
  Cs  Cs0  1  -0.00512173  -0.00196182  -0.00341829  1
  Cs  Cs1  1  0.00680986  -0.00009850  0.33606555  1
  Cs  Cs2  1  -0.00012930  0.00079037  0.66783364  1
  Cs  Cs3  1  -0.00144633  0.33442402  -0.00198751  1
  Cs  Cs4  1  0.00487255  0.33445376  0.33480694  1
  Cs  Cs5  1  0.00056439  0.33503036  0.66809226  1
  Cs  Cs6  1  0.00030041  0.66668040  -0.00036270  1
  Cs  Cs7  1  -0.00175433  0.66682441  0.33050026  1
  Cs  Cs8  1  -0.00131881  0.66369396  0.66854591  1
  Cs  Cs9  1  0.33538004  0.00108956  -0.00021606  1
  Cs  Cs10  1  0.32426071  0.00166747  0.33646513  1
  Cs  Cs11  1  0.33402735  -0.00032931  0.66448411  1
  Cs  Cs12  1  0.33381213  0.33424100  0.00078522  1
  Cs  Cs13  1  0.32854093  0.32822327  0.32851477  1
  Cs  Cs14  1  0.33312052  0.33295087  0.66839461  1
  Cs  Cs15  1  0.33422310  0.66514673  -0.00015450  1
  Cs  Cs16  1  0.33118631  0.67128856  0.33123830  1
  Cs  Cs17  1  0.34157141  0.66705796  0.66692566  1
  Cs  Cs18  1  0.66908775  0.00095532  0.00270282  1
  Cs  Cs19  1  0.66681751  0.00031703  0.33085173  1
  Cs  Cs20  1  0.66641351  0.00053456  0.66603899  1
  Cs  Cs21  1  0.66733733  0.33036633  0.00221723  1
  Cs  Cs22  1  0.66573962  0.33427809  0.33425168  1
  Cs  Cs23  1  0.66570179  0.33371547  0.66323520  1
  Cs  Cs24  1  0.66595822  0.66756680  0.00125595  1
  Cs  Cs25  1  0.66827827  0.66554742  0.33329160  1
  Cs  Cs26  1  0.66094605  0.66504510  0.66397430  1
  Sn  Sn27  1  0.83325968  0.50094955  0.83388629  1
  Sn  Sn28  1  0.16647371  0.83282996  0.83307435  1
  Sn  Sn29  1  0.16697277  0.50066202  0.50101402  1
  Sn  Sn30  1  0.50081666  0.50080070  0.16668006  1
  Sn  Sn31  1  0.83349307  0.83210484  0.83277189  1
  Sn  Sn32  1  0.83268015  0.83260447  0.16683853  1
  Sn  Sn33  1  0.50067019  0.16662175  0.50048312  1
  Sn  Sn34  1  0.50045313  0.83279180  0.16682324  1
  Sn  Sn35  1  0.83285583  0.16603871  0.49999477  1
  Sn  Sn36  1  0.83320841  0.83405546  0.50027337  1
  Sn  Sn37  1  0.49968786  0.16664902  0.83270894  1
  Sn  Sn38  1  0.16749093  0.16664129  0.83319972  1
  Sn  Sn39  1  0.16633428  0.50048079  0.83211942  1
  Sn  Sn40  1  0.83246447  0.50050162  0.16570878  1
  Pb  Pb41  1  0.50052773  0.49802746  0.83505534  1
  Pb  Pb42  1  0.16613656  0.16640941  0.16299904  1
  Pb  Pb43  1  0.49708002  0.49777296  0.49692220  1
  Pb  Pb44  1  0.50011716  0.16621712  0.16706292  1
  Pb  Pb45  1  0.83438544  0.50026227  0.49996024  1
  Pb  Pb46  1  0.16601796  0.83337705  0.16401863  1
  Pb  Pb47  1  0.16647358  0.16831104  0.50245045  1
  Pb  Pb48  1  0.50214349  0.83545412  0.49719035  1
  Pb  Pb49  1  0.16613111  0.50017868  0.16593273  1
  Pb  Pb50  1  0.83360773  0.16673338  0.16974030  1
  Pb  Pb51  1  0.16422794  0.83070705  0.50305432  1
  Pb  Pb52  1  0.83320382  0.16695476  0.83157144  1
  Pb  Pb53  1  0.50074987  0.83541460  0.83504105  1
  I  I54  1  0.16794811  -0.00036291  0.16701851  1
  I  I55  1  0.16796931  -0.00016484  0.50032242  1
  I  I56  1  0.16522288  -0.00026461  0.83528447  1
  I  I57  1  0.16742899  0.33369469  0.16595351  1
  I  I58  1  0.16342635  0.33594946  0.50533157  1
  I  I59  1  0.16576660  0.33411525  0.82957938  1
  I  I60  1  0.16805265  0.66666106  0.16543302  1
  I  I61  1  0.16403623  0.66319316  0.50506492  1
  I  I62  1  0.15992764  0.66613381  0.83083811  1
  I  I63  1  0.50642580  -0.00281782  0.16455739  1
  I  I64  1  0.50077383  0.00336909  0.50269291  1
  I  I65  1  0.49610326  0.00327221  0.83234057  1
  I  I66  1  0.50401819  0.33584397  0.16593054  1
  I  I67  1  0.50746830  0.33004906  0.50264606  1
  I  I68  1  0.49635100  0.33017024  0.83253256  1
  I  I69  1  0.50458210  0.66662849  0.16507951  1
  I  I70  1  0.50051445  0.66665606  0.50120384  1
  I  I71  1  0.49707364  0.66670345  0.83338915  1
  I  I72  1  0.82835329  -0.00355315  0.16195553  1
  I  I73  1  0.82982278  -0.00066874  0.50097647  1
  I  I74  1  0.83627831  -0.00275760  0.83607147  1
  I  I75  1  0.82963035  0.33674400  0.16196796  1
  I  I76  1  0.83140583  0.33134318  0.50110567  1
  I  I77  1  0.83671784  0.33610310  0.83655915  1
  I  I78  1  0.82947087  0.66697504  0.16766000  1
  I  I79  1  0.83666388  0.66935420  0.49959071  1
  I  I80  1  0.84184624  0.66697973  0.83323494  1
  I  I81  1  0.17291739  0.17061962  -0.00545426  1
  I  I82  1  0.16771539  0.16932256  0.33392987  1
  I  I83  1  0.16730323  0.16525647  0.67042885  1
  I  I84  1  0.16524796  0.49950416  -0.00361619  1
  I  I85  1  0.16572530  0.49754883  0.33534668  1
  I  I86  1  0.15912735  0.49853139  0.66901732  1
  I  I87  1  0.16079661  0.83065551  -0.00416961  1
  I  I88  1  0.16633980  0.83209997  0.33362609  1
  I  I89  1  0.16101472  0.83655557  0.67107163  1
  I  I90  1  0.49440350  0.16700489  -0.00245478  1
  I  I91  1  0.50590826  0.16781025  0.33599456  1
  I  I92  1  0.50003389  0.16680638  0.66698758  1
  I  I93  1  0.49932051  0.50105009  0.00292160  1
  I  I94  1  0.50676324  0.50175001  0.32929544  1
  I  I95  1  0.50209551  0.49962940  0.66662874  1
  I  I96  1  0.50530274  0.83218776  0.00283301  1
  I  I97  1  0.50613405  0.83044968  0.32931959  1
  I  I98  1  0.50052459  0.83360730  0.66660645  1
  I  I99  1  0.83352378  0.16478290  -0.00025050  1
  I  I100  1  0.82618076  0.16412972  0.33768796  1
  I  I101  1  0.83258727  0.16310415  0.66386956  1
  I  I102  1  0.83603619  0.50644370  -0.00061727  1
  I  I103  1  0.83160739  0.50260726  0.33075297  1
  I  I104  1  0.83728096  0.50202380  0.66945589  1
  I  I105  1  0.83424691  0.82917942  -0.00040224  1
  I  I106  1  0.82751340  0.83270877  0.33263216  1
  I  I107  1  0.83942846  0.83421955  0.66761443  1
  I  I108  1  -0.00041532  0.16764485  0.16790480  1
  I  I109  1  -0.00245057  0.16373089  0.50048693  1
  I  I110  1  0.00223476  0.16707701  0.83184412  1
  I  I111  1  -0.00326867  0.50478671  0.16559495  1
  I  I112  1  0.00215680  0.49705602  0.50049300  1
  I  I113  1  -0.00024082  0.49792577  0.83554778  1
  I  I114  1  -0.00384300  0.82836534  0.16798680  1
  I  I115  1  -0.00406274  0.84033483  0.49445348  1
  I  I116  1  -0.00108023  0.83549270  0.83583949  1
  I  I117  1  0.33350350  0.16724230  0.17135912  1
  I  I118  1  0.33553157  0.16947370  0.50131148  1
  I  I119  1  0.33288763  0.16698670  0.82810806  1
  I  I120  1  0.33582194  0.50279124  0.16656823  1
  I  I121  1  0.32963282  0.49800669  0.50722319  1
  I  I122  1  0.33059253  0.50144032  0.83146627  1
  I  I123  1  0.33598025  0.82927597  0.16408359  1
  I  I124  1  0.33321257  0.83441981  0.49887866  1
  I  I125  1  0.33090934  0.83139969  0.83604023  1
  I  I126  1  0.66682051  0.16716009  0.16103340  1
  I  I127  1  0.66680528  0.16405092  0.50690591  1
  I  I128  1  0.66453852  0.16663456  0.83148949  1
  I  I129  1  0.66800470  0.50359847  0.16123266  1
  I  I130  1  0.66658298  0.50023492  0.50218063  1
  I  I131  1  0.66983211  0.50355819  0.83562945  1
  I  I132  1  0.66824694  0.82950360  0.16387390  1
  I  I133  1  0.67059142  0.83341143  0.50591698  1
  I  I134  1  0.67027450  0.83040753  0.83226320  1
