# generated using pymatgen
data_Cs27Sn14Pb13I81
_symmetry_space_group_name_H-M   'P 1'
_cell_length_a   18.97221773
_cell_length_b   18.97213981
_cell_length_c   18.98193121
_cell_angle_alpha   89.99909198
_cell_angle_beta   90.00147811
_cell_angle_gamma   89.99915435
_symmetry_Int_Tables_number   1
_chemical_formula_structural   Cs27Sn14Pb13I81
_chemical_formula_sum   'Cs27 Sn14 Pb13 I81'
_cell_volume   6832.42402535
_cell_formula_units_Z   1
loop_
 _symmetry_equiv_pos_site_id
 _symmetry_equiv_pos_as_xyz
  1  'x, y, z'
loop_
 _atom_site_type_symbol
 _atom_site_label
 _atom_site_symmetry_multiplicity
 _atom_site_fract_x
 _atom_site_fract_y
 _atom_site_fract_z
 _atom_site_occupancy
  Cs  Cs0  1  -0.00287942  0.00450270  -0.00239306  1
  Cs  Cs1  1  -0.00287246  -0.00035023  0.34496299  1
  Cs  Cs2  1  0.00321369  0.00418943  0.65813798  1
  Cs  Cs3  1  -0.00288798  0.33189734  -0.00240333  1
  Cs  Cs4  1  -0.00052221  0.33327146  0.33087778  1
  Cs  Cs5  1  0.00145019  0.32916836  0.67155594  1
  Cs  Cs6  1  0.00030730  0.66527231  0.00009848  1
  Cs  Cs7  1  0.00241525  0.66801894  0.33276807  1
  Cs  Cs8  1  -0.00112556  0.66725638  0.66793316  1
  Cs  Cs9  1  0.33650076  -0.00139597  -0.00019448  1
  Cs  Cs10  1  0.33157064  -0.00177742  0.33228933  1
  Cs  Cs11  1  0.33190309  0.00194618  0.66768707  1
  Cs  Cs12  1  0.33273671  0.33306416  0.00136641  1
  Cs  Cs13  1  0.33655725  0.33513263  0.33054686  1
  Cs  Cs14  1  0.33410698  0.33347973  0.66595163  1
  Cs  Cs15  1  0.33109707  0.66980205  0.00072234  1
  Cs  Cs16  1  0.32855059  0.66590366  0.33031190  1
  Cs  Cs17  1  0.33434164  0.66364048  0.66872788  1
  Cs  Cs18  1  0.66416385  -0.00295877  0.00223358  1
  Cs  Cs19  1  0.66947001  0.00117244  0.33400760  1
  Cs  Cs20  1  0.66478828  -0.00359955  0.66207054  1
  Cs  Cs21  1  0.66881874  0.33346738  0.00121087  1
  Cs  Cs22  1  0.66401231  0.33403806  0.33179377  1
  Cs  Cs23  1  0.66454876  0.33729726  0.66948102  1
  Cs  Cs24  1  0.66849706  0.66960019  -0.00112661  1
  Cs  Cs25  1  0.66773082  0.66411645  0.33463042  1
  Cs  Cs26  1  0.66725230  0.66502131  0.66637993  1
  Sn  Sn27  1  0.49918611  0.49943444  0.83494823  1
  Sn  Sn28  1  0.83490373  0.49979981  0.49936926  1
  Sn  Sn29  1  0.83257993  0.50094850  0.16735888  1
  Sn  Sn30  1  0.83469737  0.83353282  0.83365734  1
  Sn  Sn31  1  0.49986001  0.16559317  0.49970696  1
  Sn  Sn32  1  0.16739616  0.50056109  0.83271718  1
  Sn  Sn33  1  0.50016545  0.16747845  0.83368571  1
  Sn  Sn34  1  0.50069251  0.49994812  0.16525332  1
  Sn  Sn35  1  0.49944789  0.83376513  0.49959549  1
  Sn  Sn36  1  0.16709559  0.16629510  0.16676186  1
  Sn  Sn37  1  0.16532751  0.49984199  0.50084947  1
  Sn  Sn38  1  0.16536617  0.83310066  0.83345860  1
  Sn  Sn39  1  0.83363673  0.83269876  0.16613715  1
  Sn  Sn40  1  0.49900286  0.16725950  0.16652115  1
  Pb  Pb41  1  0.16357055  0.83635527  0.16449557  1
  Pb  Pb42  1  0.83338676  0.50122464  0.83372544  1
  Pb  Pb43  1  0.16637310  0.49881881  0.16593080  1
  Pb  Pb44  1  0.49971855  0.49970607  0.49973251  1
  Pb  Pb45  1  0.50162423  0.83306179  0.16885754  1
  Pb  Pb46  1  0.16912914  0.16944772  0.49770013  1
  Pb  Pb47  1  0.83299249  0.16669629  0.16672305  1
  Pb  Pb48  1  0.83016509  0.16315657  0.83306316  1
  Pb  Pb49  1  0.49993488  0.83298489  0.83193741  1
  Pb  Pb50  1  0.83073039  0.17019562  0.50025334  1
  Pb  Pb51  1  0.16871713  0.16688842  0.83497686  1
  Pb  Pb52  1  0.16903746  0.83103356  0.50239365  1
  Pb  Pb53  1  0.83194533  0.83122292  0.50005015  1
  I  I54  1  0.17532730  0.00368869  0.16394921  1
  I  I55  1  0.16615616  0.00012698  0.50048209  1
  I  I56  1  0.16494542  -0.00235898  0.83654793  1
  I  I57  1  0.16820243  0.33108859  0.16530870  1
  I  I58  1  0.16519499  0.33730318  0.50736061  1
  I  I59  1  0.16954112  0.33636385  0.83053177  1
  I  I60  1  0.16952364  0.66669143  0.16842827  1
  I  I61  1  0.16708947  0.66302631  0.49964148  1
  I  I62  1  0.17010155  0.66546602  0.83036107  1
  I  I63  1  0.49800659  0.00287519  0.16382529  1
  I  I64  1  0.50123886  0.00098098  0.50125742  1
  I  I65  1  0.50055516  0.00244838  0.83559800  1
  I  I66  1  0.50200663  0.33371921  0.16860042  1
  I  I67  1  0.50017819  0.33111903  0.49965843  1
  I  I68  1  0.49477356  0.33438709  0.83117383  1
  I  I69  1  0.50256296  0.66350069  0.16380124  1
  I  I70  1  0.50130997  0.66792851  0.50170769  1
  I  I71  1  0.49931288  0.66369274  0.83523817  1
  I  I72  1  0.83189907  -0.00266717  0.16090491  1
  I  I73  1  0.83273374  -0.00007469  0.49920583  1
  I  I74  1  0.83715066  -0.00485654  0.84075311  1
  I  I75  1  0.83115388  0.33642745  0.17096011  1
  I  I76  1  0.83420833  0.33817024  0.49292890  1
  I  I77  1  0.83525349  0.33345041  0.83383109  1
  I  I78  1  0.82684268  0.66534594  0.16649555  1
  I  I79  1  0.83190853  0.66335630  0.49870425  1
  I  I80  1  0.83085353  0.66905847  0.83442597  1
  I  I81  1  0.17319624  0.16936606  0.00266492  1
  I  I82  1  0.17295522  0.16914033  0.33008436  1
  I  I83  1  0.16848320  0.16525258  0.66666365  1
  I  I84  1  0.16854829  0.50226740  -0.00281865  1
  I  I85  1  0.16743529  0.49731370  0.33498871  1
  I  I86  1  0.16858895  0.50360616  0.66771752  1
  I  I87  1  0.16789810  0.82531002  -0.00333110  1
  I  I88  1  0.16681374  0.83244058  0.33338600  1
  I  I89  1  0.16076702  0.83241264  0.67035894  1
  I  I90  1  0.49623255  0.17172990  0.00049715  1
  I  I91  1  0.49677284  0.16864089  0.33245467  1
  I  I92  1  0.50135520  0.16767887  0.66697175  1
  I  I93  1  0.50044622  0.49247987  0.00006369  1
  I  I94  1  0.50125336  0.49700438  0.33093425  1
  I  I95  1  0.49969806  0.49764445  0.66885044  1
  I  I96  1  0.49957973  0.83561431  0.00005765  1
  I  I97  1  0.50293937  0.83586653  0.33640816  1
  I  I98  1  0.50234082  0.83606295  0.66425649  1
  I  I99  1  0.83178773  0.17140877  0.00001407  1
  I  I100  1  0.83147486  0.16194459  0.33331721  1
  I  I101  1  0.83177973  0.16701478  0.66665969  1
  I  I102  1  0.83146814  0.50182197  0.00262331  1
  I  I103  1  0.83136001  0.50538805  0.33215201  1
  I  I104  1  0.83160459  0.50214454  0.66487351  1
  I  I105  1  0.83443389  0.82639950  0.00017214  1
  I  I106  1  0.82944292  0.83115710  0.33091923  1
  I  I107  1  0.83394147  0.83089055  0.66911158  1
  I  I108  1  0.00225595  0.16854213  0.16457138  1
  I  I109  1  0.00030375  0.16505464  0.49768487  1
  I  I110  1  0.00020718  0.16984704  0.83690831  1
  I  I111  1  -0.00262760  0.50175958  0.16790188  1
  I  I112  1  -0.00009386  0.50229570  0.49918998  1
  I  I113  1  0.00247954  0.50299651  0.83255423  1
  I  I114  1  -0.00412667  0.82599484  0.16561920  1
  I  I115  1  0.00015388  0.83363864  0.49851698  1
  I  I116  1  0.00018321  0.82495255  0.83797702  1
  I  I117  1  0.33576161  0.17358185  0.16674348  1
  I  I118  1  0.33736353  0.16606498  0.50248896  1
  I  I119  1  0.33705613  0.16611118  0.83166451  1
  I  I120  1  0.33603093  0.49660217  0.16711795  1
  I  I121  1  0.33151367  0.49973129  0.50147890  1
  I  I122  1  0.33379263  0.50223110  0.83207456  1
  I  I123  1  0.33323558  0.83086731  0.16640780  1
  I  I124  1  0.33678039  0.83487885  0.50141332  1
  I  I125  1  0.33132277  0.83153716  0.83055661  1
  I  I126  1  0.66316102  0.16843308  0.16676406  1
  I  I127  1  0.66225571  0.16474033  0.49642626  1
  I  I128  1  0.66177276  0.17355874  0.83667879  1
  I  I129  1  0.66592327  0.49736033  0.16750841  1
  I  I130  1  0.66820785  0.50030434  0.49893851  1
  I  I131  1  0.66391648  0.49756846  0.83291780  1
  I  I132  1  0.66946705  0.83311506  0.15992362  1
  I  I133  1  0.66402721  0.83461902  0.50298812  1
  I  I134  1  0.66861889  0.83312626  0.83576348  1
