# generated using pymatgen
data_Cs27Sn14Pb13I81
_symmetry_space_group_name_H-M   'P 1'
_cell_length_a   18.97358578
_cell_length_b   18.97759727
_cell_length_c   18.97429169
_cell_angle_alpha   90.00074963
_cell_angle_beta   89.99865475
_cell_angle_gamma   90.00013769
_symmetry_Int_Tables_number   1
_chemical_formula_structural   Cs27Sn14Pb13I81
_chemical_formula_sum   'Cs27 Sn14 Pb13 I81'
_cell_volume   6832.13145222
_cell_formula_units_Z   1
loop_
 _symmetry_equiv_pos_site_id
 _symmetry_equiv_pos_as_xyz
  1  'x, y, z'
loop_
 _atom_site_type_symbol
 _atom_site_label
 _atom_site_symmetry_multiplicity
 _atom_site_fract_x
 _atom_site_fract_y
 _atom_site_fract_z
 _atom_site_occupancy
  Cs  Cs0  1  0.00020501  -0.00132575  -0.00032437  1
  Cs  Cs1  1  0.00032291  0.00023935  0.33362933  1
  Cs  Cs2  1  0.00000104  0.00174499  0.66733763  1
  Cs  Cs3  1  -0.00105424  0.33296827  -0.00089945  1
  Cs  Cs4  1  -0.00076844  0.33949230  0.33587025  1
  Cs  Cs5  1  0.00249360  0.33172656  0.66630168  1
  Cs  Cs6  1  -0.00122973  0.66827865  0.00042292  1
  Cs  Cs7  1  -0.00206951  0.65822716  0.33674618  1
  Cs  Cs8  1  0.00266576  0.66554074  0.66463403  1
  Cs  Cs9  1  0.33068345  -0.00567860  0.01019952  1
  Cs  Cs10  1  0.33391371  -0.00076740  0.32582525  1
  Cs  Cs11  1  0.33093182  0.00053907  0.66672397  1
  Cs  Cs12  1  0.33387620  0.33288910  0.00147611  1
  Cs  Cs13  1  0.33336452  0.33303089  0.33352802  1
  Cs  Cs14  1  0.33335724  0.33377424  0.66575480  1
  Cs  Cs15  1  0.33383148  0.67129546  -0.00200483  1
  Cs  Cs16  1  0.33409716  0.66559607  0.33435992  1
  Cs  Cs17  1  0.33543763  0.66861432  0.66851464  1
  Cs  Cs18  1  0.67007476  0.00178548  0.00231568  1
  Cs  Cs19  1  0.66580120  -0.00384658  0.33605438  1
  Cs  Cs20  1  0.66767645  0.00193955  0.66248930  1
  Cs  Cs21  1  0.66745372  0.33405629  -0.00137984  1
  Cs  Cs22  1  0.66695344  0.33469287  0.33223933  1
  Cs  Cs23  1  0.66307506  0.32962277  0.66973235  1
  Cs  Cs24  1  0.66822901  0.66451664  -0.00220912  1
  Cs  Cs25  1  0.66826492  0.66783867  0.33533413  1
  Cs  Cs26  1  0.66053561  0.67320374  0.66823909  1
  Sn  Sn27  1  0.83365438  0.83414810  0.16629691  1
  Sn  Sn28  1  0.83407015  0.49988354  0.83296760  1
  Sn  Sn29  1  0.16770501  0.49963639  0.16521127  1
  Sn  Sn30  1  0.83349149  0.16673065  0.83404347  1
  Sn  Sn31  1  0.16768663  0.16570151  0.50037329  1
  Sn  Sn32  1  0.16611508  0.49928378  0.83437859  1
  Sn  Sn33  1  0.16740722  0.16703995  0.83333848  1
  Sn  Sn34  1  0.16667593  0.83461218  0.50000598  1
  Sn  Sn35  1  0.83355181  0.83362076  0.83366030  1
  Sn  Sn36  1  0.49918391  0.49973432  0.16711488  1
  Sn  Sn37  1  0.83357361  0.16613454  0.16635647  1
  Sn  Sn38  1  0.50006338  0.49907479  0.49937305  1
  Sn  Sn39  1  0.49875148  0.16744380  0.50040799  1
  Sn  Sn40  1  0.49917506  0.16640657  0.83347563  1
  Pb  Pb41  1  0.50256757  0.83752211  0.83354114  1
  Pb  Pb42  1  0.50277484  0.83017016  0.16654921  1
  Pb  Pb43  1  0.83337058  0.16694436  0.50006882  1
  Pb  Pb44  1  0.50217266  0.16823583  0.16695521  1
  Pb  Pb45  1  0.82978273  0.49983866  0.50403242  1
  Pb  Pb46  1  0.49937638  0.49842091  0.83339537  1
  Pb  Pb47  1  0.16399873  0.83024803  0.16913961  1
  Pb  Pb48  1  0.16438960  0.16854967  0.16678442  1
  Pb  Pb49  1  0.83325034  0.49992639  0.16487900  1
  Pb  Pb50  1  0.16854434  0.49920701  0.50082549  1
  Pb  Pb51  1  0.83568362  0.83332359  0.50016120  1
  Pb  Pb52  1  0.16476818  0.83361082  0.83215223  1
  Pb  Pb53  1  0.49737640  0.83432420  0.49999051  1
  I  I54  1  0.16678775  0.00006588  0.16497354  1
  I  I55  1  0.17035641  0.00216300  0.50652974  1
  I  I56  1  0.16510506  0.00338928  0.82948182  1
  I  I57  1  0.16694113  0.33640804  0.16741744  1
  I  I58  1  0.16844017  0.33049571  0.50194194  1
  I  I59  1  0.16124230  0.33256706  0.83079526  1
  I  I60  1  0.16821062  0.66244453  0.16201818  1
  I  I61  1  0.16608203  0.66790663  0.49961531  1
  I  I62  1  0.16180976  0.66376894  0.83466891  1
  I  I63  1  0.49995432  0.00015590  0.16692998  1
  I  I64  1  0.49995077  0.00373006  0.50585615  1
  I  I65  1  0.49962100  0.00564231  0.82543566  1
  I  I66  1  0.49959425  0.33614239  0.16768533  1
  I  I67  1  0.49411175  0.33226223  0.50083372  1
  I  I68  1  0.50534196  0.33032415  0.83198454  1
  I  I69  1  0.49795377  0.66206103  0.17270854  1
  I  I70  1  0.49939860  0.66405362  0.49609534  1
  I  I71  1  0.50115546  0.66666169  0.83228914  1
  I  I72  1  0.83380313  0.00063882  0.15783868  1
  I  I73  1  0.82932236  0.00026943  0.50339309  1
  I  I74  1  0.83311435  0.00119340  0.83746451  1
  I  I75  1  0.83291130  0.33121139  0.16182296  1
  I  I76  1  0.83885417  0.33335558  0.49729632  1
  I  I77  1  0.83367100  0.33230084  0.83757937  1
  I  I78  1  0.83329892  0.66856656  0.16178574  1
  I  I79  1  0.83532869  0.66646029  0.49860311  1
  I  I80  1  0.83797824  0.66632473  0.83777659  1
  I  I81  1  0.16796157  0.17008195  -0.00320404  1
  I  I82  1  0.16995439  0.16465397  0.33610922  1
  I  I83  1  0.16436255  0.16905505  0.66780807  1
  I  I84  1  0.16778703  0.49397111  -0.00116267  1
  I  I85  1  0.16785638  0.50041069  0.33160013  1
  I  I86  1  0.16294555  0.49872392  0.66962775  1
  I  I87  1  0.16722431  0.83498730  0.00016535  1
  I  I88  1  0.16513077  0.83941497  0.33670334  1
  I  I89  1  0.16386890  0.83241963  0.66426425  1
  I  I90  1  0.49967609  0.16964707  -0.00280549  1
  I  I91  1  0.49662827  0.16955332  0.33622527  1
  I  I92  1  0.50231103  0.17332090  0.66683531  1
  I  I93  1  0.50043171  0.49793686  0.00193050  1
  I  I94  1  0.49447225  0.49392005  0.33340839  1
  I  I95  1  0.50064288  0.49711461  0.66460880  1
  I  I96  1  0.49628540  0.83227408  -0.00006325  1
  I  I97  1  0.50324123  0.83702074  0.33334357  1
  I  I98  1  0.50345453  0.82639347  0.66674314  1
  I  I99  1  0.83278899  0.16654594  -0.00205876  1
  I  I100  1  0.83297955  0.16182829  0.33055956  1
  I  I101  1  0.83305567  0.16639690  0.67023950  1
  I  I102  1  0.83205824  0.49878234  -0.00321397  1
  I  I103  1  0.83612070  0.50044400  0.33331641  1
  I  I104  1  0.84066899  0.49806416  0.67195463  1
  I  I105  1  0.83429347  0.83444295  -0.00104218  1
  I  I106  1  0.83388917  0.83831407  0.33045610  1
  I  I107  1  0.83402528  0.83453852  0.66999044  1
  I  I108  1  -0.00344836  0.16589227  0.16167591  1
  I  I109  1  0.00301789  0.16305021  0.50382800  1
  I  I110  1  -0.00003529  0.16778547  0.83263565  1
  I  I111  1  0.00206016  0.49986851  0.16493625  1
  I  I112  1  0.00017686  0.49995138  0.49662565  1
  I  I113  1  0.00044159  0.49525079  0.83900041  1
  I  I114  1  -0.00360525  0.83576394  0.16140565  1
  I  I115  1  0.00330865  0.83947913  0.50100981  1
  I  I116  1  -0.00343092  0.83745268  0.83633862  1
  I  I117  1  0.33320945  0.16697326  0.16397127  1
  I  I118  1  0.33311603  0.16761159  0.50899350  1
  I  I119  1  0.33239158  0.17466911  0.82633888  1
  I  I120  1  0.33297651  0.49778382  0.16488239  1
  I  I121  1  0.33620132  0.49821617  0.50071239  1
  I  I122  1  0.33047423  0.49462411  0.83346885  1
  I  I123  1  0.33297396  0.83429850  0.16798006  1
  I  I124  1  0.32973720  0.83377015  0.50178519  1
  I  I125  1  0.33312073  0.83128241  0.83061165  1
  I  I126  1  0.67010745  0.16647801  0.16157005  1
  I  I127  1  0.66376703  0.17134191  0.50380096  1
  I  I128  1  0.66734530  0.16784137  0.83277665  1
  I  I129  1  0.66464550  0.49944299  0.16936630  1
  I  I130  1  0.66213568  0.49364471  0.49363257  1
  I  I131  1  0.66903278  0.49852716  0.83380926  1
  I  I132  1  0.67079249  0.83598836  0.16305455  1
  I  I133  1  0.66664331  0.83275233  0.49998120  1
  I  I134  1  0.67110506  0.82967184  0.83625856  1
