# generated using pymatgen
data_Cs27Sn14Pb13I81
_symmetry_space_group_name_H-M   'P 1'
_cell_length_a   18.95651188
_cell_length_b   18.96145368
_cell_length_c   18.96482161
_cell_angle_alpha   90.00100888
_cell_angle_beta   89.99873465
_cell_angle_gamma   89.99998078
_symmetry_Int_Tables_number   1
_chemical_formula_structural   Cs27Sn14Pb13I81
_chemical_formula_sum   'Cs27 Sn14 Pb13 I81'
_cell_volume   6816.77278398
_cell_formula_units_Z   1
loop_
 _symmetry_equiv_pos_site_id
 _symmetry_equiv_pos_as_xyz
  1  'x, y, z'
loop_
 _atom_site_type_symbol
 _atom_site_label
 _atom_site_symmetry_multiplicity
 _atom_site_fract_x
 _atom_site_fract_y
 _atom_site_fract_z
 _atom_site_occupancy
  Cs  Cs0  1  0.00245446  0.00295210  0.00162294  1
  Cs  Cs1  1  -0.00184859  -0.00155383  0.33048032  1
  Cs  Cs2  1  -0.00131450  0.00195851  0.66814019  1
  Cs  Cs3  1  -0.00063380  0.32984058  -0.00096321  1
  Cs  Cs4  1  -0.00243451  0.33640004  0.33524282  1
  Cs  Cs5  1  0.00042748  0.33215522  0.66630065  1
  Cs  Cs6  1  -0.00030227  0.66779268  0.00296565  1
  Cs  Cs7  1  -0.00072456  0.66462925  0.33236409  1
  Cs  Cs8  1  0.00308904  0.66650108  0.66513118  1
  Cs  Cs9  1  0.32991819  0.00004184  -0.00065163  1
  Cs  Cs10  1  0.33461565  0.00156376  0.33180299  1
  Cs  Cs11  1  0.33545041  -0.00162170  0.66682845  1
  Cs  Cs12  1  0.33461754  0.33216584  0.00280059  1
  Cs  Cs13  1  0.33630062  0.33149339  0.33340858  1
  Cs  Cs14  1  0.33090896  0.33281475  0.66415661  1
  Cs  Cs15  1  0.33546856  0.66681815  -0.00151933  1
  Cs  Cs16  1  0.33174707  0.66665035  0.33532882  1
  Cs  Cs17  1  0.33218932  0.66774549  0.66604980  1
  Cs  Cs18  1  0.66797606  -0.00364069  -0.00468360  1
  Cs  Cs19  1  0.66721261  0.00220237  0.33552739  1
  Cs  Cs20  1  0.66474244  -0.00178416  0.66591335  1
  Cs  Cs21  1  0.66717940  0.33967077  0.00089817  1
  Cs  Cs22  1  0.66781330  0.33115289  0.33254942  1
  Cs  Cs23  1  0.66776937  0.33376137  0.66743836  1
  Cs  Cs24  1  0.66489793  0.66332383  -0.00335565  1
  Cs  Cs25  1  0.66812335  0.66727621  0.33379750  1
  Cs  Cs26  1  0.66706075  0.66767778  0.66831539  1
  Sn  Sn27  1  0.83414010  0.49921544  0.16740942  1
  Sn  Sn28  1  0.83215574  0.49946580  0.49959943  1
  Sn  Sn29  1  0.16665056  0.50050526  0.83472373  1
  Sn  Sn30  1  0.16718641  0.83464831  0.50038660  1
  Sn  Sn31  1  0.50005466  0.83333432  0.16685363  1
  Sn  Sn32  1  0.83426230  0.16727963  0.49940742  1
  Sn  Sn33  1  0.16587130  0.16521174  0.49976251  1
  Sn  Sn34  1  0.50003973  0.16657209  0.83346528  1
  Sn  Sn35  1  0.83314539  0.16713460  0.16714970  1
  Sn  Sn36  1  0.49896455  0.83418691  0.83336566  1
  Sn  Sn37  1  0.16635754  0.49999772  0.16550079  1
  Sn  Sn38  1  0.50111078  0.50065443  0.49997881  1
  Sn  Sn39  1  0.16713485  0.83257880  0.83264695  1
  Sn  Sn40  1  0.49922591  0.83244381  0.49964371  1
  Pb  Pb41  1  0.49773798  0.50033521  0.83091133  1
  Pb  Pb42  1  0.83621415  0.50009508  0.83315037  1
  Pb  Pb43  1  0.16845977  0.83160153  0.16683259  1
  Pb  Pb44  1  0.50040285  0.16642229  0.50120194  1
  Pb  Pb45  1  0.50026730  0.50168290  0.16893543  1
  Pb  Pb46  1  0.16844111  0.16632831  0.83151239  1
  Pb  Pb47  1  0.16644122  0.50026211  0.49982332  1
  Pb  Pb48  1  0.83413500  0.83323229  0.83331921  1
  Pb  Pb49  1  0.83372984  0.83329428  0.50012606  1
  Pb  Pb50  1  0.16476930  0.16916100  0.16935615  1
  Pb  Pb51  1  0.83088198  0.16677853  0.83316864  1
  Pb  Pb52  1  0.50270907  0.16434395  0.16394915  1
  Pb  Pb53  1  0.83093280  0.83298761  0.16662489  1
  I  I54  1  0.16545980  0.00007611  0.16467123  1
  I  I55  1  0.16757870  -0.00110388  0.50567667  1
  I  I56  1  0.16977136  -0.00306002  0.83024085  1
  I  I57  1  0.16650195  0.33729801  0.16249294  1
  I  I58  1  0.16632473  0.33170516  0.50050539  1
  I  I59  1  0.16808312  0.33561660  0.83414537  1
  I  I60  1  0.16068767  0.66353172  0.16844750  1
  I  I61  1  0.16844528  0.66902375  0.50143876  1
  I  I62  1  0.17213171  0.66770104  0.83011277  1
  I  I63  1  0.50060028  -0.00366576  0.17244820  1
  I  I64  1  0.49915511  -0.00303117  0.49980777  1
  I  I65  1  0.49575313  -0.00215960  0.83070028  1
  I  I66  1  0.49816952  0.33343620  0.16667294  1
  I  I67  1  0.49956341  0.33546004  0.50200551  1
  I  I68  1  0.49907051  0.33152822  0.83007170  1
  I  I69  1  0.50148738  0.66968938  0.16253229  1
  I  I70  1  0.49931927  0.66783865  0.50186229  1
  I  I71  1  0.49782957  0.66983957  0.83416947  1
  I  I72  1  0.83086612  0.00281674  0.17184612  1
  I  I73  1  0.83383797  0.00292363  0.49595298  1
  I  I74  1  0.83596996  0.00018050  0.83359079  1
  I  I75  1  0.83640192  0.33426650  0.17180235  1
  I  I76  1  0.83353570  0.33365116  0.49624455  1
  I  I77  1  0.83235543  0.33346377  0.83229425  1
  I  I78  1  0.83652623  0.66315310  0.17183009  1
  I  I79  1  0.83253571  0.66364860  0.49545403  1
  I  I80  1  0.82842771  0.66643618  0.83343429  1
  I  I81  1  0.16563306  0.16472626  0.00012818  1
  I  I82  1  0.16728651  0.16229683  0.33752989  1
  I  I83  1  0.16142201  0.16846794  0.66333423  1
  I  I84  1  0.16233776  0.50576298  -0.00007567  1
  I  I85  1  0.16517329  0.50048355  0.33158667  1
  I  I86  1  0.16784551  0.50160429  0.66825102  1
  I  I87  1  0.17139872  0.83040773  -0.00273153  1
  I  I88  1  0.17125266  0.83469662  0.33633865  1
  I  I89  1  0.17441631  0.83030159  0.66636720  1
  I  I90  1  0.49996463  0.16174254  -0.00363942  1
  I  I91  1  0.49845265  0.16568142  0.33334238  1
  I  I92  1  0.50098856  0.16111584  0.66882825  1
  I  I93  1  0.50217610  0.50125790  -0.00007571  1
  I  I94  1  0.49830986  0.50491033  0.33701972  1
  I  I95  1  0.50357840  0.50470066  0.66289997  1
  I  I96  1  0.49709617  0.83776914  -0.00126668  1
  I  I97  1  0.49656802  0.82816802  0.33489555  1
  I  I98  1  0.49598486  0.83350994  0.66634520  1
  I  I99  1  0.83099421  0.17124248  0.00293187  1
  I  I100  1  0.83606973  0.17115297  0.33450539  1
  I  I101  1  0.83621639  0.17096957  0.66323784  1
  I  I102  1  0.83477262  0.49589878  0.00320369  1
  I  I103  1  0.83558553  0.49660045  0.33375399  1
  I  I104  1  0.83070617  0.49608653  0.66326396  1
  I  I105  1  0.83207960  0.83362090  0.00018091  1
  I  I106  1  0.83281286  0.83314036  0.33351151  1
  I  I107  1  0.82891359  0.83334067  0.66634379  1
  I  I108  1  -0.00341659  0.16684973  0.16737328  1
  I  I109  1  -0.00048611  0.16788596  0.49818879  1
  I  I110  1  0.00013227  0.16598137  0.83381203  1
  I  I111  1  -0.00069166  0.49827427  0.16976531  1
  I  I112  1  -0.00234461  0.49908048  0.49891321  1
  I  I113  1  0.00422982  0.50559649  0.83117102  1
  I  I114  1  0.00011394  0.83402563  0.16652671  1
  I  I115  1  0.00332137  0.83329499  0.50509244  1
  I  I116  1  0.00420707  0.82904200  0.82752146  1
  I  I117  1  0.33341316  0.16806387  0.16787157  1
  I  I118  1  0.33130148  0.16692086  0.50313350  1
  I  I119  1  0.33623231  0.16435911  0.83023201  1
  I  I120  1  0.33106729  0.50304922  0.16511515  1
  I  I121  1  0.33509592  0.50124035  0.50047212  1
  I  I122  1  0.32985616  0.50202846  0.83638554  1
  I  I123  1  0.33654347  0.83097024  0.16722512  1
  I  I124  1  0.33385034  0.83220882  0.50138054  1
  I  I125  1  0.33382120  0.83291481  0.83145712  1
  I  I126  1  0.67043848  0.17366004  0.17492363  1
  I  I127  1  0.66934202  0.16789527  0.49758520  1
  I  I128  1  0.66304660  0.15941338  0.83030654  1
  I  I129  1  0.66953404  0.49745985  0.16973515  1
  I  I130  1  0.66730252  0.49995442  0.49537308  1
  I  I131  1  0.66639696  0.50064257  0.83489671  1
  I  I132  1  0.66269864  0.83179262  0.16733773  1
  I  I133  1  0.66347812  0.83245219  0.50115904  1
  I  I134  1  0.66296431  0.83728069  0.83188880  1
