# generated using pymatgen
data_Cs27Sn13Pb14I81
_symmetry_space_group_name_H-M   'P 1'
_cell_length_a   18.97770025
_cell_length_b   18.97773059
_cell_length_c   18.97545156
_cell_angle_alpha   90.00065637
_cell_angle_beta   89.99849727
_cell_angle_gamma   90.00053493
_symmetry_Int_Tables_number   1
_chemical_formula_structural   Cs27Sn13Pb14I81
_chemical_formula_sum   'Cs27 Sn13 Pb14 I81'
_cell_volume   6834.07875429
_cell_formula_units_Z   1
loop_
 _symmetry_equiv_pos_site_id
 _symmetry_equiv_pos_as_xyz
  1  'x, y, z'
loop_
 _atom_site_type_symbol
 _atom_site_label
 _atom_site_symmetry_multiplicity
 _atom_site_fract_x
 _atom_site_fract_y
 _atom_site_fract_z
 _atom_site_occupancy
  Cs  Cs0  1  0.00156133  0.00037168  -0.00180782  1
  Cs  Cs1  1  0.00158478  0.00049733  0.33414961  1
  Cs  Cs2  1  -0.00008727  0.00258524  0.66762437  1
  Cs  Cs3  1  -0.00135128  0.33827759  -0.00475792  1
  Cs  Cs4  1  -0.00015065  0.33412212  0.33221268  1
  Cs  Cs5  1  0.00034666  0.32931245  0.67495389  1
  Cs  Cs6  1  -0.00981026  0.66109992  0.00432893  1
  Cs  Cs7  1  0.00047470  0.66436377  0.33209155  1
  Cs  Cs8  1  0.00164373  0.66721583  0.66419599  1
  Cs  Cs9  1  0.33321402  0.00038741  0.00314754  1
  Cs  Cs10  1  0.33298374  0.00067430  0.33275389  1
  Cs  Cs11  1  0.33183403  -0.00009603  0.66579270  1
  Cs  Cs12  1  0.33272381  0.33309213  -0.00382944  1
  Cs  Cs13  1  0.33470756  0.33340860  0.33332239  1
  Cs  Cs14  1  0.33293111  0.33366769  0.66876108  1
  Cs  Cs15  1  0.33541669  0.66596718  -0.00582949  1
  Cs  Cs16  1  0.33132648  0.66505735  0.33603232  1
  Cs  Cs17  1  0.33445297  0.66571609  0.66562531  1
  Cs  Cs18  1  0.66452510  -0.00935834  0.00422266  1
  Cs  Cs19  1  0.66562707  0.00176916  0.33249967  1
  Cs  Cs20  1  0.67013060  0.00164744  0.66544556  1
  Cs  Cs21  1  0.66606816  0.33725334  0.00008443  1
  Cs  Cs22  1  0.66439120  0.33205916  0.33445951  1
  Cs  Cs23  1  0.66776226  0.33208497  0.66605656  1
  Cs  Cs24  1  0.67324043  0.67128144  -0.00705252  1
  Cs  Cs25  1  0.66819473  0.66548255  0.33392069  1
  Cs  Cs26  1  0.66451275  0.66644090  0.66887870  1
  Sn  Sn27  1  0.50016907  0.83357943  0.49969035  1
  Sn  Sn28  1  0.49986738  0.50069875  0.16711244  1
  Sn  Sn29  1  0.16639749  0.83300629  0.83358563  1
  Sn  Sn30  1  0.16658032  0.83429891  0.49970868  1
  Sn  Sn31  1  0.83421206  0.16659548  0.16668399  1
  Sn  Sn32  1  0.83285517  0.50024073  0.49981442  1
  Sn  Sn33  1  0.49908207  0.16659318  0.50092355  1
  Sn  Sn34  1  0.50037540  0.16606559  0.83270514  1
  Sn  Sn35  1  0.16553775  0.16644621  0.16744602  1
  Sn  Sn36  1  0.16732505  0.16624913  0.49921122  1
  Sn  Sn37  1  0.16683382  0.83348515  0.16659667  1
  Sn  Sn38  1  0.50082054  0.49990616  0.49902208  1
  Sn  Sn39  1  0.83349034  0.83260804  0.49958978  1
  Pb  Pb40  1  0.83607531  0.83361426  0.83057130  1
  Pb  Pb41  1  0.83021698  0.16620239  0.83699971  1
  Pb  Pb42  1  0.83367403  0.16683319  0.49891776  1
  Pb  Pb43  1  0.49944835  0.16794112  0.16686303  1
  Pb  Pb44  1  0.50009701  0.49814430  0.83264662  1
  Pb  Pb45  1  0.49787165  0.83058264  0.16873207  1
  Pb  Pb46  1  0.16878406  0.49977138  0.16675373  1
  Pb  Pb47  1  0.16666410  0.50342695  0.83345649  1
  Pb  Pb48  1  0.83307899  0.49994211  0.82986150  1
  Pb  Pb49  1  0.16821196  0.16503738  0.83363874  1
  Pb  Pb50  1  0.83085576  0.49792577  0.16892887  1
  Pb  Pb51  1  0.83567655  0.83514222  0.16919563  1
  Pb  Pb52  1  0.16651541  0.49930086  0.50018699  1
  Pb  Pb53  1  0.49823992  0.83563968  0.83080341  1
  I  I54  1  0.16464123  0.00029957  0.16916686  1
  I  I55  1  0.16967679  -0.00071103  0.49923629  1
  I  I56  1  0.16841444  -0.00282391  0.83093457  1
  I  I57  1  0.16526520  0.32976340  0.17353843  1
  I  I58  1  0.17036875  0.32974241  0.49449667  1
  I  I59  1  0.16798708  0.33293469  0.83235417  1
  I  I60  1  0.16942486  0.66996658  0.16993356  1
  I  I61  1  0.16897966  0.67006224  0.49958493  1
  I  I62  1  0.16953475  0.67168476  0.82958221  1
  I  I63  1  0.50158704  -0.00012563  0.16709674  1
  I  I64  1  0.49873659  0.00020475  0.50414636  1
  I  I65  1  0.49874141  0.00338932  0.82851323  1
  I  I66  1  0.49880906  0.33549880  0.17391635  1
  I  I67  1  0.50028214  0.33288957  0.49932773  1
  I  I68  1  0.49765612  0.33019224  0.82748718  1
  I  I69  1  0.49741928  0.66315986  0.17454825  1
  I  I70  1  0.49928694  0.66695857  0.49512895  1
  I  I71  1  0.49751177  0.66700304  0.83239649  1
  I  I72  1  0.83265996  0.00297226  0.17046154  1
  I  I73  1  0.83171490  -0.00254707  0.49851330  1
  I  I74  1  0.83288585  -0.00002824  0.82905612  1
  I  I75  1  0.83943990  0.33019036  0.17047316  1
  I  I76  1  0.82852128  0.33546894  0.49690140  1
  I  I77  1  0.83433149  0.33293941  0.83054569  1
  I  I78  1  0.83469181  0.66671684  0.16664982  1
  I  I79  1  0.83086676  0.66743189  0.49934855  1
  I  I80  1  0.83353927  0.66690315  0.83631475  1
  I  I81  1  0.16611422  0.16188910  0.00302744  1
  I  I82  1  0.16935684  0.15880421  0.33432922  1
  I  I83  1  0.16896918  0.16287384  0.66352453  1
  I  I84  1  0.17079901  0.49821229  0.00026810  1
  I  I85  1  0.16618978  0.50387918  0.33371613  1
  I  I86  1  0.16851252  0.49934595  0.66622018  1
  I  I87  1  0.16903626  0.83963685  0.00085129  1
  I  I88  1  0.16725162  0.83796060  0.33483603  1
  I  I89  1  0.16700945  0.83699991  0.66440996  1
  I  I90  1  0.49894482  0.17010728  -0.00173134  1
  I  I91  1  0.49873582  0.16548251  0.33663506  1
  I  I92  1  0.49430730  0.16843753  0.66363062  1
  I  I93  1  0.49676495  0.49543208  0.00249512  1
  I  I94  1  0.50239659  0.49693402  0.33592613  1
  I  I95  1  0.50313387  0.50205144  0.66256105  1
  I  I96  1  0.49748629  0.83378155  0.00001878  1
  I  I97  1  0.49752835  0.83895914  0.33767108  1
  I  I98  1  0.49707783  0.82847539  0.66192307  1
  I  I99  1  0.83979939  0.16735685  0.00462464  1
  I  I100  1  0.83299928  0.16627982  0.33131057  1
  I  I101  1  0.83557296  0.16743162  0.66649767  1
  I  I102  1  0.83177866  0.49884441  0.00036233  1
  I  I103  1  0.83106678  0.50403603  0.33690690  1
  I  I104  1  0.82633745  0.50280372  0.66152127  1
  I  I105  1  0.83405600  0.83445171  0.00033204  1
  I  I106  1  0.83495311  0.83042968  0.33755040  1
  I  I107  1  0.83449142  0.83112938  0.66179576  1
  I  I108  1  0.00178832  0.16256897  0.17450225  1
  I  I109  1  0.00292238  0.16293879  0.49721332  1
  I  I110  1  0.00015283  0.16582778  0.82983672  1
  I  I111  1  -0.00018921  0.50141645  0.16814957  1
  I  I112  1  -0.00262082  0.50452173  0.49939472  1
  I  I113  1  -0.00013349  0.49783152  0.83212457  1
  I  I114  1  0.00400762  0.83464681  0.17007558  1
  I  I115  1  0.00123495  0.83329538  0.50015219  1
  I  I116  1  0.00418128  0.83631713  0.82991491  1
  I  I117  1  0.33047635  0.16360316  0.16873426  1
  I  I118  1  0.33342337  0.16366273  0.49779582  1
  I  I119  1  0.33601116  0.16625006  0.83199872  1
  I  I120  1  0.33648859  0.49755302  0.17560677  1
  I  I121  1  0.33650480  0.50196337  0.49698665  1
  I  I122  1  0.33364646  0.49937406  0.83093903  1
  I  I123  1  0.32964350  0.84078576  0.17000019  1
  I  I124  1  0.33282269  0.83388639  0.49985310  1
  I  I125  1  0.33023357  0.83472688  0.83057009  1
  I  I126  1  0.66810630  0.16989783  0.16864130  1
  I  I127  1  0.66389973  0.16450416  0.50100513  1
  I  I128  1  0.66255179  0.16763235  0.82478633  1
  I  I129  1  0.66316826  0.49574496  0.17153036  1
  I  I130  1  0.66525782  0.50246634  0.49595951  1
  I  I131  1  0.66632065  0.49996858  0.83548372  1
  I  I132  1  0.66667744  0.83558673  0.16878701  1
  I  I133  1  0.66594085  0.83349494  0.49973610  1
  I  I134  1  0.66662772  0.83371269  0.83242607  1
