# generated using pymatgen
data_Cs27Sn14Pb13I81
_symmetry_space_group_name_H-M   'P 1'
_cell_length_a   18.96309914
_cell_length_b   18.96031998
_cell_length_c   18.95936428
_cell_angle_alpha   90.00039519
_cell_angle_beta   89.99988402
_cell_angle_gamma   89.99885035
_symmetry_Int_Tables_number   1
_chemical_formula_structural   Cs27Sn14Pb13I81
_chemical_formula_sum   'Cs27 Sn14 Pb13 I81'
_cell_volume   6816.77169625
_cell_formula_units_Z   1
loop_
 _symmetry_equiv_pos_site_id
 _symmetry_equiv_pos_as_xyz
  1  'x, y, z'
loop_
 _atom_site_type_symbol
 _atom_site_label
 _atom_site_symmetry_multiplicity
 _atom_site_fract_x
 _atom_site_fract_y
 _atom_site_fract_z
 _atom_site_occupancy
  Cs  Cs0  1  0.00107464  0.00133542  0.00006331  1
  Cs  Cs1  1  -0.00107793  -0.00268321  0.33117682  1
  Cs  Cs2  1  0.00268554  0.00128913  0.66730773  1
  Cs  Cs3  1  0.00020215  0.33100147  -0.00026871  1
  Cs  Cs4  1  -0.00341533  0.33490040  0.33195215  1
  Cs  Cs5  1  0.00243441  0.33209941  0.66788522  1
  Cs  Cs6  1  0.00072140  0.66786761  -0.00071549  1
  Cs  Cs7  1  -0.00093952  0.66813126  0.33785549  1
  Cs  Cs8  1  0.00024411  0.66657781  0.66496585  1
  Cs  Cs9  1  0.33222507  -0.00075585  -0.00031957  1
  Cs  Cs10  1  0.33467490  0.00112974  0.34024771  1
  Cs  Cs11  1  0.33445365  0.00126168  0.65928573  1
  Cs  Cs12  1  0.33243403  0.33501079  0.00186798  1
  Cs  Cs13  1  0.33118755  0.33343801  0.33242952  1
  Cs  Cs14  1  0.32947431  0.33187871  0.66423259  1
  Cs  Cs15  1  0.33398649  0.66590971  0.00081716  1
  Cs  Cs16  1  0.33290279  0.66527639  0.33130460  1
  Cs  Cs17  1  0.33131779  0.66640640  0.66812999  1
  Cs  Cs18  1  0.66711671  0.00022790  -0.00072191  1
  Cs  Cs19  1  0.66582640  -0.00429804  0.33461718  1
  Cs  Cs20  1  0.66441185  0.00044781  0.66749183  1
  Cs  Cs21  1  0.66696478  0.33241958  -0.00005883  1
  Cs  Cs22  1  0.66842704  0.33370035  0.33491085  1
  Cs  Cs23  1  0.66790218  0.33540407  0.66593422  1
  Cs  Cs24  1  0.66555564  0.66702390  -0.00107444  1
  Cs  Cs25  1  0.66701056  0.67058333  0.33225203  1
  Cs  Cs26  1  0.66819018  0.66313353  0.66909173  1
  Sn  Sn27  1  0.83289795  0.16709025  0.16753522  1
  Sn  Sn28  1  0.50068338  0.49994206  0.50059229  1
  Sn  Sn29  1  0.49997982  0.16705787  0.83385965  1
  Sn  Sn30  1  0.50053055  0.49947178  0.83261907  1
  Sn  Sn31  1  0.83234644  0.49909142  0.50013146  1
  Sn  Sn32  1  0.83294200  0.50056664  0.83353711  1
  Sn  Sn33  1  0.50019103  0.16660498  0.16625961  1
  Sn  Sn34  1  0.83308542  0.16701897  0.49930312  1
  Sn  Sn35  1  0.16673542  0.83408395  0.16610420  1
  Sn  Sn36  1  0.83311711  0.49976693  0.16643308  1
  Sn  Sn37  1  0.49971138  0.83332850  0.83359458  1
  Sn  Sn38  1  0.16673004  0.16576862  0.16646716  1
  Sn  Sn39  1  0.83352340  0.83279524  0.83353715  1
  Sn  Sn40  1  0.16683984  0.83343589  0.83405813  1
  Pb  Pb41  1  0.83316462  0.83327243  0.50289848  1
  Pb  Pb42  1  0.50206597  0.16878762  0.49984747  1
  Pb  Pb43  1  0.16675033  0.83335014  0.49975173  1
  Pb  Pb44  1  0.83188738  0.16697496  0.83345437  1
  Pb  Pb45  1  0.16383251  0.50015902  0.16655911  1
  Pb  Pb46  1  0.83482601  0.83359212  0.16451908  1
  Pb  Pb47  1  0.50217920  0.49814248  0.16647795  1
  Pb  Pb48  1  0.16983670  0.16447065  0.83512853  1
  Pb  Pb49  1  0.50022533  0.83001641  0.50266697  1
  Pb  Pb50  1  0.16643744  0.49983915  0.50004838  1
  Pb  Pb51  1  0.16682018  0.50197664  0.83341915  1
  Pb  Pb52  1  0.49774276  0.83583314  0.16479686  1
  Pb  Pb53  1  0.16345774  0.16678606  0.49687197  1
  I  I54  1  0.16361062  0.00075671  0.16101334  1
  I  I55  1  0.16532783  0.00022237  0.50269652  1
  I  I56  1  0.16360599  -0.00380600  0.83615331  1
  I  I57  1  0.16790510  0.33011968  0.16737176  1
  I  I58  1  0.16835289  0.33314933  0.49900896  1
  I  I59  1  0.16614625  0.33303101  0.83484117  1
  I  I60  1  0.16527951  0.66961276  0.16189877  1
  I  I61  1  0.16424320  0.66662138  0.49778876  1
  I  I62  1  0.17008999  0.67038000  0.84003228  1
  I  I63  1  0.50579007  0.00421642  0.16121431  1
  I  I64  1  0.50091310  0.00026563  0.50119204  1
  I  I65  1  0.50127284  -0.00004980  0.83934508  1
  I  I66  1  0.49629358  0.32985455  0.16058951  1
  I  I67  1  0.50337315  0.33661699  0.50623328  1
  I  I68  1  0.50661497  0.33406450  0.83404811  1
  I  I69  1  0.49961558  0.66658342  0.16620263  1
  I  I70  1  0.50730002  0.66196855  0.50402257  1
  I  I71  1  0.50099000  0.66632315  0.82883170  1
  I  I72  1  0.83232577  0.00321390  0.16908389  1
  I  I73  1  0.83412420  0.00286406  0.49561918  1
  I  I74  1  0.83227235  -0.00222240  0.83417158  1
  I  I75  1  0.83517824  0.33273860  0.16511375  1
  I  I76  1  0.82967130  0.33439201  0.50055173  1
  I  I77  1  0.82812117  0.33623876  0.83355793  1
  I  I78  1  0.83482493  0.66397757  0.16835024  1
  I  I79  1  0.83024060  0.66303133  0.49754741  1
  I  I80  1  0.82941188  0.66562965  0.83382478  1
  I  I81  1  0.16065082  0.16529132  0.00340802  1
  I  I82  1  0.17230272  0.16037384  0.32855974  1
  I  I83  1  0.16632492  0.16517556  0.66669079  1
  I  I84  1  0.16627488  0.49865080  0.00003706  1
  I  I85  1  0.16772734  0.50251848  0.33308051  1
  I  I86  1  0.16264017  0.50237131  0.66694082  1
  I  I87  1  0.16614546  0.83706650  -0.00084068  1
  I  I88  1  0.16476652  0.83744382  0.32989317  1
  I  I89  1  0.16662930  0.83144775  0.67032864  1
  I  I90  1  0.50282003  0.16825615  -0.00025343  1
  I  I91  1  0.49819712  0.16894607  0.33046019  1
  I  I92  1  0.50279792  0.16419351  0.66951751  1
  I  I93  1  0.50418381  0.50174012  -0.00322766  1
  I  I94  1  0.50417929  0.49714267  0.33567402  1
  I  I95  1  0.50831495  0.49930002  0.66835923  1
  I  I96  1  0.50240413  0.82827072  -0.00393083  1
  I  I97  1  0.49789114  0.83343577  0.33321793  1
  I  I98  1  0.49805750  0.83946116  0.67157952  1
  I  I99  1  0.83463726  0.16937194  0.00279114  1
  I  I100  1  0.83269146  0.17468683  0.33199640  1
  I  I101  1  0.83029604  0.16932963  0.66470277  1
  I  I102  1  0.83009625  0.49964955  -0.00068862  1
  I  I103  1  0.83070202  0.49420990  0.33347815  1
  I  I104  1  0.82903616  0.50029798  0.66715592  1
  I  I105  1  0.83107633  0.82982399  -0.00376112  1
  I  I106  1  0.83667004  0.83084109  0.33311950  1
  I  I107  1  0.83475777  0.82992258  0.67133321  1
  I  I108  1  -0.00088114  0.16671409  0.17086490  1
  I  I109  1  -0.00464579  0.17324630  0.49749400  1
  I  I110  1  0.00000658  0.16623435  0.83375045  1
  I  I111  1  -0.00466413  0.49471579  0.16616162  1
  I  I112  1  -0.00422174  0.49713818  0.50047297  1
  I  I113  1  -0.00357441  0.50393256  0.83263486  1
  I  I114  1  0.00271005  0.83845092  0.15950841  1
  I  I115  1  -0.00027699  0.83109156  0.50335954  1
  I  I116  1  -0.00045089  0.82865864  0.83686685  1
  I  I117  1  0.33362611  0.16278119  0.16020695  1
  I  I118  1  0.33355775  0.16784379  0.49984201  1
  I  I119  1  0.33811799  0.16854060  0.83817494  1
  I  I120  1  0.33357143  0.49893452  0.16653834  1
  I  I121  1  0.33669873  0.50066634  0.50601979  1
  I  I122  1  0.33700105  0.50048233  0.82926937  1
  I  I123  1  0.32969146  0.83704653  0.16013647  1
  I  I124  1  0.33358216  0.83228373  0.50217843  1
  I  I125  1  0.33392970  0.83281194  0.83807598  1
  I  I126  1  0.66739837  0.17205859  0.16540802  1
  I  I127  1  0.66998857  0.16920356  0.49512592  1
  I  I128  1  0.66379136  0.16276511  0.83852639  1
  I  I129  1  0.67051851  0.49474326  0.16546477  1
  I  I130  1  0.66800607  0.49581558  0.50239006  1
  I  I131  1  0.66699159  0.50443074  0.83308823  1
  I  I132  1  0.66664277  0.83425982  0.16477357  1
  I  I133  1  0.66679544  0.83618777  0.49985085  1
  I  I134  1  0.66639156  0.83200780  0.83275713  1
