# generated using pymatgen
data_Cs27Sn14Pb13I81
_symmetry_space_group_name_H-M   'P 1'
_cell_length_a   18.96211525
_cell_length_b   18.95923084
_cell_length_c   18.96104453
_cell_angle_alpha   90.00162869
_cell_angle_beta   89.99739396
_cell_angle_gamma   89.99918915
_symmetry_Int_Tables_number   1
_chemical_formula_structural   Cs27Sn14Pb13I81
_chemical_formula_sum   'Cs27 Sn14 Pb13 I81'
_cell_volume   6816.63050532
_cell_formula_units_Z   1
loop_
 _symmetry_equiv_pos_site_id
 _symmetry_equiv_pos_as_xyz
  1  'x, y, z'
loop_
 _atom_site_type_symbol
 _atom_site_label
 _atom_site_symmetry_multiplicity
 _atom_site_fract_x
 _atom_site_fract_y
 _atom_site_fract_z
 _atom_site_occupancy
  Cs  Cs0  1  -0.00036849  0.00777419  0.00421444  1
  Cs  Cs1  1  -0.00082872  0.00164197  0.33162708  1
  Cs  Cs2  1  0.00254674  -0.00209251  0.66437069  1
  Cs  Cs3  1  -0.00161997  0.32978428  -0.00555736  1
  Cs  Cs4  1  0.00191681  0.33454351  0.33317972  1
  Cs  Cs5  1  -0.00178961  0.33611215  0.67144396  1
  Cs  Cs6  1  0.00238627  0.66494486  -0.00111195  1
  Cs  Cs7  1  -0.00016206  0.66693099  0.33406102  1
  Cs  Cs8  1  0.00043231  0.66576938  0.66640550  1
  Cs  Cs9  1  0.33325450  -0.00011877  -0.00014617  1
  Cs  Cs10  1  0.33170705  0.00003542  0.33279023  1
  Cs  Cs11  1  0.33325134  0.00326167  0.66810924  1
  Cs  Cs12  1  0.33284358  0.33067493  0.00023016  1
  Cs  Cs13  1  0.33379054  0.33407586  0.33435391  1
  Cs  Cs14  1  0.33608744  0.32156122  0.66603912  1
  Cs  Cs15  1  0.33325285  0.66717466  0.00046915  1
  Cs  Cs16  1  0.33302656  0.66564136  0.33228112  1
  Cs  Cs17  1  0.33154826  0.66850122  0.66817939  1
  Cs  Cs18  1  0.66751454  0.00053884  0.00184409  1
  Cs  Cs19  1  0.66960966  -0.00288013  0.33132872  1
  Cs  Cs20  1  0.66512780  -0.00216515  0.66641590  1
  Cs  Cs21  1  0.66764873  0.33229864  -0.00432709  1
  Cs  Cs22  1  0.66384924  0.33956629  0.33561193  1
  Cs  Cs23  1  0.66625394  0.32930550  0.66850811  1
  Cs  Cs24  1  0.66498038  0.66746159  0.00004726  1
  Cs  Cs25  1  0.66704692  0.66610163  0.33294694  1
  Cs  Cs26  1  0.66706122  0.66804313  0.66602183  1
  Sn  Sn27  1  0.83354706  0.83314456  0.50072145  1
  Sn  Sn28  1  0.83423569  0.50035459  0.16684503  1
  Sn  Sn29  1  0.50083543  0.83219640  0.83338267  1
  Sn  Sn30  1  0.16559560  0.50093385  0.16725016  1
  Sn  Sn31  1  0.16631648  0.50073565  0.49958574  1
  Sn  Sn32  1  0.50022161  0.16592058  0.16729940  1
  Sn  Sn33  1  0.49964807  0.83290321  0.49991156  1
  Sn  Sn34  1  0.83314017  0.83302665  0.83307932  1
  Sn  Sn35  1  0.83339515  0.16683485  0.49971101  1
  Sn  Sn36  1  0.49951585  0.50074366  0.83287444  1
  Sn  Sn37  1  0.16719459  0.83247531  0.16741553  1
  Sn  Sn38  1  0.49924935  0.83403094  0.16677146  1
  Sn  Sn39  1  0.83401076  0.50000362  0.49932582  1
  Sn  Sn40  1  0.16668081  0.83245643  0.49895343  1
  Pb  Pb41  1  0.83160557  0.50207190  0.83288083  1
  Pb  Pb42  1  0.16428580  0.16684431  0.49983931  1
  Pb  Pb43  1  0.16843842  0.16707346  0.16698157  1
  Pb  Pb44  1  0.16647199  0.83352490  0.83363803  1
  Pb  Pb45  1  0.16941627  0.49996791  0.83277831  1
  Pb  Pb46  1  0.83317986  0.16311641  0.83069929  1
  Pb  Pb47  1  0.16642325  0.16662987  0.83328224  1
  Pb  Pb48  1  0.50225517  0.16363244  0.49764789  1
  Pb  Pb49  1  0.83384959  0.83178983  0.16660709  1
  Pb  Pb50  1  0.83110288  0.17018575  0.16898692  1
  Pb  Pb51  1  0.49947626  0.50182318  0.50238128  1
  Pb  Pb52  1  0.50017246  0.16556988  0.83554587  1
  Pb  Pb53  1  0.49963680  0.50052881  0.16509420  1
  I  I54  1  0.16893207  -0.00340717  0.17018408  1
  I  I55  1  0.16621091  -0.00383030  0.49686234  1
  I  I56  1  0.16875310  -0.00085390  0.83287262  1
  I  I57  1  0.16557268  0.33702249  0.17131673  1
  I  I58  1  0.16303902  0.33701696  0.49556810  1
  I  I59  1  0.16937612  0.33398719  0.83352367  1
  I  I60  1  0.16950093  0.66722920  0.17083017  1
  I  I61  1  0.16236437  0.66773564  0.49607371  1
  I  I62  1  0.16614505  0.66688403  0.83375950  1
  I  I63  1  0.49559501  -0.00289155  0.16518653  1
  I  I64  1  0.49923412  -0.00501386  0.50500379  1
  I  I65  1  0.50334026  -0.00417555  0.83121497  1
  I  I66  1  0.50108998  0.33184406  0.16420143  1
  I  I67  1  0.50036956  0.33332123  0.50042660  1
  I  I68  1  0.49948857  0.33559966  0.83542066  1
  I  I69  1  0.49925054  0.66987821  0.16789277  1
  I  I70  1  0.50459026  0.67050248  0.49502706  1
  I  I71  1  0.50362671  0.66912542  0.83594494  1
  I  I72  1  0.83489443  -0.00015940  0.16685256  1
  I  I73  1  0.83212672  -0.00196938  0.50474287  1
  I  I74  1  0.82650183  -0.00502872  0.82955809  1
  I  I75  1  0.83676525  0.33811825  0.17143457  1
  I  I76  1  0.83724862  0.33488939  0.49425995  1
  I  I77  1  0.83096256  0.33353216  0.83296958  1
  I  I78  1  0.83133576  0.66394861  0.17223467  1
  I  I79  1  0.83359234  0.66734426  0.50010383  1
  I  I80  1  0.83014673  0.67004553  0.82741606  1
  I  I81  1  0.16683544  0.16585002  0.00068031  1
  I  I82  1  0.16756530  0.16554660  0.33342886  1
  I  I83  1  0.16841858  0.16578798  0.66595011  1
  I  I84  1  0.16440710  0.50500545  0.00327670  1
  I  I85  1  0.16330235  0.50471364  0.33353481  1
  I  I86  1  0.16143894  0.50638692  0.66288271  1
  I  I87  1  0.17070126  0.82876148  0.00343423  1
  I  I88  1  0.16989732  0.82977560  0.33386724  1
  I  I89  1  0.16779950  0.82933937  0.66313082  1
  I  I90  1  0.50015312  0.16149585  0.00332953  1
  I  I91  1  0.50015140  0.16251521  0.33003522  1
  I  I92  1  0.50048643  0.16677989  0.66636386  1
  I  I93  1  0.50089020  0.50625946  -0.00244004  1
  I  I94  1  0.50108397  0.50039484  0.33351538  1
  I  I95  1  0.50121587  0.50722527  0.66979539  1
  I  I96  1  0.50040897  0.83294977  0.00036735  1
  I  I97  1  0.50041770  0.83736618  0.33338834  1
  I  I98  1  0.50162624  0.82807856  0.66624644  1
  I  I99  1  0.83261203  0.16656445  0.00025631  1
  I  I100  1  0.83259838  0.15912615  0.33671184  1
  I  I101  1  0.83210769  0.17197534  0.66257771  1
  I  I102  1  0.83532078  0.50298355  0.00235927  1
  I  I103  1  0.83503483  0.50287614  0.33462021  1
  I  I104  1  0.83678452  0.49952717  0.66309965  1
  I  I105  1  0.82874105  0.82982895  -0.00204436  1
  I  I106  1  0.83046668  0.83405218  0.33648181  1
  I  I107  1  0.82978010  0.83167615  0.66470730  1
  I  I108  1  -0.00026233  0.16338976  0.16715726  1
  I  I109  1  -0.00357512  0.16074543  0.49867426  1
  I  I110  1  -0.00070578  0.16586830  0.83482076  1
  I  I111  1  0.00052490  0.50654094  0.17081259  1
  I  I112  1  -0.00066189  0.50512096  0.49630859  1
  I  I113  1  -0.00005205  0.50133661  0.83388885  1
  I  I114  1  0.00276405  0.83035840  0.16979082  1
  I  I115  1  -0.00042638  0.83300400  0.50064397  1
  I  I116  1  -0.00281394  0.83255867  0.82826865  1
  I  I117  1  0.33649611  0.16604059  0.16661362  1
  I  I118  1  0.33353709  0.16726413  0.49998262  1
  I  I119  1  0.33395868  0.16566001  0.83242853  1
  I  I120  1  0.33058932  0.50142035  0.17012469  1
  I  I121  1  0.33031326  0.50590819  0.49552492  1
  I  I122  1  0.33711524  0.50852747  0.83506321  1
  I  I123  1  0.33370567  0.83141817  0.16930516  1
  I  I124  1  0.33309298  0.82827300  0.49921373  1
  I  I125  1  0.33661032  0.83005244  0.83157315  1
  I  I126  1  0.66350307  0.15923031  0.16697659  1
  I  I127  1  0.67012092  0.16777666  0.49924703  1
  I  I128  1  0.66661572  0.16884712  0.83365078  1
  I  I129  1  0.66873032  0.50074850  0.17069667  1
  I  I130  1  0.66961770  0.50190035  0.49628215  1
  I  I131  1  0.66380334  0.50374069  0.83465061  1
  I  I132  1  0.66418938  0.83460456  0.16864058  1
  I  I133  1  0.66698241  0.83330778  0.50053815  1
  I  I134  1  0.66565904  0.82981379  0.82985643  1
