# generated using pymatgen
data_Cs27Sn13Pb14I81
_symmetry_space_group_name_H-M   'P 1'
_cell_length_a   18.99765281
_cell_length_b   18.98873516
_cell_length_c   18.98862092
_cell_angle_alpha   90.00267483
_cell_angle_beta   90.00001167
_cell_angle_gamma   90.00121943
_symmetry_Int_Tables_number   1
_chemical_formula_structural   Cs27Sn13Pb14I81
_chemical_formula_sum   'Cs27 Sn13 Pb14 I81'
_cell_volume   6849.98164923
_cell_formula_units_Z   1
loop_
 _symmetry_equiv_pos_site_id
 _symmetry_equiv_pos_as_xyz
  1  'x, y, z'
loop_
 _atom_site_type_symbol
 _atom_site_label
 _atom_site_symmetry_multiplicity
 _atom_site_fract_x
 _atom_site_fract_y
 _atom_site_fract_z
 _atom_site_occupancy
  Cs  Cs0  1  0.00105453  0.00314080  -0.00379820  1
  Cs  Cs1  1  0.00000533  -0.00534131  0.33750132  1
  Cs  Cs2  1  -0.00079365  -0.00117292  0.66771275  1
  Cs  Cs3  1  0.00045043  0.33289503  0.00025458  1
  Cs  Cs4  1  0.00158642  0.33283592  0.33341401  1
  Cs  Cs5  1  0.00156160  0.33392671  0.66685513  1
  Cs  Cs6  1  -0.00608238  0.66391021  -0.00249483  1
  Cs  Cs7  1  -0.00199513  0.67175964  0.33477666  1
  Cs  Cs8  1  0.00066437  0.66670883  0.66779953  1
  Cs  Cs9  1  0.33528008  -0.00074569  -0.00035989  1
  Cs  Cs10  1  0.32939219  -0.00418927  0.33019748  1
  Cs  Cs11  1  0.33422460  -0.00012723  0.66946606  1
  Cs  Cs12  1  0.33025566  0.33132101  0.00461311  1
  Cs  Cs13  1  0.33308929  0.33397424  0.33168622  1
  Cs  Cs14  1  0.33782854  0.33645639  0.66489695  1
  Cs  Cs15  1  0.33648394  0.66987370  -0.00092508  1
  Cs  Cs16  1  0.33238474  0.66813623  0.33426684  1
  Cs  Cs17  1  0.33740268  0.66329720  0.66689823  1
  Cs  Cs18  1  0.66424664  -0.00156657  -0.00226100  1
  Cs  Cs19  1  0.67096551  -0.00177964  0.33728048  1
  Cs  Cs20  1  0.66683264  0.00272374  0.66570282  1
  Cs  Cs21  1  0.67053145  0.33369774  0.00213428  1
  Cs  Cs22  1  0.66445772  0.33296089  0.33525626  1
  Cs  Cs23  1  0.65573144  0.33430029  0.66081999  1
  Cs  Cs24  1  0.67061122  0.66915986  0.00082652  1
  Cs  Cs25  1  0.66991553  0.66844845  0.33090086  1
  Cs  Cs26  1  0.65919772  0.66213253  0.66816670  1
  Sn  Sn27  1  0.49922498  0.49955057  0.16658801  1
  Sn  Sn28  1  0.83387703  0.16644946  0.83352300  1
  Sn  Sn29  1  0.49976729  0.83388426  0.49977719  1
  Sn  Sn30  1  0.83409379  0.83402693  0.83291279  1
  Sn  Sn31  1  0.16702352  0.49984363  0.16749269  1
  Sn  Sn32  1  0.16656579  0.16714142  0.50001921  1
  Sn  Sn33  1  0.16619310  0.16696596  0.16703465  1
  Sn  Sn34  1  0.16554248  0.49932149  0.49896651  1
  Sn  Sn35  1  0.83442242  0.49953690  0.50012403  1
  Sn  Sn36  1  0.50004207  0.16706103  0.16674424  1
  Sn  Sn37  1  0.16618135  0.16623395  0.83310439  1
  Sn  Sn38  1  0.16597186  0.83375758  0.83347557  1
  Sn  Sn39  1  0.83384335  0.16643497  0.16651044  1
  Pb  Pb40  1  0.49679239  0.16468544  0.49697893  1
  Pb  Pb41  1  0.83544936  0.16825295  0.50056879  1
  Pb  Pb42  1  0.49908606  0.50147012  0.49728092  1
  Pb  Pb43  1  0.83333273  0.49862643  0.83072209  1
  Pb  Pb44  1  0.16682957  0.49938385  0.83375928  1
  Pb  Pb45  1  0.16779875  0.83288729  0.50250214  1
  Pb  Pb46  1  0.16632331  0.83291452  0.16395546  1
  Pb  Pb47  1  0.49988515  0.49959440  0.83740759  1
  Pb  Pb48  1  0.49999681  0.83343026  0.16850217  1
  Pb  Pb49  1  0.83406851  0.49778216  0.16853012  1
  Pb  Pb50  1  0.83367247  0.83657012  0.16416779  1
  Pb  Pb51  1  0.50024053  0.83365102  0.83146225  1
  Pb  Pb52  1  0.49992422  0.16703109  0.83574408  1
  Pb  Pb53  1  0.83143717  0.83091734  0.50309888  1
  I  I54  1  0.16792747  0.00373127  0.16955156  1
  I  I55  1  0.16883048  0.00291922  0.49638076  1
  I  I56  1  0.16300654  0.00176965  0.83329994  1
  I  I57  1  0.16780642  0.33190368  0.16506087  1
  I  I58  1  0.16326103  0.33307887  0.50109088  1
  I  I59  1  0.16131614  0.32970927  0.83458829  1
  I  I60  1  0.17321302  0.66316683  0.17085507  1
  I  I61  1  0.16497226  0.66354955  0.49606489  1
  I  I62  1  0.16257406  0.66921591  0.83282477  1
  I  I63  1  0.49783013  0.00340583  0.16690663  1
  I  I64  1  0.49931671  -0.00249133  0.49891434  1
  I  I65  1  0.49883697  0.00029012  0.83586987  1
  I  I66  1  0.49798970  0.33250761  0.16736258  1
  I  I67  1  0.50211971  0.33327078  0.50195058  1
  I  I68  1  0.50055780  0.33306263  0.82707036  1
  I  I69  1  0.49355440  0.66359599  0.16848565  1
  I  I70  1  0.49796358  0.66880177  0.49912423  1
  I  I71  1  0.49947229  0.66690996  0.83442492  1
  I  I72  1  0.83376089  0.00499117  0.16735547  1
  I  I73  1  0.83310156  0.00017586  0.49738478  1
  I  I74  1  0.83822124  0.00120225  0.83732227  1
  I  I75  1  0.83410677  0.32973853  0.15929243  1
  I  I76  1  0.83468593  0.33599392  0.50132704  1
  I  I77  1  0.84000586  0.32936530  0.83875028  1
  I  I78  1  0.83165450  0.66645295  0.16567870  1
  I  I79  1  0.84053883  0.66324789  0.49939703  1
  I  I80  1  0.83812034  0.66912169  0.83126431  1
  I  I81  1  0.16651841  0.16697621  0.00067983  1
  I  I82  1  0.16755579  0.17217747  0.33254556  1
  I  I83  1  0.16070709  0.16616293  0.66708540  1
  I  I84  1  0.17141027  0.49610508  0.00331820  1
  I  I85  1  0.16741705  0.49108576  0.33309610  1
  I  I86  1  0.16246685  0.49716640  0.66380244  1
  I  I87  1  0.16429739  0.83813367  -0.00384985  1
  I  I88  1  0.16904275  0.83625159  0.33346853  1
  I  I89  1  0.16356567  0.83847033  0.67005714  1
  I  I90  1  0.49475583  0.16966927  0.00384091  1
  I  I91  1  0.50132748  0.17115594  0.32917760  1
  I  I92  1  0.50054074  0.16501972  0.66627902  1
  I  I93  1  0.49278843  0.49631360  0.00539121  1
  I  I94  1  0.49806677  0.49506736  0.32994084  1
  I  I95  1  0.50022285  0.50237622  0.66612446  1
  I  I96  1  0.50004461  0.83233593  -0.00002573  1
  I  I97  1  0.49826379  0.83326925  0.33598785  1
  I  I98  1  0.49889980  0.83150506  0.66393660  1
  I  I99  1  0.83792693  0.16410201  0.00011344  1
  I  I100  1  0.83344105  0.17034982  0.33071338  1
  I  I101  1  0.83965046  0.16305605  0.66977762  1
  I  I102  1  0.83244125  0.50262853  0.00004454  1
  I  I103  1  0.83465930  0.49791950  0.33619967  1
  I  I104  1  0.84116662  0.49933118  0.66308877  1
  I  I105  1  0.83652012  0.83220133  -0.00381779  1
  I  I106  1  0.83105142  0.83387048  0.33371061  1
  I  I107  1  0.83803788  0.84183456  0.67048074  1
  I  I108  1  0.00123267  0.17147462  0.16434455  1
  I  I109  1  0.00363937  0.16757259  0.49528013  1
  I  I110  1  0.00095788  0.16226198  0.83893901  1
  I  I111  1  0.00324982  0.49485079  0.16792886  1
  I  I112  1  0.00190230  0.49634310  0.49435253  1
  I  I113  1  0.00014365  0.50130956  0.83776152  1
  I  I114  1  0.00006848  0.83117290  0.17121913  1
  I  I115  1  0.00002834  0.83419145  0.49923955  1
  I  I116  1  0.00035721  0.83865475  0.83252947  1
  I  I117  1  0.33199220  0.17089818  0.16678054  1
  I  I118  1  0.32873240  0.17336469  0.50218192  1
  I  I119  1  0.32973226  0.16213112  0.83418899  1
  I  I120  1  0.33201540  0.49061666  0.17239654  1
  I  I121  1  0.33006784  0.49720429  0.49878855  1
  I  I122  1  0.33296613  0.50164759  0.82688917  1
  I  I123  1  0.33309807  0.83786393  0.16354986  1
  I  I124  1  0.33525500  0.83176152  0.50181397  1
  I  I125  1  0.33043428  0.83813767  0.83298037  1
  I  I126  1  0.66687070  0.17069954  0.16100996  1
  I  I127  1  0.66656895  0.16777322  0.50030069  1
  I  I128  1  0.67000628  0.16159790  0.83838111  1
  I  I129  1  0.66458284  0.49522212  0.16851504  1
  I  I130  1  0.66825576  0.50196986  0.50032895  1
  I  I131  1  0.66687428  0.50146075  0.83117924  1
  I  I132  1  0.66675816  0.83211673  0.16473414  1
  I  I133  1  0.66395592  0.83179678  0.50046909  1
  I  I134  1  0.66985343  0.83854131  0.83261057  1
