# generated using pymatgen
data_Cs27Sn14Pb13I81
_symmetry_space_group_name_H-M   'P 1'
_cell_length_a   18.95726400
_cell_length_b   18.96162244
_cell_length_c   18.96162502
_cell_angle_alpha   90.00142991
_cell_angle_beta   89.99889715
_cell_angle_gamma   90.00089660
_symmetry_Int_Tables_number   1
_chemical_formula_structural   Cs27Sn14Pb13I81
_chemical_formula_sum   'Cs27 Sn14 Pb13 I81'
_cell_volume   6815.95487433
_cell_formula_units_Z   1
loop_
 _symmetry_equiv_pos_site_id
 _symmetry_equiv_pos_as_xyz
  1  'x, y, z'
loop_
 _atom_site_type_symbol
 _atom_site_label
 _atom_site_symmetry_multiplicity
 _atom_site_fract_x
 _atom_site_fract_y
 _atom_site_fract_z
 _atom_site_occupancy
  Cs  Cs0  1  -0.00033771  0.00297009  0.00290820  1
  Cs  Cs1  1  -0.00088757  0.00087602  0.33339837  1
  Cs  Cs2  1  0.00266516  -0.00233633  0.66405182  1
  Cs  Cs3  1  0.00102486  0.33037750  0.00009467  1
  Cs  Cs4  1  0.00267050  0.33121088  0.32988913  1
  Cs  Cs5  1  -0.00101597  0.33166459  0.67041247  1
  Cs  Cs6  1  -0.00094237  0.66567155  -0.00034146  1
  Cs  Cs7  1  -0.00036693  0.66736548  0.33340479  1
  Cs  Cs8  1  -0.00040069  0.66889449  0.66623711  1
  Cs  Cs9  1  0.33739948  -0.00432947  -0.00255408  1
  Cs  Cs10  1  0.33550530  0.00024968  0.33196644  1
  Cs  Cs11  1  0.33151421  0.00076369  0.67071843  1
  Cs  Cs12  1  0.33058975  0.33534625  0.00208667  1
  Cs  Cs13  1  0.33324093  0.33638694  0.33355454  1
  Cs  Cs14  1  0.33606202  0.33260514  0.66523279  1
  Cs  Cs15  1  0.33610395  0.66768407  -0.00077084  1
  Cs  Cs16  1  0.33107861  0.66302444  0.33461749  1
  Cs  Cs17  1  0.32781078  0.66638102  0.66659157  1
  Cs  Cs18  1  0.66309765  0.00138651  -0.00095527  1
  Cs  Cs19  1  0.66846373  -0.00282921  0.33355444  1
  Cs  Cs20  1  0.66456760  0.00280267  0.66501767  1
  Cs  Cs21  1  0.66817590  0.33429886  -0.00212378  1
  Cs  Cs22  1  0.66410834  0.33420743  0.33445769  1
  Cs  Cs23  1  0.66370615  0.33155254  0.66875166  1
  Cs  Cs24  1  0.66522909  0.66583663  0.00184458  1
  Cs  Cs25  1  0.66734038  0.66825447  0.33205251  1
  Cs  Cs26  1  0.67137269  0.66470079  0.66392703  1
  Sn  Sn27  1  0.83397492  0.16696035  0.49986326  1
  Sn  Sn28  1  0.16657691  0.16730825  0.83277243  1
  Sn  Sn29  1  0.83251545  0.83334348  0.50005410  1
  Sn  Sn30  1  0.49927329  0.50024015  0.83365223  1
  Sn  Sn31  1  0.83281528  0.50032739  0.16747986  1
  Sn  Sn32  1  0.83346023  0.49949045  0.49905968  1
  Sn  Sn33  1  0.50027844  0.16768095  0.16671997  1
  Sn  Sn34  1  0.16620765  0.16686916  0.50045919  1
  Sn  Sn35  1  0.16596791  0.83306661  0.16670487  1
  Sn  Sn36  1  0.50088964  0.49904674  0.16604899  1
  Sn  Sn37  1  0.50012507  0.83311183  0.50035352  1
  Sn  Sn38  1  0.16732441  0.49947944  0.83335387  1
  Sn  Sn39  1  0.83421863  0.83276472  0.16623428  1
  Sn  Sn40  1  0.83303835  0.83378848  0.83361422  1
  Pb  Pb41  1  0.16892207  0.16460057  0.16665232  1
  Pb  Pb42  1  0.50058344  0.83243652  0.16810260  1
  Pb  Pb43  1  0.50184954  0.50197196  0.49987420  1
  Pb  Pb44  1  0.49771183  0.16887408  0.83556198  1
  Pb  Pb45  1  0.16630570  0.83518258  0.49815915  1
  Pb  Pb46  1  0.49989148  0.16485540  0.49843647  1
  Pb  Pb47  1  0.16370774  0.49755725  0.50228724  1
  Pb  Pb48  1  0.50242742  0.83075008  0.83050674  1
  Pb  Pb49  1  0.16632129  0.50188845  0.16484158  1
  Pb  Pb50  1  0.83337026  0.50124329  0.83366996  1
  Pb  Pb51  1  0.16471965  0.83340498  0.83542685  1
  Pb  Pb52  1  0.83144336  0.16683728  0.16855767  1
  Pb  Pb53  1  0.83514990  0.16393246  0.83092105  1
  I  I54  1  0.16149874  -0.00313652  0.16608286  1
  I  I55  1  0.16115296  0.00305397  0.50517273  1
  I  I56  1  0.16396487  0.00236191  0.83023670  1
  I  I57  1  0.16505638  0.33339242  0.16735486  1
  I  I58  1  0.16234536  0.32957942  0.49983486  1
  I  I59  1  0.16898447  0.33347955  0.83040243  1
  I  I60  1  0.16617847  0.66969648  0.16582422  1
  I  I61  1  0.16634960  0.66656700  0.50081490  1
  I  I62  1  0.16893153  0.66429719  0.83568475  1
  I  I63  1  0.49920278  0.00124852  0.16986636  1
  I  I64  1  0.50653171  -0.00291632  0.49640282  1
  I  I65  1  0.49916857  -0.00013663  0.83493258  1
  I  I66  1  0.50462043  0.33491911  0.16460062  1
  I  I67  1  0.50172680  0.33354886  0.50068645  1
  I  I68  1  0.50089457  0.33697880  0.83351999  1
  I  I69  1  0.50183564  0.66375199  0.16402637  1
  I  I70  1  0.50674435  0.66974578  0.49737679  1
  I  I71  1  0.49416004  0.66301736  0.84097741  1
  I  I72  1  0.83537562  -0.00296370  0.16818121  1
  I  I73  1  0.83360036  -0.00097079  0.49970890  1
  I  I74  1  0.83517799  -0.00411001  0.83471835  1
  I  I75  1  0.83078482  0.33632876  0.17088057  1
  I  I76  1  0.83769699  0.33359565  0.49524230  1
  I  I77  1  0.83246308  0.33324358  0.83261331  1
  I  I78  1  0.83153393  0.66696806  0.17098150  1
  I  I79  1  0.82835956  0.66744862  0.49925090  1
  I  I80  1  0.83538481  0.66920570  0.82900613  1
  I  I81  1  0.16812226  0.16929197  -0.00241299  1
  I  I82  1  0.16307420  0.16341052  0.33574957  1
  I  I83  1  0.16239991  0.16885062  0.66645817  1
  I  I84  1  0.16505544  0.49456866  -0.00307884  1
  I  I85  1  0.16903917  0.49962150  0.33333216  1
  I  I86  1  0.17106358  0.50035023  0.67026279  1
  I  I87  1  0.16162870  0.83507304  0.00319167  1
  I  I88  1  0.16161774  0.83469294  0.33041859  1
  I  I89  1  0.16560997  0.83239512  0.66670561  1
  I  I90  1  0.49944400  0.16569540  0.00342577  1
  I  I91  1  0.49813517  0.17206570  0.33063226  1
  I  I92  1  0.50149564  0.16692928  0.66670120  1
  I  I93  1  0.50255810  0.49729582  0.00105233  1
  I  I94  1  0.50280032  0.49836921  0.33052367  1
  I  I95  1  0.49824376  0.50243404  0.66897644  1
  I  I96  1  0.50073981  0.83516844  -0.00005986  1
  I  I97  1  0.50605066  0.83263169  0.33576887  1
  I  I98  1  0.50588384  0.83340281  0.66290086  1
  I  I99  1  0.83420816  0.16613048  0.00003204  1
  I  I100  1  0.83878101  0.16207306  0.33686832  1
  I  I101  1  0.83364688  0.16746642  0.66250404  1
  I  I102  1  0.83189240  0.50585057  0.00281008  1
  I  I103  1  0.82796871  0.50521456  0.33277080  1
  I  I104  1  0.83375796  0.50227507  0.66420634  1
  I  I105  1  0.83825079  0.82742334  0.00138097  1
  I  I106  1  0.83296638  0.83265449  0.33355457  1
  I  I107  1  0.82951555  0.83209336  0.66519566  1
  I  I108  1  -0.00004836  0.16789776  0.16574757  1
  I  I109  1  -0.00093807  0.16389312  0.50259133  1
  I  I110  1  0.00316973  0.17331739  0.83363406  1
  I  I111  1  -0.00309710  0.50338575  0.16926876  1
  I  I112  1  -0.00449226  0.50639844  0.49574882  1
  I  I113  1  0.00212109  0.49797608  0.83289815  1
  I  I114  1  -0.00236418  0.82904205  0.16896314  1
  I  I115  1  -0.00351712  0.83197444  0.50107064  1
  I  I116  1  -0.00328012  0.83042829  0.82818225  1
  I  I117  1  0.33651112  0.17044983  0.16912256  1
  I  I118  1  0.33078379  0.16366050  0.50236334  1
  I  I119  1  0.32969964  0.16643464  0.82669090  1
  I  I120  1  0.33592183  0.49871546  0.16438008  1
  I  I121  1  0.33321398  0.50094442  0.49785607  1
  I  I122  1  0.33353744  0.49734807  0.83899060  1
  I  I123  1  0.33173639  0.83457146  0.16853906  1
  I  I124  1  0.33531112  0.83492663  0.49648772  1
  I  I125  1  0.33333661  0.83455119  0.83376554  1
  I  I126  1  0.66379336  0.16569068  0.16913111  1
  I  I127  1  0.66958768  0.16646774  0.49742983  1
  I  I128  1  0.66661395  0.16720656  0.83242798  1
  I  I129  1  0.66713578  0.50257522  0.16483878  1
  I  I130  1  0.67034433  0.49727222  0.50103622  1
  I  I131  1  0.66467141  0.50302856  0.83488490  1
  I  I132  1  0.66992027  0.83193831  0.16688577  1
  I  I133  1  0.66931978  0.83521599  0.49729160  1
  I  I134  1  0.67048762  0.83103649  0.83812836  1
