# generated using pymatgen
data_Cs27Sn14Pb13I81
_symmetry_space_group_name_H-M   'P 1'
_cell_length_a   18.97242223
_cell_length_b   18.96625714
_cell_length_c   18.98743086
_cell_angle_alpha   89.99963237
_cell_angle_beta   90.00009364
_cell_angle_gamma   90.00213750
_symmetry_Int_Tables_number   1
_chemical_formula_structural   Cs27Sn14Pb13I81
_chemical_formula_sum   'Cs27 Sn14 Pb13 I81'
_cell_volume   6832.35809902
_cell_formula_units_Z   1
loop_
 _symmetry_equiv_pos_site_id
 _symmetry_equiv_pos_as_xyz
  1  'x, y, z'
loop_
 _atom_site_type_symbol
 _atom_site_label
 _atom_site_symmetry_multiplicity
 _atom_site_fract_x
 _atom_site_fract_y
 _atom_site_fract_z
 _atom_site_occupancy
  Cs  Cs0  1  -0.00143985  0.00164765  0.00041866  1
  Cs  Cs1  1  0.00079344  0.00032844  0.33247438  1
  Cs  Cs2  1  -0.00022590  0.00130306  0.66787216  1
  Cs  Cs3  1  0.00263047  0.32950488  0.00098739  1
  Cs  Cs4  1  -0.00079686  0.33211600  0.33362247  1
  Cs  Cs5  1  -0.00042002  0.33210868  0.66590205  1
  Cs  Cs6  1  -0.00211968  0.66493371  -0.00181748  1
  Cs  Cs7  1  0.00192198  0.66742544  0.33259036  1
  Cs  Cs8  1  -0.00100385  0.66582306  0.67206012  1
  Cs  Cs9  1  0.33319680  -0.00004515  0.00055699  1
  Cs  Cs10  1  0.33149601  -0.00263836  0.33179675  1
  Cs  Cs11  1  0.33245088  -0.00187715  0.66761969  1
  Cs  Cs12  1  0.33687831  0.33344036  -0.00283881  1
  Cs  Cs13  1  0.33486616  0.33387270  0.33254553  1
  Cs  Cs14  1  0.33735315  0.33621695  0.67025728  1
  Cs  Cs15  1  0.33192847  0.66780935  -0.00081367  1
  Cs  Cs16  1  0.33103278  0.67034037  0.33433022  1
  Cs  Cs17  1  0.33162759  0.66770871  0.66704047  1
  Cs  Cs18  1  0.66855670  -0.00158930  -0.00060431  1
  Cs  Cs19  1  0.66834006  0.00017995  0.33398731  1
  Cs  Cs20  1  0.66812853  0.00081405  0.66637659  1
  Cs  Cs21  1  0.65610474  0.33849197  0.00214610  1
  Cs  Cs22  1  0.66129704  0.34291345  0.34179879  1
  Cs  Cs23  1  0.65732340  0.33786836  0.65474203  1
  Cs  Cs24  1  0.67270319  0.66489104  -0.00014236  1
  Cs  Cs25  1  0.66719817  0.66369935  0.33236521  1
  Cs  Cs26  1  0.67097805  0.66407112  0.66828093  1
  Sn  Sn27  1  0.16623800  0.16685035  0.16659580  1
  Sn  Sn28  1  0.16632690  0.49972201  0.16734041  1
  Sn  Sn29  1  0.83285279  0.83362629  0.49908997  1
  Sn  Sn30  1  0.49951199  0.83377671  0.83349921  1
  Sn  Sn31  1  0.83364262  0.83420203  0.16761494  1
  Sn  Sn32  1  0.16623647  0.83338692  0.16546433  1
  Sn  Sn33  1  0.50150237  0.83371951  0.50006842  1
  Sn  Sn34  1  0.16680946  0.16765608  0.50004176  1
  Sn  Sn35  1  0.50036500  0.83377772  0.16643386  1
  Sn  Sn36  1  0.83315261  0.16702434  0.83416920  1
  Sn  Sn37  1  0.16625045  0.49886635  0.49931819  1
  Sn  Sn38  1  0.16595960  0.16562963  0.83343268  1
  Sn  Sn39  1  0.83320490  0.16660963  0.16601114  1
  Sn  Sn40  1  0.16706953  0.83438615  0.83463789  1
  Pb  Pb41  1  0.83558419  0.49892865  0.16641177  1
  Pb  Pb42  1  0.83628380  0.50294290  0.49988659  1
  Pb  Pb43  1  0.16622222  0.83351839  0.50037684  1
  Pb  Pb44  1  0.83360855  0.83459729  0.83376096  1
  Pb  Pb45  1  0.83351081  0.49469150  0.83355943  1
  Pb  Pb46  1  0.50045012  0.16463894  0.83339964  1
  Pb  Pb47  1  0.83500752  0.16508707  0.49939229  1
  Pb  Pb48  1  0.50006689  0.50347241  0.83339832  1
  Pb  Pb49  1  0.50074216  0.16478939  0.16690612  1
  Pb  Pb50  1  0.49696114  0.16405931  0.49973402  1
  Pb  Pb51  1  0.49685097  0.50341825  0.49984149  1
  Pb  Pb52  1  0.16632627  0.49947788  0.83372420  1
  Pb  Pb53  1  0.49695637  0.50319317  0.16665574  1
  I  I54  1  0.16688170  -0.00057246  0.16687062  1
  I  I55  1  0.16693414  0.00212449  0.49804928  1
  I  I56  1  0.16742236  -0.00029888  0.83535668  1
  I  I57  1  0.16079644  0.33196267  0.16760583  1
  I  I58  1  0.16479507  0.33235621  0.49640553  1
  I  I59  1  0.16176869  0.32965533  0.83536086  1
  I  I60  1  0.16789040  0.66833401  0.16812946  1
  I  I61  1  0.16771854  0.66521821  0.49592479  1
  I  I62  1  0.17129905  0.66985056  0.83502571  1
  I  I63  1  0.49349534  -0.00422762  0.16662310  1
  I  I64  1  0.50010833  -0.00443379  0.49958513  1
  I  I65  1  0.49633881  -0.00395666  0.83396498  1
  I  I66  1  0.49987442  0.33350207  0.16638659  1
  I  I67  1  0.50170086  0.33358507  0.50042101  1
  I  I68  1  0.49903307  0.33312693  0.83329517  1
  I  I69  1  0.49995402  0.67202360  0.16700054  1
  I  I70  1  0.50028085  0.67162336  0.49925038  1
  I  I71  1  0.49148546  0.67234687  0.83327951  1
  I  I72  1  0.83904419  -0.00115700  0.16693558  1
  I  I73  1  0.83301683  -0.00324107  0.49811008  1
  I  I74  1  0.83662683  0.00240431  0.83457497  1
  I  I75  1  0.84156637  0.32934148  0.16120484  1
  I  I76  1  0.83331547  0.33318461  0.50042862  1
  I  I77  1  0.84566012  0.32710426  0.84036059  1
  I  I78  1  0.83379486  0.67010626  0.17058620  1
  I  I79  1  0.83142629  0.67140833  0.49414262  1
  I  I80  1  0.83344330  0.66692974  0.83262460  1
  I  I81  1  0.16280378  0.16477470  0.00060497  1
  I  I82  1  0.16335166  0.16506214  0.33205723  1
  I  I83  1  0.16271164  0.16425020  0.66740362  1
  I  I84  1  0.16663733  0.50010632  0.00310801  1
  I  I85  1  0.16648548  0.49924154  0.33242362  1
  I  I86  1  0.16710294  0.49895284  0.66414072  1
  I  I87  1  0.16989258  0.83516785  0.00109538  1
  I  I88  1  0.16873600  0.83527860  0.33064624  1
  I  I89  1  0.16945685  0.83586464  0.66898141  1
  I  I90  1  0.49516249  0.16376785  0.00012855  1
  I  I91  1  0.49829794  0.16164927  0.33326930  1
  I  I92  1  0.49956728  0.16213213  0.66664383  1
  I  I93  1  0.49670907  0.50088252  0.00024677  1
  I  I94  1  0.50063229  0.50235915  0.33328803  1
  I  I95  1  0.49677668  0.50170627  0.66637155  1
  I  I96  1  0.49706003  0.83430868  0.00046528  1
  I  I97  1  0.49791400  0.83383269  0.33264932  1
  I  I98  1  0.49738263  0.83452672  0.66686798  1
  I  I99  1  0.84462034  0.15736401  0.00101812  1
  I  I100  1  0.84052599  0.16129691  0.33009781  1
  I  I101  1  0.84061314  0.16193366  0.66890159  1
  I  I102  1  0.83679187  0.50858775  0.00019816  1
  I  I103  1  0.83322756  0.49704632  0.33317098  1
  I  I104  1  0.83749358  0.50372681  0.66659612  1
  I  I105  1  0.83194445  0.83503047  0.00303829  1
  I  I106  1  0.83230282  0.83868507  0.33168039  1
  I  I107  1  0.83165760  0.83500680  0.66491030  1
  I  I108  1  0.00170619  0.16105146  0.16621120  1
  I  I109  1  0.00364089  0.16582812  0.49972239  1
  I  I110  1  0.00197753  0.15918402  0.83410572  1
  I  I111  1  0.00403685  0.50611405  0.17049795  1
  I  I112  1  0.00418966  0.49921116  0.49542057  1
  I  I113  1  0.00046835  0.50899618  0.83228103  1
  I  I114  1  0.00090854  0.83385162  0.16795367  1
  I  I115  1  -0.00201198  0.83366261  0.49615234  1
  I  I116  1  0.00295361  0.83477940  0.83503665  1
  I  I117  1  0.32952657  0.16530273  0.16602780  1
  I  I118  1  0.32824209  0.16727331  0.49954264  1
  I  I119  1  0.32978243  0.16437624  0.83433653  1
  I  I120  1  0.32850703  0.49935881  0.17046143  1
  I  I121  1  0.32911122  0.49845761  0.49556612  1
  I  I122  1  0.33281044  0.49654813  0.83320790  1
  I  I123  1  0.33208652  0.83310850  0.16706091  1
  I  I124  1  0.33490334  0.83322409  0.49788346  1
  I  I125  1  0.33185446  0.83848415  0.83550221  1
  I  I126  1  0.67044023  0.15841583  0.16015202  1
  I  I127  1  0.66678205  0.16620060  0.50090582  1
  I  I128  1  0.67001001  0.16204309  0.83978506  1
  I  I129  1  0.66659119  0.50015325  0.16588945  1
  I  I130  1  0.66648447  0.49844212  0.50077232  1
  I  I131  1  0.66674331  0.50246617  0.83411766  1
  I  I132  1  0.66724871  0.83906276  0.16727068  1
  I  I133  1  0.66655655  0.83502329  0.49714031  1
  I  I134  1  0.66442651  0.83513033  0.83516929  1
