# generated using pymatgen
data_Cs27Sn13Pb14I81
_symmetry_space_group_name_H-M   'P 1'
_cell_length_a   18.98505782
_cell_length_b   18.97612353
_cell_length_c   18.97076997
_cell_angle_alpha   89.99710244
_cell_angle_beta   89.99979790
_cell_angle_gamma   89.99879213
_symmetry_Int_Tables_number   1
_chemical_formula_structural   Cs27Sn13Pb14I81
_chemical_formula_sum   'Cs27 Sn13 Pb14 I81'
_cell_volume   6834.46274528
_cell_formula_units_Z   1
loop_
 _symmetry_equiv_pos_site_id
 _symmetry_equiv_pos_as_xyz
  1  'x, y, z'
loop_
 _atom_site_type_symbol
 _atom_site_label
 _atom_site_symmetry_multiplicity
 _atom_site_fract_x
 _atom_site_fract_y
 _atom_site_fract_z
 _atom_site_occupancy
  Cs  Cs0  1  -0.00260113  0.00924655  0.00621018  1
  Cs  Cs1  1  -0.00101548  0.00064375  0.33235932  1
  Cs  Cs2  1  0.00086068  -0.00169825  0.66611758  1
  Cs  Cs3  1  -0.00033473  0.32769872  0.00137291  1
  Cs  Cs4  1  0.00065043  0.33445270  0.33395185  1
  Cs  Cs5  1  -0.00001515  0.33538507  0.66617655  1
  Cs  Cs6  1  -0.00117514  0.66609586  -0.00286635  1
  Cs  Cs7  1  0.00028402  0.66554002  0.33386790  1
  Cs  Cs8  1  -0.00019377  0.66750037  0.66695766  1
  Cs  Cs9  1  0.33030751  0.00206158  0.00271253  1
  Cs  Cs10  1  0.33449044  -0.00078185  0.33431229  1
  Cs  Cs11  1  0.33297671  -0.00144293  0.66566958  1
  Cs  Cs12  1  0.33479955  0.33317539  0.00121410  1
  Cs  Cs13  1  0.33653501  0.33489817  0.33119803  1
  Cs  Cs14  1  0.33935233  0.33129673  0.66814022  1
  Cs  Cs15  1  0.33463607  0.66434371  0.00475255  1
  Cs  Cs16  1  0.33274393  0.66629791  0.32464387  1
  Cs  Cs17  1  0.32927777  0.67111060  0.66864597  1
  Cs  Cs18  1  0.67126302  0.00172162  0.00442781  1
  Cs  Cs19  1  0.66684454  -0.00004964  0.33083195  1
  Cs  Cs20  1  0.66580768  -0.00115900  0.66663712  1
  Cs  Cs21  1  0.66691488  0.33138054  -0.00373032  1
  Cs  Cs22  1  0.66331074  0.33591951  0.33897498  1
  Cs  Cs23  1  0.65841355  0.33310784  0.66556282  1
  Cs  Cs24  1  0.66614774  0.66661448  0.00018153  1
  Cs  Cs25  1  0.66661791  0.66423750  0.33157849  1
  Cs  Cs26  1  0.66902756  0.66663226  0.66732534  1
  Sn  Sn27  1  0.16655411  0.83308518  0.50021418  1
  Sn  Sn28  1  0.16617594  0.83288779  0.83322047  1
  Sn  Sn29  1  0.83366189  0.50018301  0.16552098  1
  Sn  Sn30  1  0.83381988  0.83302881  0.83276970  1
  Sn  Sn31  1  0.16581836  0.50053085  0.83229445  1
  Sn  Sn32  1  0.83419132  0.50049713  0.83389101  1
  Sn  Sn33  1  0.16606256  0.16665428  0.50044086  1
  Sn  Sn34  1  0.49994207  0.83328573  0.83301321  1
  Sn  Sn35  1  0.16683689  0.50027470  0.50102927  1
  Sn  Sn36  1  0.50011933  0.16654429  0.16665950  1
  Sn  Sn37  1  0.83383905  0.16604579  0.50071945  1
  Sn  Sn38  1  0.83332100  0.83398681  0.50059056  1
  Sn  Sn39  1  0.50008429  0.83290070  0.50039474  1
  Pb  Pb40  1  0.83336079  0.16683311  0.83060904  1
  Pb  Pb41  1  0.83352015  0.83158789  0.16653710  1
  Pb  Pb42  1  0.50015186  0.83469013  0.16621766  1
  Pb  Pb43  1  0.50283409  0.49774372  0.16638648  1
  Pb  Pb44  1  0.49624321  0.50356919  0.50030767  1
  Pb  Pb45  1  0.83168974  0.16953562  0.16986503  1
  Pb  Pb46  1  0.16462679  0.50003133  0.16572964  1
  Pb  Pb47  1  0.16624640  0.83335151  0.16586951  1
  Pb  Pb48  1  0.83477117  0.50031914  0.50116819  1
  Pb  Pb49  1  0.16657702  0.16671509  0.83103945  1
  Pb  Pb50  1  0.16854422  0.16687314  0.16981520  1
  Pb  Pb51  1  0.49985494  0.16430229  0.49900067  1
  Pb  Pb52  1  0.49998968  0.16326197  0.83560827  1
  Pb  Pb53  1  0.49962506  0.50245216  0.83308366  1
  I  I54  1  0.16642355  0.00013316  0.16601238  1
  I  I55  1  0.16650509  -0.00140982  0.50323452  1
  I  I56  1  0.16702256  -0.00373324  0.82867306  1
  I  I57  1  0.16695455  0.33348169  0.16745022  1
  I  I58  1  0.15991604  0.33350717  0.50253790  1
  I  I59  1  0.16107284  0.33678002  0.82925619  1
  I  I60  1  0.16803239  0.66659555  0.17308490  1
  I  I61  1  0.16576997  0.66772057  0.50419107  1
  I  I62  1  0.16536123  0.66748887  0.82488594  1
  I  I63  1  0.50117284  0.00226503  0.16798936  1
  I  I64  1  0.49586646  -0.00373892  0.50329425  1
  I  I65  1  0.49947045  -0.00509833  0.82770635  1
  I  I66  1  0.49943575  0.33019320  0.16970825  1
  I  I67  1  0.50080946  0.33332157  0.49746214  1
  I  I68  1  0.50020256  0.33332895  0.83492353  1
  I  I69  1  0.49994642  0.66664432  0.16752136  1
  I  I70  1  0.50369241  0.67164071  0.50342813  1
  I  I71  1  0.50040294  0.67076332  0.82911126  1
  I  I72  1  0.83212308  0.00038116  0.16476167  1
  I  I73  1  0.83758839  -0.00176032  0.50429940  1
  I  I74  1  0.83376083  -0.00363065  0.83042537  1
  I  I75  1  0.83359015  0.33696994  0.16098501  1
  I  I76  1  0.83866882  0.33136362  0.49816492  1
  I  I77  1  0.83908747  0.33666659  0.83666580  1
  I  I78  1  0.83319397  0.66377847  0.16819606  1
  I  I79  1  0.83363215  0.66985587  0.50053003  1
  I  I80  1  0.83384898  0.66777290  0.83120444  1
  I  I81  1  0.16813522  0.16596859  -0.00003969  1
  I  I82  1  0.16248812  0.16542668  0.33834773  1
  I  I83  1  0.16390623  0.16520706  0.66260273  1
  I  I84  1  0.16544280  0.50682098  -0.00395605  1
  I  I85  1  0.16499819  0.50112420  0.33644647  1
  I  I86  1  0.15966236  0.50225918  0.66678847  1
  I  I87  1  0.16816513  0.82709791  -0.00440536  1
  I  I88  1  0.16726910  0.83268522  0.33749779  1
  I  I89  1  0.16685333  0.83268886  0.66579927  1
  I  I90  1  0.50077505  0.16537419  0.00318935  1
  I  I91  1  0.50022394  0.16386291  0.33142422  1
  I  I92  1  0.50022836  0.16813765  0.66648533  1
  I  I93  1  0.49546251  0.50248997  -0.00029347  1
  I  I94  1  0.50098440  0.50248291  0.33355113  1
  I  I95  1  0.50627644  0.49469455  0.66654500  1
  I  I96  1  0.49997706  0.83402556  -0.00360325  1
  I  I97  1  0.49931652  0.83512670  0.33652004  1
  I  I98  1  0.49967159  0.83425443  0.66626746  1
  I  I99  1  0.83177197  0.16390221  0.00007641  1
  I  I100  1  0.83723411  0.16133512  0.33758035  1
  I  I101  1  0.83670030  0.16603649  0.66259675  1
  I  I102  1  0.83805608  0.50626357  -0.00200670  1
  I  I103  1  0.83449560  0.49936753  0.33227426  1
  I  I104  1  0.83641191  0.50258619  0.66971349  1
  I  I105  1  0.83251569  0.83060951  -0.00374849  1
  I  I106  1  0.83335941  0.83547800  0.33700312  1
  I  I107  1  0.83338021  0.83117547  0.66640435  1
  I  I108  1  -0.00028827  0.16703063  0.16605743  1
  I  I109  1  0.00036725  0.16129580  0.49986403  1
  I  I110  1  -0.00006414  0.16243558  0.83594891  1
  I  I111  1  -0.00303791  0.50002491  0.16634574  1
  I  I112  1  0.00291233  0.50378905  0.50036034  1
  I  I113  1  0.00003790  0.50863390  0.83254496  1
  I  I114  1  -0.00016620  0.83403459  0.16881630  1
  I  I115  1  0.00027404  0.83404973  0.50497442  1
  I  I116  1  -0.00007839  0.82720150  0.82523548  1
  I  I117  1  0.33612916  0.16554244  0.16850604  1
  I  I118  1  0.33041548  0.16548366  0.49845576  1
  I  I119  1  0.33321346  0.16709122  0.83136817  1
  I  I120  1  0.33331367  0.49912175  0.16737640  1
  I  I121  1  0.32806736  0.49747403  0.50569310  1
  I  I122  1  0.32970771  0.50389608  0.82825844  1
  I  I123  1  0.33328131  0.83369560  0.16782711  1
  I  I124  1  0.33231868  0.83426257  0.50589196  1
  I  I125  1  0.33241459  0.83019644  0.82586775  1
  I  I126  1  0.66434267  0.16529977  0.16917902  1
  I  I127  1  0.66920135  0.16240279  0.49817756  1
  I  I128  1  0.66681785  0.16751625  0.83056782  1
  I  I129  1  0.67062747  0.50134528  0.16198469  1
  I  I130  1  0.66665176  0.49895513  0.49902307  1
  I  I131  1  0.66980235  0.50424796  0.83750985  1
  I  I132  1  0.66682948  0.83320917  0.16782985  1
  I  I133  1  0.66757597  0.83879684  0.50563959  1
  I  I134  1  0.66763154  0.82980376  0.82670960  1
