# generated using pymatgen
data_Cs27Sn14Pb13I81
_symmetry_space_group_name_H-M   'P 1'
_cell_length_a   18.98260811
_cell_length_b   18.96971522
_cell_length_c   18.97652340
_cell_angle_alpha   90.00183139
_cell_angle_beta   90.00080774
_cell_angle_gamma   89.99917669
_symmetry_Int_Tables_number   1
_chemical_formula_structural   Cs27Sn14Pb13I81
_chemical_formula_sum   'Cs27 Sn14 Pb13 I81'
_cell_volume   6833.34492521
_cell_formula_units_Z   1
loop_
 _symmetry_equiv_pos_site_id
 _symmetry_equiv_pos_as_xyz
  1  'x, y, z'
loop_
 _atom_site_type_symbol
 _atom_site_label
 _atom_site_symmetry_multiplicity
 _atom_site_fract_x
 _atom_site_fract_y
 _atom_site_fract_z
 _atom_site_occupancy
  Cs  Cs0  1  -0.00073660  -0.00085788  -0.00059033  1
  Cs  Cs1  1  0.00031860  0.00063587  0.33310176  1
  Cs  Cs2  1  0.00111655  -0.00120790  0.66587115  1
  Cs  Cs3  1  0.00140800  0.33116556  -0.00165932  1
  Cs  Cs4  1  -0.00094791  0.33236539  0.33312029  1
  Cs  Cs5  1  -0.00166074  0.33384524  0.66935095  1
  Cs  Cs6  1  -0.00592682  0.67223257  0.00199059  1
  Cs  Cs7  1  -0.00019059  0.66403395  0.33414513  1
  Cs  Cs8  1  0.00998963  0.66726843  0.66436915  1
  Cs  Cs9  1  0.33373849  0.00148549  0.00305631  1
  Cs  Cs10  1  0.33459248  0.00028806  0.33279915  1
  Cs  Cs11  1  0.33333932  -0.00162505  0.66506427  1
  Cs  Cs12  1  0.33151579  0.33414251  0.00041310  1
  Cs  Cs13  1  0.33499212  0.33197117  0.33103025  1
  Cs  Cs14  1  0.33145719  0.33855408  0.67041537  1
  Cs  Cs15  1  0.33720024  0.66445649  -0.00454778  1
  Cs  Cs16  1  0.33139066  0.66854649  0.33461491  1
  Cs  Cs17  1  0.32599980  0.65987640  0.67409535  1
  Cs  Cs18  1  0.66708299  -0.00112235  -0.00046012  1
  Cs  Cs19  1  0.66426890  0.00104409  0.33603064  1
  Cs  Cs20  1  0.66609030  0.00163401  0.66355053  1
  Cs  Cs21  1  0.66725398  0.33310568  -0.00055835  1
  Cs  Cs22  1  0.66657683  0.33514159  0.33449474  1
  Cs  Cs23  1  0.66903806  0.33204797  0.66579756  1
  Cs  Cs24  1  0.66864876  0.66722194  -0.00222868  1
  Cs  Cs25  1  0.66871725  0.65996284  0.33208983  1
  Cs  Cs26  1  0.66301586  0.66634729  0.66957142  1
  Sn  Sn27  1  0.50065509  0.16636962  0.83324639  1
  Sn  Sn28  1  0.50059031  0.83362545  0.49926471  1
  Sn  Sn29  1  0.50031597  0.16614266  0.16659134  1
  Sn  Sn30  1  0.83230700  0.83389537  0.49987297  1
  Sn  Sn31  1  0.16665444  0.50023941  0.16673968  1
  Sn  Sn32  1  0.16668876  0.16636843  0.16758399  1
  Sn  Sn33  1  0.83234340  0.16697019  0.83323052  1
  Sn  Sn34  1  0.16688284  0.16675113  0.49936551  1
  Sn  Sn35  1  0.83296279  0.16640490  0.16681382  1
  Sn  Sn36  1  0.83347616  0.49965282  0.83311201  1
  Sn  Sn37  1  0.49968745  0.83411993  0.16775398  1
  Sn  Sn38  1  0.49959555  0.16664847  0.50024584  1
  Sn  Sn39  1  0.16760742  0.83343078  0.16687102  1
  Sn  Sn40  1  0.83349120  0.16606975  0.49996223  1
  Pb  Pb41  1  0.83532302  0.49731378  0.16481738  1
  Pb  Pb42  1  0.83329920  0.50018743  0.50218332  1
  Pb  Pb43  1  0.16668927  0.49682373  0.49757353  1
  Pb  Pb44  1  0.16687968  0.83371195  0.83668724  1
  Pb  Pb45  1  0.49994067  0.50065479  0.49991408  1
  Pb  Pb46  1  0.16669743  0.16635804  0.83332518  1
  Pb  Pb47  1  0.83244677  0.83547764  0.16899642  1
  Pb  Pb48  1  0.16373616  0.49981464  0.83640810  1
  Pb  Pb49  1  0.50235581  0.49702494  0.83350122  1
  Pb  Pb50  1  0.83318344  0.83410160  0.82997808  1
  Pb  Pb51  1  0.50003950  0.83579847  0.83300237  1
  Pb  Pb52  1  0.16737991  0.83538040  0.49807437  1
  Pb  Pb53  1  0.49816423  0.50037744  0.16679573  1
  I  I54  1  0.16765124  0.00148367  0.17031838  1
  I  I55  1  0.16575040  0.00381448  0.49403794  1
  I  I56  1  0.16286222  0.00065584  0.83573128  1
  I  I57  1  0.16605564  0.33111227  0.16997031  1
  I  I58  1  0.16608153  0.32817785  0.49423653  1
  I  I59  1  0.16913221  0.33280898  0.83560478  1
  I  I60  1  0.17142224  0.66755053  0.16552493  1
  I  I61  1  0.16529228  0.66695143  0.49828075  1
  I  I62  1  0.16441359  0.66648661  0.83299705  1
  I  I63  1  0.49517693  0.00187255  0.16701766  1
  I  I64  1  0.50130777  0.00195830  0.49876606  1
  I  I65  1  0.50759227  0.00425454  0.83420997  1
  I  I66  1  0.49945199  0.32929283  0.16740126  1
  I  I67  1  0.50147130  0.32876981  0.49840276  1
  I  I68  1  0.50087914  0.32834758  0.83377986  1
  I  I69  1  0.49527887  0.67045453  0.17203027  1
  I  I70  1  0.50672244  0.67084212  0.49273230  1
  I  I71  1  0.50138425  0.66673407  0.83411307  1
  I  I72  1  0.83832452  0.00421728  0.16147115  1
  I  I73  1  0.83268321  0.00256509  0.50161357  1
  I  I74  1  0.82976138  0.00396431  0.83576827  1
  I  I75  1  0.83245338  0.32831257  0.17176958  1
  I  I76  1  0.83269604  0.32926913  0.49785304  1
  I  I77  1  0.82983989  0.33034772  0.83203510  1
  I  I78  1  0.83432549  0.66686712  0.16590302  1
  I  I79  1  0.82809060  0.66996402  0.50008188  1
  I  I80  1  0.83506021  0.66435759  0.83397909  1
  I  I81  1  0.16649959  0.16676328  0.00373551  1
  I  I82  1  0.16578735  0.16677701  0.33203058  1
  I  I83  1  0.16621759  0.16578835  0.66346493  1
  I  I84  1  0.16739831  0.49414915  0.00415107  1
  I  I85  1  0.16519655  0.50087733  0.32957481  1
  I  I86  1  0.16644867  0.49903083  0.66685309  1
  I  I87  1  0.17134633  0.83840482  0.00550566  1
  I  I88  1  0.16755508  0.83318508  0.32982577  1
  I  I89  1  0.16599219  0.83499152  0.66608607  1
  I  I90  1  0.50217240  0.16353227  0.00119500  1
  I  I91  1  0.50120167  0.16351592  0.33312541  1
  I  I92  1  0.50349727  0.16319556  0.66564747  1
  I  I93  1  0.49923171  0.49953077  0.00016837  1
  I  I94  1  0.50117809  0.49366486  0.33319173  1
  I  I95  1  0.49950019  0.49970817  0.66678843  1
  I  I96  1  0.49474082  0.83820958  0.00331735  1
  I  I97  1  0.49905386  0.84323440  0.33298762  1
  I  I98  1  0.50646571  0.83966725  0.66303331  1
  I  I99  1  0.83159666  0.17132263  0.00034829  1
  I  I100  1  0.83277179  0.16235996  0.33353381  1
  I  I101  1  0.83071720  0.16735171  0.66605644  1
  I  I102  1  0.83425058  0.49295099  -0.00292469  1
  I  I103  1  0.83470024  0.49878990  0.33327557  1
  I  I104  1  0.83274676  0.49084846  0.66970370  1
  I  I105  1  0.83454721  0.83400146  0.00013899  1
  I  I106  1  0.83313414  0.84080275  0.33664996  1
  I  I107  1  0.82689248  0.84082434  0.66221413  1
  I  I108  1  0.00037559  0.16716667  0.16903197  1
  I  I109  1  -0.00073283  0.16342526  0.49680572  1
  I  I110  1  -0.00327062  0.17054814  0.83380047  1
  I  I111  1  0.00332218  0.49970794  0.16619295  1
  I  I112  1  -0.00002039  0.50024759  0.50000470  1
  I  I113  1  -0.00357991  0.48940416  0.83315257  1
  I  I114  1  0.00221066  0.83482897  0.16734497  1
  I  I115  1  -0.00205617  0.83873100  0.49977816  1
  I  I116  1  -0.00031011  0.83600571  0.83353945  1
  I  I117  1  0.33332206  0.16663023  0.16872915  1
  I  I118  1  0.33418752  0.16295539  0.49640385  1
  I  I119  1  0.33643434  0.16467708  0.83397014  1
  I  I120  1  0.33020204  0.49286360  0.16670191  1
  I  I121  1  0.33319412  0.49907079  0.50070276  1
  I  I122  1  0.33311683  0.49953331  0.83332665  1
  I  I123  1  0.33393217  0.83973144  0.17225804  1
  I  I124  1  0.33648228  0.84017390  0.49646079  1
  I  I125  1  0.33361598  0.83531839  0.82836587  1
  I  I126  1  0.66616807  0.16236185  0.16779406  1
  I  I127  1  0.66664483  0.16344058  0.49837837  1
  I  I128  1  0.66721208  0.17030622  0.83410037  1
  I  I129  1  0.66689576  0.49964631  0.16538204  1
  I  I130  1  0.66677753  0.49489994  0.49896529  1
  I  I131  1  0.67004894  0.49679229  0.83450088  1
  I  I132  1  0.66351549  0.83980196  0.16773558  1
  I  I133  1  0.66590508  0.84390020  0.49454461  1
  I  I134  1  0.66672245  0.83064621  0.83988151  1
