# generated using pymatgen
data_Cs27Sn13Pb14I81
_symmetry_space_group_name_H-M   'P 1'
_cell_length_a   18.97963209
_cell_length_b   18.97662242
_cell_length_c   18.97444005
_cell_angle_alpha   90.00015296
_cell_angle_beta   89.99941461
_cell_angle_gamma   89.99997894
_symmetry_Int_Tables_number   1
_chemical_formula_structural   Cs27Sn13Pb14I81
_chemical_formula_sum   'Cs27 Sn13 Pb14 I81'
_cell_volume   6834.01101654
_cell_formula_units_Z   1
loop_
 _symmetry_equiv_pos_site_id
 _symmetry_equiv_pos_as_xyz
  1  'x, y, z'
loop_
 _atom_site_type_symbol
 _atom_site_label
 _atom_site_symmetry_multiplicity
 _atom_site_fract_x
 _atom_site_fract_y
 _atom_site_fract_z
 _atom_site_occupancy
  Cs  Cs0  1  -0.00047764  -0.00122581  -0.00245238  1
  Cs  Cs1  1  0.00119335  -0.00020798  0.33644253  1
  Cs  Cs2  1  -0.00169668  -0.00177524  0.66759984  1
  Cs  Cs3  1  -0.00280637  0.33334005  0.00090261  1
  Cs  Cs4  1  0.00450428  0.33310797  0.33531157  1
  Cs  Cs5  1  -0.00090380  0.33115070  0.66439618  1
  Cs  Cs6  1  0.00118740  0.66798212  -0.00008388  1
  Cs  Cs7  1  0.00063351  0.66592178  0.33071129  1
  Cs  Cs8  1  0.00098692  0.67090870  0.67038303  1
  Cs  Cs9  1  0.33588683  0.00113378  0.00046236  1
  Cs  Cs10  1  0.33399305  0.00370800  0.33446655  1
  Cs  Cs11  1  0.33478880  -0.00026815  0.66792436  1
  Cs  Cs12  1  0.33145685  0.33204087  0.00044812  1
  Cs  Cs13  1  0.32447115  0.32596728  0.33893005  1
  Cs  Cs14  1  0.33293300  0.34304888  0.66289233  1
  Cs  Cs15  1  0.33368244  0.66681296  -0.00151863  1
  Cs  Cs16  1  0.33225153  0.66785946  0.33497925  1
  Cs  Cs17  1  0.33441724  0.65818757  0.66648954  1
  Cs  Cs18  1  0.66496371  0.00109642  0.00017842  1
  Cs  Cs19  1  0.66429843  0.00044118  0.33860906  1
  Cs  Cs20  1  0.66748083  -0.00189160  0.66120055  1
  Cs  Cs21  1  0.66803905  0.33328083  -0.00088844  1
  Cs  Cs22  1  0.66722382  0.33200806  0.33280735  1
  Cs  Cs23  1  0.66637779  0.33493905  0.66773197  1
  Cs  Cs24  1  0.66721408  0.66630470  0.00232249  1
  Cs  Cs25  1  0.66698141  0.66761563  0.33036238  1
  Cs  Cs26  1  0.66501793  0.66671977  0.66244719  1
  Sn  Sn27  1  0.83321563  0.49974766  0.83340345  1
  Sn  Sn28  1  0.16695545  0.83353556  0.16716897  1
  Sn  Sn29  1  0.83265141  0.49968042  0.16662133  1
  Sn  Sn30  1  0.83302182  0.16705181  0.83415562  1
  Sn  Sn31  1  0.50005820  0.49988116  0.16693493  1
  Sn  Sn32  1  0.50010659  0.16626249  0.83343616  1
  Sn  Sn33  1  0.16682815  0.83321654  0.49978258  1
  Sn  Sn34  1  0.16677102  0.16687110  0.83348233  1
  Sn  Sn35  1  0.83326234  0.50033148  0.49975629  1
  Sn  Sn36  1  0.83325640  0.16649927  0.16629667  1
  Sn  Sn37  1  0.50033681  0.83368365  0.83389442  1
  Sn  Sn38  1  0.49997698  0.83274946  0.16595911  1
  Sn  Sn39  1  0.83318998  0.83390387  0.16643117  1
  Pb  Pb40  1  0.50006091  0.16691192  0.50349495  1
  Pb  Pb41  1  0.16379783  0.49737441  0.83365734  1
  Pb  Pb42  1  0.50177690  0.16690181  0.16535147  1
  Pb  Pb43  1  0.16401455  0.50243409  0.49993521  1
  Pb  Pb44  1  0.16690975  0.50183038  0.16655001  1
  Pb  Pb45  1  0.50212150  0.49997768  0.49605073  1
  Pb  Pb46  1  0.16930901  0.83486710  0.83367043  1
  Pb  Pb47  1  0.83502671  0.83110020  0.49713342  1
  Pb  Pb48  1  0.83105382  0.83352799  0.83503900  1
  Pb  Pb49  1  0.49777086  0.83317204  0.49954674  1
  Pb  Pb50  1  0.16649991  0.16421781  0.50307951  1
  Pb  Pb51  1  0.16405698  0.16395065  0.16479538  1
  Pb  Pb52  1  0.50215417  0.49991258  0.83547587  1
  Pb  Pb53  1  0.83327025  0.16871236  0.50011356  1
  I  I54  1  0.16730221  -0.00420871  0.16926769  1
  I  I55  1  0.16512578  -0.00341837  0.49410561  1
  I  I56  1  0.16044497  0.00273979  0.83408658  1
  I  I57  1  0.16656149  0.33286268  0.16529368  1
  I  I58  1  0.16630428  0.33330961  0.50096428  1
  I  I59  1  0.17142175  0.32923745  0.83423277  1
  I  I60  1  0.16157480  0.67043532  0.16844827  1
  I  I61  1  0.16626278  0.67017460  0.49590429  1
  I  I62  1  0.16610422  0.66689535  0.83289678  1
  I  I63  1  0.50101729  -0.00303476  0.16372627  1
  I  I64  1  0.50107454  -0.00024374  0.49622174  1
  I  I65  1  0.50139997  -0.00000886  0.83998859  1
  I  I66  1  0.50801275  0.33588300  0.16390372  1
  I  I67  1  0.50009831  0.33363934  0.50012615  1
  I  I68  1  0.49995430  0.33058067  0.83521581  1
  I  I69  1  0.50571274  0.66799731  0.16099083  1
  I  I70  1  0.49972528  0.66664192  0.50581201  1
  I  I71  1  0.50108868  0.66911856  0.83628619  1
  I  I72  1  0.83411017  -0.00020533  0.16018530  1
  I  I73  1  0.83463676  -0.00027937  0.50024727  1
  I  I74  1  0.83504896  0.00301759  0.83864615  1
  I  I75  1  0.82804139  0.33404820  0.16476918  1
  I  I76  1  0.83354296  0.33668676  0.49568461  1
  I  I77  1  0.83199562  0.33270765  0.83841401  1
  I  I78  1  0.83287090  0.66652044  0.16659997  1
  I  I79  1  0.83401458  0.66320349  0.50113304  1
  I  I80  1  0.83172406  0.66412261  0.83490430  1
  I  I81  1  0.16747260  0.16377327  -0.00313194  1
  I  I82  1  0.16475875  0.16767840  0.33316941  1
  I  I83  1  0.16236479  0.16336141  0.67105178  1
  I  I84  1  0.16349507  0.50334656  0.00009103  1
  I  I85  1  0.16403952  0.49812503  0.33308800  1
  I  I86  1  0.16550385  0.50322889  0.66686230  1
  I  I87  1  0.16432800  0.83430927  0.00300491  1
  I  I88  1  0.16656081  0.83236871  0.33145519  1
  I  I89  1  0.16645048  0.83577045  0.66474932  1
  I  I90  1  0.49964146  0.16442596  -0.00305001  1
  I  I91  1  0.50240692  0.16573781  0.33298290  1
  I  I92  1  0.50456545  0.15929078  0.67234672  1
  I  I93  1  0.50751194  0.50262792  0.00326469  1
  I  I94  1  0.50764195  0.50867223  0.32813589  1
  I  I95  1  0.50183963  0.50051366  0.66680104  1
  I  I96  1  0.49850466  0.83367899  0.00135878  1
  I  I97  1  0.50285529  0.82874413  0.32941009  1
  I  I98  1  0.49935546  0.83877733  0.66961360  1
  I  I99  1  0.83347514  0.17110745  -0.00045925  1
  I  I100  1  0.83297494  0.16676718  0.32990294  1
  I  I101  1  0.83340407  0.17117975  0.67048953  1
  I  I102  1  0.82997144  0.49853174  0.00097956  1
  I  I103  1  0.82956556  0.50156573  0.33155141  1
  I  I104  1  0.83453919  0.49400199  0.66761809  1
  I  I105  1  0.83785122  0.82925184  0.00353850  1
  I  I106  1  0.82856714  0.83378962  0.32845474  1
  I  I107  1  0.83424449  0.83281314  0.66673651  1
  I  I108  1  -0.00433877  0.16835442  0.16062656  1
  I  I109  1  -0.00021344  0.16661121  0.50223944  1
  I  I110  1  -0.00145385  0.17090804  0.83734002  1
  I  I111  1  -0.00388035  0.50089097  0.16624716  1
  I  I112  1  -0.00405757  0.49952831  0.49629506  1
  I  I113  1  -0.00485162  0.49664838  0.83716456  1
  I  I114  1  -0.00086328  0.83291352  0.17043593  1
  I  I115  1  0.00277373  0.83260632  0.49536435  1
  I  I116  1  -0.00017841  0.83397296  0.83433772  1
  I  I117  1  0.33331556  0.16673555  0.16396468  1
  I  I118  1  0.33310889  0.16643895  0.49932180  1
  I  I119  1  0.33402691  0.15874135  0.83390027  1
  I  I120  1  0.33656864  0.50620901  0.16396854  1
  I  I121  1  0.33326447  0.50069226  0.50017050  1
  I  I122  1  0.33369255  0.49936095  0.83466325  1
  I  I123  1  0.33423468  0.82812331  0.16583582  1
  I  I124  1  0.33013579  0.83417758  0.49397466  1
  I  I125  1  0.33698482  0.83908255  0.83941851  1
  I  I126  1  0.67027254  0.16393339  0.16036615  1
  I  I127  1  0.66703312  0.16506620  0.50128576  1
  I  I128  1  0.66761404  0.16742442  0.83854553  1
  I  I129  1  0.66850397  0.50545711  0.16602443  1
  I  I130  1  0.67038442  0.50117089  0.50256448  1
  I  I131  1  0.67037397  0.49450643  0.83313903  1
  I  I132  1  0.66685519  0.83140547  0.16117493  1
  I  I133  1  0.66670891  0.83264152  0.49990981  1
  I  I134  1  0.66337092  0.83802400  0.83937792  1
