# generated using pymatgen
data_Cs27Sn13Pb14I81
_symmetry_space_group_name_H-M   'P 1'
_cell_length_a   18.97954645
_cell_length_b   18.97554287
_cell_length_c   18.97354038
_cell_angle_alpha   90.00184631
_cell_angle_beta   90.00085212
_cell_angle_gamma   90.00001365
_symmetry_Int_Tables_number   1
_chemical_formula_structural   Cs27Sn13Pb14I81
_chemical_formula_sum   'Cs27 Sn13 Pb14 I81'
_cell_volume   6833.26738692
_cell_formula_units_Z   1
loop_
 _symmetry_equiv_pos_site_id
 _symmetry_equiv_pos_as_xyz
  1  'x, y, z'
loop_
 _atom_site_type_symbol
 _atom_site_label
 _atom_site_symmetry_multiplicity
 _atom_site_fract_x
 _atom_site_fract_y
 _atom_site_fract_z
 _atom_site_occupancy
  Cs  Cs0  1  0.00116486  -0.00034776  0.00278920  1
  Cs  Cs1  1  -0.00090625  -0.00127534  0.32990139  1
  Cs  Cs2  1  -0.00045003  0.00154755  0.66817957  1
  Cs  Cs3  1  -0.00204972  0.33087925  -0.00673023  1
  Cs  Cs4  1  0.00249027  0.33524858  0.33290540  1
  Cs  Cs5  1  0.00114692  0.33475199  0.67667741  1
  Cs  Cs6  1  0.00070840  0.67102917  0.00170571  1
  Cs  Cs7  1  -0.00026826  0.66689097  0.33379877  1
  Cs  Cs8  1  -0.00205711  0.66286772  0.66403975  1
  Cs  Cs9  1  0.33213010  -0.00049289  -0.00211104  1
  Cs  Cs10  1  0.33377578  0.00132614  0.33372654  1
  Cs  Cs11  1  0.33510165  0.00009523  0.66850087  1
  Cs  Cs12  1  0.33627774  0.33260148  0.00351084  1
  Cs  Cs13  1  0.33252364  0.33286273  0.33179497  1
  Cs  Cs14  1  0.32664147  0.33259386  0.66565360  1
  Cs  Cs15  1  0.33813271  0.66957327  -0.00658610  1
  Cs  Cs16  1  0.33348676  0.66500343  0.33411036  1
  Cs  Cs17  1  0.33161931  0.66650251  0.66946793  1
  Cs  Cs18  1  0.66670650  0.00054202  0.00305438  1
  Cs  Cs19  1  0.66700681  0.00147501  0.33454785  1
  Cs  Cs20  1  0.66547509  -0.00125737  0.66292557  1
  Cs  Cs21  1  0.66657842  0.33680527  -0.00171297  1
  Cs  Cs22  1  0.66598459  0.33246133  0.33406092  1
  Cs  Cs23  1  0.67078033  0.32969163  0.66526964  1
  Cs  Cs24  1  0.66264887  0.66261862  -0.00351445  1
  Cs  Cs25  1  0.66682571  0.66610686  0.33378114  1
  Cs  Cs26  1  0.66801815  0.66930327  0.66694797  1
  Sn  Sn27  1  0.83337117  0.83355789  0.83282927  1
  Sn  Sn28  1  0.83440110  0.49992304  0.16744697  1
  Sn  Sn29  1  0.16589469  0.49958948  0.16668656  1
  Sn  Sn30  1  0.49995472  0.83388865  0.16747444  1
  Sn  Sn31  1  0.83250968  0.50036919  0.49900508  1
  Sn  Sn32  1  0.16620384  0.16583458  0.49916233  1
  Sn  Sn33  1  0.83340852  0.83287565  0.50048378  1
  Sn  Sn34  1  0.16670692  0.83429405  0.49966184  1
  Sn  Sn35  1  0.50019225  0.16673932  0.83412580  1
  Sn  Sn36  1  0.16719793  0.16740266  0.16767579  1
  Sn  Sn37  1  0.49946542  0.16579833  0.16601681  1
  Sn  Sn38  1  0.49969036  0.83243922  0.49912035  1
  Sn  Sn39  1  0.50063808  0.50056320  0.49994318  1
  Pb  Pb40  1  0.83665003  0.16703880  0.49980247  1
  Pb  Pb41  1  0.83066689  0.16377780  0.83342076  1
  Pb  Pb42  1  0.49829448  0.16673508  0.49951064  1
  Pb  Pb43  1  0.16861465  0.16650427  0.83409280  1
  Pb  Pb44  1  0.16400920  0.83340477  0.83019138  1
  Pb  Pb45  1  0.16904237  0.83324411  0.16849680  1
  Pb  Pb46  1  0.16628740  0.50005551  0.49884372  1
  Pb  Pb47  1  0.50009614  0.49719536  0.82931429  1
  Pb  Pb48  1  0.83076246  0.83111288  0.16724745  1
  Pb  Pb49  1  0.49989296  0.49989261  0.16825522  1
  Pb  Pb50  1  0.83340893  0.16932799  0.16685316  1
  Pb  Pb51  1  0.16681439  0.50013670  0.83762204  1
  Pb  Pb52  1  0.83328545  0.50217532  0.83309047  1
  Pb  Pb53  1  0.50172643  0.83494647  0.83282655  1
  I  I54  1  0.16980199  0.00272064  0.16925779  1
  I  I55  1  0.16774416  -0.00049830  0.49440009  1
  I  I56  1  0.16585402  -0.00008109  0.83674245  1
  I  I57  1  0.16965309  0.33227136  0.17420271  1
  I  I58  1  0.16925309  0.33115676  0.49686319  1
  I  I59  1  0.16599245  0.33308341  0.82606569  1
  I  I60  1  0.16343754  0.66427645  0.17002573  1
  I  I61  1  0.16681509  0.66930483  0.49802293  1
  I  I62  1  0.16834295  0.66695703  0.83301766  1
  I  I63  1  0.49563132  0.00035649  0.16898028  1
  I  I64  1  0.50240508  -0.00285576  0.49914488  1
  I  I65  1  0.50075799  0.00271156  0.83304966  1
  I  I66  1  0.49845986  0.33077844  0.16513689  1
  I  I67  1  0.50339214  0.33568585  0.49928583  1
  I  I68  1  0.49958715  0.32956030  0.84047051  1
  I  I69  1  0.50042952  0.66890310  0.17033570  1
  I  I70  1  0.49900016  0.66817052  0.49376737  1
  I  I71  1  0.50125029  0.66685273  0.83669400  1
  I  I72  1  0.83478750  -0.00032287  0.16674990  1
  I  I73  1  0.82985009  -0.00334214  0.50382234  1
  I  I74  1  0.83298053  -0.00390720  0.82549069  1
  I  I75  1  0.83179240  0.33732574  0.17380920  1
  I  I76  1  0.82793170  0.33675997  0.49516724  1
  I  I77  1  0.83312890  0.33337521  0.83236258  1
  I  I78  1  0.83825476  0.66335976  0.16945944  1
  I  I79  1  0.83429357  0.66737071  0.49993314  1
  I  I80  1  0.83078946  0.66983814  0.83030619  1
  I  I81  1  0.16910820  0.17142823  0.00376446  1
  I  I82  1  0.17330215  0.16679251  0.33257618  1
  I  I83  1  0.16868776  0.16281539  0.66387435  1
  I  I84  1  0.16101894  0.49302885  0.00581315  1
  I  I85  1  0.16588143  0.49807525  0.33096179  1
  I  I86  1  0.16655488  0.49885620  0.66630773  1
  I  I87  1  0.16633952  0.83329628  0.00029041  1
  I  I88  1  0.16232328  0.83451474  0.33684770  1
  I  I89  1  0.17290072  0.83859948  0.66142211  1
  I  I90  1  0.49425133  0.16100426  0.00214546  1
  I  I91  1  0.49707846  0.16555158  0.33069035  1
  I  I92  1  0.49887662  0.16632794  0.66802079  1
  I  I93  1  0.49994337  0.50263023  0.00016435  1
  I  I94  1  0.50132054  0.50015140  0.33623454  1
  I  I95  1  0.50561983  0.50587863  0.66130242  1
  I  I96  1  0.50162738  0.83504425  0.00257010  1
  I  I97  1  0.50202447  0.83577257  0.33461809  1
  I  I98  1  0.49889278  0.83177583  0.66305103  1
  I  I99  1  0.83708441  0.16585113  0.00023430  1
  I  I100  1  0.82832918  0.16220784  0.33341698  1
  I  I101  1  0.83289576  0.17078022  0.66637295  1
  I  I102  1  0.83730306  0.50066094  0.00297063  1
  I  I103  1  0.83307669  0.50599448  0.33449515  1
  I  I104  1  0.82906835  0.50247134  0.66307530  1
  I  I105  1  0.83054740  0.83219714  -0.00167663  1
  I  I106  1  0.83443810  0.83078367  0.33672488  1
  I  I107  1  0.83128849  0.82833626  0.66396991  1
  I  I108  1  0.00332799  0.16802656  0.17173006  1
  I  I109  1  0.00454395  0.16244552  0.49312864  1
  I  I110  1  0.00001978  0.16666380  0.83299065  1
  I  I111  1  -0.00000279  0.49604131  0.17410058  1
  I  I112  1  -0.00270914  0.50424030  0.49675311  1
  I  I113  1  -0.00015223  0.49916258  0.82771715  1
  I  I114  1  -0.00002127  0.83532647  0.16686763  1
  I  I115  1  -0.00049844  0.83256118  0.50423143  1
  I  I116  1  -0.00394134  0.83269477  0.82939732  1
  I  I117  1  0.33340988  0.16932676  0.16757533  1
  I  I118  1  0.33050994  0.16369694  0.49850051  1
  I  I119  1  0.33637769  0.16425141  0.83405173  1
  I  I120  1  0.33131040  0.49756969  0.17036677  1
  I  I121  1  0.33538252  0.50269865  0.49779622  1
  I  I122  1  0.33366303  0.50153053  0.83188971  1
  I  I123  1  0.33695516  0.83275025  0.17233658  1
  I  I124  1  0.33415606  0.83311658  0.49432540  1
  I  I125  1  0.33357840  0.83424469  0.83302634  1
  I  I126  1  0.66336275  0.16385228  0.16358191  1
  I  I127  1  0.66657130  0.16504046  0.50004604  1
  I  I128  1  0.66284993  0.16706789  0.83872242  1
  I  I129  1  0.66869706  0.50102246  0.16954865  1
  I  I130  1  0.66721250  0.50750628  0.49386369  1
  I  I131  1  0.66662656  0.49921023  0.83918906  1
  I  I132  1  0.66297360  0.83805592  0.17243650  1
  I  I133  1  0.66641167  0.82879030  0.50048869  1
  I  I134  1  0.66930602  0.83424046  0.82664037  1
