# generated using pymatgen
data_Cs27Sn13Pb14I81
_symmetry_space_group_name_H-M   'P 1'
_cell_length_a   18.97517209
_cell_length_b   18.97705977
_cell_length_c   18.97839829
_cell_angle_alpha   90.00179664
_cell_angle_beta   89.99935716
_cell_angle_gamma   89.99980376
_symmetry_Int_Tables_number   1
_chemical_formula_structural   Cs27Sn13Pb14I81
_chemical_formula_sum   'Cs27 Sn13 Pb14 I81'
_cell_volume   6833.98789643
_cell_formula_units_Z   1
loop_
 _symmetry_equiv_pos_site_id
 _symmetry_equiv_pos_as_xyz
  1  'x, y, z'
loop_
 _atom_site_type_symbol
 _atom_site_label
 _atom_site_symmetry_multiplicity
 _atom_site_fract_x
 _atom_site_fract_y
 _atom_site_fract_z
 _atom_site_occupancy
  Cs  Cs0  1  -0.00029410  -0.00220603  0.00045951  1
  Cs  Cs1  1  -0.00616052  -0.00806850  0.32968923  1
  Cs  Cs2  1  0.00466120  -0.00396568  0.67179121  1
  Cs  Cs3  1  0.00035596  0.33287719  -0.00086788  1
  Cs  Cs4  1  0.00175220  0.33417111  0.33320867  1
  Cs  Cs5  1  0.00162768  0.33544654  0.66755458  1
  Cs  Cs6  1  -0.00056592  0.66572192  0.00116475  1
  Cs  Cs7  1  -0.00050235  0.67074981  0.33383382  1
  Cs  Cs8  1  -0.00208483  0.66351659  0.66429291  1
  Cs  Cs9  1  0.33193140  0.00118000  -0.00057356  1
  Cs  Cs10  1  0.33504230  -0.00046366  0.33420644  1
  Cs  Cs11  1  0.33468029  -0.00679676  0.66670980  1
  Cs  Cs12  1  0.33431792  0.33323953  0.00191516  1
  Cs  Cs13  1  0.33241686  0.33355830  0.33297414  1
  Cs  Cs14  1  0.32997291  0.33293347  0.66379999  1
  Cs  Cs15  1  0.33915811  0.66744689  0.00031940  1
  Cs  Cs16  1  0.33123869  0.66532813  0.33227537  1
  Cs  Cs17  1  0.33671204  0.67233630  0.66678835  1
  Cs  Cs18  1  0.66858049  0.00231979  0.00180535  1
  Cs  Cs19  1  0.67017310  0.00144417  0.33732737  1
  Cs  Cs20  1  0.66266871  0.00144692  0.66099363  1
  Cs  Cs21  1  0.66548323  0.33348452  0.00039668  1
  Cs  Cs22  1  0.66816533  0.32998081  0.33671972  1
  Cs  Cs23  1  0.66767038  0.33186222  0.66472626  1
  Cs  Cs24  1  0.66289113  0.66421099  -0.00223636  1
  Cs  Cs25  1  0.66924783  0.66641436  0.33529292  1
  Cs  Cs26  1  0.66668078  0.66941703  0.66774474  1
  Sn  Sn27  1  0.16673261  0.49991394  0.83371829  1
  Sn  Sn28  1  0.50030231  0.16721747  0.83367283  1
  Sn  Sn29  1  0.16591274  0.49919578  0.16640793  1
  Sn  Sn30  1  0.83312980  0.83327931  0.83356260  1
  Sn  Sn31  1  0.49923982  0.49969013  0.50014761  1
  Sn  Sn32  1  0.83389844  0.49976648  0.83435786  1
  Sn  Sn33  1  0.16702465  0.16714051  0.16781972  1
  Sn  Sn34  1  0.83256072  0.16668329  0.83337822  1
  Sn  Sn35  1  0.16788926  0.49933406  0.49985866  1
  Sn  Sn36  1  0.49947633  0.16580655  0.16622282  1
  Sn  Sn37  1  0.16624929  0.16686613  0.49871811  1
  Sn  Sn38  1  0.50005733  0.83458928  0.16672088  1
  Sn  Sn39  1  0.83403626  0.49939373  0.16597698  1
  Pb  Pb40  1  0.16664755  0.83331078  0.49982966  1
  Pb  Pb41  1  0.83718837  0.16664340  0.50298757  1
  Pb  Pb42  1  0.83077739  0.83046723  0.16464700  1
  Pb  Pb43  1  0.83372857  0.16854037  0.16510828  1
  Pb  Pb44  1  0.16469760  0.82969524  0.83371804  1
  Pb  Pb45  1  0.16849748  0.83339826  0.16650409  1
  Pb  Pb46  1  0.50015406  0.49797567  0.83120150  1
  Pb  Pb47  1  0.49790747  0.16815198  0.49971960  1
  Pb  Pb48  1  0.50013701  0.49902087  0.16841551  1
  Pb  Pb49  1  0.83334562  0.83356678  0.50287317  1
  Pb  Pb50  1  0.49994117  0.83066633  0.49716398  1
  Pb  Pb51  1  0.83403286  0.49984223  0.50011830  1
  Pb  Pb52  1  0.50228408  0.83641359  0.83522870  1
  Pb  Pb53  1  0.16686980  0.16819769  0.83363354  1
  I  I54  1  0.16911462  0.00362948  0.17069882  1
  I  I55  1  0.16665914  0.00347751  0.49643249  1
  I  I56  1  0.16532865  0.00019203  0.83255215  1
  I  I57  1  0.16908870  0.33408147  0.16684093  1
  I  I58  1  0.17048918  0.33476601  0.49949515  1
  I  I59  1  0.16102826  0.33643190  0.83308775  1
  I  I60  1  0.16418512  0.66289297  0.16736021  1
  I  I61  1  0.16944540  0.66259106  0.49959672  1
  I  I62  1  0.16220012  0.66112822  0.83316134  1
  I  I63  1  0.49407006  0.00191932  0.16161744  1
  I  I64  1  0.49821695  0.00021816  0.50263455  1
  I  I65  1  0.50351196  0.00439883  0.83378230  1
  I  I66  1  0.49830143  0.33048555  0.16345293  1
  I  I67  1  0.49760989  0.33607888  0.49790240  1
  I  I68  1  0.50518397  0.33031138  0.84035823  1
  I  I69  1  0.50056096  0.66779160  0.16860924  1
  I  I70  1  0.49343942  0.66264608  0.49958080  1
  I  I71  1  0.50036288  0.66652232  0.83402435  1
  I  I72  1  0.83600606  0.00007178  0.16413745  1
  I  I73  1  0.83371079  0.00035351  0.49983390  1
  I  I74  1  0.82862017  0.00081825  0.83285016  1
  I  I75  1  0.83278267  0.33661924  0.16007963  1
  I  I76  1  0.83034514  0.33345133  0.50291385  1
  I  I77  1  0.83390226  0.33423710  0.83692387  1
  I  I78  1  0.83784075  0.66244396  0.16187233  1
  I  I79  1  0.83456318  0.66616491  0.50140061  1
  I  I80  1  0.83880558  0.66509304  0.83691644  1
  I  I81  1  0.16823743  0.17172609  0.00274074  1
  I  I82  1  0.17401788  0.17725443  0.33209539  1
  I  I83  1  0.16526757  0.17294231  0.66481713  1
  I  I84  1  0.16108484  0.49563671  0.00055845  1
  I  I85  1  0.16725705  0.49556454  0.33276488  1
  I  I86  1  0.16535332  0.49512436  0.66664891  1
  I  I87  1  0.16696714  0.83417725  0.00008411  1
  I  I88  1  0.16649142  0.82833405  0.33307064  1
  I  I89  1  0.16655785  0.83472551  0.66687907  1
  I  I90  1  0.49792912  0.16496587  0.00071142  1
  I  I91  1  0.49711767  0.16518676  0.33024998  1
  I  I92  1  0.50368128  0.17018481  0.66907294  1
  I  I93  1  0.49803516  0.50142338  0.00006916  1
  I  I94  1  0.49574947  0.49878625  0.33593543  1
  I  I95  1  0.49572731  0.49729126  0.66371210  1
  I  I96  1  0.49972562  0.83181375  0.00295940  1
  I  I97  1  0.50004739  0.83998011  0.32947438  1
  I  I98  1  0.50120765  0.83365718  0.66680318  1
  I  I99  1  0.83415163  0.16673438  -0.00328642  1
  I  I100  1  0.83006534  0.16960856  0.33319494  1
  I  I101  1  0.82785391  0.17076511  0.67149406  1
  I  I102  1  0.84068223  0.49970769  -0.00105644  1
  I  I103  1  0.83544253  0.49966254  0.33048576  1
  I  I104  1  0.83667921  0.50011038  0.67015832  1
  I  I105  1  0.83344870  0.83473436  -0.00322351  1
  I  I106  1  0.83273611  0.83085226  0.33278332  1
  I  I107  1  0.83319157  0.82877980  0.67132616  1
  I  I108  1  0.00311705  0.17094569  0.16849747  1
  I  I109  1  0.00490814  0.17652055  0.49535891  1
  I  I110  1  -0.00251084  0.16643768  0.83275000  1
  I  I111  1  0.00129722  0.49478782  0.16681306  1
  I  I112  1  0.00352324  0.49590530  0.50113319  1
  I  I113  1  -0.00035032  0.49752696  0.83208817  1
  I  I114  1  -0.00036303  0.83506928  0.16593960  1
  I  I115  1  0.00008472  0.83093570  0.49928447  1
  I  I116  1  -0.00348214  0.83963762  0.83455351  1
  I  I117  1  0.33311946  0.16962072  0.16371871  1
  I  I118  1  0.33006668  0.17151195  0.50100061  1
  I  I119  1  0.33550834  0.17023429  0.83519484  1
  I  I120  1  0.33035626  0.49910015  0.16454233  1
  I  I121  1  0.33142431  0.49575281  0.49917427  1
  I  I122  1  0.33057053  0.49627410  0.83624925  1
  I  I123  1  0.33634459  0.83170757  0.16551234  1
  I  I124  1  0.33341795  0.83361403  0.50214891  1
  I  I125  1  0.33371169  0.83320971  0.83322706  1
  I  I126  1  0.66411299  0.16575272  0.16323540  1
  I  I127  1  0.66664610  0.16873541  0.49860812  1
  I  I128  1  0.66687194  0.16961840  0.83953799  1
  I  I129  1  0.66896267  0.50081261  0.16232766  1
  I  I130  1  0.66451434  0.50043419  0.49923501  1
  I  I131  1  0.66980260  0.50119434  0.83695090  1
  I  I132  1  0.66327073  0.83794725  0.16547425  1
  I  I133  1  0.66640950  0.83029532  0.49968460  1
  I  I134  1  0.67004618  0.82551921  0.83509618  1
