# generated using pymatgen
data_Cs27Sn13Pb14I81
_symmetry_space_group_name_H-M   'P 1'
_cell_length_a   18.98099434
_cell_length_b   18.97180781
_cell_length_c   18.98170344
_cell_angle_alpha   90.00234072
_cell_angle_beta   90.00054204
_cell_angle_gamma   89.99990786
_symmetry_Int_Tables_number   1
_chemical_formula_structural   Cs27Sn13Pb14I81
_chemical_formula_sum   'Cs27 Sn13 Pb14 I81'
_cell_volume   6835.38308847
_cell_formula_units_Z   1
loop_
 _symmetry_equiv_pos_site_id
 _symmetry_equiv_pos_as_xyz
  1  'x, y, z'
loop_
 _atom_site_type_symbol
 _atom_site_label
 _atom_site_symmetry_multiplicity
 _atom_site_fract_x
 _atom_site_fract_y
 _atom_site_fract_z
 _atom_site_occupancy
  Cs  Cs0  1  0.00098870  -0.00236320  0.00246106  1
  Cs  Cs1  1  0.00069249  -0.00016119  0.33272394  1
  Cs  Cs2  1  0.00140899  -0.00051085  0.66314153  1
  Cs  Cs3  1  -0.00059987  0.33488337  -0.00267694  1
  Cs  Cs4  1  -0.00097845  0.33242535  0.33551213  1
  Cs  Cs5  1  0.00054733  0.33347769  0.66731265  1
  Cs  Cs6  1  0.00034794  0.66861364  0.00225688  1
  Cs  Cs7  1  -0.00044387  0.66761453  0.33283574  1
  Cs  Cs8  1  0.00084065  0.66680822  0.66412703  1
  Cs  Cs9  1  0.33299465  0.00009971  0.00000540  1
  Cs  Cs10  1  0.33356212  -0.00037947  0.33128568  1
  Cs  Cs11  1  0.33392060  -0.00104553  0.66899596  1
  Cs  Cs12  1  0.33206831  0.33481212  -0.00280960  1
  Cs  Cs13  1  0.33635652  0.33474036  0.33340392  1
  Cs  Cs14  1  0.32879510  0.33292419  0.66933523  1
  Cs  Cs15  1  0.32977289  0.66599253  0.00270094  1
  Cs  Cs16  1  0.33202049  0.66647771  0.33329135  1
  Cs  Cs17  1  0.33403708  0.66734835  0.66318912  1
  Cs  Cs18  1  0.66525117  -0.00038129  -0.00220171  1
  Cs  Cs19  1  0.66580192  0.00312688  0.33341986  1
  Cs  Cs20  1  0.66425317  -0.00545788  0.66887239  1
  Cs  Cs21  1  0.66664605  0.33373990  -0.00134058  1
  Cs  Cs22  1  0.66597541  0.33224806  0.33573905  1
  Cs  Cs23  1  0.66778771  0.33448040  0.66517580  1
  Cs  Cs24  1  0.67020072  0.66492138  -0.00023511  1
  Cs  Cs25  1  0.66864538  0.66514957  0.33299829  1
  Cs  Cs26  1  0.66537213  0.66725097  0.66701105  1
  Sn  Sn27  1  0.49980626  0.83388518  0.16661088  1
  Sn  Sn28  1  0.16672565  0.83346307  0.83367634  1
  Sn  Sn29  1  0.16771245  0.83440939  0.16586149  1
  Sn  Sn30  1  0.50051263  0.49975919  0.83264198  1
  Sn  Sn31  1  0.83235515  0.49911436  0.50093476  1
  Sn  Sn32  1  0.50078483  0.49885668  0.50105996  1
  Sn  Sn33  1  0.50059025  0.16727522  0.49994484  1
  Sn  Sn34  1  0.16694796  0.16662408  0.16661380  1
  Sn  Sn35  1  0.83313902  0.16677672  0.16647275  1
  Sn  Sn36  1  0.83303201  0.16680308  0.83298618  1
  Sn  Sn37  1  0.83239672  0.49928115  0.83251158  1
  Sn  Sn38  1  0.49987388  0.16614303  0.16689262  1
  Sn  Sn39  1  0.83226021  0.16709487  0.50050953  1
  Pb  Pb40  1  0.16662842  0.49965616  0.50005176  1
  Pb  Pb41  1  0.50014238  0.83342805  0.49759366  1
  Pb  Pb42  1  0.83333703  0.49736570  0.16691637  1
  Pb  Pb43  1  0.16396236  0.16483326  0.83561429  1
  Pb  Pb44  1  0.50007088  0.49969836  0.16692783  1
  Pb  Pb45  1  0.16653983  0.49990929  0.16678403  1
  Pb  Pb46  1  0.83302471  0.83591090  0.16674687  1
  Pb  Pb47  1  0.83528329  0.83289126  0.83324230  1
  Pb  Pb48  1  0.16609948  0.50226874  0.83323230  1
  Pb  Pb49  1  0.83300371  0.83341693  0.50007564  1
  Pb  Pb50  1  0.16708584  0.16672647  0.49778959  1
  Pb  Pb51  1  0.49820453  0.83036708  0.83593013  1
  Pb  Pb52  1  0.50174260  0.16825545  0.83312068  1
  Pb  Pb53  1  0.16685381  0.83354730  0.49917962  1
  I  I54  1  0.16683120  0.00058072  0.16286846  1
  I  I55  1  0.16509181  0.00032562  0.50225524  1
  I  I56  1  0.16582055  -0.00291429  0.83618615  1
  I  I57  1  0.16727516  0.32946683  0.16802682  1
  I  I58  1  0.16665259  0.33300480  0.49733591  1
  I  I59  1  0.16768122  0.33327497  0.83530949  1
  I  I60  1  0.17210024  0.67039679  0.16305350  1
  I  I61  1  0.16593240  0.66660652  0.49694983  1
  I  I62  1  0.16515032  0.66990297  0.84267221  1
  I  I63  1  0.49947404  0.00180073  0.17183839  1
  I  I64  1  0.50461303  0.00355242  0.49678972  1
  I  I65  1  0.50093928  0.00001881  0.83109044  1
  I  I66  1  0.50001184  0.32978538  0.16816199  1
  I  I67  1  0.50450137  0.33273085  0.49587031  1
  I  I68  1  0.50113536  0.33629575  0.83547283  1
  I  I69  1  0.49295400  0.66921802  0.16627369  1
  I  I70  1  0.50418985  0.66323246  0.50257561  1
  I  I71  1  0.50666522  0.66251928  0.82843457  1
  I  I72  1  0.83378294  0.00462662  0.16710209  1
  I  I73  1  0.83000543  0.00426396  0.49958008  1
  I  I74  1  0.83482825  0.00328482  0.83380991  1
  I  I75  1  0.83264995  0.32877861  0.16659491  1
  I  I76  1  0.82940488  0.33241257  0.49944843  1
  I  I77  1  0.83065222  0.33311757  0.83404237  1
  I  I78  1  0.83441816  0.66660412  0.16662994  1
  I  I79  1  0.82952557  0.66276855  0.50519190  1
  I  I80  1  0.83057705  0.66297022  0.82834607  1
  I  I81  1  0.16795117  0.16490592  0.00398148  1
  I  I82  1  0.16216655  0.15954727  0.32934361  1
  I  I83  1  0.16649539  0.16460523  0.66687575  1
  I  I84  1  0.16717337  0.49800725  -0.00014445  1
  I  I85  1  0.16630864  0.50323505  0.33338764  1
  I  I86  1  0.16714702  0.50310609  0.66681624  1
  I  I87  1  0.16999900  0.83725940  0.00159097  1
  I  I88  1  0.17022608  0.83766691  0.32921959  1
  I  I89  1  0.16424974  0.83120056  0.66939374  1
  I  I90  1  0.50098082  0.16440952  0.00289925  1
  I  I91  1  0.50406322  0.16832968  0.33286480  1
  I  I92  1  0.50486537  0.16894525  0.66366916  1
  I  I93  1  0.50419953  0.50015346  -0.00252745  1
  I  I94  1  0.50468839  0.49884525  0.33643805  1
  I  I95  1  0.50397737  0.49522580  0.66589500  1
  I  I96  1  0.49840937  0.83968685  0.00375763  1
  I  I97  1  0.49270198  0.83347790  0.32956160  1
  I  I98  1  0.49767508  0.83585814  0.66681545  1
  I  I99  1  0.83385562  0.17012833  0.00025390  1
  I  I100  1  0.83321060  0.16985624  0.33346604  1
  I  I101  1  0.82936921  0.17103031  0.66607177  1
  I  I102  1  0.82947869  0.49609633  -0.00309662  1
  I  I103  1  0.82876267  0.49664527  0.33679617  1
  I  I104  1  0.82967980  0.49130161  0.66663671  1
  I  I105  1  0.83186185  0.83290131  0.00009893  1
  I  I106  1  0.83676966  0.83149202  0.33318016  1
  I  I107  1  0.83705587  0.83896899  0.66680263  1
  I  I108  1  -0.00040836  0.16307045  0.16661329  1
  I  I109  1  -0.00354212  0.17080122  0.49918367  1
  I  I110  1  -0.00439132  0.17313444  0.83249365  1
  I  I111  1  -0.00027627  0.50041253  0.16658357  1
  I  I112  1  -0.00393350  0.49536292  0.50393969  1
  I  I113  1  -0.00365903  0.49620962  0.82938586  1
  I  I114  1  0.00306952  0.83715114  0.16282485  1
  I  I115  1  -0.00006162  0.83271448  0.49738912  1
  I  I116  1  0.00299375  0.83236484  0.84241593  1
  I  I117  1  0.33422871  0.16224763  0.17180804  1
  I  I118  1  0.33706601  0.17077629  0.49463739  1
  I  I119  1  0.33335182  0.16810805  0.83347621  1
  I  I120  1  0.33363938  0.49567513  0.16648192  1
  I  I121  1  0.33722305  0.49598488  0.50321674  1
  I  I122  1  0.33616805  0.50096218  0.82981499  1
  I  I123  1  0.33313324  0.84176256  0.16326036  1
  I  I124  1  0.33364678  0.83245455  0.50172448  1
  I  I125  1  0.33042040  0.83281218  0.83628151  1
  I  I126  1  0.66635632  0.16311880  0.16813012  1
  I  I127  1  0.66696101  0.17114847  0.49301980  1
  I  I128  1  0.67003098  0.16771380  0.83900753  1
  I  I129  1  0.66660687  0.50262435  0.16504838  1
  I  I130  1  0.66674281  0.49515316  0.50373999  1
  I  I131  1  0.66744010  0.49666902  0.83023017  1
  I  I132  1  0.66364936  0.83718489  0.16819764  1
  I  I133  1  0.66641606  0.83375472  0.49768580  1
  I  I134  1  0.66656081  0.83451960  0.83499785  1
