# generated using pymatgen
data_Cs27Sn13Pb14I81
_symmetry_space_group_name_H-M   'P 1'
_cell_length_a   18.97622450
_cell_length_b   18.97230126
_cell_length_c   18.97995219
_cell_angle_alpha   90.00208458
_cell_angle_beta   90.00079615
_cell_angle_gamma   90.00107202
_symmetry_Int_Tables_number   1
_chemical_formula_structural   Cs27Sn13Pb14I81
_chemical_formula_sum   'Cs27 Sn13 Pb14 I81'
_cell_volume   6833.21263728
_cell_formula_units_Z   1
loop_
 _symmetry_equiv_pos_site_id
 _symmetry_equiv_pos_as_xyz
  1  'x, y, z'
loop_
 _atom_site_type_symbol
 _atom_site_label
 _atom_site_symmetry_multiplicity
 _atom_site_fract_x
 _atom_site_fract_y
 _atom_site_fract_z
 _atom_site_occupancy
  Cs  Cs0  1  0.01027310  -0.00048554  0.00331649  1
  Cs  Cs1  1  0.00151337  -0.00007914  0.33290304  1
  Cs  Cs2  1  -0.00023190  -0.00322983  0.66565344  1
  Cs  Cs3  1  -0.00086070  0.33224613  0.00207925  1
  Cs  Cs4  1  -0.00186540  0.33453544  0.33136335  1
  Cs  Cs5  1  0.00015388  0.33434674  0.66677943  1
  Cs  Cs6  1  0.00031909  0.66757141  0.00185745  1
  Cs  Cs7  1  -0.00215161  0.66473814  0.33290349  1
  Cs  Cs8  1  -0.00189952  0.66806527  0.66868014  1
  Cs  Cs9  1  0.32534769  -0.00642688  0.00120136  1
  Cs  Cs10  1  0.33289768  -0.00087748  0.33457732  1
  Cs  Cs11  1  0.33382410  0.00234644  0.66318390  1
  Cs  Cs12  1  0.33181213  0.33379150  -0.00529891  1
  Cs  Cs13  1  0.33673968  0.33595102  0.33710945  1
  Cs  Cs14  1  0.33087754  0.33748155  0.66680237  1
  Cs  Cs15  1  0.34023721  0.67426921  -0.00345533  1
  Cs  Cs16  1  0.33508484  0.66541609  0.33188483  1
  Cs  Cs17  1  0.33250830  0.65712855  0.67116902  1
  Cs  Cs18  1  0.66556953  0.00138276  -0.00139065  1
  Cs  Cs19  1  0.66625154  0.00275904  0.33591380  1
  Cs  Cs20  1  0.66653159  0.00030344  0.66504637  1
  Cs  Cs21  1  0.66933639  0.33259727  -0.00012262  1
  Cs  Cs22  1  0.66744532  0.33214742  0.33273036  1
  Cs  Cs23  1  0.66739708  0.33113205  0.66701306  1
  Cs  Cs24  1  0.66117660  0.66867903  0.00026532  1
  Cs  Cs25  1  0.66753794  0.66549078  0.33138196  1
  Cs  Cs26  1  0.66937404  0.67043428  0.67059890  1
  Sn  Sn27  1  0.16644379  0.16636913  0.49979962  1
  Sn  Sn28  1  0.16687541  0.50004867  0.16642790  1
  Sn  Sn29  1  0.16791156  0.83318083  0.49998573  1
  Sn  Sn30  1  0.49949922  0.16671402  0.16622597  1
  Sn  Sn31  1  0.83375482  0.16742642  0.50066951  1
  Sn  Sn32  1  0.50034970  0.16643957  0.83337825  1
  Sn  Sn33  1  0.83311813  0.16691112  0.83271666  1
  Sn  Sn34  1  0.83328199  0.49931329  0.83355102  1
  Sn  Sn35  1  0.49892930  0.83338742  0.50005215  1
  Sn  Sn36  1  0.83313311  0.83328951  0.16672556  1
  Sn  Sn37  1  0.49983632  0.16622270  0.50021007  1
  Sn  Sn38  1  0.83307397  0.49935100  0.50029876  1
  Sn  Sn39  1  0.83385019  0.50096157  0.16633051  1
  Pb  Pb40  1  0.50002606  0.83634534  0.83028089  1
  Pb  Pb41  1  0.16627897  0.16663536  0.83082998  1
  Pb  Pb42  1  0.16973828  0.16888955  0.16929300  1
  Pb  Pb43  1  0.83234928  0.16669824  0.16632813  1
  Pb  Pb44  1  0.83344394  0.83442894  0.83637598  1
  Pb  Pb45  1  0.50199149  0.83585397  0.16889932  1
  Pb  Pb46  1  0.16431060  0.50019193  0.49859345  1
  Pb  Pb47  1  0.16403616  0.49998801  0.83646739  1
  Pb  Pb48  1  0.50278859  0.50009977  0.50014546  1
  Pb  Pb49  1  0.16674068  0.83320909  0.83012892  1
  Pb  Pb50  1  0.50016184  0.49797157  0.16651178  1
  Pb  Pb51  1  0.50256225  0.49759786  0.83333792  1
  Pb  Pb52  1  0.83322158  0.83373092  0.49861746  1
  Pb  Pb53  1  0.16503769  0.83086520  0.16913030  1
  I  I54  1  0.16484088  0.00000867  0.16606574  1
  I  I55  1  0.16491227  0.00128210  0.49926657  1
  I  I56  1  0.16296690  0.00035818  0.83699977  1
  I  I57  1  0.15708093  0.33616815  0.16943768  1
  I  I58  1  0.16904890  0.33047823  0.49880376  1
  I  I59  1  0.16899655  0.33320452  0.83050269  1
  I  I60  1  0.16212971  0.66327023  0.17082011  1
  I  I61  1  0.16936032  0.66918646  0.49733685  1
  I  I62  1  0.16368657  0.66638247  0.82965168  1
  I  I63  1  0.50375202  0.00390219  0.16657492  1
  I  I64  1  0.50227893  0.00219747  0.49975042  1
  I  I65  1  0.50915024  0.00467628  0.83394348  1
  I  I66  1  0.50373014  0.32967056  0.17167685  1
  I  I67  1  0.49821042  0.32950436  0.49976281  1
  I  I68  1  0.50199625  0.32904702  0.82938181  1
  I  I69  1  0.49980525  0.66685483  0.16955533  1
  I  I70  1  0.49706240  0.66957577  0.49761077  1
  I  I71  1  0.50133222  0.66686049  0.83218246  1
  I  I72  1  0.82994303  -0.00175200  0.16934217  1
  I  I73  1  0.83247444  0.00330623  0.50224681  1
  I  I74  1  0.82813287  0.00390561  0.82759243  1
  I  I75  1  0.83510835  0.33596731  0.16763333  1
  I  I76  1  0.83308404  0.33215253  0.49790155  1
  I  I77  1  0.82927993  0.33285422  0.83386378  1
  I  I78  1  0.83690703  0.66496639  0.16922455  1
  I  I79  1  0.83373862  0.66415919  0.50096731  1
  I  I80  1  0.83516246  0.66368338  0.82922931  1
  I  I81  1  0.16618676  0.16790469  0.00022669  1
  I  I82  1  0.16435878  0.16361482  0.33752563  1
  I  I83  1  0.16978509  0.16436595  0.66230331  1
  I  I84  1  0.15937024  0.49749402  0.00413493  1
  I  I85  1  0.15836432  0.49891807  0.33101219  1
  I  I86  1  0.16556767  0.50003850  0.66656506  1
  I  I87  1  0.16465408  0.83318711  0.00052425  1
  I  I88  1  0.16922432  0.83849696  0.33691849  1
  I  I89  1  0.16731368  0.83823568  0.66163932  1
  I  I90  1  0.50876732  0.17021960  -0.00061712  1
  I  I91  1  0.50162890  0.16386328  0.33504626  1
  I  I92  1  0.50254326  0.16242557  0.66548199  1
  I  I93  1  0.50242555  0.49693884  0.00000019  1
  I  I94  1  0.50400460  0.49584998  0.33347627  1
  I  I95  1  0.50030473  0.49850485  0.66650839  1
  I  I96  1  0.50186483  0.83460305  0.00004793  1
  I  I97  1  0.49797068  0.84063533  0.33683888  1
  I  I98  1  0.49971366  0.83991476  0.66214585  1
  I  I99  1  0.82656030  0.17034102  -0.00261474  1
  I  I100  1  0.83160660  0.16929989  0.33624790  1
  I  I101  1  0.82877634  0.17388123  0.66540947  1
  I  I102  1  0.83732886  0.49793758  0.00019355  1
  I  I103  1  0.83662852  0.49926524  0.33336699  1
  I  I104  1  0.83215967  0.49440135  0.66625305  1
  I  I105  1  0.83262092  0.82922348  0.00399887  1
  I  I106  1  0.83315017  0.82910794  0.33106048  1
  I  I107  1  0.83347616  0.83035302  0.66649260  1
  I  I108  1  0.00014313  0.16501358  0.16733664  1
  I  I109  1  -0.00108014  0.16654884  0.50380981  1
  I  I110  1  -0.00363301  0.17112310  0.82886024  1
  I  I111  1  -0.00235384  0.50221067  0.16801497  1
  I  I112  1  -0.00397129  0.49598472  0.50067072  1
  I  I113  1  -0.00462480  0.49258390  0.83021252  1
  I  I114  1  -0.00302522  0.83330888  0.16964480  1
  I  I115  1  0.00192130  0.83719403  0.49762180  1
  I  I116  1  -0.00038924  0.83582768  0.83050909  1
  I  I117  1  0.33756685  0.16824932  0.16714283  1
  I  I118  1  0.33412101  0.16156446  0.49885257  1
  I  I119  1  0.33639903  0.16586964  0.83206117  1
  I  I120  1  0.33083609  0.49615571  0.17094898  1
  I  I121  1  0.33323201  0.49726298  0.49670342  1
  I  I122  1  0.33334667  0.49850242  0.83414915  1
  I  I123  1  0.33339528  0.83223582  0.16648690  1
  I  I124  1  0.33360842  0.84424262  0.49842063  1
  I  I125  1  0.33358865  0.83511834  0.83746697  1
  I  I126  1  0.66449893  0.16825350  0.17231547  1
  I  I127  1  0.66667700  0.16643809  0.50004062  1
  I  I128  1  0.66732950  0.17071409  0.82825065  1
  I  I129  1  0.67040105  0.50209695  0.16752035  1
  I  I130  1  0.67119116  0.49545043  0.49637055  1
  I  I131  1  0.67113927  0.49784406  0.83521385  1
  I  I132  1  0.66976780  0.82621504  0.16972388  1
  I  I133  1  0.66455904  0.83793086  0.49815152  1
  I  I134  1  0.66688321  0.83133194  0.83053001  1
