# generated using pymatgen
data_Cs27Sn14Pb13I81
_symmetry_space_group_name_H-M   'P 1'
_cell_length_a   18.97117266
_cell_length_b   18.97424042
_cell_length_c   18.98197600
_cell_angle_alpha   90.00142151
_cell_angle_beta   90.00071507
_cell_angle_gamma   90.00118507
_symmetry_Int_Tables_number   1
_chemical_formula_structural   Cs27Sn14Pb13I81
_chemical_formula_sum   'Cs27 Sn14 Pb13 I81'
_cell_volume   6832.82024617
_cell_formula_units_Z   1
loop_
 _symmetry_equiv_pos_site_id
 _symmetry_equiv_pos_as_xyz
  1  'x, y, z'
loop_
 _atom_site_type_symbol
 _atom_site_label
 _atom_site_symmetry_multiplicity
 _atom_site_fract_x
 _atom_site_fract_y
 _atom_site_fract_z
 _atom_site_occupancy
  Cs  Cs0  1  0.00214389  -0.00105077  -0.00039607  1
  Cs  Cs1  1  -0.00080399  0.00028283  0.33317343  1
  Cs  Cs2  1  -0.00051333  0.00169576  0.66633974  1
  Cs  Cs3  1  -0.00924919  0.33373551  0.00105096  1
  Cs  Cs4  1  -0.00500627  0.34135577  0.33140922  1
  Cs  Cs5  1  -0.01067605  0.33135357  0.66902639  1
  Cs  Cs6  1  0.00116677  0.66866723  0.00094546  1
  Cs  Cs7  1  0.00376684  0.65855573  0.33965239  1
  Cs  Cs8  1  0.00065665  0.66618910  0.65998818  1
  Cs  Cs9  1  0.33131810  0.00037841  0.00054839  1
  Cs  Cs10  1  0.33354015  0.00109524  0.33222032  1
  Cs  Cs11  1  0.33211304  0.00293489  0.66712800  1
  Cs  Cs12  1  0.33350763  0.33287581  0.00001145  1
  Cs  Cs13  1  0.33346306  0.33251022  0.33315310  1
  Cs  Cs14  1  0.33525626  0.33127127  0.66709339  1
  Cs  Cs15  1  0.33340743  0.66697460  -0.00054773  1
  Cs  Cs16  1  0.33125174  0.66683710  0.33584624  1
  Cs  Cs17  1  0.33225238  0.66569225  0.66817434  1
  Cs  Cs18  1  0.66700053  -0.00365322  0.00196145  1
  Cs  Cs19  1  0.66746637  -0.00160805  0.33459610  1
  Cs  Cs20  1  0.66728008  -0.00087774  0.66336170  1
  Cs  Cs21  1  0.66852534  0.33428437  0.00109665  1
  Cs  Cs22  1  0.66843918  0.33062121  0.33214276  1
  Cs  Cs23  1  0.66592034  0.33475479  0.66656477  1
  Cs  Cs24  1  0.66610965  0.66913348  -0.00142148  1
  Cs  Cs25  1  0.66380738  0.67229855  0.33666285  1
  Cs  Cs26  1  0.66777252  0.66600599  0.66820849  1
  Sn  Sn27  1  0.49906274  0.49983006  0.83363256  1
  Sn  Sn28  1  0.83388197  0.83326593  0.83398798  1
  Sn  Sn29  1  0.49985013  0.16669680  0.83373555  1
  Sn  Sn30  1  0.16577261  0.83368280  0.16629803  1
  Sn  Sn31  1  0.49912101  0.16755627  0.49971771  1
  Sn  Sn32  1  0.16710968  0.16714595  0.49877843  1
  Sn  Sn33  1  0.49941893  0.49919084  0.49993757  1
  Sn  Sn34  1  0.16710501  0.16654663  0.16750165  1
  Sn  Sn35  1  0.83506436  0.83306927  0.16628501  1
  Sn  Sn36  1  0.16653081  0.83246270  0.83389300  1
  Sn  Sn37  1  0.16718632  0.50007130  0.83357360  1
  Sn  Sn38  1  0.49919615  0.16734234  0.16649937  1
  Sn  Sn39  1  0.49968955  0.83350953  0.83331319  1
  Sn  Sn40  1  0.49963689  0.49944090  0.16662540  1
  Pb  Pb41  1  0.83332084  0.16670808  0.49964723  1
  Pb  Pb42  1  0.83004844  0.50350636  0.16656420  1
  Pb  Pb43  1  0.83370731  0.83332526  0.49965187  1
  Pb  Pb44  1  0.49918387  0.83350044  0.16499375  1
  Pb  Pb45  1  0.82981355  0.16377596  0.83357795  1
  Pb  Pb46  1  0.82998051  0.49993720  0.49997548  1
  Pb  Pb47  1  0.16686653  0.83556993  0.49989679  1
  Pb  Pb48  1  0.83332883  0.50266839  0.83351344  1
  Pb  Pb49  1  0.16853197  0.49965369  0.16464274  1
  Pb  Pb50  1  0.49963086  0.83370594  0.50311353  1
  Pb  Pb51  1  0.83355005  0.16454318  0.16666755  1
  Pb  Pb52  1  0.16792672  0.16715341  0.83386382  1
  Pb  Pb53  1  0.16879467  0.49662157  0.50311024  1
  I  I54  1  0.16968100  -0.00009070  0.16394829  1
  I  I55  1  0.17495071  0.00342845  0.50162077  1
  I  I56  1  0.16817033  -0.00272068  0.83402531  1
  I  I57  1  0.17171139  0.33031597  0.16891930  1
  I  I58  1  0.17142718  0.32901889  0.49436599  1
  I  I59  1  0.17518595  0.33573212  0.83259492  1
  I  I60  1  0.16501136  0.66941181  0.16255813  1
  I  I61  1  0.16758699  0.66614961  0.49814305  1
  I  I62  1  0.17280962  0.66803036  0.83905398  1
  I  I63  1  0.49976287  0.00281001  0.16647918  1
  I  I64  1  0.49754216  0.00361633  0.49982827  1
  I  I65  1  0.49994163  -0.00003039  0.83372472  1
  I  I66  1  0.49459500  0.33226573  0.16225639  1
  I  I67  1  0.49612679  0.33255101  0.50511487  1
  I  I68  1  0.49421941  0.33368844  0.83288526  1
  I  I69  1  0.50103653  0.66431785  0.16557214  1
  I  I70  1  0.50167670  0.66367859  0.49943664  1
  I  I71  1  0.50018023  0.66654778  0.83390547  1
  I  I72  1  0.83097388  -0.00340857  0.16117534  1
  I  I73  1  0.82849090  0.00000614  0.50151966  1
  I  I74  1  0.83452399  -0.00437601  0.83733041  1
  I  I75  1  0.83528256  0.33352336  0.16773566  1
  I  I76  1  0.83538523  0.33324822  0.50078824  1
  I  I77  1  0.83419972  0.33342190  0.83187940  1
  I  I78  1  0.83733384  0.67129918  0.15991410  1
  I  I79  1  0.83094575  0.66671102  0.50042657  1
  I  I80  1  0.82666395  0.67066181  0.83808171  1
  I  I81  1  0.17284232  0.16371599  0.00270001  1
  I  I82  1  0.17706952  0.15896866  0.33215445  1
  I  I83  1  0.17304446  0.16588392  0.66497970  1
  I  I84  1  0.17508785  0.50051313  -0.00322369  1
  I  I85  1  0.16845324  0.50383954  0.33343276  1
  I  I86  1  0.17422696  0.50738488  0.67078698  1
  I  I87  1  0.16701958  0.83625070  -0.00068163  1
  I  I88  1  0.16263338  0.83582975  0.32987251  1
  I  I89  1  0.16733712  0.83094689  0.67025611  1
  I  I90  1  0.49608732  0.16846122  0.00017122  1
  I  I91  1  0.49639341  0.17337969  0.33294179  1
  I  I92  1  0.49621692  0.16797374  0.66680225  1
  I  I93  1  0.49687875  0.49771810  -0.00092869  1
  I  I94  1  0.50121237  0.49303627  0.33316582  1
  I  I95  1  0.49680203  0.49767547  0.66768280  1
  I  I96  1  0.50016436  0.83330246  -0.00339549  1
  I  I97  1  0.50170936  0.83233018  0.33326535  1
  I  I98  1  0.50026155  0.83367033  0.67172233  1
  I  I99  1  0.83300603  0.16846296  0.00001023  1
  I  I100  1  0.82719296  0.16159039  0.33307315  1
  I  I101  1  0.83445087  0.16337095  0.66679606  1
  I  I102  1  0.82950783  0.49715021  -0.00004522  1
  I  I103  1  0.83341063  0.50325208  0.33312015  1
  I  I104  1  0.83153957  0.50265777  0.66701258  1
  I  I105  1  0.83245478  0.83404113  -0.00090608  1
  I  I106  1  0.83555470  0.83483332  0.32983204  1
  I  I107  1  0.83180747  0.83335089  0.67016467  1
  I  I108  1  0.00358855  0.16345019  0.17054091  1
  I  I109  1  0.00340095  0.16334024  0.49659927  1
  I  I110  1  0.00001277  0.16749697  0.83223181  1
  I  I111  1  0.00014406  0.49671002  0.16399355  1
  I  I112  1  0.00051478  0.49922197  0.50194171  1
  I  I113  1  0.00316134  0.50367806  0.83397646  1
  I  I114  1  0.00138191  0.84080721  0.15614145  1
  I  I115  1  0.00035439  0.83669153  0.50577310  1
  I  I116  1  0.00118731  0.82914804  0.83820845  1
  I  I117  1  0.33440804  0.16327140  0.16693783  1
  I  I118  1  0.33505265  0.16904628  0.49981395  1
  I  I119  1  0.33672018  0.16217479  0.83320335  1
  I  I120  1  0.33705225  0.50120923  0.16684115  1
  I  I121  1  0.33715011  0.49871960  0.49902813  1
  I  I122  1  0.33544481  0.50588767  0.83352266  1
  I  I123  1  0.33056714  0.83509935  0.16155361  1
  I  I124  1  0.33344851  0.83173586  0.49944957  1
  I  I125  1  0.33337051  0.83243147  0.83718731  1
  I  I126  1  0.66295909  0.16908230  0.16680249  1
  I  I127  1  0.66250676  0.17018243  0.50040478  1
  I  I128  1  0.66095056  0.16847312  0.83283358  1
  I  I129  1  0.66152131  0.49432914  0.16328245  1
  I  I130  1  0.66125593  0.49370376  0.50396259  1
  I  I131  1  0.66269467  0.50031850  0.83239278  1
  I  I132  1  0.66803760  0.83249755  0.16141491  1
  I  I133  1  0.66631851  0.83498248  0.49955089  1
  I  I134  1  0.66578742  0.83411740  0.83737716  1
