# generated using pymatgen
data_Cs27Sn14Pb13I81
_symmetry_space_group_name_H-M   'P 1'
_cell_length_a   18.97780040
_cell_length_b   18.98091975
_cell_length_c   18.97149166
_cell_angle_alpha   89.99963581
_cell_angle_beta   89.99965984
_cell_angle_gamma   90.00033663
_symmetry_Int_Tables_number   1
_chemical_formula_structural   Cs27Sn14Pb13I81
_chemical_formula_sum   'Cs27 Sn14 Pb13 I81'
_cell_volume   6833.83685802
_cell_formula_units_Z   1
loop_
 _symmetry_equiv_pos_site_id
 _symmetry_equiv_pos_as_xyz
  1  'x, y, z'
loop_
 _atom_site_type_symbol
 _atom_site_label
 _atom_site_symmetry_multiplicity
 _atom_site_fract_x
 _atom_site_fract_y
 _atom_site_fract_z
 _atom_site_occupancy
  Cs  Cs0  1  -0.00130330  -0.00077797  0.00786444  1
  Cs  Cs1  1  -0.00290313  0.00037849  0.32579121  1
  Cs  Cs2  1  0.00408080  -0.00113881  0.66666744  1
  Cs  Cs3  1  -0.00011941  0.33123187  0.00150338  1
  Cs  Cs4  1  -0.00344515  0.33204680  0.33253308  1
  Cs  Cs5  1  -0.00239916  0.33398872  0.66672723  1
  Cs  Cs6  1  0.00043556  0.66789341  0.00349823  1
  Cs  Cs7  1  -0.00149095  0.66618454  0.32938196  1
  Cs  Cs8  1  0.00159152  0.66637852  0.66683342  1
  Cs  Cs9  1  0.33319169  0.00227096  -0.00056093  1
  Cs  Cs10  1  0.33354311  0.00012270  0.33748930  1
  Cs  Cs11  1  0.33191532  -0.00111760  0.66528806  1
  Cs  Cs12  1  0.34113612  0.33413799  0.00771922  1
  Cs  Cs13  1  0.33378216  0.33455100  0.33050004  1
  Cs  Cs14  1  0.33070503  0.33206952  0.66548449  1
  Cs  Cs15  1  0.33343444  0.66394768  0.00105244  1
  Cs  Cs16  1  0.33398256  0.66553909  0.33531194  1
  Cs  Cs17  1  0.33203684  0.66826161  0.66538108  1
  Cs  Cs18  1  0.66786264  0.00544507  0.00155735  1
  Cs  Cs19  1  0.66824420  -0.00035250  0.33253480  1
  Cs  Cs20  1  0.66567031  -0.00182918  0.66674511  1
  Cs  Cs21  1  0.65926121  0.32975783  -0.00764063  1
  Cs  Cs22  1  0.67074591  0.33167776  0.33372425  1
  Cs  Cs23  1  0.67576775  0.33381131  0.67341765  1
  Cs  Cs24  1  0.66633822  0.66471723  -0.00016535  1
  Cs  Cs25  1  0.66680035  0.66735160  0.33385812  1
  Cs  Cs26  1  0.66751223  0.66730590  0.66685837  1
  Sn  Sn27  1  0.16655677  0.83333253  0.83274707  1
  Sn  Sn28  1  0.16700019  0.16668702  0.83266996  1
  Sn  Sn29  1  0.16742692  0.16657277  0.50057616  1
  Sn  Sn30  1  0.83272813  0.49993330  0.16621498  1
  Sn  Sn31  1  0.16732782  0.50006771  0.50070201  1
  Sn  Sn32  1  0.83382049  0.83327027  0.50066412  1
  Sn  Sn33  1  0.83374203  0.83330422  0.83260171  1
  Sn  Sn34  1  0.16707220  0.49987402  0.83282841  1
  Sn  Sn35  1  0.50014823  0.83321926  0.50029266  1
  Sn  Sn36  1  0.49986567  0.49945008  0.50059232  1
  Sn  Sn37  1  0.49951070  0.83328303  0.16658955  1
  Sn  Sn38  1  0.49976237  0.83320224  0.83342607  1
  Sn  Sn39  1  0.16604079  0.83333965  0.50018500  1
  Sn  Sn40  1  0.49965576  0.16720378  0.50068135  1
  Pb  Pb41  1  0.83633157  0.16370772  0.83300130  1
  Pb  Pb42  1  0.16691125  0.16671251  0.16711862  1
  Pb  Pb43  1  0.16921243  0.83320262  0.16671912  1
  Pb  Pb44  1  0.49768589  0.50190893  0.83066826  1
  Pb  Pb45  1  0.83287493  0.17009674  0.16638233  1
  Pb  Pb46  1  0.49759306  0.16447429  0.83054090  1
  Pb  Pb47  1  0.49979805  0.16423746  0.16966226  1
  Pb  Pb48  1  0.83374142  0.50226344  0.49918368  1
  Pb  Pb49  1  0.16537547  0.50005193  0.16705266  1
  Pb  Pb50  1  0.83386853  0.16373967  0.50025715  1
  Pb  Pb51  1  0.50206380  0.50179129  0.16927983  1
  Pb  Pb52  1  0.83594296  0.50232819  0.83537031  1
  Pb  Pb53  1  0.83079165  0.83232175  0.16626070  1
  I  I54  1  0.16540350  -0.00027657  0.16702495  1
  I  I55  1  0.17043604  -0.00106820  0.50599218  1
  I  I56  1  0.16748458  -0.00139659  0.82641659  1
  I  I57  1  0.16513141  0.33340667  0.16673317  1
  I  I58  1  0.17418285  0.33352222  0.50582420  1
  I  I59  1  0.16493771  0.33347740  0.82502051  1
  I  I60  1  0.16635023  0.66682963  0.16687590  1
  I  I61  1  0.16967308  0.66750659  0.50523398  1
  I  I62  1  0.16675850  0.66796595  0.82717308  1
  I  I63  1  0.50104616  -0.00411835  0.16859448  1
  I  I64  1  0.49696229  -0.00174143  0.49981023  1
  I  I65  1  0.49809412  -0.00442839  0.83074327  1
  I  I66  1  0.50113744  0.33338615  0.16787899  1
  I  I67  1  0.49039021  0.33352395  0.49791909  1
  I  I68  1  0.49924253  0.33327758  0.83318224  1
  I  I69  1  0.49995837  0.66994169  0.16967272  1
  I  I70  1  0.49709781  0.66836329  0.49959681  1
  I  I71  1  0.49772711  0.67082398  0.83038600  1
  I  I72  1  0.83301151  -0.00022121  0.16706337  1
  I  I73  1  0.83247785  -0.00476567  0.50276372  1
  I  I74  1  0.83394567  -0.00482494  0.82915652  1
  I  I75  1  0.83600913  0.33750089  0.17097068  1
  I  I76  1  0.83286077  0.33342423  0.49610314  1
  I  I77  1  0.83453621  0.33339767  0.83572229  1
  I  I78  1  0.83383328  0.66511306  0.16802099  1
  I  I79  1  0.83266578  0.67056338  0.50275038  1
  I  I80  1  0.83511346  0.67068709  0.82911169  1
  I  I81  1  0.16450199  0.16420069  -0.00345548  1
  I  I82  1  0.17049471  0.16580699  0.33765572  1
  I  I83  1  0.17072176  0.16475208  0.66548995  1
  I  I84  1  0.16359187  0.50285819  -0.00320792  1
  I  I85  1  0.16968020  0.50137591  0.33731688  1
  I  I86  1  0.16957146  0.50208358  0.66545565  1
  I  I87  1  0.16578180  0.83322202  -0.00381188  1
  I  I88  1  0.16661342  0.83314934  0.33726763  1
  I  I89  1  0.16974734  0.83315291  0.66606797  1
  I  I90  1  0.49866144  0.16459924  -0.00041726  1
  I  I91  1  0.49264677  0.16364196  0.33807913  1
  I  I92  1  0.49705006  0.16241189  0.66244099  1
  I  I93  1  0.49876119  0.50310205  -0.00026120  1
  I  I94  1  0.49286593  0.50415045  0.33765681  1
  I  I95  1  0.49903141  0.50438395  0.66237754  1
  I  I96  1  0.49945074  0.83215556  -0.00106890  1
  I  I97  1  0.50026013  0.83322404  0.33583830  1
  I  I98  1  0.49953596  0.83346492  0.66537417  1
  I  I99  1  0.83650505  0.16215154  -0.00036565  1
  I  I100  1  0.83594302  0.16279541  0.33369812  1
  I  I101  1  0.83068913  0.17080433  0.66650826  1
  I  I102  1  0.83597860  0.50549191  0.00268939  1
  I  I103  1  0.83508932  0.50505498  0.33165073  1
  I  I104  1  0.83161840  0.49963506  0.66684353  1
  I  I105  1  0.83519178  0.83149098  -0.00310498  1
  I  I106  1  0.83334867  0.83203670  0.33614964  1
  I  I107  1  0.82967750  0.83209805  0.66611956  1
  I  I108  1  0.00002411  0.16456943  0.16927672  1
  I  I109  1  0.00388030  0.16741408  0.50400567  1
  I  I110  1  0.00464091  0.16535417  0.82509931  1
  I  I111  1  -0.00224473  0.50385900  0.16930817  1
  I  I112  1  0.00355574  0.50056173  0.50234002  1
  I  I113  1  0.00419196  0.50283430  0.82589047  1
  I  I114  1  -0.00015989  0.83261166  0.16742714  1
  I  I115  1  0.00114068  0.83248577  0.50690520  1
  I  I116  1  0.00129499  0.83280725  0.82559960  1
  I  I117  1  0.33345849  0.16712547  0.16463900  1
  I  I118  1  0.33254006  0.16094479  0.50325705  1
  I  I119  1  0.32944822  0.16289270  0.83031451  1
  I  I120  1  0.33366535  0.50076041  0.16532522  1
  I  I121  1  0.33253284  0.50570798  0.50253128  1
  I  I122  1  0.32938069  0.50387822  0.83195958  1
  I  I123  1  0.33695948  0.83221213  0.16876731  1
  I  I124  1  0.33342647  0.83330861  0.50154539  1
  I  I125  1  0.33256060  0.83339267  0.82994598  1
  I  I126  1  0.66624115  0.16456324  0.16950796  1
  I  I127  1  0.66370301  0.16489912  0.49733879  1
  I  I128  1  0.66643145  0.16523589  0.83300698  1
  I  I129  1  0.66933520  0.50458895  0.16991988  1
  I  I130  1  0.66406183  0.50261440  0.49616199  1
  I  I131  1  0.66654231  0.50243756  0.83302281  1
  I  I132  1  0.66325808  0.83133824  0.16962769  1
  I  I133  1  0.66531336  0.83283293  0.50213950  1
  I  I134  1  0.66611415  0.83217450  0.82878473  1
