# generated using pymatgen
data_Cs27Sn14Pb13I81
_symmetry_space_group_name_H-M   'P 1'
_cell_length_a   18.98226229
_cell_length_b   18.97450877
_cell_length_c   18.97233922
_cell_angle_alpha   90.00126488
_cell_angle_beta   90.00120040
_cell_angle_gamma   90.00106030
_symmetry_Int_Tables_number   1
_chemical_formula_structural   Cs27Sn14Pb13I81
_chemical_formula_sum   'Cs27 Sn14 Pb13 I81'
_cell_volume   6833.44010533
_cell_formula_units_Z   1
loop_
 _symmetry_equiv_pos_site_id
 _symmetry_equiv_pos_as_xyz
  1  'x, y, z'
loop_
 _atom_site_type_symbol
 _atom_site_label
 _atom_site_symmetry_multiplicity
 _atom_site_fract_x
 _atom_site_fract_y
 _atom_site_fract_z
 _atom_site_occupancy
  Cs  Cs0  1  0.00027028  -0.00064986  0.00165235  1
  Cs  Cs1  1  -0.00016473  0.00105771  0.33327833  1
  Cs  Cs2  1  -0.00061474  0.00014205  0.66671224  1
  Cs  Cs3  1  -0.00144706  0.33115416  0.00273713  1
  Cs  Cs4  1  -0.00327032  0.33896925  0.32743604  1
  Cs  Cs5  1  0.00115926  0.33255668  0.66576588  1
  Cs  Cs6  1  0.00210818  0.67019496  -0.00498429  1
  Cs  Cs7  1  0.00165203  0.65986892  0.33284640  1
  Cs  Cs8  1  -0.00031335  0.66625892  0.66974512  1
  Cs  Cs9  1  0.33369989  -0.00072529  0.00162987  1
  Cs  Cs10  1  0.33490651  -0.00103837  0.33431508  1
  Cs  Cs11  1  0.33275711  0.00143683  0.66535001  1
  Cs  Cs12  1  0.33808477  0.33600643  -0.00340868  1
  Cs  Cs13  1  0.33124479  0.33937502  0.33165573  1
  Cs  Cs14  1  0.33195682  0.33132002  0.67066435  1
  Cs  Cs15  1  0.33307174  0.66750317  0.00245227  1
  Cs  Cs16  1  0.33366139  0.65997601  0.33409207  1
  Cs  Cs17  1  0.33377467  0.66723790  0.66385003  1
  Cs  Cs18  1  0.66605126  -0.00202040  0.00130406  1
  Cs  Cs19  1  0.66540624  -0.00020307  0.33402793  1
  Cs  Cs20  1  0.66875070  0.00036084  0.66468890  1
  Cs  Cs21  1  0.66343523  0.33596256  0.00087304  1
  Cs  Cs22  1  0.67152623  0.33754565  0.32947906  1
  Cs  Cs23  1  0.66586082  0.33173466  0.66905277  1
  Cs  Cs24  1  0.66636801  0.67014363  0.00033205  1
  Cs  Cs25  1  0.66491771  0.66252384  0.33575016  1
  Cs  Cs26  1  0.66599502  0.66796193  0.66274213  1
  Sn  Sn27  1  0.50072537  0.83424790  0.16646185  1
  Sn  Sn28  1  0.83381116  0.49868818  0.83303053  1
  Sn  Sn29  1  0.49999492  0.16647715  0.49867182  1
  Sn  Sn30  1  0.49980930  0.16584343  0.16785887  1
  Sn  Sn31  1  0.16568368  0.16644105  0.83299396  1
  Sn  Sn32  1  0.83380993  0.16600379  0.50036918  1
  Sn  Sn33  1  0.49888601  0.83395015  0.83359182  1
  Sn  Sn34  1  0.16563488  0.83411441  0.50055851  1
  Sn  Sn35  1  0.16576373  0.49973496  0.83300828  1
  Sn  Sn36  1  0.16622492  0.16590841  0.50016254  1
  Sn  Sn37  1  0.16790131  0.83384837  0.83234770  1
  Sn  Sn38  1  0.83403853  0.16739047  0.83298569  1
  Sn  Sn39  1  0.83293330  0.83372396  0.16842605  1
  Sn  Sn40  1  0.83450943  0.83399361  0.49867308  1
  Pb  Pb41  1  0.83147653  0.16487077  0.16657903  1
  Pb  Pb42  1  0.50018201  0.16465471  0.83321490  1
  Pb  Pb43  1  0.50016502  0.50042991  0.16658592  1
  Pb  Pb44  1  0.49970229  0.83462567  0.49957772  1
  Pb  Pb45  1  0.50016818  0.50334046  0.83310115  1
  Pb  Pb46  1  0.16649743  0.49964821  0.50234621  1
  Pb  Pb47  1  0.83338393  0.50363612  0.16330831  1
  Pb  Pb48  1  0.83347846  0.49979392  0.50244172  1
  Pb  Pb49  1  0.83360727  0.83396128  0.83277305  1
  Pb  Pb50  1  0.16647358  0.49984641  0.16312923  1
  Pb  Pb51  1  0.50007532  0.49562909  0.50035766  1
  Pb  Pb52  1  0.16687633  0.83352077  0.16767149  1
  Pb  Pb53  1  0.16919652  0.16652805  0.16691924  1
  I  I54  1  0.16536480  -0.00011836  0.15964798  1
  I  I55  1  0.16604934  0.00031630  0.50885793  1
  I  I56  1  0.16649612  0.00007990  0.82934086  1
  I  I57  1  0.16894177  0.33298548  0.16792444  1
  I  I58  1  0.16769248  0.32945983  0.50457712  1
  I  I59  1  0.16274843  0.33204861  0.82896489  1
  I  I60  1  0.16892080  0.66704310  0.16680985  1
  I  I61  1  0.16258681  0.67004046  0.50401769  1
  I  I62  1  0.16545976  0.66771406  0.83051605  1
  I  I63  1  0.50358514  -0.00088011  0.16556411  1
  I  I64  1  0.49995601  0.00283580  0.49995810  1
  I  I65  1  0.49668613  -0.00314533  0.83497922  1
  I  I66  1  0.49922637  0.33011486  0.17064373  1
  I  I67  1  0.49974045  0.32715692  0.49561570  1
  I  I68  1  0.49773587  0.33303871  0.83363763  1
  I  I69  1  0.50336163  0.67043567  0.16064849  1
  I  I70  1  0.50009626  0.66694802  0.50032091  1
  I  I71  1  0.49729480  0.67150120  0.83955575  1
  I  I72  1  0.83096838  -0.00309860  0.16428364  1
  I  I73  1  0.83365461  0.00057465  0.50338345  1
  I  I74  1  0.83568705  0.00265646  0.83205320  1
  I  I75  1  0.83152681  0.33330803  0.16858993  1
  I  I76  1  0.83330737  0.32952423  0.50282582  1
  I  I77  1  0.84027168  0.33165969  0.82760767  1
  I  I78  1  0.82623795  0.67161967  0.17136606  1
  I  I79  1  0.83715297  0.67013935  0.49830961  1
  I  I80  1  0.83658409  0.66535404  0.83463474  1
  I  I81  1  0.16301067  0.16569788  -0.00378879  1
  I  I82  1  0.16463346  0.15928502  0.33717235  1
  I  I83  1  0.16867583  0.16577518  0.66710100  1
  I  I84  1  0.16304722  0.50123519  -0.00543191  1
  I  I85  1  0.16854417  0.50085085  0.33362093  1
  I  I86  1  0.16236381  0.50063033  0.67049797  1
  I  I87  1  0.16682025  0.83307700  -0.00319188  1
  I  I88  1  0.16590901  0.84060315  0.33701946  1
  I  I89  1  0.16666908  0.83415105  0.66754879  1
  I  I90  1  0.50014846  0.16363690  0.00185705  1
  I  I91  1  0.49975956  0.15828895  0.33395300  1
  I  I92  1  0.50003446  0.16434030  0.66419731  1
  I  I93  1  0.49903863  0.49471978  -0.00035722  1
  I  I94  1  0.49939155  0.50585486  0.33335067  1
  I  I95  1  0.50054397  0.50183542  0.66713011  1
  I  I96  1  0.50104198  0.83905017  0.00019317  1
  I  I97  1  0.50142120  0.83705138  0.33088884  1
  I  I98  1  0.49939043  0.83458310  0.66872705  1
  I  I99  1  0.83674401  0.16809732  -0.00308801  1
  I  I100  1  0.83558859  0.16319345  0.33654592  1
  I  I101  1  0.83144447  0.16382547  0.66636839  1
  I  I102  1  0.83798674  0.49441555  -0.00451736  1
  I  I103  1  0.83216492  0.49759680  0.33324830  1
  I  I104  1  0.83800077  0.50171672  0.67033265  1
  I  I105  1  0.83160207  0.83275916  0.00135906  1
  I  I106  1  0.83283471  0.84086982  0.33464768  1
  I  I107  1  0.83340825  0.83447609  0.66419743  1
  I  I108  1  -0.00015344  0.16514427  0.16736718  1
  I  I109  1  -0.00004198  0.16090319  0.50750767  1
  I  I110  1  0.00045523  0.16503484  0.82634599  1
  I  I111  1  -0.00035791  0.50075131  0.16921421  1
  I  I112  1  0.00001413  0.49741553  0.49856015  1
  I  I113  1  0.00067288  0.50280445  0.83252915  1
  I  I114  1  -0.00259828  0.83344048  0.16545305  1
  I  I115  1  0.00008657  0.84135042  0.50163916  1
  I  I116  1  0.00266311  0.83274766  0.83318452  1
  I  I117  1  0.33716612  0.15851999  0.16909050  1
  I  I118  1  0.33237211  0.16142629  0.50168230  1
  I  I119  1  0.33052229  0.16850016  0.83050879  1
  I  I120  1  0.33348031  0.50210629  0.16481742  1
  I  I121  1  0.33313280  0.50262663  0.50242650  1
  I  I122  1  0.33010170  0.49618418  0.83298744  1
  I  I123  1  0.33627466  0.83758923  0.16366224  1
  I  I124  1  0.33065162  0.83803387  0.50269983  1
  I  I125  1  0.33188358  0.83387254  0.83347460  1
  I  I126  1  0.66352564  0.16300584  0.16946575  1
  I  I127  1  0.66771128  0.16132699  0.50204741  1
  I  I128  1  0.66929503  0.16892582  0.82994873  1
  I  I129  1  0.66687345  0.49806109  0.16286776  1
  I  I130  1  0.66694750  0.50277733  0.50414476  1
  I  I131  1  0.66969167  0.49536029  0.83346273  1
  I  I132  1  0.66610887  0.83791747  0.16384714  1
  I  I133  1  0.66904526  0.83773882  0.50119627  1
  I  I134  1  0.66506581  0.83400012  0.83446663  1
