# generated using pymatgen
data_Cs27Sn13Pb14I81
_symmetry_space_group_name_H-M   'P 1'
_cell_length_a   18.97436342
_cell_length_b   18.97920341
_cell_length_c   18.97807009
_cell_angle_alpha   90.00298666
_cell_angle_beta   90.00073483
_cell_angle_gamma   89.99898293
_symmetry_Int_Tables_number   1
_chemical_formula_structural   Cs27Sn13Pb14I81
_chemical_formula_sum   'Cs27 Sn13 Pb14 I81'
_cell_volume   6834.35038234
_cell_formula_units_Z   1
loop_
 _symmetry_equiv_pos_site_id
 _symmetry_equiv_pos_as_xyz
  1  'x, y, z'
loop_
 _atom_site_type_symbol
 _atom_site_label
 _atom_site_symmetry_multiplicity
 _atom_site_fract_x
 _atom_site_fract_y
 _atom_site_fract_z
 _atom_site_occupancy
  Cs  Cs0  1  -0.00207607  0.00151654  0.00060673  1
  Cs  Cs1  1  0.00574121  -0.00118058  0.33442298  1
  Cs  Cs2  1  -0.00179358  -0.00186692  0.66571434  1
  Cs  Cs3  1  -0.00002723  0.33348475  -0.00166735  1
  Cs  Cs4  1  0.00077656  0.33317189  0.33144130  1
  Cs  Cs5  1  0.00069211  0.33385704  0.67174316  1
  Cs  Cs6  1  0.00008208  0.66492692  -0.00368631  1
  Cs  Cs7  1  -0.00139984  0.66734369  0.33850377  1
  Cs  Cs8  1  0.00066336  0.66794718  0.66701925  1
  Cs  Cs9  1  0.33744686  -0.00370160  0.00298800  1
  Cs  Cs10  1  0.32330644  -0.00118611  0.33329673  1
  Cs  Cs11  1  0.33962991  0.00203985  0.66405068  1
  Cs  Cs12  1  0.32905653  0.33457798  -0.00177593  1
  Cs  Cs13  1  0.33336479  0.33161468  0.33750745  1
  Cs  Cs14  1  0.33562339  0.33344066  0.66423019  1
  Cs  Cs15  1  0.33527584  0.66834007  0.00154673  1
  Cs  Cs16  1  0.33567673  0.66893574  0.33006588  1
  Cs  Cs17  1  0.33212940  0.66491999  0.66876276  1
  Cs  Cs18  1  0.66662556  0.00050086  -0.00085252  1
  Cs  Cs19  1  0.66879023  0.00070501  0.33180745  1
  Cs  Cs20  1  0.66499845  0.00040625  0.66779526  1
  Cs  Cs21  1  0.66850715  0.33145182  0.00197248  1
  Cs  Cs22  1  0.66474846  0.33975693  0.33253334  1
  Cs  Cs23  1  0.66336245  0.33150595  0.66480619  1
  Cs  Cs24  1  0.66434795  0.66789581  0.00271814  1
  Cs  Cs25  1  0.66482327  0.65808778  0.33574137  1
  Cs  Cs26  1  0.66674085  0.66801982  0.66299576  1
  Sn  Sn27  1  0.16635570  0.50017039  0.16803244  1
  Sn  Sn28  1  0.50020308  0.16658221  0.16673617  1
  Sn  Sn29  1  0.16631976  0.50000064  0.49865867  1
  Sn  Sn30  1  0.83383843  0.83342778  0.83412181  1
  Sn  Sn31  1  0.50143143  0.49989186  0.83364146  1
  Sn  Sn32  1  0.83257634  0.16590182  0.16701456  1
  Sn  Sn33  1  0.16631111  0.83515793  0.83345414  1
  Sn  Sn34  1  0.83339310  0.83353677  0.16635035  1
  Sn  Sn35  1  0.83168766  0.50014916  0.83331948  1
  Sn  Sn36  1  0.16641992  0.16479484  0.83340005  1
  Sn  Sn37  1  0.50015889  0.83360699  0.49963178  1
  Sn  Sn38  1  0.83350143  0.16687503  0.49977391  1
  Sn  Sn39  1  0.83385945  0.16643723  0.83318208  1
  Pb  Pb40  1  0.50265924  0.83533927  0.16906421  1
  Pb  Pb41  1  0.83205467  0.83515588  0.49995039  1
  Pb  Pb42  1  0.83506224  0.49753099  0.50276141  1
  Pb  Pb43  1  0.49775688  0.49776790  0.16466229  1
  Pb  Pb44  1  0.16604008  0.16786426  0.16454150  1
  Pb  Pb45  1  0.83483542  0.50004439  0.16474684  1
  Pb  Pb46  1  0.16442874  0.16827877  0.50278895  1
  Pb  Pb47  1  0.49793164  0.50160659  0.50190953  1
  Pb  Pb48  1  0.16396233  0.83116204  0.16433691  1
  Pb  Pb49  1  0.16855460  0.83165029  0.50258600  1
  Pb  Pb50  1  0.50068806  0.83154656  0.83235976  1
  Pb  Pb51  1  0.16634632  0.50010901  0.83334161  1
  Pb  Pb52  1  0.50030334  0.16831696  0.83491442  1
  Pb  Pb53  1  0.50219485  0.16493053  0.49707850  1
  I  I54  1  0.16857848  -0.00010650  0.16664851  1
  I  I55  1  0.16724219  0.00006392  0.49978514  1
  I  I56  1  0.15743722  0.00021000  0.83367553  1
  I  I57  1  0.16427290  0.33571783  0.16521400  1
  I  I58  1  0.16682522  0.33614547  0.50024299  1
  I  I59  1  0.16251174  0.33139696  0.83425488  1
  I  I60  1  0.16565468  0.66347344  0.16618095  1
  I  I61  1  0.16569439  0.66374809  0.50034632  1
  I  I62  1  0.16286823  0.66863343  0.83295600  1
  I  I63  1  0.50217147  0.00317714  0.16375157  1
  I  I64  1  0.50057055  -0.00247795  0.50398941  1
  I  I65  1  0.50081311  -0.00001027  0.83279341  1
  I  I66  1  0.50847987  0.33017060  0.16592076  1
  I  I67  1  0.49955087  0.33325050  0.50065575  1
  I  I68  1  0.50222614  0.33618809  0.83355075  1
  I  I69  1  0.50025968  0.66667692  0.16658177  1
  I  I70  1  0.50196609  0.66919075  0.50118314  1
  I  I71  1  0.50181069  0.66367561  0.83260602  1
  I  I72  1  0.82974582  0.00114874  0.16053449  1
  I  I73  1  0.83265798  0.00306552  0.50504367  1
  I  I74  1  0.83856429  0.00048904  0.83410834  1
  I  I75  1  0.83168225  0.33019595  0.16459371  1
  I  I76  1  0.83338825  0.32958357  0.49977809  1
  I  I77  1  0.83536145  0.33227288  0.83382227  1
  I  I78  1  0.83613751  0.66920807  0.16036912  1
  I  I79  1  0.83307459  0.66654837  0.50052028  1
  I  I80  1  0.83523328  0.66736031  0.83787257  1
  I  I81  1  0.16023100  0.16816534  -0.00343866  1
  I  I82  1  0.16578566  0.16773237  0.33332225  1
  I  I83  1  0.16102307  0.16716896  0.67088822  1
  I  I84  1  0.16606705  0.49891277  0.00131414  1
  I  I85  1  0.16592008  0.49849588  0.33312914  1
  I  I86  1  0.16642320  0.49994455  0.66534409  1
  I  I87  1  0.16568196  0.83338446  -0.00381483  1
  I  I88  1  0.16619922  0.83311763  0.33323454  1
  I  I89  1  0.15906752  0.83282677  0.67064019  1
  I  I90  1  0.50624196  0.16686842  0.00249110  1
  I  I91  1  0.50622763  0.16759865  0.32950102  1
  I  I92  1  0.50032160  0.16753928  0.66661750  1
  I  I93  1  0.50089118  0.50107447  -0.00323851  1
  I  I94  1  0.50012781  0.50031034  0.33325137  1
  I  I95  1  0.50091056  0.49879287  0.66992359  1
  I  I96  1  0.49813408  0.83243496  0.00018100  1
  I  I97  1  0.50161526  0.83287605  0.33630668  1
  I  I98  1  0.50171117  0.83280139  0.66479229  1
  I  I99  1  0.83359331  0.16654453  -0.00083613  1
  I  I100  1  0.82888228  0.16193201  0.33212137  1
  I  I101  1  0.83844514  0.16715102  0.66845924  1
  I  I102  1  0.83444470  0.49564527  -0.00362342  1
  I  I103  1  0.83382112  0.50015363  0.33339277  1
  I  I104  1  0.83380735  0.50067003  0.67115372  1
  I  I105  1  0.83628243  0.83781105  -0.00151600  1
  I  I106  1  0.83170486  0.83883879  0.33061921  1
  I  I107  1  0.83593137  0.83381375  0.67007719  1
  I  I108  1  -0.00356661  0.16478801  0.16655170  1
  I  I109  1  -0.00362499  0.16567243  0.49619283  1
  I  I110  1  -0.00184389  0.16961958  0.83545329  1
  I  I111  1  0.00255514  0.49719720  0.16575173  1
  I  I112  1  0.00277784  0.50067977  0.49963474  1
  I  I113  1  -0.00254951  0.49909315  0.83371483  1
  I  I114  1  -0.00394264  0.84085814  0.16518923  1
  I  I115  1  -0.00006001  0.83289991  0.49934844  1
  I  I116  1  -0.00146311  0.83118534  0.83578756  1
  I  I117  1  0.33516534  0.16996537  0.16344766  1
  I  I118  1  0.33322562  0.16714874  0.50054537  1
  I  I119  1  0.33079760  0.16613202  0.83584716  1
  I  I120  1  0.32997963  0.49802765  0.16559654  1
  I  I121  1  0.33013778  0.49932846  0.50105729  1
  I  I122  1  0.33474733  0.49974008  0.83320315  1
  I  I123  1  0.33323259  0.83392404  0.16547662  1
  I  I124  1  0.33610725  0.83314122  0.50249403  1
  I  I125  1  0.33091033  0.83426706  0.83074642  1
  I  I126  1  0.66907240  0.16373525  0.16292048  1
  I  I127  1  0.67024370  0.16617832  0.50707784  1
  I  I128  1  0.67035304  0.16470595  0.83230754  1
  I  I129  1  0.66686426  0.50127635  0.16619288  1
  I  I130  1  0.66680211  0.50018639  0.50036211  1
  I  I131  1  0.66827203  0.49935448  0.83374071  1
  I  I132  1  0.67065213  0.83522796  0.15850764  1
  I  I133  1  0.66459218  0.83366838  0.50352951  1
  I  I134  1  0.67030344  0.83604896  0.83540315  1
