# generated using pymatgen
data_Cs27Sn14Pb13I81
_symmetry_space_group_name_H-M   'P 1'
_cell_length_a   18.97505800
_cell_length_b   18.97517102
_cell_length_c   18.97633998
_cell_angle_alpha   90.00095320
_cell_angle_beta   89.99896334
_cell_angle_gamma   89.99866062
_symmetry_Int_Tables_number   1
_chemical_formula_structural   Cs27Sn14Pb13I81
_chemical_formula_sum   'Cs27 Sn14 Pb13 I81'
_cell_volume   6832.52552988
_cell_formula_units_Z   1
loop_
 _symmetry_equiv_pos_site_id
 _symmetry_equiv_pos_as_xyz
  1  'x, y, z'
loop_
 _atom_site_type_symbol
 _atom_site_label
 _atom_site_symmetry_multiplicity
 _atom_site_fract_x
 _atom_site_fract_y
 _atom_site_fract_z
 _atom_site_occupancy
  Cs  Cs0  1  0.00298834  0.00073278  0.00168252  1
  Cs  Cs1  1  0.00031615  -0.00365829  0.33275288  1
  Cs  Cs2  1  -0.00408786  -0.00265886  0.66485932  1
  Cs  Cs3  1  0.00044969  0.33128821  -0.00160663  1
  Cs  Cs4  1  0.00236647  0.33619845  0.33615737  1
  Cs  Cs5  1  0.00045444  0.33461822  0.66518590  1
  Cs  Cs6  1  -0.00327304  0.66860211  -0.00016712  1
  Cs  Cs7  1  0.00317942  0.66411396  0.33429507  1
  Cs  Cs8  1  -0.00001846  0.66498803  0.66589274  1
  Cs  Cs9  1  0.32614361  0.00113376  0.00294045  1
  Cs  Cs10  1  0.33302939  -0.00066587  0.33039469  1
  Cs  Cs11  1  0.33533069  -0.00666260  0.66840792  1
  Cs  Cs12  1  0.33210137  0.33271972  -0.00440165  1
  Cs  Cs13  1  0.33330698  0.33381468  0.33590841  1
  Cs  Cs14  1  0.33196975  0.33430463  0.66336707  1
  Cs  Cs15  1  0.33508771  0.66626154  -0.01089610  1
  Cs  Cs16  1  0.32972593  0.66628020  0.33520403  1
  Cs  Cs17  1  0.33560008  0.67317015  0.67361001  1
  Cs  Cs18  1  0.66759521  0.00098890  0.00131589  1
  Cs  Cs19  1  0.66691931  0.00126299  0.33252320  1
  Cs  Cs20  1  0.66847495  0.00051527  0.66569684  1
  Cs  Cs21  1  0.66650753  0.33308648  0.00216144  1
  Cs  Cs22  1  0.66540597  0.33274147  0.33204714  1
  Cs  Cs23  1  0.66755410  0.33051011  0.66574660  1
  Cs  Cs24  1  0.66722739  0.66605527  0.00230533  1
  Cs  Cs25  1  0.66586639  0.66630135  0.32933350  1
  Cs  Cs26  1  0.66581811  0.67080477  0.66796749  1
  Sn  Sn27  1  0.83291266  0.49958466  0.83249016  1
  Sn  Sn28  1  0.83294168  0.83386133  0.83432367  1
  Sn  Sn29  1  0.16706786  0.49982684  0.16637819  1
  Sn  Sn30  1  0.50034913  0.83377351  0.16679298  1
  Sn  Sn31  1  0.50047774  0.16676488  0.83343246  1
  Sn  Sn32  1  0.49996763  0.49982313  0.49998864  1
  Sn  Sn33  1  0.83258439  0.16667630  0.83410934  1
  Sn  Sn34  1  0.83255312  0.83427093  0.16611331  1
  Sn  Sn35  1  0.83308662  0.16625120  0.16626619  1
  Sn  Sn36  1  0.50043839  0.16620340  0.16643617  1
  Sn  Sn37  1  0.16762571  0.16671656  0.50005163  1
  Sn  Sn38  1  0.16742351  0.49930678  0.49954055  1
  Sn  Sn39  1  0.83263992  0.49983563  0.50057518  1
  Sn  Sn40  1  0.49895458  0.16720535  0.50012387  1
  Pb  Pb41  1  0.83312485  0.83024311  0.49919603  1
  Pb  Pb42  1  0.49747241  0.49968762  0.16826357  1
  Pb  Pb43  1  0.83314624  0.16825997  0.49954284  1
  Pb  Pb44  1  0.50016509  0.83387734  0.49757770  1
  Pb  Pb45  1  0.50263005  0.49764366  0.83064435  1
  Pb  Pb46  1  0.16658797  0.16855241  0.16871726  1
  Pb  Pb47  1  0.16444799  0.49985077  0.83252532  1
  Pb  Pb48  1  0.50241271  0.83644087  0.83626352  1
  Pb  Pb49  1  0.16677373  0.83047558  0.16654712  1
  Pb  Pb50  1  0.16636549  0.16659009  0.83019165  1
  Pb  Pb51  1  0.16354457  0.83368660  0.83349370  1
  Pb  Pb52  1  0.16684917  0.83325406  0.50002714  1
  Pb  Pb53  1  0.83468077  0.49961736  0.16659818  1
  I  I54  1  0.16599442  0.00014418  0.16877487  1
  I  I55  1  0.17128419  0.00336557  0.50019919  1
  I  I56  1  0.16484321  0.00045817  0.83162546  1
  I  I57  1  0.16483415  0.33613319  0.17042644  1
  I  I58  1  0.16696990  0.33432499  0.49608806  1
  I  I59  1  0.16287801  0.33321164  0.83597770  1
  I  I60  1  0.16443597  0.66290720  0.17575778  1
  I  I61  1  0.16524816  0.66277024  0.49518322  1
  I  I62  1  0.16577556  0.66648814  0.83153362  1
  I  I63  1  0.50454722  0.00168244  0.16957903  1
  I  I64  1  0.49575338  0.00391872  0.50185281  1
  I  I65  1  0.50609022  0.00434640  0.82601118  1
  I  I66  1  0.50503083  0.32986181  0.16604446  1
  I  I67  1  0.49980535  0.33249478  0.49767213  1
  I  I68  1  0.50633299  0.32954265  0.83884939  1
  I  I69  1  0.50495098  0.66894699  0.16981124  1
  I  I70  1  0.49983706  0.66362255  0.49752069  1
  I  I71  1  0.50070114  0.66685942  0.83287174  1
  I  I72  1  0.83031761  0.00074209  0.15980385  1
  I  I73  1  0.83408191  0.00013552  0.50263587  1
  I  I74  1  0.82951618  0.00089080  0.83749133  1
  I  I75  1  0.82932643  0.33052233  0.16400139  1
  I  I76  1  0.83401756  0.33636924  0.50305621  1
  I  I77  1  0.83036303  0.33244577  0.83340308  1
  I  I78  1  0.83045952  0.66893027  0.16393322  1
  I  I79  1  0.83466423  0.66188558  0.50338554  1
  I  I80  1  0.83582160  0.66665274  0.83330229  1
  I  I81  1  0.16853186  0.16868865  0.00007894  1
  I  I82  1  0.16970977  0.17045773  0.33661715  1
  I  I83  1  0.16894136  0.17559538  0.66233624  1
  I  I84  1  0.16410286  0.50056452  0.00217578  1
  I  I85  1  0.16284943  0.49673873  0.33519791  1
  I  I86  1  0.16656870  0.49483415  0.66296350  1
  I  I87  1  0.16870596  0.83107353  0.00034977  1
  I  I88  1  0.16266882  0.83395600  0.33307949  1
  I  I89  1  0.16523673  0.83125364  0.66670423  1
  I  I90  1  0.50622111  0.16269467  0.00058907  1
  I  I91  1  0.50108028  0.16705554  0.33317358  1
  I  I92  1  0.50120568  0.17292561  0.66626064  1
  I  I93  1  0.49936227  0.49962639  -0.00013823  1
  I  I94  1  0.50538515  0.49421026  0.33657636  1
  I  I95  1  0.49533929  0.49450265  0.66237274  1
  I  I96  1  0.50233671  0.83637175  0.00404716  1
  I  I97  1  0.50758968  0.83876901  0.32979286  1
  I  I98  1  0.50066439  0.83325454  0.66708609  1
  I  I99  1  0.82633727  0.16898077  -0.00012416  1
  I  I100  1  0.83016641  0.16386289  0.33055168  1
  I  I101  1  0.83086833  0.16488686  0.66920962  1
  I  I102  1  0.83597684  0.49983532  -0.00242974  1
  I  I103  1  0.83303956  0.49908556  0.33586091  1
  I  I104  1  0.83578920  0.49883599  0.66654303  1
  I  I105  1  0.82939906  0.83079032  0.00031324  1
  I  I106  1  0.83021157  0.83788763  0.32972412  1
  I  I107  1  0.83455164  0.83646527  0.66955010  1
  I  I108  1  -0.00307804  0.16396902  0.16297748  1
  I  I109  1  0.00175096  0.17234571  0.49989131  1
  I  I110  1  -0.00387353  0.16685374  0.83709576  1
  I  I111  1  0.00215655  0.49952932  0.17341407  1
  I  I112  1  0.00020527  0.49603235  0.49996011  1
  I  I113  1  -0.00411681  0.49742229  0.82801137  1
  I  I114  1  -0.00345155  0.83717273  0.16232849  1
  I  I115  1  -0.00031057  0.83430522  0.49869863  1
  I  I116  1  -0.00522545  0.83590426  0.83991227  1
  I  I117  1  0.33655770  0.16323313  0.16465587  1
  I  I118  1  0.33471178  0.17592912  0.49898514  1
  I  I119  1  0.33660642  0.16788353  0.83677320  1
  I  I120  1  0.33008620  0.49904910  0.17471327  1
  I  I121  1  0.33334138  0.49356302  0.49258010  1
  I  I122  1  0.33372375  0.49870262  0.83370160  1
  I  I123  1  0.33633844  0.83880545  0.16960693  1
  I  I124  1  0.33364697  0.82910532  0.49774602  1
  I  I125  1  0.33402099  0.83332165  0.83391873  1
  I  I126  1  0.66661333  0.16402387  0.16850977  1
  I  I127  1  0.66387102  0.17135563  0.49962555  1
  I  I128  1  0.66759926  0.16735632  0.83129442  1
  I  I129  1  0.66653877  0.50040212  0.16851714  1
  I  I130  1  0.66646890  0.49505888  0.50400175  1
  I  I131  1  0.67086093  0.50146743  0.82917462  1
  I  I132  1  0.66770856  0.83635688  0.16391020  1
  I  I133  1  0.66677208  0.83265914  0.50155835  1
  I  I134  1  0.67049233  0.83020799  0.83428894  1
