# generated using pymatgen
data_Cs27Sn13Pb14I81
_symmetry_space_group_name_H-M   'P 1'
_cell_length_a   18.98565722
_cell_length_b   18.98606036
_cell_length_c   19.00418200
_cell_angle_alpha   90.00059186
_cell_angle_beta   89.99874048
_cell_angle_gamma   89.99660309
_symmetry_Int_Tables_number   1
_chemical_formula_structural   Cs27Sn13Pb14I81
_chemical_formula_sum   'Cs27 Sn13 Pb14 I81'
_cell_volume   6850.30128714
_cell_formula_units_Z   1
loop_
 _symmetry_equiv_pos_site_id
 _symmetry_equiv_pos_as_xyz
  1  'x, y, z'
loop_
 _atom_site_type_symbol
 _atom_site_label
 _atom_site_symmetry_multiplicity
 _atom_site_fract_x
 _atom_site_fract_y
 _atom_site_fract_z
 _atom_site_occupancy
  Cs  Cs0  1  -0.00211251  0.00282971  0.00232406  1
  Cs  Cs1  1  0.00051449  0.00123169  0.33798310  1
  Cs  Cs2  1  0.00194192  0.00060697  0.65971212  1
  Cs  Cs3  1  0.00027067  0.33518226  -0.00405573  1
  Cs  Cs4  1  -0.00135726  0.33173722  0.33587674  1
  Cs  Cs5  1  -0.00104592  0.33445283  0.66759346  1
  Cs  Cs6  1  0.00454473  0.66232906  -0.00098997  1
  Cs  Cs7  1  -0.00184830  0.66723513  0.33334055  1
  Cs  Cs8  1  0.00064315  0.66492916  0.66775154  1
  Cs  Cs9  1  0.33507196  -0.00081959  -0.00095123  1
  Cs  Cs10  1  0.32913655  0.00108745  0.33346121  1
  Cs  Cs11  1  0.33172010  0.00004713  0.66773211  1
  Cs  Cs12  1  0.33158884  0.33169460  0.00008242  1
  Cs  Cs13  1  0.33606026  0.33561217  0.33162545  1
  Cs  Cs14  1  0.33812199  0.33164580  0.66728825  1
  Cs  Cs15  1  0.32553000  0.67225512  0.00611869  1
  Cs  Cs16  1  0.33243144  0.66232498  0.32409348  1
  Cs  Cs17  1  0.33099754  0.66875461  0.66920749  1
  Cs  Cs18  1  0.66563981  -0.00066091  0.00031154  1
  Cs  Cs19  1  0.66932081  -0.00014811  0.33396469  1
  Cs  Cs20  1  0.66600952  -0.00229590  0.66638484  1
  Cs  Cs21  1  0.66841415  0.32990167  -0.00521594  1
  Cs  Cs22  1  0.66540232  0.33593909  0.33329748  1
  Cs  Cs23  1  0.66403203  0.33379542  0.66988535  1
  Cs  Cs24  1  0.66723921  0.67196422  0.00177183  1
  Cs  Cs25  1  0.66771087  0.66509891  0.33503795  1
  Cs  Cs26  1  0.66791944  0.66789169  0.66364733  1
  Sn  Sn27  1  0.83293203  0.50033510  0.16695990  1
  Sn  Sn28  1  0.49926572  0.16710304  0.83346430  1
  Sn  Sn29  1  0.83370935  0.83342512  0.83306878  1
  Sn  Sn30  1  0.50038037  0.16562291  0.49987140  1
  Sn  Sn31  1  0.16638214  0.50001741  0.50004142  1
  Sn  Sn32  1  0.83329364  0.83244547  0.16687865  1
  Sn  Sn33  1  0.49951118  0.16664281  0.16666435  1
  Sn  Sn34  1  0.49969420  0.50085386  0.83403652  1
  Sn  Sn35  1  0.16723010  0.16685240  0.16600659  1
  Sn  Sn36  1  0.49997227  0.83370259  0.49966554  1
  Sn  Sn37  1  0.83254693  0.83242547  0.50007600  1
  Sn  Sn38  1  0.16715933  0.16662912  0.83376215  1
  Sn  Sn39  1  0.83402373  0.50055139  0.49953976  1
  Pb  Pb40  1  0.16929795  0.49794017  0.83146904  1
  Pb  Pb41  1  0.50025030  0.50064636  0.50127371  1
  Pb  Pb42  1  0.83079374  0.16721135  0.50013143  1
  Pb  Pb43  1  0.16941263  0.16883715  0.50008557  1
  Pb  Pb44  1  0.50114916  0.83344844  0.83173101  1
  Pb  Pb45  1  0.83333652  0.16427365  0.83309383  1
  Pb  Pb46  1  0.50233969  0.49798332  0.16366363  1
  Pb  Pb47  1  0.16377408  0.83601077  0.16676133  1
  Pb  Pb48  1  0.83342430  0.16711257  0.16671909  1
  Pb  Pb49  1  0.83145774  0.50215383  0.83315067  1
  Pb  Pb50  1  0.16708061  0.83069324  0.49978045  1
  Pb  Pb51  1  0.16390625  0.83617177  0.83331503  1
  Pb  Pb52  1  0.50183168  0.83556799  0.16928319  1
  Pb  Pb53  1  0.16413608  0.49740738  0.16843357  1
  I  I54  1  0.16904763  0.00403296  0.16416527  1
  I  I55  1  0.16349849  0.00020541  0.50001020  1
  I  I56  1  0.17473926  0.00420216  0.83553076  1
  I  I57  1  0.16899021  0.32968050  0.16318906  1
  I  I58  1  0.15984721  0.33622580  0.50000612  1
  I  I59  1  0.16734254  0.32984722  0.83708934  1
  I  I60  1  0.16822737  0.66640185  0.16776663  1
  I  I61  1  0.16669979  0.66307869  0.50092920  1
  I  I62  1  0.16835856  0.66652132  0.83176556  1
  I  I63  1  0.49950378  0.00390947  0.16121370  1
  I  I64  1  0.50656083  0.00049807  0.50217832  1
  I  I65  1  0.49803034  0.00337330  0.83442654  1
  I  I66  1  0.49917742  0.32961055  0.17288968  1
  I  I67  1  0.49988208  0.33079403  0.49942810  1
  I  I68  1  0.49878148  0.33133412  0.82956215  1
  I  I69  1  0.49957983  0.66669647  0.16680574  1
  I  I70  1  0.50345317  0.66918522  0.50405647  1
  I  I71  1  0.50498370  0.66461063  0.82779968  1
  I  I72  1  0.83295379  -0.00270453  0.16789248  1
  I  I73  1  0.83097992  -0.00310278  0.49885050  1
  I  I74  1  0.83078582  -0.00359821  0.83330912  1
  I  I75  1  0.83269834  0.33602378  0.17302785  1
  I  I76  1  0.83585714  0.33667904  0.49440713  1
  I  I77  1  0.83396094  0.33334179  0.83375762  1
  I  I78  1  0.83203360  0.66709811  0.16854683  1
  I  I79  1  0.83014703  0.66734780  0.49927248  1
  I  I80  1  0.82916932  0.66988754  0.83226367  1
  I  I81  1  0.17484728  0.16642938  -0.00012074  1
  I  I82  1  0.17030761  0.16769681  0.33109318  1
  I  I83  1  0.17093286  0.16764624  0.66899389  1
  I  I84  1  0.16497149  0.49989641  0.00007135  1
  I  I85  1  0.16653702  0.49755363  0.33624203  1
  I  I86  1  0.15870307  0.49781664  0.66381228  1
  I  I87  1  0.16486690  0.83070863  0.00003153  1
  I  I88  1  0.16472229  0.83755766  0.33340322  1
  I  I89  1  0.16372676  0.83630678  0.66644268  1
  I  I90  1  0.49684683  0.17191965  -0.00042538  1
  I  I91  1  0.49714977  0.16203321  0.33342593  1
  I  I92  1  0.49718429  0.16718626  0.66701609  1
  I  I93  1  0.50334347  0.49266499  -0.00375482  1
  I  I94  1  0.49891298  0.49818770  0.33323736  1
  I  I95  1  0.50259858  0.49240357  0.66866319  1
  I  I96  1  0.50446343  0.83502802  0.00018594  1
  I  I97  1  0.50677701  0.83777645  0.33719755  1
  I  I98  1  0.50805540  0.83910992  0.66374525  1
  I  I99  1  0.82889391  0.16558220  0.00003133  1
  I  I100  1  0.83365295  0.16243065  0.33337372  1
  I  I101  1  0.83372222  0.16650221  0.66656337  1
  I  I102  1  0.83047687  0.50350424  0.00236863  1
  I  I103  1  0.83561750  0.50740270  0.33426645  1
  I  I104  1  0.83533286  0.50409293  0.66379040  1
  I  I105  1  0.83290413  0.83103519  0.00052380  1
  I  I106  1  0.82875406  0.82932101  0.33413364  1
  I  I107  1  0.82847690  0.83053322  0.66513876  1
  I  I108  1  0.00255843  0.16629708  0.16094141  1
  I  I109  1  0.00015340  0.16409069  0.49975160  1
  I  I110  1  0.00287838  0.16487573  0.83962478  1
  I  I111  1  -0.00382966  0.50218891  0.16745720  1
  I  I112  1  -0.00185161  0.50485270  0.49700004  1
  I  I113  1  -0.00008540  0.49865788  0.83434804  1
  I  I114  1  -0.00468840  0.83230305  0.17037740  1
  I  I115  1  -0.00353136  0.83205031  0.49968196  1
  I  I116  1  -0.00443716  0.83354217  0.82980273  1
  I  I117  1  0.33431122  0.16720330  0.16642554  1
  I  I118  1  0.33735215  0.16278817  0.50078858  1
  I  I119  1  0.33481734  0.17057595  0.83330653  1
  I  I120  1  0.33332130  0.50031010  0.16908190  1
  I  I121  1  0.33169239  0.49742038  0.50338545  1
  I  I122  1  0.33705402  0.49702173  0.82859342  1
  I  I123  1  0.33340339  0.83200229  0.16806230  1
  I  I124  1  0.33648823  0.83794931  0.50283856  1
  I  I125  1  0.33337424  0.83163351  0.83014980  1
  I  I126  1  0.66382413  0.16625116  0.16581061  1
  I  I127  1  0.66261900  0.16742515  0.50018861  1
  I  I128  1  0.66326983  0.16966329  0.83400053  1
  I  I129  1  0.67006135  0.50177503  0.17509908  1
  I  I130  1  0.66937770  0.50135972  0.49731702  1
  I  I131  1  0.66397572  0.49070589  0.83028649  1
  I  I132  1  0.67017950  0.83273137  0.16516382  1
  I  I133  1  0.66799593  0.83218765  0.50040552  1
  I  I134  1  0.66945838  0.83594382  0.83431456  1
