# generated using pymatgen
data_Cs27Sn13Pb14I81
_symmetry_space_group_name_H-M   'P 1'
_cell_length_a   18.97015937
_cell_length_b   18.98053294
_cell_length_c   18.98055833
_cell_angle_alpha   89.99996598
_cell_angle_beta   90.00001568
_cell_angle_gamma   89.99830646
_symmetry_Int_Tables_number   1
_chemical_formula_structural   Cs27Sn13Pb14I81
_chemical_formula_sum   'Cs27 Sn13 Pb14 I81'
_cell_volume   6834.21071948
_cell_formula_units_Z   1
loop_
 _symmetry_equiv_pos_site_id
 _symmetry_equiv_pos_as_xyz
  1  'x, y, z'
loop_
 _atom_site_type_symbol
 _atom_site_label
 _atom_site_symmetry_multiplicity
 _atom_site_fract_x
 _atom_site_fract_y
 _atom_site_fract_z
 _atom_site_occupancy
  Cs  Cs0  1  -0.00143671  0.00091228  0.00074598  1
  Cs  Cs1  1  0.00240549  -0.00108101  0.33261653  1
  Cs  Cs2  1  -0.00602450  0.00097547  0.66757893  1
  Cs  Cs3  1  0.00124378  0.33428958  0.00080162  1
  Cs  Cs4  1  0.00128705  0.33391318  0.33089107  1
  Cs  Cs5  1  0.00132246  0.33130092  0.66868311  1
  Cs  Cs6  1  -0.00208418  0.66620723  -0.00057953  1
  Cs  Cs7  1  -0.00429358  0.66738203  0.33170470  1
  Cs  Cs8  1  0.00135486  0.66893568  0.66975388  1
  Cs  Cs9  1  0.33648043  -0.00140547  0.00149000  1
  Cs  Cs10  1  0.33129573  -0.00211247  0.33180045  1
  Cs  Cs11  1  0.33438023  -0.00414739  0.66748102  1
  Cs  Cs12  1  0.33333761  0.33483392  0.00159575  1
  Cs  Cs13  1  0.33370481  0.33296464  0.33282353  1
  Cs  Cs14  1  0.33224411  0.33573514  0.66337471  1
  Cs  Cs15  1  0.33363351  0.66568365  -0.00130859  1
  Cs  Cs16  1  0.33348669  0.66888301  0.33280642  1
  Cs  Cs17  1  0.33286658  0.66730443  0.66786607  1
  Cs  Cs18  1  0.66519456  0.00242415  -0.00897417  1
  Cs  Cs19  1  0.66637668  -0.00016216  0.33558989  1
  Cs  Cs20  1  0.67522689  0.00669304  0.67567963  1
  Cs  Cs21  1  0.66574958  0.33402719  -0.00081888  1
  Cs  Cs22  1  0.66448145  0.33446112  0.34171198  1
  Cs  Cs23  1  0.66798116  0.32972576  0.66052525  1
  Cs  Cs24  1  0.66708302  0.66564375  0.00117630  1
  Cs  Cs25  1  0.67198687  0.66553843  0.33372383  1
  Cs  Cs26  1  0.66719269  0.66563026  0.66423244  1
  Sn  Sn27  1  0.16698962  0.16624561  0.50002495  1
  Sn  Sn28  1  0.50102715  0.49987763  0.83361651  1
  Sn  Sn29  1  0.16730727  0.50044941  0.16744390  1
  Sn  Sn30  1  0.83331471  0.16690972  0.16705497  1
  Sn  Sn31  1  0.83213583  0.49998205  0.83340264  1
  Sn  Sn32  1  0.16605832  0.16654432  0.16657063  1
  Sn  Sn33  1  0.16721006  0.83322376  0.49907948  1
  Sn  Sn34  1  0.16718158  0.83296206  0.16715352  1
  Sn  Sn35  1  0.16748158  0.16624297  0.83362432  1
  Sn  Sn36  1  0.16673610  0.50053428  0.49885216  1
  Sn  Sn37  1  0.49935235  0.50078451  0.16638836  1
  Sn  Sn38  1  0.49959773  0.83372205  0.49936196  1
  Sn  Sn39  1  0.49949381  0.83238285  0.16751400  1
  Pb  Pb40  1  0.49992413  0.83111561  0.83335579  1
  Pb  Pb41  1  0.49987121  0.16650679  0.16680733  1
  Pb  Pb42  1  0.83289611  0.49808803  0.16563335  1
  Pb  Pb43  1  0.83591911  0.16672564  0.49725057  1
  Pb  Pb44  1  0.49795780  0.50196854  0.49935774  1
  Pb  Pb45  1  0.49761103  0.16318720  0.50002314  1
  Pb  Pb46  1  0.83260973  0.83574646  0.16653335  1
  Pb  Pb47  1  0.16708071  0.49855740  0.83365642  1
  Pb  Pb48  1  0.83335358  0.83340151  0.49984155  1
  Pb  Pb49  1  0.83662155  0.50000243  0.50261622  1
  Pb  Pb50  1  0.16665337  0.83606009  0.83362986  1
  Pb  Pb51  1  0.83326849  0.83060630  0.83365250  1
  Pb  Pb52  1  0.49747179  0.16965827  0.83317398  1
  Pb  Pb53  1  0.83556911  0.16900457  0.83563343  1
  I  I54  1  0.16652085  -0.00006398  0.16902147  1
  I  I55  1  0.17051872  -0.00019858  0.49619507  1
  I  I56  1  0.16578061  0.00404391  0.83433465  1
  I  I57  1  0.16649435  0.33353332  0.16849068  1
  I  I58  1  0.16556336  0.33329178  0.49764905  1
  I  I59  1  0.16659340  0.33068987  0.83399565  1
  I  I60  1  0.17103599  0.66642013  0.17249263  1
  I  I61  1  0.17022765  0.66699751  0.49446344  1
  I  I62  1  0.16597295  0.66650288  0.83266441  1
  I  I63  1  0.49525114  -0.00322989  0.17126721  1
  I  I64  1  0.49260070  -0.00473065  0.49141568  1
  I  I65  1  0.49895782  -0.00003386  0.83445316  1
  I  I66  1  0.49523108  0.33641743  0.16145617  1
  I  I67  1  0.49813252  0.33350523  0.49987582  1
  I  I68  1  0.50184655  0.33769517  0.84108585  1
  I  I69  1  0.49143828  0.66632172  0.16536193  1
  I  I70  1  0.49180721  0.66963554  0.49956493  1
  I  I71  1  0.50065592  0.66307241  0.83568293  1
  I  I72  1  0.84096019  0.00335775  0.16688320  1
  I  I73  1  0.83526061  0.00013883  0.50038595  1
  I  I74  1  0.83426962  0.00061716  0.83349552  1
  I  I75  1  0.84117608  0.33058801  0.16460255  1
  I  I76  1  0.83438952  0.33337053  0.49984654  1
  I  I77  1  0.83063697  0.33646726  0.83496653  1
  I  I78  1  0.83670374  0.66649287  0.16450420  1
  I  I79  1  0.83713566  0.66657221  0.50027809  1
  I  I80  1  0.83272464  0.66248143  0.83538470  1
  I  I81  1  0.16273880  0.16837251  0.00159565  1
  I  I82  1  0.16283377  0.16692283  0.33266927  1
  I  I83  1  0.16867121  0.16893018  0.66582132  1
  I  I84  1  0.16736080  0.49923181  0.00318198  1
  I  I85  1  0.17158741  0.49540802  0.33200046  1
  I  I86  1  0.16651567  0.49927009  0.66418160  1
  I  I87  1  0.17070063  0.83260492  0.00387192  1
  I  I88  1  0.17046987  0.83718113  0.33259114  1
  I  I89  1  0.17098306  0.83188381  0.66316997  1
  I  I90  1  0.49658459  0.16240913  0.00025105  1
  I  I91  1  0.49949411  0.17281625  0.33320958  1
  I  I92  1  0.49703700  0.16717443  0.66655379  1
  I  I93  1  0.49673062  0.50487497  0.00159845  1
  I  I94  1  0.49638541  0.50082735  0.33008825  1
  I  I95  1  0.50077754  0.50111488  0.66872780  1
  I  I96  1  0.49425060  0.83166479  0.00349337  1
  I  I97  1  0.49344154  0.82782641  0.33208573  1
  I  I98  1  0.49236897  0.83113107  0.66357861  1
  I  I99  1  0.84155605  0.16678336  0.00311854  1
  I  I100  1  0.84008603  0.16801692  0.32956948  1
  I  I101  1  0.83535072  0.16703542  0.66679852  1
  I  I102  1  0.83547331  0.49817510  -0.00223568  1
  I  I103  1  0.83198979  0.49885442  0.33333720  1
  I  I104  1  0.82832353  0.49915626  0.67039139  1
  I  I105  1  0.83514696  0.83440275  0.00044774  1
  I  I106  1  0.83424728  0.83234654  0.33305497  1
  I  I107  1  0.83483935  0.83383811  0.66659536  1
  I  I108  1  0.00331229  0.16732030  0.16663633  1
  I  I109  1  0.00501859  0.16428095  0.50239442  1
  I  I110  1  0.00366999  0.17020214  0.83129919  1
  I  I111  1  0.00345962  0.50151926  0.16813458  1
  I  I112  1  0.00526799  0.50179954  0.49500942  1
  I  I113  1  -0.00136014  0.49712578  0.83310635  1
  I  I114  1  0.00363418  0.83115388  0.17086171  1
  I  I115  1  0.00430211  0.83375670  0.49549883  1
  I  I116  1  0.00042546  0.83017461  0.83305849  1
  I  I117  1  0.32944755  0.16725584  0.16727219  1
  I  I118  1  0.32858348  0.17018302  0.49562058  1
  I  I119  1  0.32917982  0.16880289  0.83730086  1
  I  I120  1  0.33206871  0.49827914  0.16391262  1
  I  I121  1  0.32944375  0.49696264  0.50138562  1
  I  I122  1  0.33549366  0.49858861  0.83543485  1
  I  I123  1  0.33192357  0.83467788  0.17013740  1
  I  I124  1  0.33154795  0.83374681  0.49559121  1
  I  I125  1  0.33314772  0.83117067  0.83316441  1
  I  I126  1  0.66911420  0.16703959  0.16448737  1
  I  I127  1  0.66670726  0.16622867  0.49866375  1
  I  I128  1  0.66685814  0.16516388  0.83588044  1
  I  I129  1  0.66342334  0.50328681  0.16331037  1
  I  I130  1  0.66644217  0.50194298  0.49781037  1
  I  I131  1  0.66559440  0.50121744  0.84150038  1
  I  I132  1  0.66283025  0.82851499  0.17140150  1
  I  I133  1  0.66314192  0.82990244  0.49349519  1
  I  I134  1  0.66632019  0.83644666  0.83384160  1
