# generated using pymatgen
data_Cs27Sn13Pb14I81
_symmetry_space_group_name_H-M   'P 1'
_cell_length_a   18.97880890
_cell_length_b   18.97189381
_cell_length_c   18.98095792
_cell_angle_alpha   89.99724500
_cell_angle_beta   89.99982707
_cell_angle_gamma   90.00079685
_symmetry_Int_Tables_number   1
_chemical_formula_structural   Cs27Sn13Pb14I81
_chemical_formula_sum   'Cs27 Sn13 Pb14 I81'
_cell_volume   6834.35862004
_cell_formula_units_Z   1
loop_
 _symmetry_equiv_pos_site_id
 _symmetry_equiv_pos_as_xyz
  1  'x, y, z'
loop_
 _atom_site_type_symbol
 _atom_site_label
 _atom_site_symmetry_multiplicity
 _atom_site_fract_x
 _atom_site_fract_y
 _atom_site_fract_z
 _atom_site_occupancy
  Cs  Cs0  1  -0.00255042  0.00224430  -0.00276903  1
  Cs  Cs1  1  -0.00096663  -0.00031645  0.33542095  1
  Cs  Cs2  1  -0.00449070  -0.00010927  0.66695699  1
  Cs  Cs3  1  0.00160584  0.33351490  0.00255096  1
  Cs  Cs4  1  0.00198208  0.33505494  0.33075399  1
  Cs  Cs5  1  0.00044736  0.33208901  0.66572125  1
  Cs  Cs6  1  0.00753944  0.66443307  0.00043649  1
  Cs  Cs7  1  0.00113766  0.66542965  0.33192533  1
  Cs  Cs8  1  0.00592612  0.66752692  0.66745553  1
  Cs  Cs9  1  0.33488180  -0.00042820  0.00181189  1
  Cs  Cs10  1  0.33084126  -0.00046440  0.33315575  1
  Cs  Cs11  1  0.33068248  0.00029520  0.66419910  1
  Cs  Cs12  1  0.33515549  0.33097808  -0.00224294  1
  Cs  Cs13  1  0.33589885  0.33125948  0.33532868  1
  Cs  Cs14  1  0.33449383  0.33406755  0.66770012  1
  Cs  Cs15  1  0.32956249  0.67522631  -0.00072945  1
  Cs  Cs16  1  0.32912505  0.67097056  0.33339240  1
  Cs  Cs17  1  0.32773691  0.66613762  0.66754137  1
  Cs  Cs18  1  0.66690248  -0.00220713  -0.00119185  1
  Cs  Cs19  1  0.66731161  -0.00145352  0.33435696  1
  Cs  Cs20  1  0.67178270  -0.00089441  0.66639149  1
  Cs  Cs21  1  0.66514438  0.33468724  0.00044976  1
  Cs  Cs22  1  0.66546963  0.33488250  0.33330337  1
  Cs  Cs23  1  0.66583822  0.33458787  0.66683079  1
  Cs  Cs24  1  0.66521922  0.66659043  -0.00079869  1
  Cs  Cs25  1  0.66759010  0.66625286  0.33520398  1
  Cs  Cs26  1  0.66648883  0.66491461  0.66414753  1
  Sn  Sn27  1  0.50069277  0.49976381  0.83365201  1
  Sn  Sn28  1  0.50024174  0.16712857  0.16601089  1
  Sn  Sn29  1  0.83277843  0.16597932  0.16687433  1
  Sn  Sn30  1  0.83218070  0.83201643  0.49907492  1
  Sn  Sn31  1  0.83271915  0.50079331  0.50090372  1
  Sn  Sn32  1  0.49971330  0.16694971  0.83393413  1
  Sn  Sn33  1  0.83279036  0.50008064  0.83272289  1
  Sn  Sn34  1  0.83284341  0.83360208  0.16691177  1
  Sn  Sn35  1  0.49993929  0.50008323  0.16639602  1
  Sn  Sn36  1  0.50076749  0.83243715  0.50017050  1
  Sn  Sn37  1  0.50054530  0.50115868  0.49997900  1
  Sn  Sn38  1  0.16702582  0.16682374  0.16595523  1
  Sn  Sn39  1  0.16753974  0.16692153  0.83389506  1
  Pb  Pb40  1  0.16593844  0.83328093  0.49991768  1
  Pb  Pb41  1  0.16336835  0.83624239  0.16665597  1
  Pb  Pb42  1  0.83315576  0.83007123  0.83333416  1
  Pb  Pb43  1  0.50177457  0.83354941  0.16854585  1
  Pb  Pb44  1  0.50014347  0.16668278  0.50034796  1
  Pb  Pb45  1  0.16675090  0.49986130  0.49987984  1
  Pb  Pb46  1  0.50018217  0.83342013  0.83051056  1
  Pb  Pb47  1  0.16725794  0.49784441  0.83340870  1
  Pb  Pb48  1  0.83267717  0.16904969  0.83559680  1
  Pb  Pb49  1  0.16668008  0.83697377  0.83340361  1
  Pb  Pb50  1  0.16660698  0.16681520  0.50022760  1
  Pb  Pb51  1  0.83172195  0.50024668  0.16667661  1
  Pb  Pb52  1  0.83322243  0.16735620  0.49751812  1
  Pb  Pb53  1  0.17065385  0.49765341  0.16658294  1
  I  I54  1  0.17335175  0.00449872  0.16296359  1
  I  I55  1  0.16768536  0.00000826  0.50049540  1
  I  I56  1  0.17280587  0.00522987  0.83791430  1
  I  I57  1  0.15992447  0.32925063  0.16320145  1
  I  I58  1  0.16611008  0.33332671  0.49898825  1
  I  I59  1  0.16840019  0.32987384  0.83842513  1
  I  I60  1  0.16621467  0.66677679  0.16749245  1
  I  I61  1  0.16757026  0.66658065  0.50006700  1
  I  I62  1  0.16674080  0.66647015  0.83236915  1
  I  I63  1  0.49849044  0.00334667  0.16367809  1
  I  I64  1  0.50424554  -0.00277595  0.49919354  1
  I  I65  1  0.49548672  0.00344321  0.83792756  1
  I  I66  1  0.50244330  0.33266090  0.16837711  1
  I  I67  1  0.50444513  0.33664356  0.49946015  1
  I  I68  1  0.50002838  0.33364653  0.83218489  1
  I  I69  1  0.50421344  0.66383563  0.16443201  1
  I  I70  1  0.50536335  0.66523804  0.49933817  1
  I  I71  1  0.50534491  0.66301984  0.83628046  1
  I  I72  1  0.83178239  0.00073767  0.17197308  1
  I  I73  1  0.82937051  -0.00294647  0.49751619  1
  I  I74  1  0.83430652  0.00021907  0.83091334  1
  I  I75  1  0.83468208  0.33080817  0.16646328  1
  I  I76  1  0.82802986  0.33693203  0.50258612  1
  I  I77  1  0.83098488  0.33682727  0.82824335  1
  I  I78  1  0.82939295  0.66884160  0.16868985  1
  I  I79  1  0.82764424  0.66637119  0.49726234  1
  I  I80  1  0.82502327  0.66218809  0.83432280  1
  I  I81  1  0.16769905  0.16751232  0.00073388  1
  I  I82  1  0.16791470  0.16660200  0.32964232  1
  I  I83  1  0.17289364  0.16776894  0.67026120  1
  I  I84  1  0.16276301  0.50128795  0.00002638  1
  I  I85  1  0.16558962  0.49610421  0.33312384  1
  I  I86  1  0.16987490  0.49616177  0.66674409  1
  I  I87  1  0.16566369  0.83029149  0.00029293  1
  I  I88  1  0.16908306  0.83717470  0.33320355  1
  I  I89  1  0.16504447  0.83614198  0.66650755  1
  I  I90  1  0.49951799  0.17430603  0.00070776  1
  I  I91  1  0.49947239  0.17016452  0.33014143  1
  I  I92  1  0.49473781  0.17011147  0.66989157  1
  I  I93  1  0.50572591  0.49266561  -0.00038000  1
  I  I94  1  0.50464861  0.49780950  0.33353270  1
  I  I95  1  0.50444013  0.49843250  0.66682179  1
  I  I96  1  0.50111971  0.83099701  0.00011363  1
  I  I97  1  0.50291343  0.82981077  0.33648147  1
  I  I98  1  0.50718737  0.83073833  0.66249440  1
  I  I99  1  0.83303967  0.16279024  0.00374552  1
  I  I100  1  0.83262657  0.16759679  0.32911024  1
  I  I101  1  0.83412107  0.16404478  0.66689771  1
  I  I102  1  0.82840370  0.49817041  -0.00208666  1
  I  I103  1  0.82835684  0.50028156  0.33585044  1
  I  I104  1  0.82493484  0.50370865  0.66586600  1
  I  I105  1  0.83315901  0.83803942  0.00282644  1
  I  I106  1  0.82903111  0.83262390  0.33400533  1
  I  I107  1  0.82916269  0.83237017  0.66330033  1
  I  I108  1  -0.00023721  0.16184836  0.16331522  1
  I  I109  1  -0.00029941  0.16639278  0.50026146  1
  I  I110  1  0.00190330  0.16794422  0.83789850  1
  I  I111  1  -0.00009940  0.49888387  0.16740196  1
  I  I112  1  -0.00382193  0.50372498  0.50428014  1
  I  I113  1  -0.00281582  0.49925159  0.82813669  1
  I  I114  1  -0.00471059  0.83666128  0.17362074  1
  I  I115  1  -0.00409007  0.82957022  0.49573901  1
  I  I116  1  -0.00034046  0.83327691  0.83115320  1
  I  I117  1  0.33448831  0.17232870  0.16292968  1
  I  I118  1  0.33375407  0.16636443  0.49565150  1
  I  I119  1  0.33479588  0.17280493  0.84130102  1
  I  I120  1  0.33899699  0.49488187  0.16734253  1
  I  I121  1  0.33748892  0.50284466  0.50078175  1
  I  I122  1  0.33722705  0.49688897  0.83173681  1
  I  I123  1  0.33346580  0.83338307  0.16879136  1
  I  I124  1  0.33645929  0.82929960  0.50041867  1
  I  I125  1  0.33369546  0.82856199  0.83111466  1
  I  I126  1  0.66572012  0.16728589  0.16363155  1
  I  I127  1  0.66658111  0.16606033  0.49959132  1
  I  I128  1  0.66357471  0.16931215  0.83750254  1
  I  I129  1  0.66362278  0.49339104  0.16695597  1
  I  I130  1  0.66594025  0.50350930  0.50067466  1
  I  I131  1  0.66518535  0.49375471  0.83217882  1
  I  I132  1  0.66957548  0.83974522  0.16910399  1
  I  I133  1  0.66738642  0.82945725  0.49598206  1
  I  I134  1  0.66667965  0.83975659  0.83549966  1
