# generated using pymatgen
data_Cs27Sn13Pb14I81
_symmetry_space_group_name_H-M   'P 1'
_cell_length_a   18.97974970
_cell_length_b   18.97970200
_cell_length_c   18.97015708
_cell_angle_alpha   90.00030343
_cell_angle_beta   90.00140498
_cell_angle_gamma   90.00013523
_symmetry_Int_Tables_number   1
_chemical_formula_structural   Cs27Sn13Pb14I81
_chemical_formula_sum   'Cs27 Sn13 Pb14 I81'
_cell_volume   6833.61955574
_cell_formula_units_Z   1
loop_
 _symmetry_equiv_pos_site_id
 _symmetry_equiv_pos_as_xyz
  1  'x, y, z'
loop_
 _atom_site_type_symbol
 _atom_site_label
 _atom_site_symmetry_multiplicity
 _atom_site_fract_x
 _atom_site_fract_y
 _atom_site_fract_z
 _atom_site_occupancy
  Cs  Cs0  1  0.00191560  -0.00029875  0.00520601  1
  Cs  Cs1  1  -0.00265095  0.00135903  0.33257952  1
  Cs  Cs2  1  -0.00031331  0.00319776  0.66416598  1
  Cs  Cs3  1  0.00070558  0.33187918  0.00685720  1
  Cs  Cs4  1  0.00312859  0.33213916  0.33033568  1
  Cs  Cs5  1  -0.00219360  0.33270641  0.66521444  1
  Cs  Cs6  1  -0.00731703  0.66813363  -0.00291748  1
  Cs  Cs7  1  0.00562122  0.66664166  0.33427958  1
  Cs  Cs8  1  0.00212157  0.66531613  0.66781555  1
  Cs  Cs9  1  0.33240872  0.00061735  -0.00240839  1
  Cs  Cs10  1  0.33544188  -0.00335435  0.33402591  1
  Cs  Cs11  1  0.33619205  -0.00143294  0.66967313  1
  Cs  Cs12  1  0.33155108  0.33214577  -0.00046464  1
  Cs  Cs13  1  0.33530587  0.33638337  0.33175910  1
  Cs  Cs14  1  0.33411775  0.33286928  0.66903528  1
  Cs  Cs15  1  0.33241519  0.66630521  0.00141550  1
  Cs  Cs16  1  0.33076720  0.66712062  0.33281839  1
  Cs  Cs17  1  0.33149571  0.66816657  0.66613685  1
  Cs  Cs18  1  0.66650092  -0.00405375  -0.00070734  1
  Cs  Cs19  1  0.66663282  0.00125075  0.33390660  1
  Cs  Cs20  1  0.66467201  0.00031872  0.66705336  1
  Cs  Cs21  1  0.66705871  0.33919942  0.00195558  1
  Cs  Cs22  1  0.66440827  0.33156690  0.33549378  1
  Cs  Cs23  1  0.66756935  0.33289419  0.66493327  1
  Cs  Cs24  1  0.67556213  0.66503309  -0.00087078  1
  Cs  Cs25  1  0.66490096  0.66544361  0.33165741  1
  Cs  Cs26  1  0.66691410  0.66689061  0.66881789  1
  Sn  Sn27  1  0.83334083  0.16689460  0.50076094  1
  Sn  Sn28  1  0.83279836  0.50005827  0.50008708  1
  Sn  Sn29  1  0.83327911  0.16664772  0.83329863  1
  Sn  Sn30  1  0.16732958  0.16665167  0.50021627  1
  Sn  Sn31  1  0.50041952  0.49954369  0.50107969  1
  Sn  Sn32  1  0.83316749  0.83308330  0.50025120  1
  Sn  Sn33  1  0.49955035  0.83397829  0.16655708  1
  Sn  Sn34  1  0.49929755  0.50006902  0.83248715  1
  Sn  Sn35  1  0.49953112  0.16715197  0.49960937  1
  Sn  Sn36  1  0.16681830  0.83300012  0.83382483  1
  Sn  Sn37  1  0.16743095  0.83336384  0.16576834  1
  Sn  Sn38  1  0.50002903  0.16574570  0.16700172  1
  Sn  Sn39  1  0.16711906  0.50029570  0.83316423  1
  Pb  Pb40  1  0.50194624  0.16856494  0.83343964  1
  Pb  Pb41  1  0.16940799  0.16454003  0.16917369  1
  Pb  Pb42  1  0.16714012  0.49787349  0.50176648  1
  Pb  Pb43  1  0.83579853  0.83576346  0.83095904  1
  Pb  Pb44  1  0.83362394  0.49795497  0.83136470  1
  Pb  Pb45  1  0.83347435  0.49983999  0.17033700  1
  Pb  Pb46  1  0.49838432  0.83068757  0.83583804  1
  Pb  Pb47  1  0.49994610  0.50022906  0.16679160  1
  Pb  Pb48  1  0.16485099  0.83543453  0.50021157  1
  Pb  Pb49  1  0.16473542  0.16676249  0.83180839  1
  Pb  Pb50  1  0.83332451  0.83336132  0.16906173  1
  Pb  Pb51  1  0.16664987  0.50256558  0.16353928  1
  Pb  Pb52  1  0.50176299  0.83293525  0.49858334  1
  Pb  Pb53  1  0.83067168  0.16668605  0.16699929  1
  I  I54  1  0.16815905  -0.00325367  0.16029346  1
  I  I55  1  0.16623019  0.00334886  0.50166826  1
  I  I56  1  0.16429741  -0.00243247  0.83573322  1
  I  I57  1  0.16711916  0.33309288  0.16619111  1
  I  I58  1  0.16237549  0.33001079  0.50250938  1
  I  I59  1  0.16957253  0.33575060  0.82912050  1
  I  I60  1  0.17423939  0.67062277  0.16936993  1
  I  I61  1  0.16540402  0.66670721  0.49831905  1
  I  I62  1  0.17033697  0.66662758  0.83533716  1
  I  I63  1  0.49714137  0.00047353  0.17340799  1
  I  I64  1  0.50154320  0.00292273  0.49734672  1
  I  I65  1  0.49936551  0.00002679  0.83101118  1
  I  I66  1  0.50189992  0.33074664  0.16957937  1
  I  I67  1  0.50445779  0.33253259  0.49797870  1
  I  I68  1  0.49427208  0.33642021  0.83309290  1
  I  I69  1  0.49544243  0.66945052  0.16818772  1
  I  I70  1  0.50495883  0.66364596  0.50190649  1
  I  I71  1  0.49928606  0.66281632  0.82719743  1
  I  I72  1  0.83460280  0.00004578  0.16982438  1
  I  I73  1  0.83393342  0.00150471  0.50290355  1
  I  I74  1  0.83346371  0.00330656  0.82553699  1
  I  I75  1  0.83178478  0.33300126  0.16703123  1
  I  I76  1  0.83168294  0.33250614  0.50450569  1
  I  I77  1  0.83418279  0.33043692  0.82558897  1
  I  I78  1  0.83007541  0.66687678  0.16742661  1
  I  I79  1  0.82869757  0.66587836  0.49890017  1
  I  I80  1  0.83212382  0.66657165  0.83165566  1
  I  I81  1  0.16558207  0.16831296  0.00008799  1
  I  I82  1  0.16025084  0.16565722  0.33728093  1
  I  I83  1  0.16990987  0.16445437  0.66351974  1
  I  I84  1  0.17384358  0.49863350  -0.00456522  1
  I  I85  1  0.16623540  0.50080512  0.33358128  1
  I  I86  1  0.16807982  0.50661557  0.66950393  1
  I  I87  1  0.17089963  0.83030586  -0.00008523  1
  I  I88  1  0.16896272  0.83599405  0.33112881  1
  I  I89  1  0.16398026  0.83042006  0.66910012  1
  I  I90  1  0.50171934  0.16420886  0.00250911  1
  I  I91  1  0.50222420  0.16845801  0.33532533  1
  I  I92  1  0.49971714  0.16917990  0.66335144  1
  I  I93  1  0.49519932  0.49894197  -0.00278746  1
  I  I94  1  0.50538918  0.49789958  0.33665537  1
  I  I95  1  0.50045100  0.49400393  0.66537333  1
  I  I96  1  0.49847872  0.83970468  0.00376253  1
  I  I97  1  0.49431118  0.83305710  0.33063373  1
  I  I98  1  0.49914546  0.83563440  0.66672688  1
  I  I99  1  0.83299674  0.16697627  -0.00254370  1
  I  I100  1  0.83471687  0.16657866  0.33730025  1
  I  I101  1  0.83171922  0.16676403  0.66393466  1
  I  I102  1  0.83207454  0.49831351  -0.00049225  1
  I  I103  1  0.82625229  0.49650197  0.33892559  1
  I  I104  1  0.83174218  0.50025128  0.66304545  1
  I  I105  1  0.83189943  0.83509997  -0.00019856  1
  I  I106  1  0.83517017  0.83685072  0.33718802  1
  I  I107  1  0.83431298  0.83251312  0.66288530  1
  I  I108  1  0.00014720  0.16522696  0.16801534  1
  I  I109  1  -0.00123222  0.16629998  0.50526309  1
  I  I110  1  -0.00293607  0.16794913  0.82478983  1
  I  I111  1  0.00023360  0.50130146  0.16695731  1
  I  I112  1  -0.00252486  0.49876462  0.50161410  1
  I  I113  1  0.00245495  0.50359276  0.83120729  1
  I  I114  1  0.00291036  0.83264145  0.16387327  1
  I  I115  1  -0.00313392  0.83380072  0.49869774  1
  I  I116  1  0.00364051  0.82671558  0.83902797  1
  I  I117  1  0.33720972  0.16555677  0.17192187  1
  I  I118  1  0.33468427  0.17102687  0.49577445  1
  I  I119  1  0.33342415  0.16580841  0.83137671  1
  I  I120  1  0.33344065  0.49857038  0.17177600  1
  I  I121  1  0.33638297  0.49482776  0.50158337  1
  I  I122  1  0.33374725  0.50251469  0.82668475  1
  I  I123  1  0.33348316  0.83761166  0.16485039  1
  I  I124  1  0.33328611  0.83431344  0.50067421  1
  I  I125  1  0.33023025  0.83356731  0.83259897  1
  I  I126  1  0.66282355  0.16092516  0.17332077  1
  I  I127  1  0.66665068  0.16778986  0.49932728  1
  I  I128  1  0.66952617  0.16825151  0.82607468  1
  I  I129  1  0.66628606  0.50303628  0.16110280  1
  I  I130  1  0.66602282  0.49512705  0.50500939  1
  I  I131  1  0.66428274  0.49734833  0.83142173  1
  I  I132  1  0.66380432  0.83725749  0.16993582  1
  I  I133  1  0.66966728  0.83788726  0.49802258  1
  I  I134  1  0.66681482  0.83239127  0.83457938  1
