# generated using pymatgen
data_Cs27Sn13Pb14I81
_symmetry_space_group_name_H-M   'P 1'
_cell_length_a   18.97753696
_cell_length_b   18.98034138
_cell_length_c   18.97189817
_cell_angle_alpha   90.00295170
_cell_angle_beta   90.00000457
_cell_angle_gamma   89.99932624
_symmetry_Int_Tables_number   1
_chemical_formula_structural   Cs27Sn13Pb14I81
_chemical_formula_sum   'Cs27 Sn13 Pb14 I81'
_cell_volume   6833.68017869
_cell_formula_units_Z   1
loop_
 _symmetry_equiv_pos_site_id
 _symmetry_equiv_pos_as_xyz
  1  'x, y, z'
loop_
 _atom_site_type_symbol
 _atom_site_label
 _atom_site_symmetry_multiplicity
 _atom_site_fract_x
 _atom_site_fract_y
 _atom_site_fract_z
 _atom_site_occupancy
  Cs  Cs0  1  0.00274537  -0.00089365  0.00043394  1
  Cs  Cs1  1  0.00367766  -0.00106599  0.33319378  1
  Cs  Cs2  1  0.00117158  0.00250353  0.66575522  1
  Cs  Cs3  1  0.00047210  0.33436715  -0.00024805  1
  Cs  Cs4  1  -0.00404464  0.32986238  0.33235097  1
  Cs  Cs5  1  0.00067322  0.33093060  0.66724387  1
  Cs  Cs6  1  -0.01112426  0.66574478  -0.00079185  1
  Cs  Cs7  1  0.00000593  0.67082644  0.33282063  1
  Cs  Cs8  1  0.00442857  0.66405164  0.66738237  1
  Cs  Cs9  1  0.33300162  0.00157235  -0.00079352  1
  Cs  Cs10  1  0.33308560  -0.00090592  0.33205642  1
  Cs  Cs11  1  0.33261856  0.00003019  0.66881676  1
  Cs  Cs12  1  0.33314822  0.33229238  0.00177516  1
  Cs  Cs13  1  0.33473739  0.33442677  0.33061782  1
  Cs  Cs14  1  0.33369191  0.33975601  0.66817721  1
  Cs  Cs15  1  0.33492298  0.66329780  -0.00142394  1
  Cs  Cs16  1  0.33330821  0.66718293  0.33618000  1
  Cs  Cs17  1  0.33014329  0.65661982  0.66517611  1
  Cs  Cs18  1  0.66463083  -0.00164424  -0.00333176  1
  Cs  Cs19  1  0.66532208  0.00121477  0.33605564  1
  Cs  Cs20  1  0.66686180  -0.00001898  0.66573998  1
  Cs  Cs21  1  0.66690716  0.33321158  0.00079355  1
  Cs  Cs22  1  0.66688706  0.33247818  0.33377564  1
  Cs  Cs23  1  0.66392632  0.33277561  0.66486566  1
  Cs  Cs24  1  0.67698031  0.66941913  -0.00402923  1
  Cs  Cs25  1  0.66616563  0.66670267  0.33252226  1
  Cs  Cs26  1  0.66592634  0.66744484  0.67051798  1
  Sn  Sn27  1  0.49967029  0.50040905  0.16675713  1
  Sn  Sn28  1  0.83331190  0.50135639  0.49995902  1
  Sn  Sn29  1  0.49998160  0.83330392  0.16693169  1
  Sn  Sn30  1  0.50087579  0.16628988  0.16742827  1
  Sn  Sn31  1  0.50042689  0.83391242  0.49963497  1
  Sn  Sn32  1  0.16616386  0.16593746  0.83255755  1
  Sn  Sn33  1  0.83248249  0.16606933  0.16555233  1
  Sn  Sn34  1  0.49853553  0.16600809  0.49935679  1
  Sn  Sn35  1  0.16831520  0.16669718  0.50053849  1
  Sn  Sn36  1  0.83386058  0.16631960  0.83447387  1
  Sn  Sn37  1  0.83288561  0.83212922  0.49993202  1
  Sn  Sn38  1  0.16658803  0.50035064  0.16683379  1
  Sn  Sn39  1  0.16702092  0.83361918  0.83348694  1
  Pb  Pb40  1  0.49773847  0.83326023  0.83259970  1
  Pb  Pb41  1  0.16703778  0.16766027  0.16647059  1
  Pb  Pb42  1  0.83293419  0.16609464  0.50001436  1
  Pb  Pb43  1  0.83285526  0.49820656  0.16831125  1
  Pb  Pb44  1  0.49960980  0.16672741  0.83306528  1
  Pb  Pb45  1  0.50161104  0.50017383  0.49811247  1
  Pb  Pb46  1  0.16902442  0.83059696  0.16429732  1
  Pb  Pb47  1  0.16751607  0.83507044  0.50154844  1
  Pb  Pb48  1  0.16647628  0.49951627  0.83595789  1
  Pb  Pb49  1  0.83548664  0.83581589  0.83054540  1
  Pb  Pb50  1  0.16436631  0.49711349  0.49750343  1
  Pb  Pb51  1  0.83106894  0.83622103  0.16871734  1
  Pb  Pb52  1  0.83335867  0.49709899  0.83031617  1
  Pb  Pb53  1  0.50039810  0.50017719  0.83677843  1
  I  I54  1  0.16670041  -0.00002643  0.16798710  1
  I  I55  1  0.16482191  0.00337971  0.50017059  1
  I  I56  1  0.16328999  0.00185016  0.83021729  1
  I  I57  1  0.17229550  0.33521392  0.16596471  1
  I  I58  1  0.17035995  0.32901950  0.50588379  1
  I  I59  1  0.16276683  0.32987535  0.83033427  1
  I  I60  1  0.17222076  0.66309903  0.16649434  1
  I  I61  1  0.16828041  0.66657991  0.50194913  1
  I  I62  1  0.16923071  0.66905714  0.83357959  1
  I  I63  1  0.50462534  0.00083600  0.17129109  1
  I  I64  1  0.50269103  0.00057590  0.49185052  1
  I  I65  1  0.50102302  0.00019326  0.83786673  1
  I  I66  1  0.49981217  0.33219486  0.17050707  1
  I  I67  1  0.49924641  0.33036449  0.49622962  1
  I  I68  1  0.49824543  0.33295857  0.83195827  1
  I  I69  1  0.49300524  0.66700375  0.17190637  1
  I  I70  1  0.50256623  0.66957675  0.49557555  1
  I  I71  1  0.49640656  0.66692503  0.83207125  1
  I  I72  1  0.82967217  0.00426567  0.16604285  1
  I  I73  1  0.83146019  -0.00193362  0.50022633  1
  I  I74  1  0.83493836  0.00373505  0.83462818  1
  I  I75  1  0.82852106  0.33007952  0.16717591  1
  I  I76  1  0.83385283  0.33437373  0.49910961  1
  I  I77  1  0.83997108  0.32901482  0.83499155  1
  I  I78  1  0.83299316  0.66695370  0.16628837  1
  I  I79  1  0.82768286  0.66757698  0.49797438  1
  I  I80  1  0.83501648  0.66695339  0.83486435  1
  I  I81  1  0.16547658  0.16501604  -0.00244639  1
  I  I82  1  0.16642953  0.16850408  0.33553113  1
  I  I83  1  0.16460837  0.16309797  0.66677995  1
  I  I84  1  0.17206402  0.49606519  0.00352865  1
  I  I85  1  0.17165251  0.49755213  0.33014554  1
  I  I86  1  0.16548782  0.50063714  0.66651594  1
  I  I87  1  0.16868485  0.84225550  -0.00315813  1
  I  I88  1  0.16469085  0.83457285  0.33337110  1
  I  I89  1  0.16741573  0.83709986  0.66935383  1
  I  I90  1  0.50076621  0.16674148  0.00334585  1
  I  I91  1  0.50068122  0.16641509  0.33295362  1
  I  I92  1  0.50087333  0.16125525  0.66331514  1
  I  I93  1  0.49559886  0.49710392  0.00545131  1
  I  I94  1  0.49716952  0.49812185  0.33000237  1
  I  I95  1  0.50095247  0.49914712  0.66613929  1
  I  I96  1  0.49702447  0.83521034  0.00315949  1
  I  I97  1  0.50302957  0.83523498  0.33350595  1
  I  I98  1  0.50410543  0.84078617  0.66285031  1
  I  I99  1  0.83340059  0.16792587  0.00047846  1
  I  I100  1  0.83217569  0.16798096  0.33142204  1
  I  I101  1  0.83525302  0.16678144  0.66848572  1
  I  I102  1  0.83320268  0.49980700  0.00015323  1
  I  I103  1  0.83303079  0.49906341  0.33599712  1
  I  I104  1  0.83337215  0.50116803  0.66254480  1
  I  I105  1  0.83256380  0.83260350  -0.00004332  1
  I  I106  1  0.83311016  0.83307662  0.33670071  1
  I  I107  1  0.82563028  0.83290847  0.66274417  1
  I  I108  1  -0.00195964  0.17036986  0.16735525  1
  I  I109  1  0.00166938  0.16717663  0.50046601  1
  I  I110  1  0.00060778  0.16342766  0.83213670  1
  I  I111  1  0.00180054  0.49562361  0.16782259  1
  I  I112  1  -0.00322776  0.50337778  0.49707221  1
  I  I113  1  -0.00002391  0.50105370  0.83675243  1
  I  I114  1  -0.00015275  0.83331949  0.16791807  1
  I  I115  1  -0.00212245  0.83239815  0.50211232  1
  I  I116  1  0.00315601  0.83661219  0.83226494  1
  I  I117  1  0.33644332  0.16584774  0.16784372  1
  I  I118  1  0.33446803  0.16124893  0.49870202  1
  I  I119  1  0.33036091  0.16292685  0.83292080  1
  I  I120  1  0.33473662  0.49594751  0.16727618  1
  I  I121  1  0.33336731  0.50140730  0.50070237  1
  I  I122  1  0.33313545  0.49791107  0.83048023  1
  I  I123  1  0.33733597  0.83975120  0.17339748  1
  I  I124  1  0.33661362  0.83731993  0.49626143  1
  I  I125  1  0.33014981  0.84234689  0.83307882  1
  I  I126  1  0.66529554  0.16953237  0.16810308  1
  I  I127  1  0.66412713  0.16626742  0.49839390  1
  I  I128  1  0.66908168  0.16772949  0.83394563  1
  I  I129  1  0.66365663  0.49936997  0.16932109  1
  I  I130  1  0.66923099  0.49653884  0.49663712  1
  I  I131  1  0.66708222  0.49818766  0.83514381  1
  I  I132  1  0.66273296  0.82893902  0.16756673  1
  I  I133  1  0.66561957  0.83689859  0.49597433  1
  I  I134  1  0.66679697  0.83432340  0.83507045  1
