# generated using pymatgen
data_Cs27Sn14Pb13I81
_symmetry_space_group_name_H-M   'P 1'
_cell_length_a   18.96774093
_cell_length_b   18.98403989
_cell_length_c   18.97481181
_cell_angle_alpha   90.00137715
_cell_angle_beta   89.99830985
_cell_angle_gamma   89.99901019
_symmetry_Int_Tables_number   1
_chemical_formula_structural   Cs27Sn14Pb13I81
_chemical_formula_sum   'Cs27 Sn14 Pb13 I81'
_cell_volume   6832.53278020
_cell_formula_units_Z   1
loop_
 _symmetry_equiv_pos_site_id
 _symmetry_equiv_pos_as_xyz
  1  'x, y, z'
loop_
 _atom_site_type_symbol
 _atom_site_label
 _atom_site_symmetry_multiplicity
 _atom_site_fract_x
 _atom_site_fract_y
 _atom_site_fract_z
 _atom_site_occupancy
  Cs  Cs0  1  -0.00599495  0.00370314  0.00184199  1
  Cs  Cs1  1  0.00133775  0.00041646  0.33519464  1
  Cs  Cs2  1  0.00285721  -0.00011322  0.66184790  1
  Cs  Cs3  1  -0.00764389  0.33105672  -0.00211968  1
  Cs  Cs4  1  -0.00087275  0.32980573  0.33175862  1
  Cs  Cs5  1  0.00135023  0.33561017  0.66881217  1
  Cs  Cs6  1  -0.00501743  0.66450188  -0.00314021  1
  Cs  Cs7  1  0.00008567  0.66916518  0.33441756  1
  Cs  Cs8  1  0.00313572  0.66330937  0.66724877  1
  Cs  Cs9  1  0.33355687  -0.00047383  0.00129348  1
  Cs  Cs10  1  0.33124916  -0.00155261  0.33245555  1
  Cs  Cs11  1  0.33324054  -0.00022609  0.66686036  1
  Cs  Cs12  1  0.33223219  0.33825448  0.00366896  1
  Cs  Cs13  1  0.33529964  0.33367232  0.33109922  1
  Cs  Cs14  1  0.33455388  0.33263423  0.66686271  1
  Cs  Cs15  1  0.33381023  0.66448282  0.00182041  1
  Cs  Cs16  1  0.33341263  0.66797122  0.33170089  1
  Cs  Cs17  1  0.33073710  0.66779265  0.66817576  1
  Cs  Cs18  1  0.67198695  0.00037711  -0.00958376  1
  Cs  Cs19  1  0.66647728  -0.00231188  0.33363463  1
  Cs  Cs20  1  0.66543527  0.00246847  0.67389956  1
  Cs  Cs21  1  0.67183356  0.33128299  -0.00089623  1
  Cs  Cs22  1  0.66345488  0.33961526  0.33654376  1
  Cs  Cs23  1  0.66524128  0.33079753  0.66352807  1
  Cs  Cs24  1  0.66944230  0.66995899  0.00025649  1
  Cs  Cs25  1  0.66679683  0.66413474  0.33305683  1
  Cs  Cs26  1  0.66932408  0.66569143  0.66668607  1
  Sn  Sn27  1  0.16691636  0.83434767  0.83414099  1
  Sn  Sn28  1  0.16719518  0.49975331  0.49876168  1
  Sn  Sn29  1  0.50019469  0.16605710  0.16662421  1
  Sn  Sn30  1  0.49928232  0.50029597  0.16535564  1
  Sn  Sn31  1  0.83373162  0.16585253  0.49949973  1
  Sn  Sn32  1  0.49979151  0.50013860  0.83412311  1
  Sn  Sn33  1  0.16648675  0.50079229  0.16741009  1
  Sn  Sn34  1  0.83315231  0.83423445  0.49988655  1
  Sn  Sn35  1  0.16642200  0.16686221  0.50063489  1
  Sn  Sn36  1  0.50002632  0.83344433  0.49973374  1
  Sn  Sn37  1  0.16700412  0.83334862  0.49981780  1
  Sn  Sn38  1  0.16698768  0.83249306  0.16602953  1
  Sn  Sn39  1  0.49947077  0.83380976  0.16705288  1
  Sn  Sn40  1  0.16739525  0.16601851  0.83319056  1
  Pb  Pb41  1  0.49735818  0.16882361  0.83588459  1
  Pb  Pb42  1  0.82974825  0.16645861  0.16983655  1
  Pb  Pb43  1  0.49768190  0.50253873  0.49968020  1
  Pb  Pb44  1  0.83626254  0.16657533  0.83015890  1
  Pb  Pb45  1  0.83682925  0.83333139  0.83001764  1
  Pb  Pb46  1  0.49953743  0.16416524  0.49842011  1
  Pb  Pb47  1  0.49796675  0.83182080  0.83378460  1
  Pb  Pb48  1  0.83345357  0.83337738  0.16878092  1
  Pb  Pb49  1  0.82950959  0.50003841  0.83309423  1
  Pb  Pb50  1  0.83362637  0.50015114  0.16687136  1
  Pb  Pb51  1  0.83637820  0.49995506  0.49977713  1
  Pb  Pb52  1  0.16765432  0.49982313  0.83406429  1
  Pb  Pb53  1  0.16769391  0.16665423  0.16666670  1
  I  I54  1  0.17172154  -0.00299650  0.16995981  1
  I  I55  1  0.16596443  -0.00116676  0.50018165  1
  I  I56  1  0.16834750  -0.00075535  0.82855339  1
  I  I57  1  0.17261493  0.33586191  0.17066138  1
  I  I58  1  0.16234679  0.33294015  0.50062319  1
  I  I59  1  0.16897759  0.33112145  0.82842156  1
  I  I60  1  0.17494763  0.66744900  0.17114949  1
  I  I61  1  0.16704753  0.66812164  0.50020767  1
  I  I62  1  0.16850858  0.66918065  0.82937108  1
  I  I63  1  0.49364709  -0.00156561  0.17376332  1
  I  I64  1  0.49442586  -0.00382955  0.49445446  1
  I  I65  1  0.50067424  -0.00002649  0.83395438  1
  I  I66  1  0.49448308  0.33442702  0.16352156  1
  I  I67  1  0.50015047  0.33343984  0.49875923  1
  I  I68  1  0.49568983  0.33658992  0.83764702  1
  I  I69  1  0.49465365  0.66706054  0.16745013  1
  I  I70  1  0.49946925  0.67056617  0.49498387  1
  I  I71  1  0.49522197  0.66414312  0.83798624  1
  I  I72  1  0.83466341  -0.00008962  0.16659414  1
  I  I73  1  0.84035227  -0.00080144  0.49836520  1
  I  I74  1  0.82883105  -0.00007466  0.83598825  1
  I  I75  1  0.83473079  0.33323380  0.16933523  1
  I  I76  1  0.83807189  0.33024846  0.50005911  1
  I  I77  1  0.83704391  0.33311357  0.83106839  1
  I  I78  1  0.82990059  0.66684787  0.17001370  1
  I  I79  1  0.83418635  0.66992997  0.49947345  1
  I  I80  1  0.83711214  0.66692487  0.83035708  1
  I  I81  1  0.17129563  0.16356606  -0.00211620  1
  I  I82  1  0.16431302  0.16425588  0.33630743  1
  I  I83  1  0.16369905  0.16363050  0.66508039  1
  I  I84  1  0.17086956  0.50360828  0.00311677  1
  I  I85  1  0.17232452  0.50314678  0.33324001  1
  I  I86  1  0.16799188  0.50298549  0.66432649  1
  I  I87  1  0.17433507  0.83267323  0.00109479  1
  I  I88  1  0.16728251  0.83293483  0.33426404  1
  I  I89  1  0.16666515  0.83320131  0.66489073  1
  I  I90  1  0.49606617  0.16138640  0.00386608  1
  I  I91  1  0.49706442  0.17175771  0.33056379  1
  I  I92  1  0.50190371  0.16768886  0.66657776  1
  I  I93  1  0.49148846  0.50183810  0.00221235  1
  I  I94  1  0.49800407  0.49836018  0.33023993  1
  I  I95  1  0.49695491  0.50202835  0.66829746  1
  I  I96  1  0.49354669  0.83368528  0.00349217  1
  I  I97  1  0.49491822  0.83158321  0.33287110  1
  I  I98  1  0.49795380  0.83147125  0.66395547  1
  I  I99  1  0.83442176  0.16800202  -0.00009684  1
  I  I100  1  0.84334372  0.16213267  0.33740619  1
  I  I101  1  0.83350781  0.16137492  0.66232840  1
  I  I102  1  0.83985752  0.49911107  0.00003123  1
  I  I103  1  0.82801090  0.49965052  0.33361821  1
  I  I104  1  0.83385628  0.50101931  0.66616639  1
  I  I105  1  0.83300104  0.83252372  -0.00021621  1
  I  I106  1  0.83885852  0.83692210  0.33702053  1
  I  I107  1  0.83170335  0.83739842  0.66177767  1
  I  I108  1  0.00006126  0.16718417  0.16440883  1
  I  I109  1  0.00202286  0.16169499  0.50261832  1
  I  I110  1  0.00444818  0.16400959  0.83396331  1
  I  I111  1  0.00402273  0.50539165  0.17167033  1
  I  I112  1  0.00488473  0.50510614  0.49570041  1
  I  I113  1  0.00030710  0.49994203  0.83279786  1
  I  I114  1  0.00390296  0.82882251  0.16791769  1
  I  I115  1  0.00199155  0.83394908  0.49993696  1
  I  I116  1  0.00525964  0.83536776  0.83450730  1
  I  I117  1  0.33562699  0.16683524  0.16979282  1
  I  I118  1  0.32994206  0.16557998  0.50249195  1
  I  I119  1  0.32966642  0.16233921  0.82437163  1
  I  I120  1  0.33328280  0.50112200  0.16725067  1
  I  I121  1  0.32939972  0.49936450  0.49869791  1
  I  I122  1  0.33525273  0.50060730  0.83552304  1
  I  I123  1  0.33286375  0.83244643  0.17225397  1
  I  I124  1  0.33171083  0.83330940  0.49890372  1
  I  I125  1  0.32974870  0.83609876  0.82715745  1
  I  I126  1  0.66170785  0.16735776  0.16839203  1
  I  I127  1  0.66884504  0.16205909  0.49650093  1
  I  I128  1  0.66651514  0.16890732  0.83293720  1
  I  I129  1  0.66275656  0.50101385  0.16312728  1
  I  I130  1  0.66636904  0.50008563  0.50029511  1
  I  I131  1  0.66150496  0.50144180  0.84014530  1
  I  I132  1  0.66298598  0.83112203  0.17259434  1
  I  I133  1  0.66615937  0.83695617  0.49365121  1
  I  I134  1  0.66665964  0.83086849  0.83294922  1
