# generated using pymatgen
data_Cs27Sn14Pb13I81
_symmetry_space_group_name_H-M   'P 1'
_cell_length_a   18.95214805
_cell_length_b   18.96589083
_cell_length_c   18.96590507
_cell_angle_alpha   90.00024305
_cell_angle_beta   89.99893656
_cell_angle_gamma   90.00083911
_symmetry_Int_Tables_number   1
_chemical_formula_structural   Cs27Sn14Pb13I81
_chemical_formula_sum   'Cs27 Sn14 Pb13 I81'
_cell_volume   6817.18781687
_cell_formula_units_Z   1
loop_
 _symmetry_equiv_pos_site_id
 _symmetry_equiv_pos_as_xyz
  1  'x, y, z'
loop_
 _atom_site_type_symbol
 _atom_site_label
 _atom_site_symmetry_multiplicity
 _atom_site_fract_x
 _atom_site_fract_y
 _atom_site_fract_z
 _atom_site_occupancy
  Cs  Cs0  1  0.00139587  -0.00057217  0.00066156  1
  Cs  Cs1  1  -0.00063762  0.00231765  0.33343660  1
  Cs  Cs2  1  0.00002606  -0.00019653  0.66583784  1
  Cs  Cs3  1  -0.00060327  0.33354081  0.00046524  1
  Cs  Cs4  1  0.00070743  0.33113984  0.33206960  1
  Cs  Cs5  1  0.00146532  0.33327991  0.66727855  1
  Cs  Cs6  1  0.00011244  0.66639957  -0.00256640  1
  Cs  Cs7  1  -0.00122924  0.66487620  0.33492818  1
  Cs  Cs8  1  -0.00377930  0.66807396  0.66811849  1
  Cs  Cs9  1  0.33369215  -0.00260873  0.00682067  1
  Cs  Cs10  1  0.33370075  -0.00153418  0.32881893  1
  Cs  Cs11  1  0.33437065  -0.00121725  0.66681173  1
  Cs  Cs12  1  0.33387001  0.33340885  -0.00209350  1
  Cs  Cs13  1  0.33668734  0.33404097  0.33314953  1
  Cs  Cs14  1  0.33236862  0.33346010  0.66725191  1
  Cs  Cs15  1  0.33380338  0.66865638  -0.00076439  1
  Cs  Cs16  1  0.33602749  0.66668675  0.33303770  1
  Cs  Cs17  1  0.33197714  0.66841684  0.66820396  1
  Cs  Cs18  1  0.66551367  0.00262886  0.00128335  1
  Cs  Cs19  1  0.66878203  -0.00092445  0.33285036  1
  Cs  Cs20  1  0.66417765  0.00015679  0.66636524  1
  Cs  Cs21  1  0.66723246  0.33214162  -0.00118191  1
  Cs  Cs22  1  0.66105094  0.33602724  0.33501513  1
  Cs  Cs23  1  0.66399663  0.33376673  0.66596392  1
  Cs  Cs24  1  0.66593359  0.66611787  -0.00004906  1
  Cs  Cs25  1  0.66490300  0.66500486  0.33433379  1
  Cs  Cs26  1  0.67180815  0.66698763  0.66605754  1
  Sn  Sn27  1  0.16645881  0.49996909  0.50011679  1
  Sn  Sn28  1  0.49935141  0.83338571  0.50092887  1
  Sn  Sn29  1  0.83376847  0.16701117  0.16684880  1
  Sn  Sn30  1  0.83378089  0.83302600  0.16649778  1
  Sn  Sn31  1  0.83403285  0.49995639  0.16665545  1
  Sn  Sn32  1  0.49989660  0.83254379  0.83261934  1
  Sn  Sn33  1  0.16596679  0.16700235  0.83286528  1
  Sn  Sn34  1  0.16721872  0.83343552  0.50015445  1
  Sn  Sn35  1  0.49941127  0.50099878  0.83306544  1
  Sn  Sn36  1  0.16615294  0.49997751  0.16661856  1
  Sn  Sn37  1  0.83379057  0.16694803  0.50023095  1
  Sn  Sn38  1  0.16714306  0.49956047  0.83326941  1
  Sn  Sn39  1  0.16619258  0.16657892  0.50059476  1
  Sn  Sn40  1  0.83430172  0.16675106  0.83296296  1
  Pb  Pb41  1  0.83089036  0.83606552  0.83531858  1
  Pb  Pb42  1  0.50289233  0.16691256  0.16685706  1
  Pb  Pb43  1  0.83545770  0.49742877  0.49790330  1
  Pb  Pb44  1  0.16809791  0.83375091  0.83170820  1
  Pb  Pb45  1  0.49965701  0.49997646  0.16418923  1
  Pb  Pb46  1  0.49752296  0.50230844  0.50262465  1
  Pb  Pb47  1  0.83352977  0.83522616  0.49846635  1
  Pb  Pb48  1  0.49904944  0.16443642  0.49998170  1
  Pb  Pb49  1  0.16519003  0.16857536  0.16663638  1
  Pb  Pb50  1  0.49899298  0.16647963  0.83324487  1
  Pb  Pb51  1  0.16445426  0.83060410  0.16936193  1
  Pb  Pb52  1  0.50225200  0.83313140  0.16680467  1
  Pb  Pb53  1  0.83371626  0.49808234  0.83496208  1
  I  I54  1  0.16527820  -0.00005080  0.16624565  1
  I  I55  1  0.16588557  0.00093926  0.50512318  1
  I  I56  1  0.16356683  0.00302272  0.82856188  1
  I  I57  1  0.16070090  0.33675263  0.16969909  1
  I  I58  1  0.16088728  0.33314618  0.50092057  1
  I  I59  1  0.16814045  0.33378835  0.82948330  1
  I  I60  1  0.16082465  0.66247013  0.16507770  1
  I  I61  1  0.17165456  0.66628150  0.49888731  1
  I  I62  1  0.16920328  0.66377517  0.83316284  1
  I  I63  1  0.50109496  -0.00029315  0.16376172  1
  I  I64  1  0.49578458  -0.00347823  0.50654335  1
  I  I65  1  0.50178904  -0.00262637  0.82922185  1
  I  I66  1  0.50223666  0.33376438  0.16511821  1
  I  I67  1  0.50062959  0.33356278  0.50071095  1
  I  I68  1  0.49863356  0.33586564  0.83524933  1
  I  I69  1  0.50356615  0.66656139  0.16800912  1
  I  I70  1  0.49559994  0.67019855  0.50085954  1
  I  I71  1  0.49400824  0.66620939  0.83090110  1
  I  I72  1  0.83137721  0.00113600  0.16721978  1
  I  I73  1  0.83841858  0.00343511  0.49751692  1
  I  I74  1  0.83799493  0.00421971  0.83542691  1
  I  I75  1  0.83831571  0.33303946  0.16584382  1
  I  I76  1  0.83840639  0.32915638  0.49867972  1
  I  I77  1  0.83279710  0.32986640  0.83550278  1
  I  I78  1  0.83701155  0.66578801  0.16677329  1
  I  I79  1  0.83416276  0.66654707  0.49713670  1
  I  I80  1  0.83495024  0.66664013  0.83592657  1
  I  I81  1  0.16295676  0.17157821  -0.00287657  1
  I  I82  1  0.16238855  0.16690131  0.33633695  1
  I  I83  1  0.15870894  0.17123954  0.66643743  1
  I  I84  1  0.16631629  0.49496673  -0.00082733  1
  I  I85  1  0.16055981  0.50014907  0.33376462  1
  I  I86  1  0.17188891  0.49814951  0.66690078  1
  I  I87  1  0.16778107  0.83378420  0.00012962  1
  I  I88  1  0.17216665  0.83547608  0.33762818  1
  I  I89  1  0.16721805  0.83008636  0.66333459  1
  I  I90  1  0.50011705  0.16404536  -0.00040141  1
  I  I91  1  0.49971569  0.16471482  0.33370458  1
  I  I92  1  0.50637148  0.16779684  0.66673775  1
  I  I93  1  0.49480281  0.50556911  -0.00373699  1
  I  I94  1  0.49994715  0.50129897  0.33361730  1
  I  I95  1  0.49544051  0.50032126  0.67052605  1
  I  I96  1  0.50182653  0.83016283  -0.00280393  1
  I  I97  1  0.49669250  0.83489767  0.33628357  1
  I  I98  1  0.49628905  0.83055895  0.66659645  1
  I  I99  1  0.83633350  0.16699381  0.00004432  1
  I  I100  1  0.83799525  0.16562496  0.33340104  1
  I  I101  1  0.83774527  0.16591174  0.66661059  1
  I  I102  1  0.83822798  0.49757935  0.00316846  1
  I  I103  1  0.83839820  0.49827085  0.32964504  1
  I  I104  1  0.83342495  0.49880967  0.66668397  1
  I  I105  1  0.83211067  0.83521419  0.00332785  1
  I  I106  1  0.83235023  0.83568744  0.33043125  1
  I  I107  1  0.83399293  0.83498308  0.66663332  1
  I  I108  1  -0.00334575  0.16528273  0.16684731  1
  I  I109  1  0.00083967  0.16463776  0.50008172  1
  I  I110  1  0.00061861  0.17214031  0.83286223  1
  I  I111  1  0.00021309  0.49938312  0.16495844  1
  I  I112  1  0.00411034  0.50513850  0.50511915  1
  I  I113  1  0.00332048  0.49738251  0.83219026  1
  I  I114  1  -0.00349086  0.83655290  0.16802395  1
  I  I115  1  0.00299130  0.83218387  0.49795639  1
  I  I116  1  -0.00006407  0.83119192  0.83270543  1
  I  I117  1  0.33285028  0.16769116  0.16609728  1
  I  I118  1  0.32925852  0.16906567  0.50625687  1
  I  I119  1  0.32964534  0.16895020  0.82689009  1
  I  I120  1  0.32982913  0.49991840  0.16888563  1
  I  I121  1  0.32889592  0.49441599  0.49489903  1
  I  I122  1  0.33154261  0.49759487  0.83500574  1
  I  I123  1  0.33304195  0.83213629  0.16557560  1
  I  I124  1  0.33236630  0.83483411  0.50374673  1
  I  I125  1  0.33617537  0.83377436  0.83189790  1
  I  I126  1  0.67210940  0.16890886  0.16576712  1
  I  I127  1  0.66965869  0.16421147  0.49931422  1
  I  I128  1  0.66946502  0.16638292  0.83471614  1
  I  I129  1  0.66983596  0.49889961  0.16478225  1
  I  I130  1  0.66665384  0.49997921  0.49922168  1
  I  I131  1  0.66449831  0.50188414  0.83623565  1
  I  I132  1  0.67042954  0.83276662  0.16834106  1
  I  I133  1  0.66436548  0.83581647  0.50192451  1
  I  I134  1  0.66297677  0.82818730  0.82724452  1
