# generated using pymatgen
data_Cs27Sn13Pb14I81
_symmetry_space_group_name_H-M   'P 1'
_cell_length_a   18.97692146
_cell_length_b   18.97394233
_cell_length_c   18.97868109
_cell_angle_alpha   89.99998177
_cell_angle_beta   89.99896626
_cell_angle_gamma   89.99974355
_symmetry_Int_Tables_number   1
_chemical_formula_structural   Cs27Sn13Pb14I81
_chemical_formula_sum   'Cs27 Sn13 Pb14 I81'
_cell_volume   6833.59701472
_cell_formula_units_Z   1
loop_
 _symmetry_equiv_pos_site_id
 _symmetry_equiv_pos_as_xyz
  1  'x, y, z'
loop_
 _atom_site_type_symbol
 _atom_site_label
 _atom_site_symmetry_multiplicity
 _atom_site_fract_x
 _atom_site_fract_y
 _atom_site_fract_z
 _atom_site_occupancy
  Cs  Cs0  1  -0.00030812  -0.00080831  -0.00138842  1
  Cs  Cs1  1  -0.00230319  0.00317265  0.33497503  1
  Cs  Cs2  1  -0.00057451  0.00024429  0.66534762  1
  Cs  Cs3  1  -0.00061246  0.33487431  0.00053148  1
  Cs  Cs4  1  -0.00190834  0.33032832  0.33270770  1
  Cs  Cs5  1  -0.00323319  0.33131754  0.66964376  1
  Cs  Cs6  1  0.00711113  0.66488595  0.00201768  1
  Cs  Cs7  1  0.00555609  0.66671800  0.33081213  1
  Cs  Cs8  1  0.00366649  0.66768036  0.66853941  1
  Cs  Cs9  1  0.33784275  0.00145371  -0.00361818  1
  Cs  Cs10  1  0.33657151  0.00007282  0.33271619  1
  Cs  Cs11  1  0.33261600  -0.00084137  0.66901174  1
  Cs  Cs12  1  0.33500804  0.33100971  -0.00703157  1
  Cs  Cs13  1  0.33251738  0.33565772  0.33395000  1
  Cs  Cs14  1  0.33659179  0.33887781  0.67258391  1
  Cs  Cs15  1  0.32088420  0.66730498  0.00409161  1
  Cs  Cs16  1  0.32366743  0.66253875  0.33327356  1
  Cs  Cs17  1  0.32996624  0.66280180  0.66437202  1
  Cs  Cs18  1  0.66393862  -0.00208000  0.00141007  1
  Cs  Cs19  1  0.66685190  -0.00054411  0.33363770  1
  Cs  Cs20  1  0.66799051  -0.00204475  0.66474069  1
  Cs  Cs21  1  0.66531355  0.33450025  -0.00039630  1
  Cs  Cs22  1  0.66709501  0.33317830  0.33333813  1
  Cs  Cs23  1  0.66702872  0.33693950  0.66674939  1
  Cs  Cs24  1  0.66756908  0.66803480  -0.00009069  1
  Cs  Cs25  1  0.66690689  0.66662704  0.33293157  1
  Cs  Cs26  1  0.66584266  0.66809079  0.66775736  1
  Sn  Sn27  1  0.16630395  0.16654022  0.16724148  1
  Sn  Sn28  1  0.83259160  0.83407751  0.83269972  1
  Sn  Sn29  1  0.83314055  0.50047462  0.49919710  1
  Sn  Sn30  1  0.83291773  0.16667568  0.49997354  1
  Sn  Sn31  1  0.83272072  0.83283888  0.50050531  1
  Sn  Sn32  1  0.83272782  0.16574708  0.83355573  1
  Sn  Sn33  1  0.50078497  0.50028231  0.16664246  1
  Sn  Sn34  1  0.16714506  0.16666770  0.49950775  1
  Sn  Sn35  1  0.83361113  0.16723926  0.16638224  1
  Sn  Sn36  1  0.83206689  0.49937256  0.16761077  1
  Sn  Sn37  1  0.50000359  0.16640725  0.50013943  1
  Sn  Sn38  1  0.50079617  0.83277055  0.83261867  1
  Sn  Sn39  1  0.50062834  0.83367814  0.50057093  1
  Pb  Pb40  1  0.83346377  0.83327712  0.16678030  1
  Pb  Pb41  1  0.16658272  0.49967343  0.83307273  1
  Pb  Pb42  1  0.50188079  0.50062055  0.49853433  1
  Pb  Pb43  1  0.16644250  0.83373732  0.83294515  1
  Pb  Pb44  1  0.16667742  0.83579757  0.49991490  1
  Pb  Pb45  1  0.50034032  0.50375810  0.83624548  1
  Pb  Pb46  1  0.16322196  0.49660712  0.50014275  1
  Pb  Pb47  1  0.50286691  0.16492240  0.83042473  1
  Pb  Pb48  1  0.16429763  0.16657444  0.83307377  1
  Pb  Pb49  1  0.49999597  0.83054614  0.16737909  1
  Pb  Pb50  1  0.50022569  0.16823491  0.16864451  1
  Pb  Pb51  1  0.83328710  0.50078316  0.83362784  1
  Pb  Pb52  1  0.16667225  0.83743016  0.16694749  1
  Pb  Pb53  1  0.16606914  0.49670147  0.16677726  1
  I  I54  1  0.15898165  0.00522436  0.17140297  1
  I  I55  1  0.16058333  0.00391445  0.49612891  1
  I  I56  1  0.16741898  0.00028270  0.83488959  1
  I  I57  1  0.16294704  0.32925617  0.17243600  1
  I  I58  1  0.16658758  0.32844953  0.49466537  1
  I  I59  1  0.16481658  0.33253593  0.83334545  1
  I  I60  1  0.16621803  0.66630123  0.16521687  1
  I  I61  1  0.16693018  0.66653300  0.50036640  1
  I  I62  1  0.16346273  0.66704142  0.83467085  1
  I  I63  1  0.49967090  0.00002070  0.16560280  1
  I  I64  1  0.50509653  0.00034173  0.50159924  1
  I  I65  1  0.50224261  -0.00308451  0.83343505  1
  I  I66  1  0.50328744  0.33594792  0.17006522  1
  I  I67  1  0.50176939  0.33062891  0.49687011  1
  I  I68  1  0.50014281  0.33341789  0.83259470  1
  I  I69  1  0.50937591  0.66294562  0.16777955  1
  I  I70  1  0.50669328  0.66992477  0.50282546  1
  I  I71  1  0.51020773  0.67144647  0.82474952  1
  I  I72  1  0.83734575  0.00338002  0.16943089  1
  I  I73  1  0.83349375  0.00118425  0.50020180  1
  I  I74  1  0.83098878  0.00040519  0.83004230  1
  I  I75  1  0.83365919  0.33217796  0.17029502  1
  I  I76  1  0.83364683  0.33172921  0.49932962  1
  I  I77  1  0.83513743  0.33043952  0.83034866  1
  I  I78  1  0.82870907  0.66364609  0.16994745  1
  I  I79  1  0.82690527  0.66744858  0.50022049  1
  I  I80  1  0.82902938  0.67021632  0.82943105  1
  I  I81  1  0.16095897  0.16775657  0.00301568  1
  I  I82  1  0.15982654  0.16640375  0.33404406  1
  I  I83  1  0.16399216  0.16538367  0.66331917  1
  I  I84  1  0.16418665  0.49878958  0.00058940  1
  I  I85  1  0.16876019  0.50252514  0.33339740  1
  I  I86  1  0.16539587  0.49775620  0.66608658  1
  I  I87  1  0.16609303  0.83387713  -0.00013706  1
  I  I88  1  0.16653813  0.83125094  0.33369464  1
  I  I89  1  0.16523023  0.83654630  0.66634283  1
  I  I90  1  0.49948172  0.16595576  -0.00016087  1
  I  I91  1  0.50516296  0.16094810  0.33689728  1
  I  I92  1  0.49964561  0.16638485  0.66215328  1
  I  I93  1  0.50828810  0.49821302  0.00390435  1
  I  I94  1  0.50406486  0.50044896  0.33077924  1
  I  I95  1  0.50128123  0.49737992  0.66658184  1
  I  I96  1  0.50601377  0.83269199  -0.00285629  1
  I  I97  1  0.50639645  0.83804420  0.33714454  1
  I  I98  1  0.50609058  0.83842026  0.66543266  1
  I  I99  1  0.83860228  0.16708504  0.00063697  1
  I  I100  1  0.83433960  0.16698464  0.33448961  1
  I  I101  1  0.83410339  0.16666717  0.66506991  1
  I  I102  1  0.83047736  0.49557959  0.00327699  1
  I  I103  1  0.82947993  0.49582376  0.33350520  1
  I  I104  1  0.83342799  0.49579391  0.66359190  1
  I  I105  1  0.82882518  0.83763003  -0.00301821  1
  I  I106  1  0.82878741  0.83669366  0.33682600  1
  I  I107  1  0.82981841  0.83740510  0.66553665  1
  I  I108  1  -0.00224499  0.17144442  0.17163633  1
  I  I109  1  -0.00207889  0.16666787  0.49898901  1
  I  I110  1  -0.00445259  0.16125755  0.82884902  1
  I  I111  1  -0.00354754  0.49809368  0.17013727  1
  I  I112  1  -0.00529762  0.50140221  0.49358975  1
  I  I113  1  -0.00087308  0.50159665  0.83521763  1
  I  I114  1  -0.00042419  0.82826061  0.16598171  1
  I  I115  1  -0.00375314  0.83435099  0.50376803  1
  I  I116  1  -0.00388843  0.83754053  0.82860513  1
  I  I117  1  0.33100950  0.16779926  0.17274392  1
  I  I118  1  0.33369448  0.16064281  0.49338724  1
  I  I119  1  0.33378272  0.16516275  0.83443927  1
  I  I120  1  0.33558899  0.50088928  0.16688722  1
  I  I121  1  0.33337727  0.50021127  0.49794408  1
  I  I122  1  0.33390878  0.50042985  0.83502537  1
  I  I123  1  0.33354207  0.83177702  0.16625382  1
  I  I124  1  0.33683106  0.83845222  0.50377610  1
  I  I125  1  0.33669804  0.83307717  0.82895769  1
  I  I126  1  0.67007453  0.16858815  0.16823148  1
  I  I127  1  0.66833450  0.16569646  0.49931823  1
  I  I128  1  0.67110030  0.16544226  0.83464557  1
  I  I129  1  0.66882558  0.49380501  0.17062473  1
  I  I130  1  0.67032294  0.49455928  0.49764841  1
  I  I131  1  0.66698568  0.49696256  0.83256608  1
  I  I132  1  0.66688487  0.83769360  0.16663404  1
  I  I133  1  0.66793580  0.83893011  0.50360347  1
  I  I134  1  0.66798777  0.83764520  0.82873527  1
