# generated using pymatgen
data_Cs27Sn13Pb14I81
_symmetry_space_group_name_H-M   'P 1'
_cell_length_a   18.98699750
_cell_length_b   18.96924983
_cell_length_c   18.97769255
_cell_angle_alpha   90.00069870
_cell_angle_beta   89.99968849
_cell_angle_gamma   90.00053987
_symmetry_Int_Tables_number   1
_chemical_formula_structural   Cs27Sn13Pb14I81
_chemical_formula_sum   'Cs27 Sn13 Pb14 I81'
_cell_volume   6835.17842683
_cell_formula_units_Z   1
loop_
 _symmetry_equiv_pos_site_id
 _symmetry_equiv_pos_as_xyz
  1  'x, y, z'
loop_
 _atom_site_type_symbol
 _atom_site_label
 _atom_site_symmetry_multiplicity
 _atom_site_fract_x
 _atom_site_fract_y
 _atom_site_fract_z
 _atom_site_occupancy
  Cs  Cs0  1  -0.00334443  -0.00097193  0.00181038  1
  Cs  Cs1  1  -0.00066322  -0.00105583  0.33475750  1
  Cs  Cs2  1  0.00157558  0.00113907  0.66459111  1
  Cs  Cs3  1  -0.00374547  0.33405850  0.00300335  1
  Cs  Cs4  1  0.00313948  0.33557531  0.33007087  1
  Cs  Cs5  1  0.00185188  0.33272483  0.66750046  1
  Cs  Cs6  1  -0.00066040  0.66789595  0.00147748  1
  Cs  Cs7  1  -0.00058052  0.66783432  0.33172477  1
  Cs  Cs8  1  0.00202307  0.66448551  0.66693016  1
  Cs  Cs9  1  0.33473007  0.00025672  -0.00139666  1
  Cs  Cs10  1  0.33331509  0.00095940  0.33510679  1
  Cs  Cs11  1  0.33301522  -0.00026464  0.66723345  1
  Cs  Cs12  1  0.33250798  0.33395674  0.00051284  1
  Cs  Cs13  1  0.33297730  0.33373108  0.32743304  1
  Cs  Cs14  1  0.33138690  0.33176621  0.66821451  1
  Cs  Cs15  1  0.33274637  0.66597923  -0.00311338  1
  Cs  Cs16  1  0.33636870  0.66493343  0.33537159  1
  Cs  Cs17  1  0.33357283  0.66953107  0.66796870  1
  Cs  Cs18  1  0.66865580  -0.00075056  0.00164389  1
  Cs  Cs19  1  0.66851572  -0.00009722  0.33237511  1
  Cs  Cs20  1  0.66520270  0.00153679  0.66650762  1
  Cs  Cs21  1  0.67126843  0.33278454  0.00193393  1
  Cs  Cs22  1  0.66295582  0.34194340  0.33010266  1
  Cs  Cs23  1  0.66696270  0.33403233  0.66769134  1
  Cs  Cs24  1  0.66845987  0.66967523  -0.00041411  1
  Cs  Cs25  1  0.66477262  0.66139425  0.33567277  1
  Cs  Cs26  1  0.66403939  0.66289114  0.66416811  1
  Sn  Sn27  1  0.16722884  0.83370464  0.16673118  1
  Sn  Sn28  1  0.16676700  0.16753929  0.50060967  1
  Sn  Sn29  1  0.16698556  0.16723914  0.83305485  1
  Sn  Sn30  1  0.16682779  0.49922892  0.50077861  1
  Sn  Sn31  1  0.16733213  0.49907603  0.83256361  1
  Sn  Sn32  1  0.83308731  0.16667244  0.49986824  1
  Sn  Sn33  1  0.50002421  0.16671555  0.50036144  1
  Sn  Sn34  1  0.49954016  0.16753402  0.83283658  1
  Sn  Sn35  1  0.83304579  0.83363283  0.16728344  1
  Sn  Sn36  1  0.83342049  0.83340723  0.83231858  1
  Sn  Sn37  1  0.49941976  0.49901508  0.83324210  1
  Sn  Sn38  1  0.49983789  0.83355884  0.16684169  1
  Sn  Sn39  1  0.83332399  0.83371084  0.50048837  1
  Pb  Pb40  1  0.16671137  0.16461024  0.16628361  1
  Pb  Pb41  1  0.50237802  0.83545577  0.49816889  1
  Pb  Pb42  1  0.16682004  0.50233435  0.16614332  1
  Pb  Pb43  1  0.83574618  0.49928785  0.50016553  1
  Pb  Pb44  1  0.49716581  0.49713282  0.50229112  1
  Pb  Pb45  1  0.83346317  0.16493601  0.83146487  1
  Pb  Pb46  1  0.83370556  0.50208981  0.83310743  1
  Pb  Pb47  1  0.49975988  0.50237713  0.16340821  1
  Pb  Pb48  1  0.49994534  0.16512040  0.16619326  1
  Pb  Pb49  1  0.16488893  0.83372024  0.83491027  1
  Pb  Pb50  1  0.50199267  0.83382328  0.83459030  1
  Pb  Pb51  1  0.16512344  0.83350112  0.49833452  1
  Pb  Pb52  1  0.83327120  0.16511372  0.16994653  1
  Pb  Pb53  1  0.83330505  0.50247341  0.16675656  1
  I  I54  1  0.16476691  -0.00355717  0.16685649  1
  I  I55  1  0.16750143  0.00330884  0.50307056  1
  I  I56  1  0.17017870  0.00310273  0.82931195  1
  I  I57  1  0.16703517  0.33335592  0.16746792  1
  I  I58  1  0.16373574  0.33193752  0.50430448  1
  I  I59  1  0.17033301  0.33277938  0.82874801  1
  I  I60  1  0.16412320  0.67045919  0.16644925  1
  I  I61  1  0.16409371  0.66425746  0.50305545  1
  I  I62  1  0.16969361  0.66400229  0.83031630  1
  I  I63  1  0.50140017  -0.00332119  0.16444477  1
  I  I64  1  0.49452258  0.00365541  0.50634400  1
  I  I65  1  0.49617646  0.00316464  0.83066128  1
  I  I66  1  0.49947869  0.33340586  0.16918214  1
  I  I67  1  0.50669921  0.32893770  0.50065809  1
  I  I68  1  0.49593642  0.33233595  0.82883923  1
  I  I69  1  0.50157888  0.67074286  0.16581555  1
  I  I70  1  0.50027342  0.66641350  0.50013515  1
  I  I71  1  0.49647954  0.66443741  0.83630173  1
  I  I72  1  0.83367945  -0.00399954  0.16413743  1
  I  I73  1  0.83612064  -0.00011945  0.49933548  1
  I  I74  1  0.83351127  -0.00323851  0.83628057  1
  I  I75  1  0.83356273  0.33316739  0.16693263  1
  I  I76  1  0.83199678  0.32977463  0.50287682  1
  I  I77  1  0.83312827  0.33312667  0.83108931  1
  I  I78  1  0.83424237  0.67178719  0.16900795  1
  I  I79  1  0.83551676  0.66970127  0.49795312  1
  I  I80  1  0.83364222  0.67057281  0.83324777  1
  I  I81  1  0.17218601  0.16898620  -0.00365554  1
  I  I82  1  0.16662681  0.16908060  0.33691538  1
  I  I83  1  0.16673363  0.16889809  0.66629248  1
  I  I84  1  0.17046008  0.49750324  -0.00366251  1
  I  I85  1  0.16460192  0.49625203  0.33622000  1
  I  I86  1  0.16889088  0.49722220  0.66734441  1
  I  I87  1  0.16314412  0.83333356  0.00285977  1
  I  I88  1  0.16361618  0.83385532  0.33037951  1
  I  I89  1  0.16362990  0.83304259  0.66665755  1
  I  I90  1  0.49412521  0.16816865  -0.00375996  1
  I  I91  1  0.49915741  0.16252666  0.33653766  1
  I  I92  1  0.49945582  0.16815139  0.66689686  1
  I  I93  1  0.49287242  0.49427407  -0.00447453  1
  I  I94  1  0.49941961  0.50013932  0.33354388  1
  I  I95  1  0.49905627  0.50134577  0.67012522  1
  I  I96  1  0.50309855  0.83482124  0.00266102  1
  I  I97  1  0.50137302  0.83554595  0.33009201  1
  I  I98  1  0.50244379  0.83199302  0.66666387  1
  I  I99  1  0.83342918  0.16369231  -0.00020234  1
  I  I100  1  0.83478361  0.15935281  0.33837466  1
  I  I101  1  0.83405630  0.15852640  0.66343206  1
  I  I102  1  0.83570346  0.50255971  -0.00032432  1
  I  I103  1  0.83514782  0.50203381  0.33370946  1
  I  I104  1  0.83183390  0.50645354  0.66664837  1
  I  I105  1  0.83346777  0.83196192  0.00057910  1
  I  I106  1  0.83458319  0.83878163  0.33340308  1
  I  I107  1  0.83448468  0.83770661  0.66582129  1
  I  I108  1  0.00008296  0.16251652  0.16564450  1
  I  I109  1  0.00069539  0.16473549  0.50393126  1
  I  I110  1  0.00302132  0.16874423  0.82915133  1
  I  I111  1  0.00035696  0.50319392  0.16472602  1
  I  I112  1  0.00366483  0.49603538  0.50651751  1
  I  I113  1  0.00356842  0.49728770  0.82957372  1
  I  I114  1  -0.00092035  0.83344248  0.16662209  1
  I  I115  1  -0.00301160  0.83854309  0.49746944  1
  I  I116  1  -0.00304544  0.83374991  0.83606509  1
  I  I117  1  0.33325415  0.16029934  0.17140901  1
  I  I118  1  0.33273200  0.16980673  0.50390861  1
  I  I119  1  0.33302502  0.16825795  0.82584666  1
  I  I120  1  0.33321896  0.50545672  0.16924265  1
  I  I121  1  0.32937071  0.49706237  0.50108570  1
  I  I122  1  0.33246190  0.49768251  0.83009886  1
  I  I123  1  0.33331742  0.83406247  0.16536620  1
  I  I124  1  0.33335523  0.83414325  0.49688650  1
  I  I125  1  0.33331165  0.83317361  0.83699934  1
  I  I126  1  0.66661608  0.16186142  0.16517072  1
  I  I127  1  0.66656470  0.15843104  0.50441710  1
  I  I128  1  0.66384656  0.16856166  0.82933350  1
  I  I129  1  0.66634294  0.50251194  0.16596459  1
  I  I130  1  0.66630200  0.50070912  0.50070473  1
  I  I131  1  0.66376457  0.49724164  0.83441152  1
  I  I132  1  0.66760708  0.83466253  0.16551929  1
  I  I133  1  0.67061372  0.83856279  0.49826707  1
  I  I134  1  0.66992689  0.83390892  0.83614403  1
