# generated using pymatgen
data_Cs27Sn13Pb14I81
_symmetry_space_group_name_H-M   'P 1'
_cell_length_a   18.98115125
_cell_length_b   18.97709651
_cell_length_c   18.97112129
_cell_angle_alpha   89.99918530
_cell_angle_beta   89.99889692
_cell_angle_gamma   89.99847103
_symmetry_Int_Tables_number   1
_chemical_formula_structural   Cs27Sn13Pb14I81
_chemical_formula_sum   'Cs27 Sn13 Pb14 I81'
_cell_volume   6833.53331868
_cell_formula_units_Z   1
loop_
 _symmetry_equiv_pos_site_id
 _symmetry_equiv_pos_as_xyz
  1  'x, y, z'
loop_
 _atom_site_type_symbol
 _atom_site_label
 _atom_site_symmetry_multiplicity
 _atom_site_fract_x
 _atom_site_fract_y
 _atom_site_fract_z
 _atom_site_occupancy
  Cs  Cs0  1  0.00002885  0.00019690  0.00012044  1
  Cs  Cs1  1  0.00217188  0.00182452  0.33532762  1
  Cs  Cs2  1  0.00282697  -0.00422429  0.66409067  1
  Cs  Cs3  1  -0.00310453  0.33226692  -0.00049385  1
  Cs  Cs4  1  0.00377192  0.32543503  0.32947653  1
  Cs  Cs5  1  0.00134330  0.34303138  0.67079638  1
  Cs  Cs6  1  0.00100746  0.66672859  -0.00028643  1
  Cs  Cs7  1  -0.00328312  0.67009101  0.33413815  1
  Cs  Cs8  1  -0.00136391  0.66396403  0.66342213  1
  Cs  Cs9  1  0.33410439  -0.00346889  -0.00392189  1
  Cs  Cs10  1  0.33361143  0.00243518  0.33511511  1
  Cs  Cs11  1  0.33392106  0.00027289  0.66874108  1
  Cs  Cs12  1  0.33376335  0.33552807  0.00094277  1
  Cs  Cs13  1  0.33478043  0.33156269  0.33477823  1
  Cs  Cs14  1  0.33161748  0.33729742  0.66517236  1
  Cs  Cs15  1  0.33317467  0.66813713  0.00099967  1
  Cs  Cs16  1  0.33498295  0.66542653  0.33115950  1
  Cs  Cs17  1  0.33090051  0.66123861  0.66498086  1
  Cs  Cs18  1  0.66555672  -0.00067136  -0.00439204  1
  Cs  Cs19  1  0.66558760  0.00093821  0.33496431  1
  Cs  Cs20  1  0.66466851  0.00211752  0.66690799  1
  Cs  Cs21  1  0.66813596  0.33135599  -0.00154568  1
  Cs  Cs22  1  0.66422139  0.33237548  0.33354466  1
  Cs  Cs23  1  0.66871448  0.33235238  0.66761202  1
  Cs  Cs24  1  0.66502315  0.66926172  0.00274775  1
  Cs  Cs25  1  0.66723766  0.66625276  0.33303395  1
  Cs  Cs26  1  0.67045161  0.66429806  0.66066909  1
  Sn  Sn27  1  0.49972862  0.83380551  0.49993683  1
  Sn  Sn28  1  0.50004847  0.16691185  0.16650725  1
  Sn  Sn29  1  0.16595072  0.83283269  0.16613478  1
  Sn  Sn30  1  0.16640715  0.50069617  0.16643262  1
  Sn  Sn31  1  0.83398297  0.83315697  0.16592521  1
  Sn  Sn32  1  0.50045085  0.50017366  0.83416055  1
  Sn  Sn33  1  0.16569225  0.83384273  0.83405241  1
  Sn  Sn34  1  0.50019106  0.49896598  0.16561951  1
  Sn  Sn35  1  0.83338835  0.50032873  0.16669083  1
  Sn  Sn36  1  0.83385080  0.83335449  0.83380395  1
  Sn  Sn37  1  0.16658054  0.16630174  0.83350247  1
  Sn  Sn38  1  0.50085397  0.16572050  0.49948417  1
  Sn  Sn39  1  0.83318335  0.16680435  0.50029105  1
  Pb  Pb40  1  0.16801914  0.50088894  0.83560105  1
  Pb  Pb41  1  0.83577001  0.16438679  0.83084570  1
  Pb  Pb42  1  0.49840272  0.16865416  0.83297682  1
  Pb  Pb43  1  0.49988940  0.83092656  0.83073154  1
  Pb  Pb44  1  0.49999424  0.83335772  0.16800501  1
  Pb  Pb45  1  0.83349557  0.49693023  0.49669048  1
  Pb  Pb46  1  0.83111402  0.50259270  0.83576812  1
  Pb  Pb47  1  0.50012546  0.49930572  0.49951714  1
  Pb  Pb48  1  0.16694524  0.16668835  0.50293893  1
  Pb  Pb49  1  0.16906608  0.16596052  0.16475299  1
  Pb  Pb50  1  0.83155133  0.83494312  0.49961329  1
  Pb  Pb51  1  0.16625628  0.50011781  0.49618697  1
  Pb  Pb52  1  0.83114492  0.16585941  0.16770143  1
  Pb  Pb53  1  0.16903489  0.83319637  0.49976543  1
  I  I54  1  0.16337456  -0.00317791  0.16490479  1
  I  I55  1  0.16639420  -0.00002147  0.49518277  1
  I  I56  1  0.16531073  -0.00165450  0.83920186  1
  I  I57  1  0.16522129  0.33579932  0.16546978  1
  I  I58  1  0.16947012  0.33313030  0.50098695  1
  I  I59  1  0.17037598  0.33176577  0.83326657  1
  I  I60  1  0.16927047  0.66713785  0.16101214  1
  I  I61  1  0.17003319  0.66690246  0.50514255  1
  I  I62  1  0.16523595  0.66985435  0.83605758  1
  I  I63  1  0.49977367  0.00216629  0.17040025  1
  I  I64  1  0.50307318  0.00123402  0.49417154  1
  I  I65  1  0.50051869  -0.00024405  0.83519860  1
  I  I66  1  0.49941875  0.33424782  0.16902885  1
  I  I67  1  0.50306200  0.33021730  0.49773345  1
  I  I68  1  0.49721259  0.33643206  0.83444369  1
  I  I69  1  0.49954594  0.66407266  0.16516127  1
  I  I70  1  0.49928767  0.66865798  0.49953176  1
  I  I71  1  0.49774130  0.66359920  0.84026589  1
  I  I72  1  0.83670246  -0.00326871  0.16495138  1
  I  I73  1  0.82940087  0.00259952  0.49726611  1
  I  I74  1  0.83283815  -0.00361584  0.84083977  1
  I  I75  1  0.83500378  0.33584665  0.16955634  1
  I  I76  1  0.82458726  0.32938921  0.49919874  1
  I  I77  1  0.83424786  0.33347058  0.83328715  1
  I  I78  1  0.83139833  0.66701659  0.16359143  1
  I  I79  1  0.83102745  0.66678953  0.50116215  1
  I  I80  1  0.83953713  0.67051292  0.83367986  1
  I  I81  1  0.16883881  0.16478463  -0.00273937  1
  I  I82  1  0.16638858  0.16725672  0.33312167  1
  I  I83  1  0.16937191  0.15933714  0.67054885  1
  I  I84  1  0.16658274  0.50146016  0.00379533  1
  I  I85  1  0.17123515  0.50513387  0.32763332  1
  I  I86  1  0.17059429  0.49941287  0.66716657  1
  I  I87  1  0.16436062  0.83327407  0.00057322  1
  I  I88  1  0.16333046  0.82869477  0.32968877  1
  I  I89  1  0.16422928  0.83811541  0.66993127  1
  I  I90  1  0.49827238  0.16967946  0.00243975  1
  I  I91  1  0.50208734  0.16872430  0.33320467  1
  I  I92  1  0.50231647  0.16394935  0.66383129  1
  I  I93  1  0.49930892  0.49530141  0.00234179  1
  I  I94  1  0.49942536  0.49905906  0.32974965  1
  I  I95  1  0.49820667  0.50110556  0.66896127  1
  I  I96  1  0.50011064  0.83540956  -0.00002588  1
  I  I97  1  0.50040001  0.83352297  0.33568350  1
  I  I98  1  0.50044063  0.83874460  0.66339957  1
  I  I99  1  0.83223032  0.16818416  -0.00005923  1
  I  I100  1  0.83081383  0.16538120  0.33564014  1
  I  I101  1  0.82434576  0.16403083  0.66329744  1
  I  I102  1  0.83485635  0.50003552  0.00411088  1
  I  I103  1  0.82946253  0.50803437  0.32841102  1
  I  I104  1  0.83050685  0.50102345  0.66683826  1
  I  I105  1  0.83611573  0.83014945  0.00107633  1
  I  I106  1  0.83595814  0.83004296  0.33000771  1
  I  I107  1  0.83619238  0.83570580  0.66914248  1
  I  I108  1  0.00005373  0.16983491  0.16867111  1
  I  I109  1  -0.00245559  0.16560152  0.49850742  1
  I  I110  1  0.00343907  0.16595365  0.83376828  1
  I  I111  1  0.00002953  0.50512097  0.16777063  1
  I  I112  1  -0.00030930  0.49891977  0.50211511  1
  I  I113  1  -0.00005904  0.49731304  0.83403784  1
  I  I114  1  0.00004101  0.82571194  0.16365388  1
  I  I115  1  -0.00013520  0.83573284  0.49951894  1
  I  I116  1  0.00055751  0.83764870  0.83774224  1
  I  I117  1  0.33691546  0.17083367  0.17262723  1
  I  I118  1  0.33666754  0.16367874  0.49628522  1
  I  I119  1  0.33076471  0.15980441  0.83315202  1
  I  I120  1  0.33375325  0.50076021  0.16297690  1
  I  I121  1  0.33366286  0.49852962  0.49884042  1
  I  I122  1  0.33590606  0.50149990  0.83904192  1
  I  I123  1  0.33080785  0.83031930  0.16358866  1
  I  I124  1  0.33684979  0.83973184  0.49892105  1
  I  I125  1  0.33050083  0.83571124  0.83748090  1
  I  I126  1  0.66313139  0.17057240  0.16849274  1
  I  I127  1  0.66500893  0.16256859  0.49579682  1
  I  I128  1  0.66666996  0.16605835  0.83456815  1
  I  I129  1  0.66623644  0.50093548  0.16359309  1
  I  I130  1  0.66658080  0.50281178  0.49783863  1
  I  I131  1  0.66338738  0.50028763  0.83921952  1
  I  I132  1  0.66917736  0.83024486  0.16434652  1
  I  I133  1  0.66373194  0.83526797  0.49924157  1
  I  I134  1  0.66906951  0.83140490  0.83800177  1
