# generated using pymatgen
data_Cs27Sn13Pb14I81
_symmetry_space_group_name_H-M   'P 1'
_cell_length_a   19.00099293
_cell_length_b   18.98716176
_cell_length_c   18.98619154
_cell_angle_alpha   90.00007639
_cell_angle_beta   90.00003949
_cell_angle_gamma   90.00058406
_symmetry_Int_Tables_number   1
_chemical_formula_structural   Cs27Sn13Pb14I81
_chemical_formula_sum   'Cs27 Sn13 Pb14 I81'
_cell_volume   6849.74185266
_cell_formula_units_Z   1
loop_
 _symmetry_equiv_pos_site_id
 _symmetry_equiv_pos_as_xyz
  1  'x, y, z'
loop_
 _atom_site_type_symbol
 _atom_site_label
 _atom_site_symmetry_multiplicity
 _atom_site_fract_x
 _atom_site_fract_y
 _atom_site_fract_z
 _atom_site_occupancy
  Cs  Cs0  1  0.00251939  0.00243570  0.00118824  1
  Cs  Cs1  1  0.00871297  -0.00106318  0.33014123  1
  Cs  Cs2  1  -0.00173989  -0.00037512  0.66711416  1
  Cs  Cs3  1  0.00246597  0.33348596  0.00094240  1
  Cs  Cs4  1  -0.00589717  0.33391008  0.33186314  1
  Cs  Cs5  1  0.00013379  0.33370900  0.66387319  1
  Cs  Cs6  1  -0.00646140  0.66380767  -0.00342022  1
  Cs  Cs7  1  -0.00447843  0.66684790  0.33602512  1
  Cs  Cs8  1  0.00399523  0.66780902  0.66838627  1
  Cs  Cs9  1  0.33249732  0.00135664  0.00245802  1
  Cs  Cs10  1  0.32594410  -0.00235707  0.32863134  1
  Cs  Cs11  1  0.33420361  -0.00007912  0.66708878  1
  Cs  Cs12  1  0.33300540  0.33535894  0.00168192  1
  Cs  Cs13  1  0.33623204  0.33291799  0.33012600  1
  Cs  Cs14  1  0.33449740  0.33524671  0.66264385  1
  Cs  Cs15  1  0.33737311  0.66182237  -0.00260106  1
  Cs  Cs16  1  0.33233204  0.66899516  0.33777257  1
  Cs  Cs17  1  0.33137702  0.66590526  0.66675778  1
  Cs  Cs18  1  0.66572538  0.00006488  -0.00133984  1
  Cs  Cs19  1  0.66618572  -0.00177030  0.33319793  1
  Cs  Cs20  1  0.66733518  0.00267502  0.66741160  1
  Cs  Cs21  1  0.66531625  0.33214924  -0.00016289  1
  Cs  Cs22  1  0.66815015  0.33419766  0.33913994  1
  Cs  Cs23  1  0.66619533  0.32407402  0.65848332  1
  Cs  Cs24  1  0.66628043  0.66688575  0.00081660  1
  Cs  Cs25  1  0.67042789  0.66544966  0.33100114  1
  Cs  Cs26  1  0.66578570  0.66999937  0.66904636  1
  Sn  Sn27  1  0.50133201  0.16732748  0.16634074  1
  Sn  Sn28  1  0.16720294  0.50077746  0.16684321  1
  Sn  Sn29  1  0.16698059  0.16649570  0.83221863  1
  Sn  Sn30  1  0.50075561  0.83337762  0.50084184  1
  Sn  Sn31  1  0.83263880  0.83359679  0.50080728  1
  Sn  Sn32  1  0.83151832  0.49970523  0.83294884  1
  Sn  Sn33  1  0.49937477  0.49927643  0.16619081  1
  Sn  Sn34  1  0.50163788  0.49997603  0.83334585  1
  Sn  Sn35  1  0.50001705  0.83295082  0.83271057  1
  Sn  Sn36  1  0.83298261  0.83296761  0.83272880  1
  Sn  Sn37  1  0.83196236  0.16637226  0.16632708  1
  Sn  Sn38  1  0.16688849  0.16698391  0.50112276  1
  Sn  Sn39  1  0.16692317  0.83417193  0.83377601  1
  Pb  Pb40  1  0.83232727  0.49819947  0.16467630  1
  Pb  Pb41  1  0.49796401  0.16690482  0.83470714  1
  Pb  Pb42  1  0.16659767  0.83466113  0.50235678  1
  Pb  Pb43  1  0.83338891  0.83551072  0.16616580  1
  Pb  Pb44  1  0.49989561  0.83259877  0.16643506  1
  Pb  Pb45  1  0.16700275  0.49996527  0.83429598  1
  Pb  Pb46  1  0.83536815  0.16364014  0.49756232  1
  Pb  Pb47  1  0.49796362  0.16360418  0.49708397  1
  Pb  Pb48  1  0.16706262  0.16844475  0.16637420  1
  Pb  Pb49  1  0.50016689  0.50239169  0.50025130  1
  Pb  Pb50  1  0.16666254  0.82961951  0.16340431  1
  Pb  Pb51  1  0.16669264  0.49746290  0.49693356  1
  Pb  Pb52  1  0.83522982  0.16664044  0.83452993  1
  Pb  Pb53  1  0.83309952  0.50258770  0.50357535  1
  I  I54  1  0.16694765  0.00001063  0.16811574  1
  I  I55  1  0.16678780  0.00250530  0.49916401  1
  I  I56  1  0.16623695  -0.00073352  0.83074505  1
  I  I57  1  0.16853171  0.33577770  0.16264411  1
  I  I58  1  0.16676649  0.32956883  0.50884218  1
  I  I59  1  0.16600707  0.33104581  0.83285646  1
  I  I60  1  0.17439711  0.66227355  0.16487768  1
  I  I61  1  0.16660389  0.66697561  0.49962936  1
  I  I62  1  0.16631337  0.66943423  0.83572025  1
  I  I63  1  0.50319613  0.00231000  0.16633915  1
  I  I64  1  0.50405866  -0.00390344  0.50694416  1
  I  I65  1  0.50228483  -0.00308720  0.83145269  1
  I  I66  1  0.49828642  0.33409601  0.15946255  1
  I  I67  1  0.49812377  0.33309389  0.50247731  1
  I  I68  1  0.50209590  0.33628157  0.83804247  1
  I  I69  1  0.49529592  0.66354332  0.16424616  1
  I  I70  1  0.50205972  0.67048898  0.49944529  1
  I  I71  1  0.49831653  0.66726507  0.83611356  1
  I  I72  1  0.82833862  0.00329730  0.16412767  1
  I  I73  1  0.82902875  -0.00380982  0.50849048  1
  I  I74  1  0.83108631  -0.00331387  0.83099779  1
  I  I75  1  0.83422698  0.33047025  0.16382727  1
  I  I76  1  0.83533261  0.33297396  0.50032376  1
  I  I77  1  0.83132842  0.33586520  0.83847674  1
  I  I78  1  0.83391218  0.66663040  0.16833697  1
  I  I79  1  0.83082161  0.67076417  0.49881106  1
  I  I80  1  0.83601044  0.66781090  0.83174238  1
  I  I81  1  0.16613848  0.16304583  -0.00226254  1
  I  I82  1  0.16662799  0.16704210  0.33494339  1
  I  I83  1  0.16604015  0.16204686  0.66786785  1
  I  I84  1  0.16866126  0.49705417  0.00201603  1
  I  I85  1  0.17381067  0.49714831  0.32892509  1
  I  I86  1  0.16673142  0.50108926  0.66685327  1
  I  I87  1  0.16693260  0.84219781  -0.00480604  1
  I  I88  1  0.16693096  0.83590648  0.33349887  1
  I  I89  1  0.16667129  0.83354270  0.67054763  1
  I  I90  1  0.50003093  0.16536738  0.00270200  1
  I  I91  1  0.50131361  0.17236680  0.32926714  1
  I  I92  1  0.49973726  0.16936308  0.66660109  1
  I  I93  1  0.49910871  0.50280849  -0.00063954  1
  I  I94  1  0.49455459  0.49692022  0.33013848  1
  I  I95  1  0.50261016  0.50333220  0.67030352  1
  I  I96  1  0.50079765  0.83240519  -0.00344013  1
  I  I97  1  0.50485946  0.83440430  0.33599249  1
  I  I98  1  0.49980577  0.82793110  0.66862922  1
  I  I99  1  0.83298516  0.16463263  0.00238117  1
  I  I100  1  0.83209531  0.16696874  0.32980676  1
  I  I101  1  0.83382505  0.16881502  0.66660855  1
  I  I102  1  0.83292199  0.50766828  -0.00318067  1
  I  I103  1  0.83481667  0.50087907  0.33333367  1
  I  I104  1  0.82890865  0.50037741  0.67176236  1
  I  I105  1  0.83252501  0.83001206  -0.00385383  1
  I  I106  1  0.82810127  0.83555325  0.33614986  1
  I  I107  1  0.83294104  0.82990915  0.66838025  1
  I  I108  1  -0.00137374  0.16745969  0.16607347  1
  I  I109  1  0.00297229  0.16394375  0.50159375  1
  I  I110  1  0.00313927  0.16264349  0.83410518  1
  I  I111  1  0.00150365  0.49701326  0.16370583  1
  I  I112  1  -0.00011319  0.50248826  0.49908563  1
  I  I113  1  -0.00195459  0.50384339  0.83606970  1
  I  I114  1  0.00008469  0.83535963  0.16769026  1
  I  I115  1  -0.00250610  0.83489630  0.50428469  1
  I  I116  1  -0.00055672  0.83248440  0.82986341  1
  I  I117  1  0.33555309  0.16882507  0.16633441  1
  I  I118  1  0.33045075  0.16385657  0.50248626  1
  I  I119  1  0.33013130  0.16196266  0.83351523  1
  I  I120  1  0.33491411  0.49295324  0.15887721  1
  I  I121  1  0.33345854  0.50343809  0.50468826  1
  I  I122  1  0.33615751  0.50392396  0.83705079  1
  I  I123  1  0.33337317  0.83995954  0.16803032  1
  I  I124  1  0.33581160  0.83423307  0.50356251  1
  I  I125  1  0.33412414  0.83264785  0.82987569  1
  I  I126  1  0.66575589  0.17172857  0.16454150  1
  I  I127  1  0.66660359  0.16730349  0.49970787  1
  I  I128  1  0.66650643  0.16433877  0.83489425  1
  I  I129  1  0.66341521  0.49837770  0.16330386  1
  I  I130  1  0.66664249  0.49705206  0.49389111  1
  I  I131  1  0.66568437  0.51042773  0.84141541  1
  I  I132  1  0.66655621  0.83073027  0.16308436  1
  I  I133  1  0.66656437  0.83398902  0.50872314  1
  I  I134  1  0.66647154  0.82802747  0.82994629  1
