# generated using pymatgen
data_Cs27Sn13Pb14I81
_symmetry_space_group_name_H-M   'P 1'
_cell_length_a   18.98768651
_cell_length_b   18.98838439
_cell_length_c   18.99948186
_cell_angle_alpha   90.00087045
_cell_angle_beta   90.00126925
_cell_angle_gamma   90.00056856
_symmetry_Int_Tables_number   1
_chemical_formula_structural   Cs27Sn13Pb14I81
_chemical_formula_sum   'Cs27 Sn13 Pb14 I81'
_cell_volume   6850.17749431
_cell_formula_units_Z   1
loop_
 _symmetry_equiv_pos_site_id
 _symmetry_equiv_pos_as_xyz
  1  'x, y, z'
loop_
 _atom_site_type_symbol
 _atom_site_label
 _atom_site_symmetry_multiplicity
 _atom_site_fract_x
 _atom_site_fract_y
 _atom_site_fract_z
 _atom_site_occupancy
  Cs  Cs0  1  0.00245946  0.00058555  0.00019018  1
  Cs  Cs1  1  0.00185924  0.00339836  0.33416176  1
  Cs  Cs2  1  0.00000072  0.00262041  0.66595019  1
  Cs  Cs3  1  -0.00132246  0.33583982  0.00073615  1
  Cs  Cs4  1  0.00058485  0.33642571  0.33217277  1
  Cs  Cs5  1  0.00008041  0.33043104  0.66641397  1
  Cs  Cs6  1  0.00033010  0.66531043  -0.00099524  1
  Cs  Cs7  1  -0.00230997  0.66322008  0.33539382  1
  Cs  Cs8  1  0.00063010  0.66640858  0.66569670  1
  Cs  Cs9  1  0.32831471  -0.00053602  0.01063155  1
  Cs  Cs10  1  0.32981115  0.00659599  0.32414927  1
  Cs  Cs11  1  0.33249775  -0.00070402  0.66490816  1
  Cs  Cs12  1  0.34271919  0.33334355  -0.00460430  1
  Cs  Cs13  1  0.33821152  0.32621640  0.33335857  1
  Cs  Cs14  1  0.34277911  0.33234884  0.66971629  1
  Cs  Cs15  1  0.33162420  0.66705392  -0.00165731  1
  Cs  Cs16  1  0.33603526  0.66704309  0.33383179  1
  Cs  Cs17  1  0.33136714  0.66586925  0.66834012  1
  Cs  Cs18  1  0.66643559  0.00074211  -0.00296775  1
  Cs  Cs19  1  0.66688574  -0.00263729  0.33377818  1
  Cs  Cs20  1  0.66746923  0.00018749  0.66848385  1
  Cs  Cs21  1  0.66259283  0.33059863  -0.00252087  1
  Cs  Cs22  1  0.66071614  0.33476202  0.33495830  1
  Cs  Cs23  1  0.65949613  0.32398455  0.66852455  1
  Cs  Cs24  1  0.66923084  0.66741274  0.00214436  1
  Cs  Cs25  1  0.66838883  0.66716393  0.33391688  1
  Cs  Cs26  1  0.66753512  0.66980902  0.66457658  1
  Sn  Sn27  1  0.83354633  0.16706461  0.16696349  1
  Sn  Sn28  1  0.83331106  0.50032258  0.83250951  1
  Sn  Sn29  1  0.83384681  0.83274583  0.50020365  1
  Sn  Sn30  1  0.83309844  0.83251020  0.83308640  1
  Sn  Sn31  1  0.16622259  0.50045206  0.49911229  1
  Sn  Sn32  1  0.83388499  0.83357366  0.16670047  1
  Sn  Sn33  1  0.49970420  0.83316040  0.50058982  1
  Sn  Sn34  1  0.50017884  0.83313272  0.83295700  1
  Sn  Sn35  1  0.83377619  0.50025325  0.50074333  1
  Sn  Sn36  1  0.16641507  0.49995513  0.16737100  1
  Sn  Sn37  1  0.83372924  0.49968214  0.16678716  1
  Sn  Sn38  1  0.16650432  0.83270017  0.49965335  1
  Sn  Sn39  1  0.16623272  0.16683360  0.83329201  1
  Pb  Pb40  1  0.16624342  0.83453672  0.83134676  1
  Pb  Pb41  1  0.16385747  0.83082753  0.16947202  1
  Pb  Pb42  1  0.50316462  0.16651017  0.16654227  1
  Pb  Pb43  1  0.50343240  0.50313403  0.83317084  1
  Pb  Pb44  1  0.83451876  0.16643202  0.83525753  1
  Pb  Pb45  1  0.50219103  0.83310416  0.16663756  1
  Pb  Pb46  1  0.50002765  0.50221610  0.50000381  1
  Pb  Pb47  1  0.83343682  0.16724843  0.49768070  1
  Pb  Pb48  1  0.50002170  0.50035561  0.16676720  1
  Pb  Pb49  1  0.16475614  0.49835611  0.83269702  1
  Pb  Pb50  1  0.16644372  0.16783034  0.50156547  1
  Pb  Pb51  1  0.49704168  0.16261506  0.83354553  1
  Pb  Pb52  1  0.50005803  0.16280631  0.49993574  1
  Pb  Pb53  1  0.16454038  0.17028055  0.16467184  1
  I  I54  1  0.16544127  0.00006456  0.16712219  1
  I  I55  1  0.16508403  -0.00304878  0.50330147  1
  I  I56  1  0.16362889  0.00202542  0.83115241  1
  I  I57  1  0.15707751  0.33765870  0.17447851  1
  I  I58  1  0.15786834  0.33740818  0.49655139  1
  I  I59  1  0.16112782  0.33099952  0.83254989  1
  I  I60  1  0.15937587  0.66328344  0.16560988  1
  I  I61  1  0.16428322  0.66685513  0.49795994  1
  I  I62  1  0.16868802  0.66658838  0.83531303  1
  I  I63  1  0.50107512  -0.00039899  0.16750604  1
  I  I64  1  0.50304794  -0.00558737  0.50504569  1
  I  I65  1  0.51062618  -0.00460390  0.82715852  1
  I  I66  1  0.50220056  0.33341323  0.16644351  1
  I  I67  1  0.50045034  0.33346438  0.49964221  1
  I  I68  1  0.50069469  0.33305950  0.83382882  1
  I  I69  1  0.50290391  0.66697316  0.16616437  1
  I  I70  1  0.50187959  0.67038766  0.50372051  1
  I  I71  1  0.50034790  0.67081934  0.82885468  1
  I  I72  1  0.83144301  -0.00118055  0.16649348  1
  I  I73  1  0.83334797  -0.00381125  0.50038063  1
  I  I74  1  0.83056598  -0.00351997  0.83297517  1
  I  I75  1  0.83870294  0.33490386  0.16601465  1
  I  I76  1  0.84020495  0.33722101  0.49998253  1
  I  I77  1  0.83765415  0.33622876  0.83393649  1
  I  I78  1  0.83580403  0.66650635  0.16654830  1
  I  I79  1  0.83346658  0.66765185  0.49645593  1
  I  I80  1  0.83092743  0.66743473  0.83733965  1
  I  I81  1  0.16412850  0.16478456  -0.00255536  1
  I  I82  1  0.16626977  0.16368676  0.33304189  1
  I  I83  1  0.16339691  0.16679454  0.66903333  1
  I  I84  1  0.15991192  0.49814353  0.00232305  1
  I  I85  1  0.15570847  0.50517740  0.33400503  1
  I  I86  1  0.16100637  0.50386409  0.66329832  1
  I  I87  1  0.16731387  0.83376718  0.00021186  1
  I  I88  1  0.16733326  0.83344424  0.33756312  1
  I  I89  1  0.16181711  0.82781315  0.66328579  1
  I  I90  1  0.49966626  0.16457845  -0.00023790  1
  I  I91  1  0.49899774  0.16491835  0.33322101  1
  I  I92  1  0.50115947  0.16940886  0.66700815  1
  I  I93  1  0.49915650  0.50228194  -0.00016782  1
  I  I94  1  0.50564672  0.50351558  0.33350259  1
  I  I95  1  0.49856708  0.49853456  0.66665849  1
  I  I96  1  0.50650959  0.83371363  -0.00299088  1
  I  I97  1  0.50251377  0.83197036  0.33650634  1
  I  I98  1  0.50680847  0.83276268  0.66608859  1
  I  I99  1  0.83539476  0.16650748  0.00298244  1
  I  I100  1  0.83517152  0.16498168  0.32982200  1
  I  I101  1  0.83404519  0.16652983  0.66679771  1
  I  I102  1  0.83745761  0.50381574  0.00054803  1
  I  I103  1  0.83760326  0.50383108  0.33346551  1
  I  I104  1  0.83873993  0.50954492  0.66593379  1
  I  I105  1  0.82817298  0.83053292  -0.00021628  1
  I  I106  1  0.83267806  0.83093024  0.33402353  1
  I  I107  1  0.83260833  0.82687139  0.66613499  1
  I  I108  1  -0.00327801  0.16345200  0.16595301  1
  I  I109  1  -0.00013687  0.15979279  0.50132993  1
  I  I110  1  0.00184407  0.16363318  0.83326049  1
  I  I111  1  -0.00221307  0.50075891  0.16775133  1
  I  I112  1  -0.00128746  0.50887697  0.49855290  1
  I  I113  1  -0.00371532  0.50710420  0.83449633  1
  I  I114  1  -0.00461156  0.83505810  0.16413424  1
  I  I115  1  -0.00130151  0.82941553  0.50026430  1
  I  I116  1  -0.00361438  0.83086761  0.83327338  1
  I  I117  1  0.33288670  0.16683621  0.16574321  1
  I  I118  1  0.33319620  0.16716078  0.50054111  1
  I  I119  1  0.32987178  0.16841811  0.83233799  1
  I  I120  1  0.32986484  0.50052406  0.17225221  1
  I  I121  1  0.32989669  0.50482701  0.49502178  1
  I  I122  1  0.33336964  0.49912313  0.83434192  1
  I  I123  1  0.33286113  0.83251524  0.16581831  1
  I  I124  1  0.33299348  0.82830377  0.50773857  1
  I  I125  1  0.33566176  0.83607102  0.82679846  1
  I  I126  1  0.67153657  0.16910670  0.16502050  1
  I  I127  1  0.66692739  0.16802018  0.49996094  1
  I  I128  1  0.66652809  0.16900238  0.83506699  1
  I  I129  1  0.67130786  0.50084149  0.16777488  1
  I  I130  1  0.67043588  0.50479631  0.49749517  1
  I  I131  1  0.67199371  0.50018014  0.83475718  1
  I  I132  1  0.67135905  0.82979902  0.17125122  1
  I  I133  1  0.66848905  0.82974247  0.49986802  1
  I  I134  1  0.66882511  0.83013754  0.82882615  1
