# generated using pymatgen
data_Cs27Sn13Pb14I81
_symmetry_space_group_name_H-M   'P 1'
_cell_length_a   18.97285863
_cell_length_b   18.97655542
_cell_length_c   18.98259267
_cell_angle_alpha   89.99998368
_cell_angle_beta   90.00005461
_cell_angle_gamma   89.99836053
_symmetry_Int_Tables_number   1
_chemical_formula_structural   Cs27Sn13Pb14I81
_chemical_formula_sum   'Cs27 Sn13 Pb14 I81'
_cell_volume   6834.48323393
_cell_formula_units_Z   1
loop_
 _symmetry_equiv_pos_site_id
 _symmetry_equiv_pos_as_xyz
  1  'x, y, z'
loop_
 _atom_site_type_symbol
 _atom_site_label
 _atom_site_symmetry_multiplicity
 _atom_site_fract_x
 _atom_site_fract_y
 _atom_site_fract_z
 _atom_site_occupancy
  Cs  Cs0  1  -0.00058977  -0.00132435  0.00773594  1
  Cs  Cs1  1  -0.00597759  -0.00141492  0.32537988  1
  Cs  Cs2  1  -0.00068661  0.00148219  0.66679382  1
  Cs  Cs3  1  -0.00039683  0.33226505  -0.00135186  1
  Cs  Cs4  1  0.00226916  0.33461102  0.33331337  1
  Cs  Cs5  1  0.00172089  0.33539453  0.66707911  1
  Cs  Cs6  1  -0.00020099  0.66820146  -0.00264750  1
  Cs  Cs7  1  -0.00138558  0.66559120  0.33422920  1
  Cs  Cs8  1  0.00060141  0.66505375  0.66809005  1
  Cs  Cs9  1  0.33188262  -0.00582791  0.00263175  1
  Cs  Cs10  1  0.33456959  0.00118202  0.33058942  1
  Cs  Cs11  1  0.33780457  -0.00271523  0.66741383  1
  Cs  Cs12  1  0.33615932  0.33456493  0.00129129  1
  Cs  Cs13  1  0.33236826  0.33405254  0.33292543  1
  Cs  Cs14  1  0.32982193  0.33311832  0.66533534  1
  Cs  Cs15  1  0.33695376  0.66970022  -0.00189020  1
  Cs  Cs16  1  0.33394346  0.66448664  0.33416808  1
  Cs  Cs17  1  0.33257478  0.66964233  0.66791863  1
  Cs  Cs18  1  0.66833155  0.00559112  0.00023766  1
  Cs  Cs19  1  0.67017622  -0.00226316  0.33826736  1
  Cs  Cs20  1  0.66130768  0.00765931  0.66081129  1
  Cs  Cs21  1  0.66366383  0.33259577  -0.00272435  1
  Cs  Cs22  1  0.66495302  0.33379749  0.33351475  1
  Cs  Cs23  1  0.66601199  0.32568229  0.66923600  1
  Cs  Cs24  1  0.66497968  0.66416629  -0.00053352  1
  Cs  Cs25  1  0.66712512  0.66822816  0.33295935  1
  Cs  Cs26  1  0.66775849  0.66905431  0.66684629  1
  Sn  Sn27  1  0.16622036  0.49946821  0.83354314  1
  Sn  Sn28  1  0.16612159  0.50029680  0.16616280  1
  Sn  Sn29  1  0.83417852  0.49999527  0.16637851  1
  Sn  Sn30  1  0.50011043  0.50006509  0.50071997  1
  Sn  Sn31  1  0.16642733  0.16604701  0.50038245  1
  Sn  Sn32  1  0.50032097  0.83438209  0.16684089  1
  Sn  Sn33  1  0.83412407  0.50089012  0.83316650  1
  Sn  Sn34  1  0.49989312  0.16547111  0.16690362  1
  Sn  Sn35  1  0.16664290  0.16702131  0.83304219  1
  Sn  Sn36  1  0.16625468  0.83379113  0.49963574  1
  Sn  Sn37  1  0.83300995  0.49995824  0.50046499  1
  Sn  Sn38  1  0.16656149  0.50011659  0.50016960  1
  Sn  Sn39  1  0.83301173  0.83319490  0.83285402  1
  Pb  Pb40  1  0.50014305  0.50007302  0.16825574  1
  Pb  Pb41  1  0.83114225  0.83079110  0.16467237  1
  Pb  Pb42  1  0.50001288  0.50001095  0.83025063  1
  Pb  Pb43  1  0.83587927  0.16688962  0.83331364  1
  Pb  Pb44  1  0.83081435  0.16952414  0.16676409  1
  Pb  Pb45  1  0.16506144  0.83350487  0.83152285  1
  Pb  Pb46  1  0.49655065  0.16664744  0.83548381  1
  Pb  Pb47  1  0.49748674  0.16874937  0.49825328  1
  Pb  Pb48  1  0.83621781  0.16905202  0.49987385  1
  Pb  Pb49  1  0.49810467  0.83134883  0.49842193  1
  Pb  Pb50  1  0.16789150  0.16877298  0.16651933  1
  Pb  Pb51  1  0.16792849  0.83037647  0.16893394  1
  Pb  Pb52  1  0.83539558  0.83149821  0.50209975  1
  Pb  Pb53  1  0.50323654  0.83340729  0.83512742  1
  I  I54  1  0.16729110  -0.00010725  0.16682161  1
  I  I55  1  0.16873085  0.00052447  0.50645777  1
  I  I56  1  0.16598461  0.00269529  0.82779351  1
  I  I57  1  0.16637552  0.33723899  0.17134536  1
  I  I58  1  0.16678609  0.33539327  0.50055741  1
  I  I59  1  0.16172676  0.33553464  0.82855340  1
  I  I60  1  0.16591288  0.66199016  0.16697725  1
  I  I61  1  0.16680918  0.66424225  0.49959633  1
  I  I62  1  0.16452372  0.66323711  0.83208813  1
  I  I63  1  0.49657017  0.00002512  0.16631536  1
  I  I64  1  0.49764594  0.00010568  0.50000121  1
  I  I65  1  0.49985853  0.00005714  0.83123104  1
  I  I66  1  0.49898659  0.33189967  0.16875726  1
  I  I67  1  0.49771978  0.33695902  0.49617271  1
  I  I68  1  0.50418614  0.33355423  0.83709400  1
  I  I69  1  0.49967992  0.66817299  0.16881679  1
  I  I70  1  0.49670868  0.66301555  0.49617540  1
  I  I71  1  0.49491419  0.66642762  0.83671559  1
  I  I72  1  0.83456711  -0.00022036  0.16425906  1
  I  I73  1  0.83487720  -0.00010821  0.50155041  1
  I  I74  1  0.83548426  -0.00259029  0.83468197  1
  I  I75  1  0.83548652  0.33819659  0.16472646  1
  I  I76  1  0.83543746  0.33833379  0.50248768  1
  I  I77  1  0.83570177  0.33720582  0.83305058  1
  I  I78  1  0.83487248  0.66237421  0.16951108  1
  I  I79  1  0.83660458  0.66231940  0.49758729  1
  I  I80  1  0.83970905  0.66382502  0.83332359  1
  I  I81  1  0.16803828  0.17331291  -0.00262036  1
  I  I82  1  0.16926932  0.17064743  0.33604747  1
  I  I83  1  0.16596406  0.17411904  0.66611312  1
  I  I84  1  0.16053705  0.49498255  -0.00058111  1
  I  I85  1  0.16490983  0.49965494  0.33450913  1
  I  I86  1  0.16442853  0.49904062  0.66595861  1
  I  I87  1  0.16727428  0.83295995  0.00008126  1
  I  I88  1  0.16733186  0.83151377  0.33691374  1
  I  I89  1  0.16642661  0.82675992  0.66361737  1
  I  I90  1  0.49840832  0.16628105  0.00339563  1
  I  I91  1  0.49636113  0.16566601  0.33055848  1
  I  I92  1  0.50132476  0.16848088  0.66645341  1
  I  I93  1  0.49930025  0.49990395  0.00000363  1
  I  I94  1  0.49774849  0.49971096  0.33605093  1
  I  I95  1  0.49748555  0.50029907  0.66234005  1
  I  I96  1  0.49718534  0.83377732  0.00329824  1
  I  I97  1  0.49933336  0.83492871  0.33046744  1
  I  I98  1  0.49919285  0.83092481  0.66641110  1
  I  I99  1  0.83544425  0.16938873  -0.00000956  1
  I  I100  1  0.83613988  0.16890423  0.33332355  1
  I  I101  1  0.83072287  0.16877005  0.66664956  1
  I  I102  1  0.84022759  0.50351421  -0.00042353  1
  I  I103  1  0.83683401  0.49869479  0.33375442  1
  I  I104  1  0.83790921  0.50410727  0.66672103  1
  I  I105  1  0.83502331  0.82582276  -0.00297346  1
  I  I106  1  0.83336561  0.83134684  0.33334073  1
  I  I107  1  0.83542205  0.82452923  0.66969053  1
  I  I108  1  0.00017983  0.16653244  0.16669878  1
  I  I109  1  0.00459546  0.17081802  0.50311409  1
  I  I110  1  0.00388361  0.17101346  0.82948461  1
  I  I111  1  0.00057270  0.49972417  0.17131868  1
  I  I112  1  0.00115915  0.49979350  0.49970778  1
  I  I113  1  0.00073878  0.49995470  0.82979322  1
  I  I114  1  -0.00016815  0.83386806  0.16690659  1
  I  I115  1  0.00367286  0.82939560  0.49984396  1
  I  I116  1  -0.00257555  0.82849686  0.83293016  1
  I  I117  1  0.33566175  0.16728630  0.16730917  1
  I  I118  1  0.32933082  0.17170870  0.50292127  1
  I  I119  1  0.32863580  0.17467863  0.82854492  1
  I  I120  1  0.33066172  0.49937325  0.16833832  1
  I  I121  1  0.33125502  0.49949908  0.49798691  1
  I  I122  1  0.32973720  0.49612432  0.83381844  1
  I  I123  1  0.33578733  0.83354182  0.16679909  1
  I  I124  1  0.32980100  0.82851879  0.50089605  1
  I  I125  1  0.33312863  0.83241610  0.83336292  1
  I  I126  1  0.66299434  0.16600712  0.16661433  1
  I  I127  1  0.66654731  0.16927311  0.49910652  1
  I  I128  1  0.66671993  0.16819111  0.83508895  1
  I  I129  1  0.66943041  0.50011479  0.16719721  1
  I  I130  1  0.66753366  0.50121603  0.49732044  1
  I  I131  1  0.67018886  0.50427508  0.83493048  1
  I  I132  1  0.66347670  0.83367708  0.16720216  1
  I  I133  1  0.66682686  0.82980003  0.49940531  1
  I  I134  1  0.67098190  0.82243844  0.83424248  1
