# generated using pymatgen
data_Cs27Sn14Pb13I81
_symmetry_space_group_name_H-M   'P 1'
_cell_length_a   18.96145113
_cell_length_b   18.96151048
_cell_length_c   18.95754872
_cell_angle_alpha   90.00222034
_cell_angle_beta   90.00119878
_cell_angle_gamma   90.00290670
_symmetry_Int_Tables_number   1
_chemical_formula_structural   Cs27Sn14Pb13I81
_chemical_formula_sum   'Cs27 Sn14 Pb13 I81'
_cell_volume   6815.95447779
_cell_formula_units_Z   1
loop_
 _symmetry_equiv_pos_site_id
 _symmetry_equiv_pos_as_xyz
  1  'x, y, z'
loop_
 _atom_site_type_symbol
 _atom_site_label
 _atom_site_symmetry_multiplicity
 _atom_site_fract_x
 _atom_site_fract_y
 _atom_site_fract_z
 _atom_site_occupancy
  Cs  Cs0  1  0.00105960  -0.00332438  -0.00048466  1
  Cs  Cs1  1  -0.00291165  -0.00232104  0.33253436  1
  Cs  Cs2  1  0.00041958  0.00215926  0.66800897  1
  Cs  Cs3  1  0.00108136  0.33338063  -0.00192209  1
  Cs  Cs4  1  0.00432566  0.33572378  0.33404873  1
  Cs  Cs5  1  -0.00062001  0.33351331  0.66749083  1
  Cs  Cs6  1  0.00383117  0.66815599  0.00469044  1
  Cs  Cs7  1  0.00049536  0.66671790  0.33180947  1
  Cs  Cs8  1  -0.00717783  0.66039707  0.66241526  1
  Cs  Cs9  1  0.32990828  -0.00217960  -0.00421750  1
  Cs  Cs10  1  0.33615348  0.00158089  0.33651338  1
  Cs  Cs11  1  0.33222243  0.00030081  0.66634376  1
  Cs  Cs12  1  0.33161627  0.33249538  0.00035657  1
  Cs  Cs13  1  0.33372317  0.33387379  0.33321570  1
  Cs  Cs14  1  0.33272112  0.33112941  0.66528332  1
  Cs  Cs15  1  0.33247404  0.66997745  -0.00108789  1
  Cs  Cs16  1  0.33246214  0.66532843  0.33244629  1
  Cs  Cs17  1  0.33684049  0.66977651  0.66807118  1
  Cs  Cs18  1  0.66877429  0.00204613  0.00268884  1
  Cs  Cs19  1  0.66710184  -0.00000824  0.33161627  1
  Cs  Cs20  1  0.66720720  0.00015918  0.66564497  1
  Cs  Cs21  1  0.66692901  0.33405645  0.00177634  1
  Cs  Cs22  1  0.66329603  0.33105006  0.32911531  1
  Cs  Cs23  1  0.66783160  0.33354198  0.66814868  1
  Cs  Cs24  1  0.66418073  0.66227421  -0.00420571  1
  Cs  Cs25  1  0.66661631  0.66863746  0.33413245  1
  Cs  Cs26  1  0.66847983  0.66459718  0.67018066  1
  Sn  Sn27  1  0.16662482  0.16619023  0.16756630  1
  Sn  Sn28  1  0.50005217  0.83268442  0.16707159  1
  Sn  Sn29  1  0.83310339  0.16674031  0.50025998  1
  Sn  Sn30  1  0.49948059  0.83329290  0.49934900  1
  Sn  Sn31  1  0.50012031  0.50002270  0.49954029  1
  Sn  Sn32  1  0.16651412  0.16584167  0.49883690  1
  Sn  Sn33  1  0.50080663  0.16665936  0.83272301  1
  Sn  Sn34  1  0.50066278  0.50105364  0.16744508  1
  Sn  Sn35  1  0.50033520  0.16666245  0.50086289  1
  Sn  Sn36  1  0.83290768  0.49997031  0.16716075  1
  Sn  Sn37  1  0.83319714  0.83391402  0.83329799  1
  Sn  Sn38  1  0.83231167  0.16574138  0.83279097  1
  Sn  Sn39  1  0.16686547  0.83380356  0.50018630  1
  Sn  Sn40  1  0.16702872  0.50031367  0.83289573  1
  Pb  Pb41  1  0.50159041  0.83582971  0.83303233  1
  Pb  Pb42  1  0.16908003  0.83573878  0.16910467  1
  Pb  Pb43  1  0.83513739  0.49942118  0.83532878  1
  Pb  Pb44  1  0.83286854  0.83523204  0.50135276  1
  Pb  Pb45  1  0.49835039  0.16650488  0.16660156  1
  Pb  Pb46  1  0.83054799  0.49723319  0.49762836  1
  Pb  Pb47  1  0.16894069  0.50012456  0.50166162  1
  Pb  Pb48  1  0.16631083  0.16747139  0.83258167  1
  Pb  Pb49  1  0.49836379  0.49766803  0.83351038  1
  Pb  Pb50  1  0.16408750  0.83060387  0.83008100  1
  Pb  Pb51  1  0.83573822  0.16813936  0.16660357  1
  Pb  Pb52  1  0.83085523  0.83101199  0.16446846  1
  Pb  Pb53  1  0.16758954  0.49861715  0.16521637  1
  I  I54  1  0.16767856  0.00361548  0.16666366  1
  I  I55  1  0.17216945  0.00148859  0.49733830  1
  I  I56  1  0.16794010  -0.00014025  0.83523354  1
  I  I57  1  0.16918619  0.33061000  0.17229993  1
  I  I58  1  0.16798057  0.33018722  0.49832393  1
  I  I59  1  0.16566243  0.33498839  0.83227684  1
  I  I60  1  0.16489462  0.66692032  0.16640521  1
  I  I61  1  0.17173583  0.66928890  0.50295452  1
  I  I62  1  0.16694889  0.66360138  0.83414303  1
  I  I63  1  0.49797040  -0.00217027  0.17015819  1
  I  I64  1  0.49884343  0.00062870  0.49983101  1
  I  I65  1  0.49995853  0.00388240  0.82959425  1
  I  I66  1  0.50158431  0.33562627  0.16940324  1
  I  I67  1  0.49963392  0.33227765  0.49964991  1
  I  I68  1  0.50466280  0.32963047  0.82948776  1
  I  I69  1  0.50305844  0.66604133  0.17402091  1
  I  I70  1  0.49451156  0.66720589  0.49523137  1
  I  I71  1  0.50100483  0.66674590  0.83095731  1
  I  I72  1  0.83257756  0.00001330  0.16732476  1
  I  I73  1  0.82954506  0.00373936  0.50107403  1
  I  I74  1  0.83001919  0.00186201  0.82977108  1
  I  I75  1  0.82612705  0.33583992  0.16506343  1
  I  I76  1  0.83487803  0.32893930  0.50676510  1
  I  I77  1  0.83134840  0.33018911  0.83040385  1
  I  I78  1  0.83283558  0.66321589  0.16490580  1
  I  I79  1  0.83389679  0.66653050  0.50190843  1
  I  I80  1  0.83457451  0.66856298  0.83408225  1
  I  I81  1  0.16797724  0.17075625  0.00146363  1
  I  I82  1  0.16795707  0.16565794  0.33547205  1
  I  I83  1  0.16779961  0.16477374  0.66337043  1
  I  I84  1  0.16763688  0.49557666  -0.00237923  1
  I  I85  1  0.16527220  0.49990995  0.33358486  1
  I  I86  1  0.16710105  0.49650912  0.66901301  1
  I  I87  1  0.16764412  0.83447338  -0.00010383  1
  I  I88  1  0.16754526  0.83423028  0.33727182  1
  I  I89  1  0.17523574  0.84165464  0.66252164  1
  I  I90  1  0.50249025  0.16751487  -0.00228668  1
  I  I91  1  0.50155191  0.16689485  0.33649963  1
  I  I92  1  0.49824711  0.16709135  0.66476059  1
  I  I93  1  0.50200224  0.50214196  0.00282033  1
  I  I94  1  0.50253182  0.49735143  0.33365802  1
  I  I95  1  0.49728111  0.50128678  0.66387301  1
  I  I96  1  0.50222014  0.82983986  0.00227405  1
  I  I97  1  0.49721144  0.83494896  0.33480709  1
  I  I98  1  0.49737618  0.83194649  0.66330873  1
  I  I99  1  0.82991161  0.16545674  -0.00286715  1
  I  I100  1  0.83004944  0.16830515  0.33628933  1
  I  I101  1  0.83407363  0.16408649  0.66646503  1
  I  I102  1  0.82683296  0.49750232  0.00290261  1
  I  I103  1  0.83285545  0.49839762  0.33005557  1
  I  I104  1  0.83324818  0.50107657  0.66650698  1
  I  I105  1  0.83230767  0.84089968  -0.00330943  1
  I  I106  1  0.83466676  0.83410711  0.33340775  1
  I  I107  1  0.83160268  0.83467991  0.66930164  1
  I  I108  1  0.00331786  0.17007742  0.17031343  1
  I  I109  1  0.00048556  0.16244328  0.50053495  1
  I  I110  1  -0.00269876  0.16580847  0.83042047  1
  I  I111  1  -0.00166842  0.49621657  0.16316305  1
  I  I112  1  -0.00011151  0.49973191  0.49984821  1
  I  I113  1  0.00250625  0.49687627  0.83428684  1
  I  I114  1  0.00006978  0.83204487  0.16703906  1
  I  I115  1  0.00230461  0.83874201  0.50297011  1
  I  I116  1  -0.00334215  0.84100622  0.83261496  1
  I  I117  1  0.33077831  0.16929365  0.17027712  1
  I  I118  1  0.33419251  0.16648649  0.50022918  1
  I  I119  1  0.33548377  0.16923155  0.83058380  1
  I  I120  1  0.33666514  0.50135205  0.16989187  1
  I  I121  1  0.33716212  0.49490176  0.49447955  1
  I  I122  1  0.33107652  0.49642709  0.83462315  1
  I  I123  1  0.33713134  0.82706688  0.16704810  1
  I  I124  1  0.33474777  0.83823613  0.49745484  1
  I  I125  1  0.33342204  0.83413694  0.83503873  1
  I  I126  1  0.66649911  0.16623867  0.16808746  1
  I  I127  1  0.66557082  0.16696094  0.50504655  1
  I  I128  1  0.66684685  0.16473637  0.82589106  1
  I  I129  1  0.66500434  0.50112085  0.16891232  1
  I  I130  1  0.66223053  0.50086363  0.50027319  1
  I  I131  1  0.66655598  0.50041318  0.83252875  1
  I  I132  1  0.66282069  0.83426146  0.17403398  1
  I  I133  1  0.66324969  0.83474203  0.49747428  1
  I  I134  1  0.66932976  0.83466576  0.83120963  1
