# generated using pymatgen
data_Cs27Sn14Pb13I81
_symmetry_space_group_name_H-M   'P 1'
_cell_length_a   18.97753837
_cell_length_b   18.98218022
_cell_length_c   18.96805682
_cell_angle_alpha   90.00045830
_cell_angle_beta   89.99994719
_cell_angle_gamma   89.99992240
_symmetry_Int_Tables_number   1
_chemical_formula_structural   Cs27Sn14Pb13I81
_chemical_formula_sum   'Cs27 Sn14 Pb13 I81'
_cell_volume   6832.95896362
_cell_formula_units_Z   1
loop_
 _symmetry_equiv_pos_site_id
 _symmetry_equiv_pos_as_xyz
  1  'x, y, z'
loop_
 _atom_site_type_symbol
 _atom_site_label
 _atom_site_symmetry_multiplicity
 _atom_site_fract_x
 _atom_site_fract_y
 _atom_site_fract_z
 _atom_site_occupancy
  Cs  Cs0  1  0.00609826  0.00058475  0.00085786  1
  Cs  Cs1  1  -0.00092684  -0.00542027  0.33172229  1
  Cs  Cs2  1  -0.00534426  0.00065638  0.66640538  1
  Cs  Cs3  1  -0.00241344  0.33165370  -0.00371597  1
  Cs  Cs4  1  0.00408124  0.33605622  0.33468197  1
  Cs  Cs5  1  0.00263400  0.33546051  0.66656483  1
  Cs  Cs6  1  -0.00437805  0.66806418  0.00139811  1
  Cs  Cs7  1  -0.00134343  0.66740165  0.33292829  1
  Cs  Cs8  1  0.00161055  0.66346243  0.66472570  1
  Cs  Cs9  1  0.32747174  -0.00075044  -0.00042070  1
  Cs  Cs10  1  0.33416557  -0.00070207  0.33228420  1
  Cs  Cs11  1  0.33353718  -0.00311082  0.66709289  1
  Cs  Cs12  1  0.33238357  0.33072050  0.00165770  1
  Cs  Cs13  1  0.33448241  0.33567658  0.33446328  1
  Cs  Cs14  1  0.33047669  0.33518051  0.66403902  1
  Cs  Cs15  1  0.33590309  0.67054986  -0.00725942  1
  Cs  Cs16  1  0.33435687  0.66351371  0.33567527  1
  Cs  Cs17  1  0.33436425  0.66760554  0.66828648  1
  Cs  Cs18  1  0.66610622  0.00332950  -0.00257447  1
  Cs  Cs19  1  0.66690719  0.00060289  0.33488690  1
  Cs  Cs20  1  0.67025998  0.00318281  0.66805974  1
  Cs  Cs21  1  0.66837204  0.33132271  0.00045061  1
  Cs  Cs22  1  0.66399151  0.33171754  0.33230117  1
  Cs  Cs23  1  0.66720666  0.32925925  0.66748113  1
  Cs  Cs24  1  0.66750085  0.66422062  -0.00130886  1
  Cs  Cs25  1  0.66618827  0.66690177  0.33174571  1
  Cs  Cs26  1  0.66421613  0.66725287  0.67032810  1
  Sn  Sn27  1  0.50047348  0.50071449  0.49953827  1
  Sn  Sn28  1  0.49968429  0.83279036  0.49930539  1
  Sn  Sn29  1  0.16730934  0.83324795  0.49978732  1
  Sn  Sn30  1  0.83330657  0.83375257  0.83359220  1
  Sn  Sn31  1  0.16665809  0.16610906  0.49962587  1
  Sn  Sn32  1  0.50048451  0.16646155  0.16581332  1
  Sn  Sn33  1  0.83274601  0.16574381  0.83439537  1
  Sn  Sn34  1  0.83251760  0.49984658  0.49975252  1
  Sn  Sn35  1  0.49991766  0.16684791  0.83404233  1
  Sn  Sn36  1  0.49901879  0.50034833  0.16711255  1
  Sn  Sn37  1  0.16692472  0.50040176  0.49910398  1
  Sn  Sn38  1  0.16756581  0.50016391  0.16685277  1
  Sn  Sn39  1  0.50008137  0.83323667  0.16709413  1
  Sn  Sn40  1  0.83316501  0.16664313  0.16659205  1
  Pb  Pb41  1  0.83317347  0.49936845  0.83108958  1
  Pb  Pb42  1  0.16692675  0.16844162  0.16880342  1
  Pb  Pb43  1  0.16655501  0.16666593  0.83091743  1
  Pb  Pb44  1  0.16691628  0.50018437  0.83414121  1
  Pb  Pb45  1  0.83300156  0.49795289  0.16856715  1
  Pb  Pb46  1  0.16384259  0.83326411  0.83071356  1
  Pb  Pb47  1  0.83075649  0.83578991  0.16456008  1
  Pb  Pb48  1  0.49840502  0.16646733  0.49969356  1
  Pb  Pb49  1  0.50147443  0.83572973  0.83315011  1
  Pb  Pb50  1  0.16914989  0.83034840  0.16874373  1
  Pb  Pb51  1  0.83257434  0.83113162  0.50140554  1
  Pb  Pb52  1  0.83564011  0.16854347  0.49960907  1
  Pb  Pb53  1  0.49988975  0.49723231  0.83363697  1
  I  I54  1  0.16707168  -0.00016262  0.16951158  1
  I  I55  1  0.17211665  -0.00068415  0.50145816  1
  I  I56  1  0.16887899  0.00007390  0.83094303  1
  I  I57  1  0.17235365  0.33625393  0.17493444  1
  I  I58  1  0.16684562  0.33487354  0.49750502  1
  I  I59  1  0.16419736  0.33317447  0.82839496  1
  I  I60  1  0.16983591  0.66241372  0.17384977  1
  I  I61  1  0.16696192  0.66574302  0.49694299  1
  I  I62  1  0.16500976  0.66685125  0.83050522  1
  I  I63  1  0.50552877  0.00037221  0.16825603  1
  I  I64  1  0.49483190  -0.00248195  0.49740296  1
  I  I65  1  0.50255630  0.00351511  0.83566542  1
  I  I66  1  0.50024190  0.33351917  0.16774094  1
  I  I67  1  0.49864939  0.33607490  0.49762474  1
  I  I68  1  0.50735207  0.32940663  0.83582280  1
  I  I69  1  0.49555793  0.66601111  0.17310519  1
  I  I70  1  0.49600610  0.66604154  0.49334197  1
  I  I71  1  0.50219731  0.66686066  0.83490700  1
  I  I72  1  0.82826836  0.00385882  0.16746204  1
  I  I73  1  0.83447355  0.00009102  0.49941758  1
  I  I74  1  0.82817191  0.00155052  0.83392645  1
  I  I75  1  0.82748894  0.33014777  0.16100092  1
  I  I76  1  0.83265914  0.33642468  0.50149072  1
  I  I77  1  0.82946329  0.32986936  0.83620404  1
  I  I78  1  0.83336507  0.66664002  0.16514652  1
  I  I79  1  0.83789256  0.66327854  0.50147739  1
  I  I80  1  0.83358723  0.66894804  0.83002159  1
  I  I81  1  0.16645150  0.16941617  0.00032026  1
  I  I82  1  0.16705300  0.16684185  0.33681021  1
  I  I83  1  0.16717040  0.17079770  0.66270209  1
  I  I84  1  0.17238295  0.49769256  0.00382965  1
  I  I85  1  0.16779333  0.49871356  0.33515764  1
  I  I86  1  0.16690304  0.49937904  0.66258115  1
  I  I87  1  0.16769483  0.83203984  0.00033325  1
  I  I88  1  0.16629751  0.83541229  0.33721347  1
  I  I89  1  0.17435896  0.82989480  0.66205841  1
  I  I90  1  0.50437454  0.16774039  0.00132972  1
  I  I91  1  0.50347126  0.16732166  0.33038555  1
  I  I92  1  0.50374714  0.16652401  0.66852575  1
  I  I93  1  0.49548814  0.50291463  0.00382781  1
  I  I94  1  0.49903458  0.49774578  0.33379762  1
  I  I95  1  0.49844906  0.50349407  0.66309810  1
  I  I96  1  0.50281605  0.82966642  0.00289626  1
  I  I97  1  0.49698764  0.83480411  0.33381637  1
  I  I98  1  0.49672638  0.82924896  0.66351265  1
  I  I99  1  0.82852611  0.16488410  -0.00018815  1
  I  I100  1  0.82778088  0.16950032  0.33080860  1
  I  I101  1  0.82956184  0.16447200  0.66916524  1
  I  I102  1  0.83388876  0.50132749  0.00022513  1
  I  I103  1  0.83412080  0.49841240  0.33666658  1
  I  I104  1  0.83477668  0.49789941  0.66273243  1
  I  I105  1  0.83096888  0.83355333  -0.00325996  1
  I  I106  1  0.83506568  0.83466916  0.33326499  1
  I  I107  1  0.83147011  0.84097152  0.66907689  1
  I  I108  1  -0.00232996  0.16965072  0.16326692  1
  I  I109  1  0.00340484  0.16801023  0.50050837  1
  I  I110  1  -0.00328536  0.16340517  0.83666881  1
  I  I111  1  0.00235535  0.49716184  0.17282161  1
  I  I112  1  0.00145932  0.49907303  0.49747340  1
  I  I113  1  -0.00015615  0.49732989  0.83158280  1
  I  I114  1  0.00001618  0.83360516  0.16726046  1
  I  I115  1  0.00245925  0.83203975  0.50302645  1
  I  I116  1  -0.00389039  0.84091229  0.83178655  1
  I  I117  1  0.33673877  0.16570670  0.16361080  1
  I  I118  1  0.33065769  0.17171418  0.49984790  1
  I  I119  1  0.33619068  0.16771361  0.83746384  1
  I  I120  1  0.33478598  0.49632158  0.17662384  1
  I  I121  1  0.33348023  0.49964643  0.49602139  1
  I  I122  1  0.33366869  0.49801279  0.82780343  1
  I  I123  1  0.33741973  0.83989857  0.16729008  1
  I  I124  1  0.33399937  0.82910419  0.49717731  1
  I  I125  1  0.33358811  0.83477386  0.83412601  1
  I  I126  1  0.66517260  0.16949949  0.16344677  1
  I  I127  1  0.66662963  0.16763108  0.50082580  1
  I  I128  1  0.66693691  0.16365108  0.83556060  1
  I  I129  1  0.66323930  0.50101137  0.17165520  1
  I  I130  1  0.66504018  0.50409730  0.49633774  1
  I  I131  1  0.66651606  0.50161079  0.83111459  1
  I  I132  1  0.66250916  0.82775452  0.17432923  1
  I  I133  1  0.66329917  0.82867819  0.49734999  1
  I  I134  1  0.66910413  0.83616229  0.82987627  1
