# generated using pymatgen
data_Cs27Sn14Pb13I81
_symmetry_space_group_name_H-M   'P 1'
_cell_length_a   18.96171208
_cell_length_b   18.95722120
_cell_length_c   18.96278534
_cell_angle_alpha   89.99950367
_cell_angle_beta   89.99951692
_cell_angle_gamma   90.00019913
_symmetry_Int_Tables_number   1
_chemical_formula_structural   Cs27Sn14Pb13I81
_chemical_formula_sum   'Cs27 Sn14 Pb13 I81'
_cell_volume   6816.38880132
_cell_formula_units_Z   1
loop_
 _symmetry_equiv_pos_site_id
 _symmetry_equiv_pos_as_xyz
  1  'x, y, z'
loop_
 _atom_site_type_symbol
 _atom_site_label
 _atom_site_symmetry_multiplicity
 _atom_site_fract_x
 _atom_site_fract_y
 _atom_site_fract_z
 _atom_site_occupancy
  Cs  Cs0  1  0.00098068  0.00137943  -0.00167358  1
  Cs  Cs1  1  -0.00130894  -0.00059194  0.33266638  1
  Cs  Cs2  1  0.00216989  -0.00092654  0.66825870  1
  Cs  Cs3  1  0.00101145  0.33427320  0.00125372  1
  Cs  Cs4  1  0.00066514  0.33521064  0.33236613  1
  Cs  Cs5  1  -0.00003262  0.33322849  0.66667518  1
  Cs  Cs6  1  -0.00182469  0.66221124  0.00538985  1
  Cs  Cs7  1  -0.00005835  0.66451914  0.33096620  1
  Cs  Cs8  1  -0.00008261  0.66736909  0.66523883  1
  Cs  Cs9  1  0.33135808  -0.00103852  -0.00136097  1
  Cs  Cs10  1  0.33463459  -0.00197507  0.33839095  1
  Cs  Cs11  1  0.32548878  -0.00689284  0.66168688  1
  Cs  Cs12  1  0.33423666  0.33294971  0.00260333  1
  Cs  Cs13  1  0.33506071  0.33385712  0.33270512  1
  Cs  Cs14  1  0.33136303  0.33254821  0.66514228  1
  Cs  Cs15  1  0.33612399  0.66890444  -0.00330415  1
  Cs  Cs16  1  0.33316996  0.66522084  0.33350554  1
  Cs  Cs17  1  0.33319699  0.67119551  0.67006061  1
  Cs  Cs18  1  0.66743120  0.00165849  0.00210130  1
  Cs  Cs19  1  0.66559484  -0.00066116  0.33246679  1
  Cs  Cs20  1  0.66916690  0.00108696  0.66524380  1
  Cs  Cs21  1  0.66570517  0.33218365  -0.00291365  1
  Cs  Cs22  1  0.66365373  0.33134612  0.33499637  1
  Cs  Cs23  1  0.66693412  0.33420103  0.66790695  1
  Cs  Cs24  1  0.66594007  0.66842632  -0.00250080  1
  Cs  Cs25  1  0.66692030  0.67039986  0.33200307  1
  Cs  Cs26  1  0.66666307  0.66445315  0.67016344  1
  Sn  Sn27  1  0.83337716  0.83388064  0.83302711  1
  Sn  Sn28  1  0.16665263  0.49969624  0.83271482  1
  Sn  Sn29  1  0.49982210  0.16723854  0.16599581  1
  Sn  Sn30  1  0.83300270  0.50010320  0.49987195  1
  Sn  Sn31  1  0.16702083  0.16563186  0.16701913  1
  Sn  Sn32  1  0.49982594  0.16634068  0.83322515  1
  Sn  Sn33  1  0.83328593  0.16695960  0.16658154  1
  Sn  Sn34  1  0.16680380  0.49973224  0.50109151  1
  Sn  Sn35  1  0.50049117  0.49965116  0.16703974  1
  Sn  Sn36  1  0.83332897  0.83331507  0.50071194  1
  Sn  Sn37  1  0.83274174  0.16606103  0.83330514  1
  Sn  Sn38  1  0.50020159  0.49985039  0.49944592  1
  Sn  Sn39  1  0.16681029  0.83424145  0.16673694  1
  Sn  Sn40  1  0.83349439  0.16655358  0.50010907  1
  Pb  Pb41  1  0.83478138  0.83550034  0.16645343  1
  Pb  Pb42  1  0.50244407  0.83695541  0.83323611  1
  Pb  Pb43  1  0.16667456  0.16798402  0.83502628  1
  Pb  Pb44  1  0.50260114  0.83039743  0.50020471  1
  Pb  Pb45  1  0.16428802  0.16850576  0.49753746  1
  Pb  Pb46  1  0.16427985  0.83078224  0.49802595  1
  Pb  Pb47  1  0.16390344  0.83089428  0.83547336  1
  Pb  Pb48  1  0.49801473  0.49800879  0.83306836  1
  Pb  Pb49  1  0.16875639  0.49970191  0.16691055  1
  Pb  Pb50  1  0.50157932  0.16793808  0.50038137  1
  Pb  Pb51  1  0.83487963  0.49959995  0.83149614  1
  Pb  Pb52  1  0.83037119  0.49762578  0.16887033  1
  Pb  Pb53  1  0.49772196  0.83404893  0.16661765  1
  I  I54  1  0.16665350  0.00164803  0.16545530  1
  I  I55  1  0.16533956  -0.00002122  0.50013508  1
  I  I56  1  0.16784567  0.00000760  0.83391005  1
  I  I57  1  0.16460543  0.33066412  0.16682284  1
  I  I58  1  0.16373635  0.33688013  0.50051574  1
  I  I59  1  0.16392511  0.33589585  0.83170048  1
  I  I60  1  0.16657446  0.66819801  0.16732467  1
  I  I61  1  0.16420004  0.66255598  0.50017583  1
  I  I62  1  0.16586917  0.66313622  0.83136292  1
  I  I63  1  0.50289883  0.00400241  0.16277761  1
  I  I64  1  0.50231235  0.00009249  0.49854964  1
  I  I65  1  0.50181837  0.00503757  0.84159089  1
  I  I66  1  0.49816767  0.33209632  0.16751673  1
  I  I67  1  0.50266834  0.33644033  0.49806085  1
  I  I68  1  0.50759374  0.33009561  0.83573165  1
  I  I69  1  0.49726496  0.66387822  0.17173442  1
  I  I70  1  0.50152312  0.66176480  0.49330965  1
  I  I71  1  0.50057593  0.66652978  0.83436068  1
  I  I72  1  0.82905176  0.00406662  0.17112739  1
  I  I73  1  0.83301905  0.00085950  0.49990708  1
  I  I74  1  0.83048161  0.00157436  0.82901250  1
  I  I75  1  0.83886938  0.32908928  0.16555484  1
  I  I76  1  0.83348135  0.33321290  0.49931960  1
  I  I77  1  0.83107173  0.33002641  0.83309426  1
  I  I78  1  0.83498247  0.66655522  0.16686728  1
  I  I79  1  0.83378774  0.66620231  0.50460409  1
  I  I80  1  0.83620058  0.66885993  0.82854617  1
  I  I81  1  0.16207438  0.16731132  0.00340264  1
  I  I82  1  0.16690658  0.16632345  0.32918015  1
  I  I83  1  0.16651978  0.16783485  0.66646555  1
  I  I84  1  0.16729374  0.49936703  -0.00158186  1
  I  I85  1  0.16418683  0.49967586  0.33586296  1
  I  I86  1  0.16712863  0.49870879  0.66546133  1
  I  I87  1  0.16427446  0.83510904  0.00314373  1
  I  I88  1  0.16402687  0.83584506  0.33033109  1
  I  I89  1  0.16696955  0.83327482  0.66660056  1
  I  I90  1  0.50526913  0.17287409  0.00139385  1
  I  I91  1  0.50110887  0.16974732  0.33044489  1
  I  I92  1  0.50712639  0.17009693  0.66921768  1
  I  I93  1  0.49668966  0.49675401  0.00239927  1
  I  I94  1  0.49846048  0.49349576  0.33352001  1
  I  I95  1  0.50272914  0.49802003  0.66372721  1
  I  I96  1  0.50235589  0.82714149  0.00003112  1
  I  I97  1  0.50267795  0.83671031  0.33334734  1
  I  I98  1  0.49763085  0.83271869  0.66672355  1
  I  I99  1  0.83269732  0.16192523  -0.00008456  1
  I  I100  1  0.83383531  0.16779726  0.33335404  1
  I  I101  1  0.82834010  0.16722894  0.66678387  1
  I  I102  1  0.83510093  0.50054799  0.00007799  1
  I  I103  1  0.83906150  0.50056346  0.33734370  1
  I  I104  1  0.82944817  0.49559718  0.66296609  1
  I  I105  1  0.83512506  0.83828723  -0.00253538  1
  I  I106  1  0.83505727  0.83310725  0.33607313  1
  I  I107  1  0.83368664  0.83793060  0.66605150  1
  I  I108  1  -0.00059779  0.16272021  0.16718118  1
  I  I109  1  -0.00441672  0.16927475  0.50061727  1
  I  I110  1  -0.00327300  0.16488172  0.83381677  1
  I  I111  1  -0.00002998  0.49893552  0.16758796  1
  I  I112  1  -0.00062486  0.49934096  0.50411842  1
  I  I113  1  0.00265334  0.49797830  0.82939511  1
  I  I114  1  0.00258067  0.83723065  0.16713324  1
  I  I115  1  -0.00401951  0.83234406  0.50262300  1
  I  I116  1  -0.00390915  0.84072359  0.82904787  1
  I  I117  1  0.33412334  0.16850100  0.16143171  1
  I  I118  1  0.33321374  0.16982273  0.49950335  1
  I  I119  1  0.33578420  0.17186173  0.83991681  1
  I  I120  1  0.33628649  0.49363120  0.17232484  1
  I  I121  1  0.33346150  0.49802364  0.49821734  1
  I  I122  1  0.33034647  0.49754713  0.82915456  1
  I  I123  1  0.32984539  0.83750118  0.16674456  1
  I  I124  1  0.33298818  0.83242274  0.49865287  1
  I  I125  1  0.33294377  0.83315691  0.83479984  1
  I  I126  1  0.66690297  0.17149722  0.16631675  1
  I  I127  1  0.67044843  0.16909523  0.49616895  1
  I  I128  1  0.66810086  0.16502268  0.83821781  1
  I  I129  1  0.66258770  0.49505765  0.17085838  1
  I  I130  1  0.66729718  0.49894260  0.49520196  1
  I  I131  1  0.66671202  0.50129518  0.83283843  1
  I  I132  1  0.66689856  0.83314766  0.16714653  1
  I  I133  1  0.67124454  0.83251739  0.50134479  1
  I  I134  1  0.67083489  0.83244846  0.83065423  1
