# generated using pymatgen
data_Cs27Sn14Pb13I81
_symmetry_space_group_name_H-M   'P 1'
_cell_length_a   18.96138850
_cell_length_b   18.96138850
_cell_length_c   18.96138848
_cell_angle_alpha   90.00120202
_cell_angle_beta   90.00120197
_cell_angle_gamma   90.00120194
_symmetry_Int_Tables_number   1
_chemical_formula_structural   Cs27Sn14Pb13I81
_chemical_formula_sum   'Cs27 Sn14 Pb13 I81'
_cell_volume   6817.26865734
_cell_formula_units_Z   1
loop_
 _symmetry_equiv_pos_site_id
 _symmetry_equiv_pos_as_xyz
  1  'x, y, z'
loop_
 _atom_site_type_symbol
 _atom_site_label
 _atom_site_symmetry_multiplicity
 _atom_site_fract_x
 _atom_site_fract_y
 _atom_site_fract_z
 _atom_site_occupancy
  Cs  Cs0  1  0.00009294  -0.00294502  0.00009299  1
  Cs  Cs1  1  -0.00118250  0.00061636  0.33394972  1
  Cs  Cs2  1  0.00134568  0.00160084  0.66581176  1
  Cs  Cs3  1  0.00110433  0.33493116  0.00110439  1
  Cs  Cs4  1  0.00134567  0.33247867  0.33493432  1
  Cs  Cs5  1  -0.00644150  0.33059100  0.66392437  1
  Cs  Cs6  1  0.00190193  0.66856859  0.00190180  1
  Cs  Cs7  1  0.00009291  0.66675966  0.33038838  1
  Cs  Cs8  1  0.00110443  0.66777113  0.66826464  1
  Cs  Cs9  1  0.33394965  0.00061645  -0.00118255  1
  Cs  Cs10  1  0.33484177  0.00150829  0.33484161  1
  Cs  Cs11  1  0.33041537  -0.00291788  0.66360614  1
  Cs  Cs12  1  0.33493418  0.33247851  0.00134556  1
  Cs  Cs13  1  0.33041536  0.33027283  0.33041539  1
  Cs  Cs14  1  0.33382182  0.33398449  0.66731783  1
  Cs  Cs15  1  0.33038838  0.66675962  0.00009302  1
  Cs  Cs16  1  0.33394969  0.66548409  0.33394962  1
  Cs  Cs17  1  0.33493428  0.66801234  0.66581179  1
  Cs  Cs18  1  0.66581188  0.00160089  0.00134568  1
  Cs  Cs19  1  0.66360604  -0.00291793  0.33041541  1
  Cs  Cs20  1  0.66731776  0.00048847  0.66731773  1
  Cs  Cs21  1  0.66392442  0.33059105  -0.00644141  1
  Cs  Cs22  1  0.66731771  0.33398438  0.33382169  1
  Cs  Cs23  1  0.67376237  0.34042890  0.67376220  1
  Cs  Cs24  1  0.66826450  0.66777108  0.00110435  1
  Cs  Cs25  1  0.66581191  0.66801241  0.33493432  1
  Cs  Cs26  1  0.66392415  0.66022534  0.66392428  1
  Sn  Sn27  1  0.83396811  0.16789132  0.16657700  1
  Sn  Sn28  1  0.16655756  0.49859116  0.83192447  1
  Sn  Sn29  1  0.83192447  0.83322427  0.83192444  1
  Sn  Sn30  1  0.16776004  0.83442675  0.16776005  1
  Sn  Sn31  1  0.83396812  0.83324362  0.50122469  1
  Sn  Sn32  1  0.49876525  0.83246141  0.16579474  1
  Sn  Sn33  1  0.16579472  0.83246139  0.49876519  1
  Sn  Sn34  1  0.16657694  0.16789132  0.83396809  1
  Sn  Sn35  1  0.50079230  0.16745901  0.50079232  1
  Sn  Sn36  1  0.83192448  0.49859116  0.16655759  1
  Sn  Sn37  1  0.50122470  0.50063477  0.16657698  1
  Sn  Sn38  1  0.16657695  0.50063477  0.50122467  1
  Sn  Sn39  1  0.16579474  0.16543191  0.16579475  1
  Sn  Sn40  1  0.50122462  0.83324364  0.83396809  1
  Pb  Pb41  1  0.49992703  0.83420141  0.49992705  1
  Pb  Pb42  1  0.49992703  0.16659377  0.16753476  1
  Pb  Pb43  1  0.83565540  0.50232204  0.83565538  1
  Pb  Pb44  1  0.49781005  0.50223502  0.83556835  1
  Pb  Pb45  1  0.16676716  0.83343384  0.83325959  1
  Pb  Pb46  1  0.16753473  0.16659382  0.49992712  1
  Pb  Pb47  1  0.49786883  0.49719414  0.49786884  1
  Pb  Pb48  1  0.49786885  0.16453551  0.83052754  1
  Pb  Pb49  1  0.83052756  0.16453548  0.49786879  1
  Pb  Pb50  1  0.16676712  0.49992623  0.16676714  1
  Pb  Pb51  1  0.83556835  0.16447665  0.83556835  1
  Pb  Pb52  1  0.83556837  0.50223501  0.49781002  1
  Pb  Pb53  1  0.83325962  0.83343382  0.16676712  1
  I  I54  1  0.16645493  -0.00060250  0.16645478  1
  I  I55  1  0.16533837  -0.00279156  0.49899423  1
  I  I56  1  0.16681970  0.00175049  0.83516858  1
  I  I57  1  0.16637566  0.33112025  0.16637571  1
  I  I58  1  0.17021346  0.33547774  0.49898929  1
  I  I59  1  0.16758120  0.33314244  0.83542244  1
  I  I60  1  0.16686817  0.66916898  0.16686820  1
  I  I61  1  0.16425547  0.66799480  0.49883562  1
  I  I62  1  0.16654107  0.66503846  0.83385921  1
  I  I63  1  0.49899423  -0.00279156  0.16533863  1
  I  I64  1  0.49640423  0.00151121  0.49640382  1
  I  I65  1  0.50054158  -0.00365204  0.84071272  1
  I  I66  1  0.49898954  0.33547774  0.17021343  1
  I  I67  1  0.49520431  0.33013515  0.49520463  1
  I  I68  1  0.49892681  0.33348212  0.83454129  1
  I  I69  1  0.49883542  0.66799480  0.16425537  1
  I  I70  1  0.50035705  0.66656837  0.50035706  1
  I  I71  1  0.50016033  0.67049678  0.83429396  1
  I  I72  1  0.83516849  0.00175052  0.16681984  1
  I  I73  1  0.84071254  -0.00365202  0.50054144  1
  I  I74  1  0.83325133  -0.00366697  0.83325139  1
  I  I75  1  0.83542224  0.33314242  0.16758074  1
  I  I76  1  0.83454142  0.33348211  0.49892721  1
  I  I77  1  0.83334188  0.33339615  0.83334185  1
  I  I78  1  0.83385937  0.66503846  0.16654138  1
  I  I79  1  0.83429394  0.67049675  0.50016000  1
  I  I80  1  0.83325659  0.67041416  0.83325661  1
  I  I81  1  0.16425562  0.16550227  0.00132812  1
  I  I82  1  0.16533822  0.16566061  0.33054174  1
  I  I83  1  0.17021348  0.16565630  0.66881108  1
  I  I84  1  0.16654154  0.50052618  -0.00162825  1
  I  I85  1  0.16681978  0.50183525  0.33508385  1
  I  I86  1  0.16758069  0.50208869  0.66647571  1
  I  I87  1  0.16686788  0.83353453  0.00250231  1
  I  I88  1  0.16645517  0.83312182  0.33273083  1
  I  I89  1  0.16637556  0.83304235  0.66445361  1
  I  I90  1  0.50035688  0.16702370  -0.00009832  1
  I  I91  1  0.49640426  0.16307032  0.33484458  1
  I  I92  1  0.49520433  0.16187143  0.66346848  1
  I  I93  1  0.50016029  0.50096043  0.00383009  1
  I  I94  1  0.50054166  0.50737956  0.32968135  1
  I  I95  1  0.49892663  0.50120799  0.66681543  1
  I  I96  1  0.49883565  0.83092220  0.00132809  1
  I  I97  1  0.49899389  0.83200512  0.33054180  1
  I  I98  1  0.49898965  0.83687983  0.66881111  1
  I  I99  1  0.83429396  0.16682697  0.00383006  1
  I  I100  1  0.84071278  0.16720850  0.32968131  1
  I  I101  1  0.83454135  0.16559312  0.66681544  1
  I  I102  1  0.83325596  0.49992272  0.00374750  1
  I  I103  1  0.83325131  0.49991772  0.32966639  1
  I  I104  1  0.83334242  0.50000918  0.66672949  1
  I  I105  1  0.83385937  0.83320815  -0.00162823  1
  I  I106  1  0.83516860  0.83348642  0.33508382  1
  I  I107  1  0.83542217  0.83424745  0.66647575  1
  I  I108  1  0.00132809  0.16550219  0.16425531  1
  I  I109  1  -0.00009831  0.16702363  0.50035718  1
  I  I110  1  0.00383014  0.16682719  0.83429386  1
  I  I111  1  -0.00162825  0.50052603  0.16654123  1
  I  I112  1  0.00383004  0.50096043  0.50016000  1
  I  I113  1  0.00374749  0.49992260  0.83325656  1
  I  I114  1  0.00250229  0.83353468  0.16686813  1
  I  I115  1  0.00132808  0.83092225  0.49883553  1
  I  I116  1  -0.00162823  0.83320811  0.83385926  1
  I  I117  1  0.33054176  0.16566069  0.16533883  1
  I  I118  1  0.33484459  0.16307005  0.49640339  1
  I  I119  1  0.32968139  0.16720818  0.84071285  1
  I  I120  1  0.33508385  0.50183514  0.16681982  1
  I  I121  1  0.32968134  0.50737961  0.50054157  1
  I  I122  1  0.32966638  0.49991821  0.83325123  1
  I  I123  1  0.33273083  0.83312179  0.16645484  1
  I  I124  1  0.33054179  0.83200532  0.49899431  1
  I  I125  1  0.33508388  0.83348635  0.83516855  1
  I  I126  1  0.66881113  0.16565623  0.17021310  1
  I  I127  1  0.66346849  0.16187189  0.49520514  1
  I  I128  1  0.66681551  0.16559337  0.83454135  1
  I  I129  1  0.66647570  0.50208887  0.16758096  1
  I  I130  1  0.66681548  0.50120785  0.49892697  1
  I  I131  1  0.66672946  0.50000895  0.83334192  1
  I  I132  1  0.66445354  0.83304224  0.16637576  1
  I  I133  1  0.66881110  0.83687973  0.49898939  1
  I  I134  1  0.66647580  0.83424744  0.83542222  1
