# generated using pymatgen
data_Cs27Sn13Pb14I81
_symmetry_space_group_name_H-M   'P 1'
_cell_length_a   18.97921930
_cell_length_b   18.97326073
_cell_length_c   18.97914745
_cell_angle_alpha   89.99942526
_cell_angle_beta   90.00068121
_cell_angle_gamma   90.00287742
_symmetry_Int_Tables_number   1
_chemical_formula_structural   Cs27Sn13Pb14I81
_chemical_formula_sum   'Cs27 Sn13 Pb14 I81'
_cell_volume   6834.34688417
_cell_formula_units_Z   1
loop_
 _symmetry_equiv_pos_site_id
 _symmetry_equiv_pos_as_xyz
  1  'x, y, z'
loop_
 _atom_site_type_symbol
 _atom_site_label
 _atom_site_symmetry_multiplicity
 _atom_site_fract_x
 _atom_site_fract_y
 _atom_site_fract_z
 _atom_site_occupancy
  Cs  Cs0  1  0.00124061  -0.00189862  0.00237205  1
  Cs  Cs1  1  0.00077693  0.00546392  0.33073289  1
  Cs  Cs2  1  -0.00370672  -0.00546686  0.66652996  1
  Cs  Cs3  1  0.00199814  0.33121930  0.00267338  1
  Cs  Cs4  1  0.00086131  0.32476074  0.33228102  1
  Cs  Cs5  1  0.00747737  0.33555784  0.66399086  1
  Cs  Cs6  1  -0.00108785  0.66792155  -0.00142108  1
  Cs  Cs7  1  0.00016521  0.66640590  0.33569252  1
  Cs  Cs8  1  -0.00049190  0.66676310  0.66681799  1
  Cs  Cs9  1  0.33069946  0.00355254  0.00287780  1
  Cs  Cs10  1  0.33634794  -0.00076181  0.33022430  1
  Cs  Cs11  1  0.33884409  0.00526263  0.66629784  1
  Cs  Cs12  1  0.33246337  0.32989277  -0.00283434  1
  Cs  Cs13  1  0.32878237  0.33389972  0.33530566  1
  Cs  Cs14  1  0.32702968  0.33012040  0.66644640  1
  Cs  Cs15  1  0.33396772  0.66683261  0.00336528  1
  Cs  Cs16  1  0.33619227  0.66841694  0.32961666  1
  Cs  Cs17  1  0.33207875  0.66470809  0.66594016  1
  Cs  Cs18  1  0.66740770  0.00017749  -0.00381983  1
  Cs  Cs19  1  0.66385009  0.00216009  0.33826318  1
  Cs  Cs20  1  0.66530785  0.00097883  0.66633391  1
  Cs  Cs21  1  0.66602391  0.33542369  0.00264293  1
  Cs  Cs22  1  0.66964333  0.33398961  0.32882743  1
  Cs  Cs23  1  0.66566882  0.33421480  0.66718978  1
  Cs  Cs24  1  0.66694665  0.66453029  -0.00080041  1
  Cs  Cs25  1  0.66344803  0.66465894  0.33331118  1
  Cs  Cs26  1  0.66796940  0.66710606  0.66729711  1
  Sn  Sn27  1  0.50052841  0.16668350  0.16661309  1
  Sn  Sn28  1  0.16714864  0.83308003  0.83242604  1
  Sn  Sn29  1  0.83294229  0.49969662  0.83254255  1
  Sn  Sn30  1  0.83275126  0.83299311  0.16729599  1
  Sn  Sn31  1  0.50038540  0.50070463  0.83227821  1
  Sn  Sn32  1  0.83389512  0.83243348  0.49973109  1
  Sn  Sn33  1  0.83361797  0.16735423  0.83290544  1
  Sn  Sn34  1  0.16618295  0.50048423  0.16652656  1
  Sn  Sn35  1  0.83313370  0.83304258  0.83321616  1
  Sn  Sn36  1  0.50067496  0.50015639  0.50100005  1
  Sn  Sn37  1  0.83264895  0.50062458  0.50070911  1
  Sn  Sn38  1  0.16635646  0.83312251  0.50061809  1
  Sn  Sn39  1  0.49974870  0.83254829  0.83336519  1
  Pb  Pb40  1  0.83163023  0.16390051  0.16436147  1
  Pb  Pb41  1  0.16615603  0.50208463  0.49816145  1
  Pb  Pb42  1  0.16465518  0.83210386  0.16692805  1
  Pb  Pb43  1  0.50256030  0.83494135  0.16399989  1
  Pb  Pb44  1  0.49828895  0.49851570  0.16627519  1
  Pb  Pb45  1  0.50038858  0.17028636  0.49786648  1
  Pb  Pb46  1  0.83332313  0.16701220  0.50256102  1
  Pb  Pb47  1  0.50187589  0.16732867  0.83433362  1
  Pb  Pb48  1  0.83498608  0.50161152  0.16690157  1
  Pb  Pb49  1  0.50023239  0.83158399  0.50223205  1
  Pb  Pb50  1  0.16360184  0.16324418  0.83306172  1
  Pb  Pb51  1  0.16654666  0.50205427  0.83475464  1
  Pb  Pb52  1  0.16657984  0.16261273  0.50025394  1
  Pb  Pb53  1  0.16884605  0.16909025  0.16652449  1
  I  I54  1  0.16639781  -0.00016775  0.16646015  1
  I  I55  1  0.15918647  -0.00560817  0.50333590  1
  I  I56  1  0.16706469  -0.00520675  0.83145272  1
  I  I57  1  0.16506455  0.33683321  0.16640399  1
  I  I58  1  0.16639621  0.33373063  0.49744571  1
  I  I59  1  0.16673761  0.33349309  0.83607851  1
  I  I60  1  0.16794776  0.66460509  0.16591211  1
  I  I61  1  0.16350007  0.66991341  0.50419326  1
  I  I62  1  0.16132020  0.67017538  0.83088039  1
  I  I63  1  0.50051681  0.00242091  0.16429016  1
  I  I64  1  0.49963506  -0.00022117  0.50040797  1
  I  I65  1  0.50172028  -0.00286240  0.83526438  1
  I  I66  1  0.50048250  0.33113469  0.16393347  1
  I  I67  1  0.50612276  0.33846101  0.50671016  1
  I  I68  1  0.50551199  0.33685276  0.83248881  1
  I  I69  1  0.49914752  0.66661949  0.16738188  1
  I  I70  1  0.50185772  0.66358310  0.50053431  1
  I  I71  1  0.50552916  0.66658832  0.83126614  1
  I  I72  1  0.83444227  -0.00421379  0.16559072  1
  I  I73  1  0.83759269  -0.00365241  0.50098947  1
  I  I74  1  0.83333799  -0.00231958  0.83404530  1
  I  I75  1  0.83418465  0.33333366  0.16600113  1
  I  I76  1  0.82877616  0.33710772  0.50392260  1
  I  I77  1  0.82676531  0.33498729  0.83015169  1
  I  I78  1  0.83361234  0.66961905  0.16097288  1
  I  I79  1  0.83354141  0.66739930  0.50510561  1
  I  I80  1  0.83271792  0.66756073  0.83300771  1
  I  I81  1  0.16645836  0.16460318  -0.00024871  1
  I  I82  1  0.16622537  0.16574079  0.33318827  1
  I  I83  1  0.16851158  0.17192825  0.66695631  1
  I  I84  1  0.16659769  0.50352852  0.00213238  1
  I  I85  1  0.16767244  0.50368000  0.33093475  1
  I  I86  1  0.16714344  0.49951758  0.66661900  1
  I  I87  1  0.16446283  0.83159096  -0.00290465  1
  I  I88  1  0.16115094  0.83060857  0.33615850  1
  I  I89  1  0.15970971  0.83117839  0.66747702  1
  I  I90  1  0.50174392  0.16799500  0.00196376  1
  I  I91  1  0.50082495  0.16618325  0.33019522  1
  I  I92  1  0.50128199  0.16422625  0.66679362  1
  I  I93  1  0.50414390  0.50292503  -0.00336913  1
  I  I94  1  0.50370169  0.49876536  0.33596506  1
  I  I95  1  0.50469249  0.50467984  0.66781326  1
  I  I96  1  0.50092038  0.82714665  -0.00435790  1
  I  I97  1  0.49985749  0.83275721  0.33346237  1
  I  I98  1  0.50470799  0.83285665  0.67047438  1
  I  I99  1  0.83188860  0.16629332  -0.00362723  1
  I  I100  1  0.83259644  0.16627729  0.33332897  1
  I  I101  1  0.83082918  0.16016735  0.67045421  1
  I  I102  1  0.83010052  0.50235437  -0.00338512  1
  I  I103  1  0.82972747  0.50635606  0.33646058  1
  I  I104  1  0.82970351  0.50541496  0.66759259  1
  I  I105  1  0.83362528  0.83324507  -0.00217601  1
  I  I106  1  0.83851842  0.82791417  0.33474819  1
  I  I107  1  0.83467564  0.83286157  0.66775645  1
  I  I108  1  -0.00019417  0.16660003  0.16584166  1
  I  I109  1  -0.00026163  0.17195905  0.49894529  1
  I  I110  1  -0.00451526  0.16763660  0.83459012  1
  I  I111  1  0.00235865  0.50262227  0.16533264  1
  I  I112  1  -0.00334347  0.50347755  0.50460993  1
  I  I113  1  -0.00349967  0.50182926  0.83057391  1
  I  I114  1  -0.00324262  0.83229215  0.16081685  1
  I  I115  1  -0.00187838  0.82738514  0.50574171  1
  I  I116  1  -0.00169423  0.83342775  0.83306632  1
  I  I117  1  0.33642602  0.16557281  0.16384161  1
  I  I118  1  0.33355347  0.16724653  0.50032513  1
  I  I119  1  0.33340006  0.16617127  0.83556915  1
  I  I120  1  0.33083004  0.50118698  0.16666919  1
  I  I121  1  0.33577117  0.50130353  0.50257678  1
  I  I122  1  0.33629937  0.50504085  0.83159213  1
  I  I123  1  0.33346836  0.83363435  0.16637422  1
  I  I124  1  0.33104776  0.83105578  0.50448245  1
  I  I125  1  0.33361161  0.82742141  0.82936041  1
  I  I126  1  0.66427347  0.16865891  0.16523244  1
  I  I127  1  0.66688069  0.16058585  0.49976210  1
  I  I128  1  0.66968435  0.16078993  0.83440373  1
  I  I129  1  0.66675882  0.49969430  0.16654952  1
  I  I130  1  0.66784469  0.50632948  0.50325880  1
  I  I131  1  0.66756288  0.50515768  0.83125894  1
  I  I132  1  0.67055584  0.83193076  0.16605418  1
  I  I133  1  0.66999508  0.83180239  0.50092103  1
  I  I134  1  0.66813443  0.83303998  0.83401868  1
