# generated using pymatgen
data_Cs27Sn13Pb14I81
_symmetry_space_group_name_H-M   'P 1'
_cell_length_a   18.97617795
_cell_length_b   18.97982161
_cell_length_c   18.97489963
_cell_angle_alpha   90.00110915
_cell_angle_beta   89.99795589
_cell_angle_gamma   89.99958794
_symmetry_Int_Tables_number   1
_chemical_formula_structural   Cs27Sn13Pb14I81
_chemical_formula_sum   'Cs27 Sn13 Pb14 I81'
_cell_volume   6834.08470614
_cell_formula_units_Z   1
loop_
 _symmetry_equiv_pos_site_id
 _symmetry_equiv_pos_as_xyz
  1  'x, y, z'
loop_
 _atom_site_type_symbol
 _atom_site_label
 _atom_site_symmetry_multiplicity
 _atom_site_fract_x
 _atom_site_fract_y
 _atom_site_fract_z
 _atom_site_occupancy
  Cs  Cs0  1  0.00612463  -0.00808439  -0.00106584  1
  Cs  Cs1  1  0.00106458  -0.00097176  0.33598402  1
  Cs  Cs2  1  -0.00089208  -0.00043692  0.66527860  1
  Cs  Cs3  1  -0.00124847  0.33524638  -0.00226772  1
  Cs  Cs4  1  -0.00154597  0.33504089  0.33593801  1
  Cs  Cs5  1  -0.00107036  0.33357775  0.66574023  1
  Cs  Cs6  1  -0.00266687  0.67069269  0.00124883  1
  Cs  Cs7  1  0.00026130  0.66550152  0.33205596  1
  Cs  Cs8  1  0.00083984  0.66474385  0.66605781  1
  Cs  Cs9  1  0.32616814  0.00859728  -0.00307774  1
  Cs  Cs10  1  0.33381352  0.00116432  0.33081844  1
  Cs  Cs11  1  0.33446297  -0.00166636  0.67189293  1
  Cs  Cs12  1  0.33551783  0.32683205  -0.00007127  1
  Cs  Cs13  1  0.33349320  0.33328875  0.33237541  1
  Cs  Cs14  1  0.33388312  0.33584026  0.66869814  1
  Cs  Cs15  1  0.33314149  0.66693711  0.00067626  1
  Cs  Cs16  1  0.33517242  0.66626439  0.33442619  1
  Cs  Cs17  1  0.34116942  0.66583382  0.66518373  1
  Cs  Cs18  1  0.66607865  -0.00000040  -0.00248377  1
  Cs  Cs19  1  0.66552136  0.00396529  0.33525959  1
  Cs  Cs20  1  0.66738190  -0.00378898  0.66667887  1
  Cs  Cs21  1  0.66623836  0.33225244  0.00026796  1
  Cs  Cs22  1  0.66906046  0.33089120  0.33225036  1
  Cs  Cs23  1  0.66889834  0.33404592  0.66780417  1
  Cs  Cs24  1  0.66998432  0.66983948  0.00232368  1
  Cs  Cs25  1  0.66378931  0.66697486  0.33079812  1
  Cs  Cs26  1  0.65866605  0.66840668  0.66726440  1
  Sn  Sn27  1  0.16809432  0.16690843  0.50000954  1
  Sn  Sn28  1  0.16598384  0.50002083  0.83323191  1
  Sn  Sn29  1  0.49933240  0.50050928  0.16672826  1
  Sn  Sn30  1  0.83388796  0.16704264  0.83481127  1
  Sn  Sn31  1  0.83352393  0.50129366  0.50075341  1
  Sn  Sn32  1  0.16744962  0.49975977  0.16648388  1
  Sn  Sn33  1  0.16619784  0.50023415  0.50020988  1
  Sn  Sn34  1  0.49875701  0.16708538  0.50039801  1
  Sn  Sn35  1  0.16627380  0.83281633  0.49989060  1
  Sn  Sn36  1  0.83425510  0.16633376  0.16513187  1
  Sn  Sn37  1  0.49954311  0.83354532  0.16636843  1
  Sn  Sn38  1  0.83367034  0.83150529  0.49973002  1
  Sn  Sn39  1  0.83399287  0.49955263  0.83234482  1
  Pb  Pb40  1  0.50258419  0.16692141  0.83048879  1
  Pb  Pb41  1  0.50022350  0.49822093  0.49819848  1
  Pb  Pb42  1  0.83362974  0.49902650  0.16660567  1
  Pb  Pb43  1  0.83339210  0.83256667  0.83083283  1
  Pb  Pb44  1  0.83174819  0.83617760  0.16926911  1
  Pb  Pb45  1  0.50146833  0.16669587  0.16787428  1
  Pb  Pb46  1  0.49966527  0.83345141  0.83705294  1
  Pb  Pb47  1  0.50034414  0.50004984  0.83647938  1
  Pb  Pb48  1  0.16863807  0.83107893  0.16880970  1
  Pb  Pb49  1  0.16669566  0.83018277  0.83058822  1
  Pb  Pb50  1  0.16422230  0.16885302  0.83075820  1
  Pb  Pb51  1  0.49956549  0.83550679  0.49859444  1
  Pb  Pb52  1  0.16406997  0.16891276  0.16855534  1
  Pb  Pb53  1  0.83387790  0.16695172  0.50058755  1
  I  I54  1  0.16764909  0.00009945  0.16945552  1
  I  I55  1  0.16445653  -0.00001417  0.49833285  1
  I  I56  1  0.16583881  0.00013911  0.83191008  1
  I  I57  1  0.17231985  0.33728937  0.17006392  1
  I  I58  1  0.16527532  0.33480329  0.49931209  1
  I  I59  1  0.16438639  0.33710348  0.83049811  1
  I  I60  1  0.16631710  0.66258378  0.16954214  1
  I  I61  1  0.16078984  0.66529108  0.49928279  1
  I  I62  1  0.15901153  0.66176328  0.83271308  1
  I  I63  1  0.50450235  -0.00207265  0.17162968  1
  I  I64  1  0.49904978  0.00311623  0.49600781  1
  I  I65  1  0.50282873  0.00034424  0.83383999  1
  I  I66  1  0.49730513  0.33589463  0.16870383  1
  I  I67  1  0.49776211  0.33063007  0.49630453  1
  I  I68  1  0.49897710  0.33357796  0.83539574  1
  I  I69  1  0.49741408  0.66550424  0.16993460  1
  I  I70  1  0.49898461  0.66659732  0.49973181  1
  I  I71  1  0.50189679  0.66630913  0.82882172  1
  I  I72  1  0.83011851  0.00385419  0.16476427  1
  I  I73  1  0.83585962  -0.00168664  0.49871624  1
  I  I74  1  0.83094968  0.00262081  0.83424639  1
  I  I75  1  0.83115210  0.33133988  0.16992185  1
  I  I76  1  0.83645386  0.33596163  0.50012025  1
  I  I77  1  0.83672983  0.33455854  0.82994981  1
  I  I78  1  0.83388189  0.66666163  0.16546380  1
  I  I79  1  0.84093160  0.66519581  0.50351712  1
  I  I80  1  0.83783907  0.66292800  0.83151693  1
  I  I81  1  0.16768003  0.16844438  -0.00016997  1
  I  I82  1  0.16643086  0.16967161  0.33701549  1
  I  I83  1  0.16716992  0.16908354  0.66237069  1
  I  I84  1  0.16583166  0.49938582  -0.00000647  1
  I  I85  1  0.16602020  0.49972056  0.33479614  1
  I  I86  1  0.16043256  0.49890110  0.66531157  1
  I  I87  1  0.16813198  0.83217197  0.00013891  1
  I  I88  1  0.16280507  0.83105476  0.33725412  1
  I  I89  1  0.16231114  0.83295388  0.66194746  1
  I  I90  1  0.50088644  0.16668720  -0.00004224  1
  I  I91  1  0.50033158  0.16734017  0.33594257  1
  I  I92  1  0.49792633  0.16707587  0.66243738  1
  I  I93  1  0.49692609  0.50265174  0.00434979  1
  I  I94  1  0.49678621  0.50207939  0.33049904  1
  I  I95  1  0.49848531  0.49834268  0.66659926  1
  I  I96  1  0.50296850  0.82718197  0.00484965  1
  I  I97  1  0.50054768  0.82901754  0.33112065  1
  I  I98  1  0.50084038  0.83492465  0.66630400  1
  I  I99  1  0.83073170  0.17524704  -0.00054395  1
  I  I100  1  0.83227180  0.16776174  0.33228146  1
  I  I101  1  0.83347770  0.16903780  0.66864912  1
  I  I102  1  0.83602142  0.49613282  -0.00253392  1
  I  I103  1  0.83668427  0.50033569  0.33611890  1
  I  I104  1  0.84130587  0.49622591  0.66582817  1
  I  I105  1  0.83082201  0.83152615  0.00011540  1
  I  I106  1  0.83720659  0.82898786  0.33731915  1
  I  I107  1  0.83666635  0.83567320  0.66251138  1
  I  I108  1  -0.00359267  0.16986106  0.16743788  1
  I  I109  1  0.00247152  0.16774783  0.49953960  1
  I  I110  1  -0.00367783  0.17040471  0.83355039  1
  I  I111  1  0.00266812  0.49682942  0.16895628  1
  I  I112  1  0.00078632  0.49789960  0.49799061  1
  I  I113  1  -0.00028351  0.49520635  0.83281205  1
  I  I114  1  0.00018412  0.83292334  0.16671210  1
  I  I115  1  0.00026613  0.83501521  0.49897635  1
  I  I116  1  -0.00003818  0.83561934  0.83627474  1
  I  I117  1  0.33295967  0.16602833  0.16786177  1
  I  I118  1  0.33205446  0.16775524  0.49723452  1
  I  I119  1  0.33290596  0.16788753  0.83398673  1
  I  I120  1  0.33239727  0.50329453  0.16933725  1
  I  I121  1  0.32997961  0.50201128  0.50202300  1
  I  I122  1  0.33007230  0.50126109  0.82860467  1
  I  I123  1  0.33632656  0.83105500  0.17153839  1
  I  I124  1  0.33023213  0.82976989  0.49837923  1
  I  I125  1  0.33300882  0.83089887  0.82868225  1
  I  I126  1  0.66937445  0.17020034  0.16838887  1
  I  I127  1  0.66546136  0.16679948  0.49856718  1
  I  I128  1  0.67073840  0.17430609  0.83405089  1
  I  I129  1  0.66474744  0.50133959  0.16822093  1
  I  I130  1  0.66981228  0.50133628  0.50257302  1
  I  I131  1  0.67022927  0.49595161  0.82884110  1
  I  I132  1  0.66405870  0.82541316  0.17044886  1
  I  I133  1  0.66916688  0.83152291  0.49889486  1
  I  I134  1  0.66691499  0.83145935  0.82911360  1
