# generated using pymatgen
data_Cs27Sn13Pb14I81
_symmetry_space_group_name_H-M   'P 1'
_cell_length_a   19.00092405
_cell_length_b   19.01257615
_cell_length_c   19.00504580
_cell_angle_alpha   90.00053857
_cell_angle_beta   89.99712014
_cell_angle_gamma   90.00199637
_symmetry_Int_Tables_number   1
_chemical_formula_structural   Cs27Sn13Pb14I81
_chemical_formula_sum   'Cs27 Sn13 Pb14 I81'
_cell_volume   6865.69660654
_cell_formula_units_Z   1
loop_
 _symmetry_equiv_pos_site_id
 _symmetry_equiv_pos_as_xyz
  1  'x, y, z'
loop_
 _atom_site_type_symbol
 _atom_site_label
 _atom_site_symmetry_multiplicity
 _atom_site_fract_x
 _atom_site_fract_y
 _atom_site_fract_z
 _atom_site_occupancy
  Cs  Cs0  1  -0.00126993  -0.00049174  0.00323035  1
  Cs  Cs1  1  -0.00327549  -0.00572282  0.33079227  1
  Cs  Cs2  1  0.00036981  -0.00496573  0.66499411  1
  Cs  Cs3  1  0.00283394  0.33184786  0.00039085  1
  Cs  Cs4  1  0.00384216  0.33455001  0.33138638  1
  Cs  Cs5  1  -0.00387630  0.33484289  0.66831878  1
  Cs  Cs6  1  -0.00086447  0.66861732  0.00155610  1
  Cs  Cs7  1  -0.00352473  0.66888805  0.33367231  1
  Cs  Cs8  1  0.00025216  0.66787379  0.66284397  1
  Cs  Cs9  1  0.33308525  -0.00179597  0.00012692  1
  Cs  Cs10  1  0.33532188  0.00127934  0.33213727  1
  Cs  Cs11  1  0.33494813  -0.00398605  0.66892186  1
  Cs  Cs12  1  0.33013192  0.33689959  0.00221997  1
  Cs  Cs13  1  0.33201296  0.33464472  0.33349088  1
  Cs  Cs14  1  0.33190274  0.33108850  0.66192698  1
  Cs  Cs15  1  0.33653671  0.66613752  -0.00177080  1
  Cs  Cs16  1  0.33565524  0.66528252  0.33507283  1
  Cs  Cs17  1  0.33107015  0.67164543  0.66510761  1
  Cs  Cs18  1  0.66856663  -0.00152631  -0.00037259  1
  Cs  Cs19  1  0.66657538  -0.00150664  0.33381227  1
  Cs  Cs20  1  0.66371345  0.01609824  0.67015369  1
  Cs  Cs21  1  0.66622772  0.33703105  -0.00544429  1
  Cs  Cs22  1  0.66506790  0.33190070  0.33533661  1
  Cs  Cs23  1  0.67700250  0.32280908  0.67314883  1
  Cs  Cs24  1  0.66342196  0.66494819  -0.00155384  1
  Cs  Cs25  1  0.66597122  0.66918006  0.33215251  1
  Cs  Cs26  1  0.66885062  0.66088828  0.67055794  1
  Sn  Sn27  1  0.49990581  0.50027225  0.50050385  1
  Sn  Sn28  1  0.16684038  0.16714232  0.83198618  1
  Sn  Sn29  1  0.83322960  0.83327600  0.83295908  1
  Sn  Sn30  1  0.16601732  0.50155444  0.16681213  1
  Sn  Sn31  1  0.16689831  0.49960885  0.83302030  1
  Sn  Sn32  1  0.50060089  0.83254799  0.49975324  1
  Sn  Sn33  1  0.49907026  0.83404451  0.16740675  1
  Sn  Sn34  1  0.16790600  0.83185360  0.16685186  1
  Sn  Sn35  1  0.83381711  0.49897982  0.16697724  1
  Sn  Sn36  1  0.50106137  0.16633333  0.16650144  1
  Sn  Sn37  1  0.16649518  0.16697494  0.50096248  1
  Sn  Sn38  1  0.83194070  0.16816485  0.16692968  1
  Sn  Sn39  1  0.16728490  0.49938919  0.50006785  1
  Pb  Pb40  1  0.83614294  0.50155380  0.83593628  1
  Pb  Pb41  1  0.50233338  0.83327570  0.83303277  1
  Pb  Pb42  1  0.83337146  0.49997346  0.49777337  1
  Pb  Pb43  1  0.49691626  0.16699919  0.83652770  1
  Pb  Pb44  1  0.83673879  0.16671700  0.49719391  1
  Pb  Pb45  1  0.16682239  0.16677055  0.16694511  1
  Pb  Pb46  1  0.16816198  0.83315908  0.49751366  1
  Pb  Pb47  1  0.82919548  0.83343760  0.50305850  1
  Pb  Pb48  1  0.83643315  0.16503829  0.83605137  1
  Pb  Pb49  1  0.49796603  0.16702423  0.49814672  1
  Pb  Pb50  1  0.49991949  0.50003252  0.16810054  1
  Pb  Pb51  1  0.83246769  0.83287080  0.16581157  1
  Pb  Pb52  1  0.16544140  0.83305644  0.83572779  1
  Pb  Pb53  1  0.49724904  0.49978570  0.82927662  1
  I  I54  1  0.16684230  -0.00194207  0.16631147  1
  I  I55  1  0.16812689  0.00236608  0.50282745  1
  I  I56  1  0.16493035  0.00236804  0.83096983  1
  I  I57  1  0.16609855  0.33598928  0.16667395  1
  I  I58  1  0.17353386  0.33490449  0.49671306  1
  I  I59  1  0.16644494  0.33413157  0.83704322  1
  I  I60  1  0.16540115  0.66536622  0.16620352  1
  I  I61  1  0.16898736  0.66354703  0.50238954  1
  I  I62  1  0.16483881  0.66368220  0.83153060  1
  I  I63  1  0.49845208  -0.00101256  0.17298210  1
  I  I64  1  0.49826922  -0.00232430  0.49619889  1
  I  I65  1  0.49710768  0.00006658  0.82868228  1
  I  I66  1  0.49934369  0.33131842  0.16872551  1
  I  I67  1  0.49429357  0.33596719  0.49552675  1
  I  I68  1  0.50348417  0.33343448  0.83543198  1
  I  I69  1  0.49893114  0.66908038  0.16884824  1
  I  I70  1  0.49200221  0.66652887  0.49168545  1
  I  I71  1  0.49861997  0.66656958  0.83970082  1
  I  I72  1  0.83462661  0.00180846  0.16435416  1
  I  I73  1  0.83567049  -0.00002326  0.49606743  1
  I  I74  1  0.83580773  -0.00223660  0.83774696  1
  I  I75  1  0.83583386  0.33368843  0.16688282  1
  I  I76  1  0.82723422  0.33335896  0.50202108  1
  I  I77  1  0.83184409  0.33328758  0.83285933  1
  I  I78  1  0.83647075  0.66433538  0.16497787  1
  I  I79  1  0.83926554  0.66674366  0.49687402  1
  I  I80  1  0.83533738  0.66888300  0.83797588  1
  I  I81  1  0.16632677  0.16983924  -0.00152784  1
  I  I82  1  0.16758128  0.17102257  0.33518197  1
  I  I83  1  0.16732414  0.17558392  0.66638291  1
  I  I84  1  0.16118803  0.49857501  0.00091669  1
  I  I85  1  0.16701787  0.49826543  0.33312483  1
  I  I86  1  0.17262933  0.49475326  0.66614741  1
  I  I87  1  0.17203290  0.83045569  0.00377267  1
  I  I88  1  0.16644519  0.83080051  0.32950417  1
  I  I89  1  0.16676214  0.83192287  0.66655732  1
  I  I90  1  0.50139750  0.15902739  0.00465508  1
  I  I91  1  0.49996217  0.16489382  0.33023288  1
  I  I92  1  0.50074115  0.16515996  0.66658302  1
  I  I93  1  0.49952126  0.50081817  -0.00004741  1
  I  I94  1  0.49220926  0.50074515  0.33560407  1
  I  I95  1  0.49283486  0.50929591  0.66143213  1
  I  I96  1  0.49671606  0.83772237  0.00324192  1
  I  I97  1  0.49533615  0.83327227  0.33202060  1
  I  I98  1  0.49904665  0.82741833  0.66341618  1
  I  I99  1  0.83276535  0.16977760  0.00378110  1
  I  I100  1  0.83243900  0.16853597  0.32909625  1
  I  I101  1  0.83098004  0.16489379  0.66687869  1
  I  I102  1  0.83885973  0.49650241  0.00388998  1
  I  I103  1  0.84139605  0.49796859  0.32970967  1
  I  I104  1  0.83342224  0.50271645  0.66681231  1
  I  I105  1  0.83385725  0.83377091  -0.00132691  1
  I  I106  1  0.83599699  0.83388959  0.33326955  1
  I  I107  1  0.83771203  0.83149034  0.67030061  1
  I  I108  1  -0.00159170  0.16697579  0.16603418  1
  I  I109  1  0.00479186  0.17459513  0.50132720  1
  I  I110  1  0.00386643  0.17148832  0.83313067  1
  I  I111  1  0.00197903  0.49964272  0.16852366  1
  I  I112  1  0.00371999  0.49528291  0.50145552  1
  I  I113  1  0.00417497  0.49605899  0.82879141  1
  I  I114  1  0.00203986  0.83357991  0.16452871  1
  I  I115  1  -0.00012035  0.83352393  0.49818476  1
  I  I116  1  -0.00181376  0.83380629  0.83875019  1
  I  I117  1  0.33517685  0.16471915  0.16697994  1
  I  I118  1  0.33013051  0.16912502  0.49979570  1
  I  I119  1  0.32903363  0.16921955  0.83229410  1
  I  I120  1  0.33014085  0.49991920  0.16491476  1
  I  I121  1  0.33164067  0.49988569  0.49608553  1
  I  I122  1  0.32886407  0.49766428  0.84273476  1
  I  I123  1  0.33349870  0.83457107  0.16881813  1
  I  I124  1  0.33588864  0.83190036  0.49764717  1
  I  I125  1  0.33340174  0.83372483  0.83330732  1
  I  I126  1  0.66645638  0.16522224  0.16812351  1
  I  I127  1  0.66656790  0.16650740  0.50059338  1
  I  I128  1  0.66685025  0.16479802  0.83163175  1
  I  I129  1  0.66885851  0.49980349  0.16918627  1
  I  I130  1  0.66354456  0.50731817  0.49415353  1
  I  I131  1  0.66686291  0.50276909  0.83479716  1
  I  I132  1  0.66368044  0.83451288  0.16934637  1
  I  I133  1  0.66161380  0.82575909  0.48844673  1
  I  I134  1  0.66966643  0.83232755  0.83856571  1
