# generated using pymatgen
data_Cs27Sn13Pb14I81
_symmetry_space_group_name_H-M   'P 1'
_cell_length_a   18.97762832
_cell_length_b   18.97486020
_cell_length_c   18.97799414
_cell_angle_alpha   89.99948097
_cell_angle_beta   89.99846926
_cell_angle_gamma   89.99922365
_symmetry_Int_Tables_number   1
_chemical_formula_structural   Cs27Sn13Pb14I81
_chemical_formula_sum   'Cs27 Sn13 Pb14 I81'
_cell_volume   6833.93477448
_cell_formula_units_Z   1
loop_
 _symmetry_equiv_pos_site_id
 _symmetry_equiv_pos_as_xyz
  1  'x, y, z'
loop_
 _atom_site_type_symbol
 _atom_site_label
 _atom_site_symmetry_multiplicity
 _atom_site_fract_x
 _atom_site_fract_y
 _atom_site_fract_z
 _atom_site_occupancy
  Cs  Cs0  1  -0.00116161  0.00059106  -0.00200850  1
  Cs  Cs1  1  -0.00123237  0.00018837  0.33429484  1
  Cs  Cs2  1  0.00050208  0.00254685  0.66839053  1
  Cs  Cs3  1  0.00017903  0.33388839  0.00055039  1
  Cs  Cs4  1  -0.00047412  0.33338046  0.33416347  1
  Cs  Cs5  1  0.00290125  0.33139700  0.66598779  1
  Cs  Cs6  1  -0.00098616  0.66552935  0.00085019  1
  Cs  Cs7  1  0.00152809  0.66651150  0.33064631  1
  Cs  Cs8  1  -0.00080951  0.66593698  0.66786588  1
  Cs  Cs9  1  0.33627218  0.00165276  0.00187751  1
  Cs  Cs10  1  0.33382304  -0.00997626  0.33062166  1
  Cs  Cs11  1  0.33057694  -0.00132971  0.66614745  1
  Cs  Cs12  1  0.33476641  0.33132053  0.00377346  1
  Cs  Cs13  1  0.33801364  0.33471539  0.33115430  1
  Cs  Cs14  1  0.33068293  0.33278676  0.66684724  1
  Cs  Cs15  1  0.33730563  0.66719724  0.00445506  1
  Cs  Cs16  1  0.32901813  0.67503942  0.32953949  1
  Cs  Cs17  1  0.33543961  0.66734922  0.66608704  1
  Cs  Cs18  1  0.66786320  0.00083091  0.00000141  1
  Cs  Cs19  1  0.66844385  0.00162355  0.33107088  1
  Cs  Cs20  1  0.66777411  -0.00028605  0.66756608  1
  Cs  Cs21  1  0.66518748  0.33710883  0.00077647  1
  Cs  Cs22  1  0.66439265  0.33214670  0.33517769  1
  Cs  Cs23  1  0.66613666  0.33405703  0.66478071  1
  Cs  Cs24  1  0.66354466  0.65860157  -0.00444912  1
  Cs  Cs25  1  0.66859758  0.66681957  0.33636935  1
  Cs  Cs26  1  0.66477212  0.66619661  0.66800268  1
  Sn  Sn27  1  0.83361607  0.83262734  0.50045712  1
  Sn  Sn28  1  0.16692785  0.49994922  0.50050450  1
  Sn  Sn29  1  0.83437763  0.16628325  0.16567257  1
  Sn  Sn30  1  0.83254542  0.16646608  0.83397963  1
  Sn  Sn31  1  0.49969421  0.16661487  0.50092774  1
  Sn  Sn32  1  0.83393448  0.83365963  0.83368436  1
  Sn  Sn33  1  0.16657169  0.50106403  0.83305604  1
  Sn  Sn34  1  0.16573622  0.16660016  0.16704911  1
  Sn  Sn35  1  0.50101962  0.16663462  0.83207746  1
  Sn  Sn36  1  0.16608178  0.83227113  0.83333996  1
  Sn  Sn37  1  0.49933019  0.49960233  0.50018134  1
  Sn  Sn38  1  0.83335647  0.83369262  0.16582909  1
  Sn  Sn39  1  0.83370478  0.50064122  0.50035757  1
  Pb  Pb40  1  0.50028384  0.83554349  0.83327537  1
  Pb  Pb41  1  0.50234161  0.83332871  0.50014413  1
  Pb  Pb42  1  0.16656795  0.16668526  0.83463960  1
  Pb  Pb43  1  0.49705216  0.49749006  0.83123519  1
  Pb  Pb44  1  0.16415483  0.83552965  0.16372580  1
  Pb  Pb45  1  0.50079835  0.16654782  0.16686647  1
  Pb  Pb46  1  0.50362866  0.83326658  0.16631469  1
  Pb  Pb47  1  0.83214638  0.16659338  0.50014596  1
  Pb  Pb48  1  0.50001787  0.50028463  0.16981940  1
  Pb  Pb49  1  0.83488297  0.49961465  0.83119531  1
  Pb  Pb50  1  0.16400131  0.83115431  0.50210512  1
  Pb  Pb51  1  0.83325981  0.49973609  0.16918688  1
  Pb  Pb52  1  0.16968523  0.16843505  0.49733373  1
  Pb  Pb53  1  0.16652601  0.49816637  0.16657807  1
  I  I54  1  0.16512920  0.00332248  0.16515729  1
  I  I55  1  0.16667214  -0.00011741  0.50092618  1
  I  I56  1  0.16446975  -0.00214641  0.83539943  1
  I  I57  1  0.15994432  0.33020064  0.16405911  1
  I  I58  1  0.16043692  0.33679622  0.50693250  1
  I  I59  1  0.16640651  0.33545282  0.82989860  1
  I  I60  1  0.16555735  0.66701872  0.16863993  1
  I  I61  1  0.17125448  0.66279663  0.50080824  1
  I  I62  1  0.15941367  0.66688662  0.82857542  1
  I  I63  1  0.49673417  0.00039799  0.17022389  1
  I  I64  1  0.50300055  0.00289692  0.50298944  1
  I  I65  1  0.49972597  0.00379100  0.82720680  1
  I  I66  1  0.50209678  0.33296383  0.16513202  1
  I  I67  1  0.50342590  0.33365898  0.50363075  1
  I  I68  1  0.50542867  0.32958590  0.83173570  1
  I  I69  1  0.50037577  0.66676665  0.16777459  1
  I  I70  1  0.49968257  0.66349258  0.49978533  1
  I  I71  1  0.50275823  0.66639996  0.83190231  1
  I  I72  1  0.83698735  0.00043748  0.16848435  1
  I  I73  1  0.83090344  -0.00245487  0.49995487  1
  I  I74  1  0.83550822  -0.00021553  0.83133967  1
  I  I75  1  0.83620873  0.32991983  0.16316257  1
  I  I76  1  0.83414726  0.33576968  0.50022681  1
  I  I77  1  0.83140217  0.33027762  0.83624050  1
  I  I78  1  0.83330373  0.66987718  0.16491827  1
  I  I79  1  0.83131822  0.66674892  0.49989462  1
  I  I80  1  0.83632330  0.66951377  0.83524875  1
  I  I81  1  0.16642188  0.16836400  0.00230204  1
  I  I82  1  0.15949354  0.16884243  0.32993396  1
  I  I83  1  0.16465045  0.16593271  0.66667593  1
  I  I84  1  0.16447920  0.50205076  -0.00310743  1
  I  I85  1  0.16636107  0.49691086  0.33667774  1
  I  I86  1  0.16580053  0.50199815  0.66611326  1
  I  I87  1  0.16053249  0.82761982  -0.00401256  1
  I  I88  1  0.16599689  0.83281128  0.33314650  1
  I  I89  1  0.16039027  0.83438631  0.66996894  1
  I  I90  1  0.50068257  0.16504460  -0.00271471  1
  I  I91  1  0.50121279  0.17276288  0.33617935  1
  I  I92  1  0.50624697  0.17038748  0.66691949  1
  I  I93  1  0.49903476  0.49835496  -0.00053045  1
  I  I94  1  0.49991842  0.49112604  0.33857676  1
  I  I95  1  0.50313969  0.49768521  0.66311980  1
  I  I96  1  0.50031562  0.83647364  -0.00037228  1
  I  I97  1  0.50087956  0.83543937  0.33353694  1
  I  I98  1  0.50328002  0.83295447  0.66665969  1
  I  I99  1  0.83205061  0.15899429  -0.00069380  1
  I  I100  1  0.83507009  0.16399917  0.33111973  1
  I  I101  1  0.83118768  0.16359239  0.66924848  1
  I  I102  1  0.83568334  0.50176614  -0.00029463  1
  I  I103  1  0.83516766  0.50288101  0.33767514  1
  I  I104  1  0.83147242  0.50307105  0.66302050  1
  I  I105  1  0.83823818  0.84071818  -0.00080345  1
  I  I106  1  0.83138141  0.83384142  0.33338256  1
  I  I107  1  0.83637986  0.83408008  0.66742354  1
  I  I108  1  -0.00184150  0.16393230  0.16099515  1
  I  I109  1  -0.00000567  0.16817690  0.50186527  1
  I  I110  1  -0.00281004  0.16517567  0.83544683  1
  I  I111  1  -0.00019150  0.49976385  0.17055445  1
  I  I112  1  -0.00008582  0.50426949  0.50336107  1
  I  I113  1  0.00269408  0.49830510  0.82656926  1
  I  I114  1  -0.00390492  0.83563494  0.16952581  1
  I  I115  1  -0.00427477  0.82931715  0.49811015  1
  I  I116  1  -0.00164204  0.83593353  0.83246500  1
  I  I117  1  0.33126647  0.16962398  0.16541896  1
  I  I118  1  0.33743106  0.17286520  0.50589226  1
  I  I119  1  0.33543500  0.16766437  0.83118451  1
  I  I120  1  0.33309203  0.49573076  0.16743281  1
  I  I121  1  0.33322806  0.49236844  0.50498585  1
  I  I122  1  0.32927292  0.50384692  0.82730215  1
  I  I123  1  0.33283079  0.83513579  0.16640095  1
  I  I124  1  0.33305147  0.83331725  0.50127180  1
  I  I125  1  0.33036111  0.83118910  0.83184262  1
  I  I126  1  0.67012631  0.16174397  0.16614242  1
  I  I127  1  0.66433909  0.17223427  0.49968249  1
  I  I128  1  0.66821675  0.16109793  0.83474633  1
  I  I129  1  0.66698678  0.49789565  0.16742624  1
  I  I130  1  0.66687582  0.49961968  0.49860352  1
  I  I131  1  0.66656474  0.50197416  0.83181457  1
  I  I132  1  0.67215624  0.84213976  0.16583229  1
  I  I133  1  0.67089569  0.82827548  0.50240627  1
  I  I134  1  0.67054765  0.83633493  0.83309947  1
