# generated using pymatgen
data_Cs27Sn13Pb14I81
_symmetry_space_group_name_H-M   'P 1'
_cell_length_a   19.00063995
_cell_length_b   18.98448919
_cell_length_c   18.98957298
_cell_angle_alpha   90.00089342
_cell_angle_beta   90.00075115
_cell_angle_gamma   90.00225914
_symmetry_Int_Tables_number   1
_chemical_formula_structural   Cs27Sn13Pb14I81
_chemical_formula_sum   'Cs27 Sn13 Pb14 I81'
_cell_volume   6849.87021427
_cell_formula_units_Z   1
loop_
 _symmetry_equiv_pos_site_id
 _symmetry_equiv_pos_as_xyz
  1  'x, y, z'
loop_
 _atom_site_type_symbol
 _atom_site_label
 _atom_site_symmetry_multiplicity
 _atom_site_fract_x
 _atom_site_fract_y
 _atom_site_fract_z
 _atom_site_occupancy
  Cs  Cs0  1  0.00158442  0.00060071  0.00199265  1
  Cs  Cs1  1  -0.01097095  -0.00079875  0.33489361  1
  Cs  Cs2  1  0.00121838  -0.00167720  0.66539125  1
  Cs  Cs3  1  -0.00161858  0.33156287  -0.00281921  1
  Cs  Cs4  1  0.00271795  0.33223340  0.33603283  1
  Cs  Cs5  1  0.00160006  0.33482928  0.66821288  1
  Cs  Cs6  1  0.00156784  0.66900428  -0.00048437  1
  Cs  Cs7  1  0.00454452  0.66800628  0.33180756  1
  Cs  Cs8  1  0.00006210  0.66524170  0.66724386  1
  Cs  Cs9  1  0.33152578  -0.00056910  -0.00149707  1
  Cs  Cs10  1  0.33740392  0.00206738  0.33909267  1
  Cs  Cs11  1  0.33577550  -0.00327890  0.66395919  1
  Cs  Cs12  1  0.33479064  0.33151067  0.00055496  1
  Cs  Cs13  1  0.32960857  0.33381030  0.33310118  1
  Cs  Cs14  1  0.33316431  0.33271531  0.66570671  1
  Cs  Cs15  1  0.33288935  0.67481477  0.00787280  1
  Cs  Cs16  1  0.32996100  0.66528063  0.32095715  1
  Cs  Cs17  1  0.33324289  0.67033922  0.66774355  1
  Cs  Cs18  1  0.66681727  0.00251252  0.00214753  1
  Cs  Cs19  1  0.67492567  -0.00698628  0.34208422  1
  Cs  Cs20  1  0.66348792  -0.00347621  0.65967883  1
  Cs  Cs21  1  0.66602606  0.33329077  -0.00150666  1
  Cs  Cs22  1  0.66746245  0.33253563  0.33272127  1
  Cs  Cs23  1  0.66551835  0.33658088  0.66948702  1
  Cs  Cs24  1  0.66398726  0.66491256  0.00111281  1
  Cs  Cs25  1  0.66483679  0.67120973  0.33223214  1
  Cs  Cs26  1  0.66768430  0.66361468  0.66700393  1
  Sn  Sn27  1  0.49989576  0.16737169  0.83388506  1
  Sn  Sn28  1  0.83339471  0.50002966  0.83347151  1
  Sn  Sn29  1  0.83302341  0.16620463  0.83304426  1
  Sn  Sn30  1  0.83274629  0.49984300  0.49973989  1
  Sn  Sn31  1  0.49920384  0.49966165  0.83300884  1
  Sn  Sn32  1  0.16722940  0.16665406  0.16608065  1
  Sn  Sn33  1  0.50015095  0.49999856  0.50037752  1
  Sn  Sn34  1  0.16698599  0.16739894  0.83378631  1
  Sn  Sn35  1  0.83349072  0.49979352  0.16661316  1
  Sn  Sn36  1  0.83294591  0.83346129  0.83350907  1
  Sn  Sn37  1  0.16671773  0.83301918  0.50010692  1
  Sn  Sn38  1  0.49978849  0.16667017  0.16624039  1
  Sn  Sn39  1  0.16752581  0.49984406  0.83364769  1
  Pb  Pb40  1  0.83308271  0.16843411  0.16493371  1
  Pb  Pb41  1  0.16721837  0.50142694  0.50213535  1
  Pb  Pb42  1  0.16442804  0.49764184  0.16352667  1
  Pb  Pb43  1  0.16487283  0.83383202  0.83246743  1
  Pb  Pb44  1  0.16660029  0.16478608  0.50036537  1
  Pb  Pb45  1  0.50014603  0.16912731  0.50013815  1
  Pb  Pb46  1  0.83333414  0.83049338  0.16391681  1
  Pb  Pb47  1  0.16650258  0.83731631  0.16933708  1
  Pb  Pb48  1  0.83322315  0.16944794  0.50316863  1
  Pb  Pb49  1  0.50251678  0.83343087  0.83349448  1
  Pb  Pb50  1  0.50177217  0.49807623  0.16632105  1
  Pb  Pb51  1  0.50021560  0.83749958  0.16652019  1
  Pb  Pb52  1  0.49768468  0.82931400  0.50003093  1
  Pb  Pb53  1  0.83490180  0.83008812  0.50240622  1
  I  I54  1  0.16958473  0.00484292  0.15642582  1
  I  I55  1  0.16624119  -0.00272762  0.50363469  1
  I  I56  1  0.16580737  0.00362822  0.83575760  1
  I  I57  1  0.17027411  0.33002692  0.16543018  1
  I  I58  1  0.16594071  0.33350762  0.49892710  1
  I  I59  1  0.16156796  0.33321865  0.83506447  1
  I  I60  1  0.16543645  0.66664470  0.16599987  1
  I  I61  1  0.16471405  0.66873584  0.50497195  1
  I  I62  1  0.16434364  0.66382959  0.82958664  1
  I  I63  1  0.49566860  0.00560941  0.15691231  1
  I  I64  1  0.49858130  -0.00016301  0.50046126  1
  I  I65  1  0.49928026  0.00375334  0.83799791  1
  I  I66  1  0.49681629  0.33034756  0.16342575  1
  I  I67  1  0.50351497  0.33695013  0.50380827  1
  I  I68  1  0.50436043  0.33370337  0.83316854  1
  I  I69  1  0.50122648  0.66635406  0.16660782  1
  I  I70  1  0.50632825  0.66163513  0.50920639  1
  I  I71  1  0.50133024  0.66307902  0.82805460  1
  I  I72  1  0.83378515  0.00024608  0.16465509  1
  I  I73  1  0.83460356  -0.00028315  0.50106810  1
  I  I74  1  0.83501783  0.00107726  0.83463312  1
  I  I75  1  0.83313065  0.33641299  0.16305822  1
  I  I76  1  0.83161196  0.33759693  0.50304448  1
  I  I77  1  0.83368161  0.33428409  0.83335715  1
  I  I78  1  0.83291914  0.66218864  0.16373838  1
  I  I79  1  0.82979095  0.66229919  0.50461864  1
  I  I80  1  0.83432198  0.66442827  0.83232389  1
  I  I81  1  0.16658637  0.17075744  -0.00210854  1
  I  I82  1  0.17262034  0.16620778  0.33034273  1
  I  I83  1  0.16620740  0.17014903  0.67057933  1
  I  I84  1  0.16589894  0.49909911  -0.00471439  1
  I  I85  1  0.16559134  0.49978325  0.33310105  1
  I  I86  1  0.16101030  0.49384025  0.67047963  1
  I  I87  1  0.16519133  0.83098190  0.00015921  1
  I  I88  1  0.16609609  0.83017937  0.33666442  1
  I  I89  1  0.16458226  0.83425843  0.66490922  1
  I  I90  1  0.50004347  0.17342078  -0.00216299  1
  I  I91  1  0.49230951  0.16980874  0.33042008  1
  I  I92  1  0.49971020  0.16890372  0.67040848  1
  I  I93  1  0.50277866  0.49713382  -0.00347962  1
  I  I94  1  0.50587825  0.49875552  0.33572946  1
  I  I95  1  0.50570266  0.49422008  0.66877979  1
  I  I96  1  0.49964281  0.82641317  -0.00027657  1
  I  I97  1  0.50008248  0.83284327  0.33348413  1
  I  I98  1  0.49962819  0.83870564  0.66677839  1
  I  I99  1  0.83365272  0.17060763  -0.00398797  1
  I  I100  1  0.83455826  0.16872514  0.33331771  1
  I  I101  1  0.83414585  0.16932937  0.67200172  1
  I  I102  1  0.83331678  0.49930963  -0.00237894  1
  I  I103  1  0.82793448  0.49876884  0.33378030  1
  I  I104  1  0.83273733  0.49981794  0.66869682  1
  I  I105  1  0.83546629  0.83089581  -0.00423213  1
  I  I106  1  0.83451259  0.83310765  0.33358036  1
  I  I107  1  0.83453701  0.83180150  0.67015127  1
  I  I108  1  0.00228870  0.16849792  0.16112828  1
  I  I109  1  -0.00007349  0.16893906  0.49979735  1
  I  I110  1  0.00000796  0.17061537  0.83658924  1
  I  I111  1  -0.00334742  0.49746302  0.16644271  1
  I  I112  1  -0.00263894  0.50130226  0.50270204  1
  I  I113  1  -0.00111053  0.49703535  0.83277615  1
  I  I114  1  -0.00007991  0.83529311  0.16676493  1
  I  I115  1  0.00220591  0.83182875  0.50205809  1
  I  I116  1  -0.00296456  0.83114103  0.83154237  1
  I  I117  1  0.33330738  0.16799831  0.15693798  1
  I  I118  1  0.33335796  0.16837337  0.50424554  1
  I  I119  1  0.33336511  0.17485086  0.83726381  1
  I  I120  1  0.33322410  0.50106848  0.16794716  1
  I  I121  1  0.33614941  0.50038809  0.50690537  1
  I  I122  1  0.33384578  0.49141923  0.82620646  1
  I  I123  1  0.33309985  0.82767207  0.16588910  1
  I  I124  1  0.33041043  0.83381305  0.50441021  1
  I  I125  1  0.33331245  0.83239124  0.83142093  1
  I  I126  1  0.66417850  0.17043859  0.15982394  1
  I  I127  1  0.66671612  0.16341878  0.49845502  1
  I  I128  1  0.66653551  0.17130426  0.83778795  1
  I  I129  1  0.66952188  0.49660939  0.16061084  1
  I  I130  1  0.66730895  0.49885727  0.50735065  1
  I  I131  1  0.66741525  0.49739569  0.83237497  1
  I  I132  1  0.66698513  0.83513263  0.16699791  1
  I  I133  1  0.66676164  0.83541665  0.50047046  1
  I  I134  1  0.67050309  0.83153290  0.83214274  1
