# generated using pymatgen
data_Cs27Sn14Pb13I81
_symmetry_space_group_name_H-M   'P 1'
_cell_length_a   18.97683137
_cell_length_b   18.97008591
_cell_length_c   18.98030441
_cell_angle_alpha   89.99880032
_cell_angle_beta   90.00133948
_cell_angle_gamma   90.00025239
_symmetry_Int_Tables_number   1
_chemical_formula_structural   Cs27Sn14Pb13I81
_chemical_formula_sum   'Cs27 Sn14 Pb13 I81'
_cell_volume   6832.76004670
_cell_formula_units_Z   1
loop_
 _symmetry_equiv_pos_site_id
 _symmetry_equiv_pos_as_xyz
  1  'x, y, z'
loop_
 _atom_site_type_symbol
 _atom_site_label
 _atom_site_symmetry_multiplicity
 _atom_site_fract_x
 _atom_site_fract_y
 _atom_site_fract_z
 _atom_site_occupancy
  Cs  Cs0  1  0.00021446  -0.00258089  0.00345336  1
  Cs  Cs1  1  -0.00020594  0.00387632  0.33166661  1
  Cs  Cs2  1  -0.00243883  -0.00375629  0.66387315  1
  Cs  Cs3  1  0.00139000  0.33221626  0.00050144  1
  Cs  Cs4  1  -0.00189595  0.32405784  0.33367695  1
  Cs  Cs5  1  0.00667379  0.33481114  0.66525489  1
  Cs  Cs6  1  -0.00097989  0.66840020  -0.00033580  1
  Cs  Cs7  1  -0.00055805  0.66829897  0.33200153  1
  Cs  Cs8  1  -0.00084342  0.66645665  0.66713672  1
  Cs  Cs9  1  0.33487036  0.00054014  0.00003337  1
  Cs  Cs10  1  0.33276249  -0.00284221  0.33241260  1
  Cs  Cs11  1  0.33971953  0.00493951  0.66739662  1
  Cs  Cs12  1  0.33361751  0.32984821  -0.00398898  1
  Cs  Cs13  1  0.33302932  0.33840608  0.34140567  1
  Cs  Cs14  1  0.32450697  0.32636367  0.66383416  1
  Cs  Cs15  1  0.33328568  0.66741400  0.00174104  1
  Cs  Cs16  1  0.33587522  0.66692722  0.33291328  1
  Cs  Cs17  1  0.33105691  0.66561657  0.66343622  1
  Cs  Cs18  1  0.66524812  -0.00041409  -0.00100407  1
  Cs  Cs19  1  0.66724421  0.00169354  0.33499881  1
  Cs  Cs20  1  0.66327015  0.00321864  0.66708332  1
  Cs  Cs21  1  0.66611343  0.33552396  -0.00070592  1
  Cs  Cs22  1  0.66811687  0.33563073  0.33458265  1
  Cs  Cs23  1  0.66669293  0.32842475  0.66963882  1
  Cs  Cs24  1  0.66782999  0.66582904  -0.00028276  1
  Cs  Cs25  1  0.66527324  0.66528283  0.33249514  1
  Cs  Cs26  1  0.66977432  0.66783630  0.66821180  1
  Sn  Sn27  1  0.83395353  0.16785359  0.83385583  1
  Sn  Sn28  1  0.83445875  0.50066317  0.16688938  1
  Sn  Sn29  1  0.83302698  0.83274222  0.16762622  1
  Sn  Sn30  1  0.49910344  0.83188672  0.83406905  1
  Sn  Sn31  1  0.50003637  0.16646189  0.16704248  1
  Sn  Sn32  1  0.83323777  0.50081810  0.49987158  1
  Sn  Sn33  1  0.16573471  0.50056221  0.16637074  1
  Sn  Sn34  1  0.49987741  0.50068457  0.83298069  1
  Sn  Sn35  1  0.83382743  0.83233341  0.49871799  1
  Sn  Sn36  1  0.16799681  0.83303927  0.83318670  1
  Sn  Sn37  1  0.16658095  0.83249416  0.16661266  1
  Sn  Sn38  1  0.16592501  0.83299482  0.49985605  1
  Sn  Sn39  1  0.50029364  0.83422286  0.16577260  1
  Sn  Sn40  1  0.83286033  0.49877384  0.83329184  1
  Pb  Pb41  1  0.83336983  0.16653799  0.50252753  1
  Pb  Pb42  1  0.16397180  0.50234060  0.49710160  1
  Pb  Pb43  1  0.50143918  0.16678193  0.83481878  1
  Pb  Pb44  1  0.50246492  0.50018346  0.50392098  1
  Pb  Pb45  1  0.16937538  0.16692055  0.16667866  1
  Pb  Pb46  1  0.16654283  0.50199364  0.83520929  1
  Pb  Pb47  1  0.16652866  0.16322173  0.49975250  1
  Pb  Pb48  1  0.50039347  0.83310774  0.50007226  1
  Pb  Pb49  1  0.16373816  0.16325309  0.83362697  1
  Pb  Pb50  1  0.50019439  0.16681427  0.49664488  1
  Pb  Pb51  1  0.83304752  0.83277386  0.83337553  1
  Pb  Pb52  1  0.49987476  0.50024802  0.16510323  1
  Pb  Pb53  1  0.83156662  0.16679069  0.16492472  1
  I  I54  1  0.16345596  -0.00401559  0.16668311  1
  I  I55  1  0.15876773  -0.00546077  0.49643398  1
  I  I56  1  0.17107580  -0.00522337  0.83689490  1
  I  I57  1  0.16176728  0.33659197  0.16512448  1
  I  I58  1  0.16596739  0.33381410  0.49866471  1
  I  I59  1  0.16938309  0.33353158  0.83562410  1
  I  I60  1  0.16730567  0.66871544  0.16598819  1
  I  I61  1  0.16455557  0.67058025  0.50211988  1
  I  I62  1  0.16486676  0.67043349  0.83304985  1
  I  I63  1  0.50034783  -0.00310301  0.16030859  1
  I  I64  1  0.50266987  -0.00058215  0.50555326  1
  I  I65  1  0.49825160  -0.00315853  0.83536888  1
  I  I66  1  0.50185061  0.33170472  0.16339480  1
  I  I67  1  0.50291406  0.33367588  0.49817416  1
  I  I68  1  0.50548143  0.33606525  0.83705957  1
  I  I69  1  0.50018915  0.66989806  0.16429576  1
  I  I70  1  0.49866740  0.66679504  0.49494967  1
  I  I71  1  0.50382282  0.66776182  0.84027322  1
  I  I72  1  0.83602199  -0.00349673  0.16847433  1
  I  I73  1  0.83762162  -0.00363356  0.49673531  1
  I  I74  1  0.83339205  0.00107818  0.83401693  1
  I  I75  1  0.83577531  0.33680529  0.16859389  1
  I  I76  1  0.83134618  0.33673939  0.49615390  1
  I  I77  1  0.82582490  0.33567341  0.83454510  1
  I  I78  1  0.83192208  0.66733848  0.16463985  1
  I  I79  1  0.83663265  0.66741035  0.50158773  1
  I  I80  1  0.83217327  0.66417923  0.83388534  1
  I  I81  1  0.16607970  0.16372109  0.00011680  1
  I  I82  1  0.16598347  0.16485762  0.33295982  1
  I  I83  1  0.16701403  0.16660971  0.66688998  1
  I  I84  1  0.16087341  0.50754973  0.00308571  1
  I  I85  1  0.16441185  0.50632442  0.32907562  1
  I  I86  1  0.16593130  0.50240183  0.66658147  1
  I  I87  1  0.16609632  0.83010456  0.00104113  1
  I  I88  1  0.16636732  0.82980069  0.33209573  1
  I  I89  1  0.16427154  0.83355848  0.66680489  1
  I  I90  1  0.50138970  0.16314065  0.00249701  1
  I  I91  1  0.50176311  0.15824633  0.32858930  1
  I  I92  1  0.50229992  0.16495498  0.66704773  1
  I  I93  1  0.50708357  0.50251406  -0.00261160  1
  I  I94  1  0.50047651  0.49960595  0.33323155  1
  I  I95  1  0.50606500  0.50819910  0.67191866  1
  I  I96  1  0.49815811  0.83350767  0.00064902  1
  I  I97  1  0.49809288  0.83718557  0.32992850  1
  I  I98  1  0.49822760  0.82953168  0.66997286  1
  I  I99  1  0.83172638  0.16949963  -0.00274425  1
  I  I100  1  0.83163742  0.16833873  0.33320813  1
  I  I101  1  0.83086017  0.16819608  0.67037123  1
  I  I102  1  0.83248935  0.50137975  0.00036675  1
  I  I103  1  0.83707962  0.50587015  0.33227987  1
  I  I104  1  0.82752718  0.50204844  0.66710837  1
  I  I105  1  0.83525886  0.83089528  0.00271236  1
  I  I106  1  0.83545640  0.82685557  0.33216357  1
  I  I107  1  0.83693148  0.83068214  0.66473767  1
  I  I108  1  -0.00010646  0.16395710  0.16570202  1
  I  I109  1  -0.00035498  0.16738763  0.49927456  1
  I  I110  1  -0.00400490  0.17273478  0.83478064  1
  I  I111  1  -0.00156179  0.50906939  0.16364437  1
  I  I112  1  -0.00412101  0.50323140  0.50673373  1
  I  I113  1  -0.00329912  0.49849929  0.83218533  1
  I  I114  1  -0.00020411  0.82889617  0.16559403  1
  I  I115  1  -0.00075172  0.82955703  0.49846287  1
  I  I116  1  0.00187877  0.83375505  0.83604485  1
  I  I117  1  0.33696139  0.16065393  0.16334116  1
  I  I118  1  0.33331205  0.16578712  0.50190802  1
  I  I119  1  0.33335785  0.16879979  0.83418889  1
  I  I120  1  0.33101198  0.50451771  0.16385908  1
  I  I121  1  0.33289782  0.50100353  0.49866649  1
  I  I122  1  0.33573261  0.50401296  0.83841126  1
  I  I123  1  0.33296623  0.83325332  0.16609685  1
  I  I124  1  0.33051558  0.83400088  0.49706817  1
  I  I125  1  0.33398657  0.82823484  0.83753955  1
  I  I126  1  0.66401579  0.16071656  0.16411292  1
  I  I127  1  0.66714664  0.16259191  0.50106762  1
  I  I128  1  0.66931067  0.16518457  0.83446313  1
  I  I129  1  0.66979726  0.50345132  0.16763556  1
  I  I130  1  0.67114266  0.50789773  0.49303713  1
  I  I131  1  0.66798908  0.50332011  0.83640252  1
  I  I132  1  0.66713083  0.83282881  0.16559961  1
  I  I133  1  0.67009393  0.82965286  0.49712079  1
  I  I134  1  0.66449005  0.83278862  0.83705616  1
