# generated using pymatgen
data_Cs27Sn13Pb14I81
_symmetry_space_group_name_H-M   'P 1'
_cell_length_a   18.97246578
_cell_length_b   18.98483860
_cell_length_c   18.97295156
_cell_angle_alpha   89.99926413
_cell_angle_beta   90.00159478
_cell_angle_gamma   90.00063714
_symmetry_Int_Tables_number   1
_chemical_formula_structural   Cs27Sn13Pb14I81
_chemical_formula_sum   'Cs27 Sn13 Pb14 I81'
_cell_volume   6833.85225341
_cell_formula_units_Z   1
loop_
 _symmetry_equiv_pos_site_id
 _symmetry_equiv_pos_as_xyz
  1  'x, y, z'
loop_
 _atom_site_type_symbol
 _atom_site_label
 _atom_site_symmetry_multiplicity
 _atom_site_fract_x
 _atom_site_fract_y
 _atom_site_fract_z
 _atom_site_occupancy
  Cs  Cs0  1  -0.00272645  0.00227941  -0.00216468  1
  Cs  Cs1  1  -0.00054496  0.00009046  0.33546360  1
  Cs  Cs2  1  0.00096272  0.00071815  0.66598392  1
  Cs  Cs3  1  0.00201209  0.33518526  -0.00026698  1
  Cs  Cs4  1  -0.00082926  0.33222317  0.33128643  1
  Cs  Cs5  1  -0.00097322  0.33590484  0.66834069  1
  Cs  Cs6  1  -0.00022345  0.66114045  -0.00217145  1
  Cs  Cs7  1  0.00502747  0.66797168  0.33571416  1
  Cs  Cs8  1  0.00211831  0.65920572  0.66610073  1
  Cs  Cs9  1  0.33409374  0.00005114  0.00154454  1
  Cs  Cs10  1  0.33259781  0.00004897  0.32620715  1
  Cs  Cs11  1  0.33230818  0.00003380  0.66741564  1
  Cs  Cs12  1  0.33096802  0.33307924  -0.00012799  1
  Cs  Cs13  1  0.33531564  0.33017273  0.33364109  1
  Cs  Cs14  1  0.33611263  0.33222295  0.66615851  1
  Cs  Cs15  1  0.33505666  0.66700669  -0.00009383  1
  Cs  Cs16  1  0.32268314  0.67022279  0.33495543  1
  Cs  Cs17  1  0.33250494  0.66807193  0.66616997  1
  Cs  Cs18  1  0.66727624  -0.00194346  -0.00044126  1
  Cs  Cs19  1  0.66696236  -0.00031338  0.33328287  1
  Cs  Cs20  1  0.66708300  -0.00115227  0.66772469  1
  Cs  Cs21  1  0.66762776  0.33565192  -0.00006765  1
  Cs  Cs22  1  0.66601488  0.33357154  0.33571618  1
  Cs  Cs23  1  0.66539417  0.33545627  0.66336920  1
  Cs  Cs24  1  0.66512922  0.66717579  0.00167309  1
  Cs  Cs25  1  0.66772001  0.66685871  0.33206813  1
  Cs  Cs26  1  0.66707635  0.66743594  0.66576313  1
  Sn  Sn27  1  0.83394523  0.16585419  0.49951036  1
  Sn  Sn28  1  0.50037301  0.83353730  0.50017229  1
  Sn  Sn29  1  0.16709960  0.83408691  0.83337687  1
  Sn  Sn30  1  0.83297186  0.16654172  0.16733007  1
  Sn  Sn31  1  0.83267544  0.83397039  0.49951689  1
  Sn  Sn32  1  0.83328987  0.83323661  0.16735239  1
  Sn  Sn33  1  0.50023714  0.50011636  0.83389536  1
  Sn  Sn34  1  0.16616425  0.16639185  0.50068099  1
  Sn  Sn35  1  0.83247185  0.50019296  0.16694244  1
  Sn  Sn36  1  0.49934669  0.83351197  0.83265330  1
  Sn  Sn37  1  0.49958280  0.16642920  0.83335367  1
  Sn  Sn38  1  0.50025850  0.50033202  0.16658284  1
  Sn  Sn39  1  0.16747745  0.16559992  0.83231672  1
  Pb  Pb40  1  0.50152411  0.83145472  0.16675630  1
  Pb  Pb41  1  0.16683379  0.49620269  0.50010400  1
  Pb  Pb42  1  0.16625068  0.83537079  0.50209064  1
  Pb  Pb43  1  0.16333733  0.83349988  0.16336873  1
  Pb  Pb44  1  0.49989557  0.50310048  0.49937119  1
  Pb  Pb45  1  0.50026053  0.16427911  0.50174151  1
  Pb  Pb46  1  0.83364442  0.83321249  0.83260982  1
  Pb  Pb47  1  0.83061590  0.50002749  0.83550633  1
  Pb  Pb48  1  0.16720694  0.49995837  0.16671861  1
  Pb  Pb49  1  0.16433761  0.16651139  0.16627501  1
  Pb  Pb50  1  0.16952825  0.49958497  0.83327851  1
  Pb  Pb51  1  0.83347316  0.16672691  0.83261224  1
  Pb  Pb52  1  0.50247245  0.16868643  0.16416543  1
  Pb  Pb53  1  0.83328997  0.50012030  0.49747261  1
  I  I54  1  0.16608496  0.00001755  0.16708895  1
  I  I55  1  0.16390774  0.00310368  0.50355943  1
  I  I56  1  0.17465494  0.00072013  0.83033645  1
  I  I57  1  0.16373487  0.33304049  0.16462440  1
  I  I58  1  0.16045181  0.32797121  0.50668454  1
  I  I59  1  0.16955266  0.32987470  0.83013689  1
  I  I60  1  0.16414701  0.66691094  0.16512693  1
  I  I61  1  0.16602398  0.66716974  0.50123393  1
  I  I62  1  0.16949319  0.66945423  0.83417914  1
  I  I63  1  0.50209125  -0.00012163  0.16520673  1
  I  I64  1  0.50271463  -0.00347283  0.50614451  1
  I  I65  1  0.49648363  -0.00048962  0.82886811  1
  I  I66  1  0.50593328  0.33665250  0.16134467  1
  I  I67  1  0.50031703  0.33306479  0.50166729  1
  I  I68  1  0.49700467  0.33303270  0.83815686  1
  I  I69  1  0.50826721  0.66370990  0.15942421  1
  I  I70  1  0.50722703  0.67101254  0.50629349  1
  I  I71  1  0.49729698  0.66748666  0.83407230  1
  I  I72  1  0.83418460  -0.00003374  0.17029707  1
  I  I73  1  0.83293896  0.00003488  0.49196832  1
  I  I74  1  0.82865301  -0.00001398  0.83929827  1
  I  I75  1  0.82953443  0.33307787  0.16948280  1
  I  I76  1  0.83714287  0.33001564  0.49708681  1
  I  I77  1  0.83340935  0.33312643  0.83373617  1
  I  I78  1  0.82833566  0.66686693  0.16871157  1
  I  I79  1  0.82847476  0.67007530  0.49732389  1
  I  I80  1  0.83436913  0.66687869  0.83342328  1
  I  I81  1  0.16947157  0.16393576  -0.00350154  1
  I  I82  1  0.16368907  0.16691085  0.33617722  1
  I  I83  1  0.16410383  0.16231569  0.66749854  1
  I  I84  1  0.16300211  0.49758803  -0.00022867  1
  I  I85  1  0.16923453  0.50012698  0.33331908  1
  I  I86  1  0.16714175  0.50262918  0.66702539  1
  I  I87  1  0.17278281  0.83949082  -0.00453684  1
  I  I88  1  0.16986418  0.83431588  0.33356343  1
  I  I89  1  0.16702088  0.83614520  0.67002040  1
  I  I90  1  0.49588238  0.16173269  -0.00417825  1
  I  I91  1  0.49723226  0.16713737  0.33336410  1
  I  I92  1  0.50129552  0.17087311  0.67017931  1
  I  I93  1  0.50508967  0.50179854  -0.00097087  1
  I  I94  1  0.50658211  0.50012360  0.33012313  1
  I  I95  1  0.49850006  0.49816576  0.66980185  1
  I  I96  1  0.49834915  0.83450588  -0.00309607  1
  I  I97  1  0.50371953  0.83243117  0.33583963  1
  I  I98  1  0.50307723  0.83173946  0.66790438  1
  I  I99  1  0.83247000  0.16604039  0.00265708  1
  I  I100  1  0.83852197  0.16620423  0.33373741  1
  I  I101  1  0.83404301  0.16000963  0.66349413  1
  I  I102  1  0.83227476  0.50002594  0.00398704  1
  I  I103  1  0.82508273  0.49901716  0.32935063  1
  I  I104  1  0.83279280  0.49981808  0.66640276  1
  I  I105  1  0.83300783  0.83413552  0.00270414  1
  I  I106  1  0.82690213  0.83449946  0.33379164  1
  I  I107  1  0.83112404  0.84049405  0.66345249  1
  I  I108  1  -0.00417237  0.16898030  0.16515495  1
  I  I109  1  -0.00110303  0.16070337  0.50157417  1
  I  I110  1  0.00287275  0.16066996  0.83318193  1
  I  I111  1  -0.00363028  0.49943175  0.16745521  1
  I  I112  1  -0.00021494  0.50529368  0.49859658  1
  I  I113  1  0.00020976  0.50038492  0.83487479  1
  I  I114  1  -0.00495937  0.83132863  0.17232204  1
  I  I115  1  -0.00304518  0.83595017  0.49642438  1
  I  I116  1  0.00273793  0.84043442  0.83480619  1
  I  I117  1  0.33356183  0.16903153  0.16933374  1
  I  I118  1  0.33102490  0.16628230  0.50409435  1
  I  I119  1  0.33342349  0.16647549  0.82779224  1
  I  I120  1  0.33694003  0.50025128  0.16068938  1
  I  I121  1  0.33366682  0.50073432  0.49745637  1
  I  I122  1  0.33757683  0.50028573  0.84061523  1
  I  I123  1  0.33337659  0.83094710  0.16943919  1
  I  I124  1  0.33572407  0.83286167  0.50374577  1
  I  I125  1  0.33493206  0.83349163  0.82782785  1
  I  I126  1  0.67065879  0.16461101  0.17103735  1
  I  I127  1  0.66957345  0.16476594  0.49728811  1
  I  I128  1  0.66371828  0.16549483  0.83432707  1
  I  I129  1  0.66738137  0.49988700  0.16108195  1
  I  I130  1  0.66657626  0.49522204  0.50315648  1
  I  I131  1  0.66231418  0.50003843  0.83471262  1
  I  I132  1  0.66989285  0.83530129  0.16524325  1
  I  I133  1  0.66740639  0.83860552  0.50251798  1
  I  I134  1  0.66355652  0.83425170  0.83289178  1
