# generated using pymatgen
data_Cs27Sn13Pb14I81
_symmetry_space_group_name_H-M   'P 1'
_cell_length_a   18.99122295
_cell_length_b   18.99722966
_cell_length_c   18.98619774
_cell_angle_alpha   90.00091694
_cell_angle_beta   89.99955877
_cell_angle_gamma   89.99960394
_symmetry_Int_Tables_number   1
_chemical_formula_structural   Cs27Sn13Pb14I81
_chemical_formula_sum   'Cs27 Sn13 Pb14 I81'
_cell_volume   6849.85226210
_cell_formula_units_Z   1
loop_
 _symmetry_equiv_pos_site_id
 _symmetry_equiv_pos_as_xyz
  1  'x, y, z'
loop_
 _atom_site_type_symbol
 _atom_site_label
 _atom_site_symmetry_multiplicity
 _atom_site_fract_x
 _atom_site_fract_y
 _atom_site_fract_z
 _atom_site_occupancy
  Cs  Cs0  1  -0.00165393  -0.00659938  0.00552512  1
  Cs  Cs1  1  -0.00184670  0.00162407  0.33288801  1
  Cs  Cs2  1  -0.00289156  0.00429873  0.66366265  1
  Cs  Cs3  1  -0.00220102  0.34000514  -0.00207261  1
  Cs  Cs4  1  0.00272221  0.32747797  0.33456453  1
  Cs  Cs5  1  0.00225284  0.33229942  0.66756172  1
  Cs  Cs6  1  0.00073629  0.66607718  -0.00003987  1
  Cs  Cs7  1  0.00314490  0.66988696  0.33526046  1
  Cs  Cs8  1  -0.00248309  0.66451105  0.66597309  1
  Cs  Cs9  1  0.33453368  -0.00060675  -0.00444169  1
  Cs  Cs10  1  0.33447249  0.00095848  0.33275375  1
  Cs  Cs11  1  0.33475987  0.00255864  0.67344653  1
  Cs  Cs12  1  0.33266583  0.33061007  0.00078125  1
  Cs  Cs13  1  0.33446114  0.33451208  0.33206327  1
  Cs  Cs14  1  0.33149745  0.32980880  0.67025251  1
  Cs  Cs15  1  0.32905252  0.67126735  -0.00322675  1
  Cs  Cs16  1  0.33400899  0.66465456  0.33446865  1
  Cs  Cs17  1  0.33406377  0.66715321  0.66567763  1
  Cs  Cs18  1  0.66475621  0.00107858  -0.00232722  1
  Cs  Cs19  1  0.66634387  0.00125612  0.33331005  1
  Cs  Cs20  1  0.66660638  -0.00110082  0.66835898  1
  Cs  Cs21  1  0.66974077  0.33819944  0.00083726  1
  Cs  Cs22  1  0.66389651  0.33309709  0.32944738  1
  Cs  Cs23  1  0.66615566  0.33470296  0.66763340  1
  Cs  Cs24  1  0.66995645  0.66049753  0.00078680  1
  Cs  Cs25  1  0.66321374  0.66493147  0.33461177  1
  Cs  Cs26  1  0.66768946  0.66839443  0.66481882  1
  Sn  Sn27  1  0.16687762  0.83326998  0.50019542  1
  Sn  Sn28  1  0.83328834  0.83406674  0.83272761  1
  Sn  Sn29  1  0.49970197  0.83453838  0.49940942  1
  Sn  Sn30  1  0.16686578  0.49946325  0.16751507  1
  Sn  Sn31  1  0.50020500  0.83379646  0.16719410  1
  Sn  Sn32  1  0.49921088  0.16574676  0.16734490  1
  Sn  Sn33  1  0.49955200  0.50026324  0.83323177  1
  Sn  Sn34  1  0.83408548  0.50019589  0.49949196  1
  Sn  Sn35  1  0.83333837  0.83269963  0.50040516  1
  Sn  Sn36  1  0.16722294  0.16711229  0.16657823  1
  Sn  Sn37  1  0.83350074  0.16577859  0.83346419  1
  Sn  Sn38  1  0.16579631  0.50043974  0.49926067  1
  Sn  Sn39  1  0.50000099  0.16592044  0.49967478  1
  Pb  Pb40  1  0.16366120  0.16638185  0.83686971  1
  Pb  Pb41  1  0.83050405  0.83318285  0.16751319  1
  Pb  Pb42  1  0.83203331  0.50053646  0.83091626  1
  Pb  Pb43  1  0.49940728  0.50002271  0.50117113  1
  Pb  Pb44  1  0.49767275  0.50020472  0.16455159  1
  Pb  Pb45  1  0.16348037  0.83346839  0.82997688  1
  Pb  Pb46  1  0.16902581  0.83349453  0.16889157  1
  Pb  Pb47  1  0.16870978  0.50009161  0.83272026  1
  Pb  Pb48  1  0.50167376  0.16831944  0.83397836  1
  Pb  Pb49  1  0.83089954  0.16668969  0.50116431  1
  Pb  Pb50  1  0.16910075  0.16655524  0.49854394  1
  Pb  Pb51  1  0.83304043  0.16667314  0.16421551  1
  Pb  Pb52  1  0.83643181  0.50017821  0.17028198  1
  Pb  Pb53  1  0.50203148  0.83152286  0.83322099  1
  I  I54  1  0.16875213  0.00249252  0.16764604  1
  I  I55  1  0.16318071  -0.00288824  0.49819107  1
  I  I56  1  0.17099205  -0.00008725  0.83325766  1
  I  I57  1  0.17292530  0.33341795  0.17327069  1
  I  I58  1  0.16308994  0.33602447  0.49800970  1
  I  I59  1  0.16442661  0.33328082  0.82793456  1
  I  I60  1  0.16819252  0.66439211  0.16928866  1
  I  I61  1  0.16790560  0.66662533  0.49388524  1
  I  I62  1  0.16571348  0.66674389  0.83974182  1
  I  I63  1  0.49463765  0.00054399  0.17081597  1
  I  I64  1  0.50081471  -0.00119357  0.49635028  1
  I  I65  1  0.50034183  -0.00015214  0.83316457  1
  I  I66  1  0.49824823  0.33051300  0.17058147  1
  I  I67  1  0.50091144  0.33106920  0.49721779  1
  I  I68  1  0.50343298  0.33566600  0.83131259  1
  I  I69  1  0.49995064  0.66928771  0.17148899  1
  I  I70  1  0.50079075  0.66965133  0.49728885  1
  I  I71  1  0.50240072  0.66424211  0.83233138  1
  I  I72  1  0.83896557  -0.00006788  0.17063593  1
  I  I73  1  0.83554176  -0.00312310  0.50238199  1
  I  I74  1  0.83122664  -0.00104679  0.82624306  1
  I  I75  1  0.82759538  0.33343126  0.16513843  1
  I  I76  1  0.83687118  0.33580423  0.50254553  1
  I  I77  1  0.83049958  0.33165132  0.83289566  1
  I  I78  1  0.83204915  0.66669775  0.15996602  1
  I  I79  1  0.83173287  0.66801429  0.50626008  1
  I  I80  1  0.83071848  0.66936214  0.82978728  1
  I  I81  1  0.17551501  0.17333611  0.00470017  1
  I  I82  1  0.16798619  0.16833997  0.33065274  1
  I  I83  1  0.16848893  0.16777120  0.66657635  1
  I  I84  1  0.16990310  0.49483812  0.00280203  1
  I  I85  1  0.16395364  0.50042986  0.33442389  1
  I  I86  1  0.16372120  0.50497970  0.66297147  1
  I  I87  1  0.16690590  0.83232455  0.00022865  1
  I  I88  1  0.16161428  0.83169153  0.33703058  1
  I  I89  1  0.17331053  0.82626262  0.66157573  1
  I  I90  1  0.49660916  0.16295933  0.00329525  1
  I  I91  1  0.49796348  0.16337157  0.33315782  1
  I  I92  1  0.50172671  0.16338209  0.66423468  1
  I  I93  1  0.50076798  0.49961901  -0.00274401  1
  I  I94  1  0.50225554  0.49972711  0.33335033  1
  I  I95  1  0.49976363  0.49985282  0.66855657  1
  I  I96  1  0.50062494  0.83691210  0.00259464  1
  I  I97  1  0.50248819  0.83646721  0.33493470  1
  I  I98  1  0.49872389  0.83598137  0.66314229  1
  I  I99  1  0.83082426  0.16031300  -0.00356491  1
  I  I100  1  0.83413236  0.16669096  0.33324398  1
  I  I101  1  0.83007072  0.16514569  0.66887126  1
  I  I102  1  0.83294397  0.50017048  -0.00008069  1
  I  I103  1  0.83102531  0.50709477  0.33814521  1
  I  I104  1  0.83863882  0.50174164  0.66318757  1
  I  I105  1  0.83077133  0.83827746  -0.00255619  1
  I  I106  1  0.83504105  0.82895278  0.33731166  1
  I  I107  1  0.83066878  0.83305874  0.66488983  1
  I  I108  1  0.00296210  0.17149851  0.16579096  1
  I  I109  1  0.00007099  0.16465275  0.49927493  1
  I  I110  1  -0.00398106  0.16402317  0.83096622  1
  I  I111  1  0.00442724  0.49382440  0.16576778  1
  I  I112  1  0.00037812  0.50860475  0.49749812  1
  I  I113  1  -0.00001166  0.49984600  0.83539695  1
  I  I114  1  0.00017570  0.83383901  0.16647712  1
  I  I115  1  -0.00028186  0.82726192  0.50491917  1
  I  I116  1  -0.00455827  0.83580186  0.82940770  1
  I  I117  1  0.33440364  0.16760897  0.17146930  1
  I  I118  1  0.33700884  0.16366879  0.49917908  1
  I  I119  1  0.33346005  0.16907895  0.83107751  1
  I  I120  1  0.33030858  0.49880495  0.17485949  1
  I  I121  1  0.33055482  0.50362018  0.49726616  1
  I  I122  1  0.33623323  0.49934845  0.83028237  1
  I  I123  1  0.33680153  0.83375171  0.17251106  1
  I  I124  1  0.33387514  0.83129516  0.49368441  1
  I  I125  1  0.33348029  0.83136365  0.83276863  1
  I  I126  1  0.66318092  0.16216023  0.17001528  1
  I  I127  1  0.66304636  0.16358716  0.49450031  1
  I  I128  1  0.66914020  0.16315717  0.83358008  1
  I  I129  1  0.66641177  0.49916808  0.16606189  1
  I  I130  1  0.66845328  0.50363806  0.50443821  1
  I  I131  1  0.66443809  0.49970770  0.83185091  1
  I  I132  1  0.66257032  0.83983013  0.17223356  1
  I  I133  1  0.66658264  0.83252273  0.50070864  1
  I  I134  1  0.66954875  0.83612383  0.82636682  1
