# generated using pymatgen
data_Cs27Sn13Pb14I81
_symmetry_space_group_name_H-M   'P 1'
_cell_length_a   18.96460343
_cell_length_b   18.98283091
_cell_length_c   18.98284125
_cell_angle_alpha   89.99842146
_cell_angle_beta   89.99855994
_cell_angle_gamma   89.99860748
_symmetry_Int_Tables_number   1
_chemical_formula_structural   Cs27Sn13Pb14I81
_chemical_formula_sum   'Cs27 Sn13 Pb14 I81'
_cell_volume   6833.85815481
_cell_formula_units_Z   1
loop_
 _symmetry_equiv_pos_site_id
 _symmetry_equiv_pos_as_xyz
  1  'x, y, z'
loop_
 _atom_site_type_symbol
 _atom_site_label
 _atom_site_symmetry_multiplicity
 _atom_site_fract_x
 _atom_site_fract_y
 _atom_site_fract_z
 _atom_site_occupancy
  Cs  Cs0  1  -0.00268879  0.00350971  0.00515308  1
  Cs  Cs1  1  0.00754179  -0.00022672  0.33309690  1
  Cs  Cs2  1  0.00009223  -0.00308748  0.66095049  1
  Cs  Cs3  1  -0.00385837  0.33072608  -0.00374530  1
  Cs  Cs4  1  0.00565062  0.33006417  0.33275330  1
  Cs  Cs5  1  0.00077175  0.33702211  0.67030767  1
  Cs  Cs6  1  0.00365794  0.66528048  -0.00292446  1
  Cs  Cs7  1  0.00041138  0.67069161  0.33607243  1
  Cs  Cs8  1  0.00608485  0.66639132  0.66701137  1
  Cs  Cs9  1  0.33395491  -0.00285504  -0.00342171  1
  Cs  Cs10  1  0.33131978  0.00169356  0.33307476  1
  Cs  Cs11  1  0.33532798  0.00167132  0.67034073  1
  Cs  Cs12  1  0.33497634  0.33562414  0.00155525  1
  Cs  Cs13  1  0.33074464  0.33494654  0.33251721  1
  Cs  Cs14  1  0.33461552  0.33070765  0.66542839  1
  Cs  Cs15  1  0.32608146  0.66715176  -0.00017119  1
  Cs  Cs16  1  0.33045482  0.66216540  0.32853734  1
  Cs  Cs17  1  0.32946043  0.66754295  0.67138733  1
  Cs  Cs18  1  0.66742245  -0.00071158  0.00070751  1
  Cs  Cs19  1  0.66692081  -0.00123040  0.33396519  1
  Cs  Cs20  1  0.66483988  -0.00071386  0.66490233  1
  Cs  Cs21  1  0.66908574  0.33320898  -0.00029150  1
  Cs  Cs22  1  0.66528444  0.33547634  0.33446155  1
  Cs  Cs23  1  0.66634147  0.33355457  0.66587919  1
  Cs  Cs24  1  0.66649714  0.66823403  0.00276791  1
  Cs  Cs25  1  0.66706448  0.66626365  0.33313541  1
  Cs  Cs26  1  0.66676157  0.66709204  0.66481806  1
  Sn  Sn27  1  0.83289245  0.83328501  0.83399624  1
  Sn  Sn28  1  0.83248493  0.83241560  0.16592109  1
  Sn  Sn29  1  0.50029791  0.83299888  0.49902644  1
  Sn  Sn30  1  0.50081780  0.16672337  0.49952775  1
  Sn  Sn31  1  0.50051153  0.50020448  0.50095838  1
  Sn  Sn32  1  0.16712146  0.16651519  0.83333888  1
  Sn  Sn33  1  0.83258895  0.16765113  0.49980580  1
  Sn  Sn34  1  0.50064454  0.16592275  0.16683153  1
  Sn  Sn35  1  0.49968739  0.16764178  0.83355661  1
  Sn  Sn36  1  0.83268285  0.49909003  0.49898090  1
  Sn  Sn37  1  0.83292724  0.50052969  0.16757026  1
  Sn  Sn38  1  0.50075109  0.49967929  0.83281860  1
  Sn  Sn39  1  0.50058871  0.83394428  0.16751308  1
  Pb  Pb40  1  0.83252261  0.16476666  0.83081501  1
  Pb  Pb41  1  0.16666926  0.83338662  0.16662119  1
  Pb  Pb42  1  0.83196291  0.83301382  0.49933692  1
  Pb  Pb43  1  0.50125473  0.50028800  0.16667385  1
  Pb  Pb44  1  0.83136873  0.16652368  0.16929794  1
  Pb  Pb45  1  0.50114181  0.83314950  0.83371007  1
  Pb  Pb46  1  0.83126537  0.50196429  0.83286092  1
  Pb  Pb47  1  0.16211369  0.49981159  0.16666821  1
  Pb  Pb48  1  0.16313733  0.83624491  0.83347285  1
  Pb  Pb49  1  0.17000340  0.16670466  0.16392192  1
  Pb  Pb50  1  0.16708014  0.16678886  0.50204089  1
  Pb  Pb51  1  0.16672999  0.49984309  0.49995499  1
  Pb  Pb52  1  0.16979474  0.49747667  0.83329011  1
  Pb  Pb53  1  0.17109652  0.83338352  0.49999316  1
  I  I54  1  0.16190759  0.00016394  0.16666446  1
  I  I55  1  0.16380666  0.00024035  0.50077845  1
  I  I56  1  0.17696315  0.00349620  0.83234737  1
  I  I57  1  0.16821501  0.33307939  0.16683144  1
  I  I58  1  0.17020551  0.33325057  0.50062401  1
  I  I59  1  0.16741100  0.32974569  0.83233947  1
  I  I60  1  0.17350449  0.66669338  0.16509029  1
  I  I61  1  0.16473531  0.66657859  0.50149836  1
  I  I62  1  0.16779496  0.66670693  0.83332914  1
  I  I63  1  0.50560903  -0.00012612  0.16913692  1
  I  I64  1  0.50448974  0.00092761  0.50050992  1
  I  I65  1  0.49802315  0.00279707  0.83069819  1
  I  I66  1  0.50159047  0.33091884  0.16784457  1
  I  I67  1  0.50407077  0.33290809  0.50136734  1
  I  I68  1  0.49734953  0.33231113  0.83033624  1
  I  I69  1  0.50345404  0.66931423  0.16991045  1
  I  I70  1  0.50578210  0.66605594  0.50063223  1
  I  I71  1  0.50441037  0.66436058  0.82927219  1
  I  I72  1  0.83006718  -0.00267965  0.16329981  1
  I  I73  1  0.82778628  0.00210328  0.50214320  1
  I  I74  1  0.83032702  -0.00280133  0.83800164  1
  I  I75  1  0.83045457  0.33561386  0.16853362  1
  I  I76  1  0.82414755  0.33380949  0.49612849  1
  I  I77  1  0.83511104  0.33324837  0.83584653  1
  I  I78  1  0.82557984  0.66730462  0.16840272  1
  I  I79  1  0.82739507  0.66401893  0.49898895  1
  I  I80  1  0.82881267  0.66956320  0.83293473  1
  I  I81  1  0.17107291  0.16636446  -0.00384598  1
  I  I82  1  0.16667047  0.16608699  0.33330618  1
  I  I83  1  0.17410884  0.16637941  0.66954187  1
  I  I84  1  0.16867967  0.49961850  -0.00018112  1
  I  I85  1  0.17313490  0.49871672  0.33338602  1
  I  I86  1  0.16203512  0.50018325  0.66673400  1
  I  I87  1  0.17231909  0.83382873  -0.00004458  1
  I  I88  1  0.16146700  0.83488262  0.33327965  1
  I  I89  1  0.16509339  0.83369406  0.66685152  1
  I  I90  1  0.49579912  0.16639929  -0.00032190  1
  I  I91  1  0.50574740  0.16570792  0.33415091  1
  I  I92  1  0.49961751  0.16667079  0.66614769  1
  I  I93  1  0.50235761  0.49578339  -0.00208965  1
  I  I94  1  0.50264453  0.49783498  0.33621118  1
  I  I95  1  0.50552556  0.49687655  0.66545032  1
  I  I96  1  0.50340709  0.83707807  0.00272564  1
  I  I97  1  0.50668514  0.83696382  0.33320798  1
  I  I98  1  0.50316665  0.83591602  0.66429485  1
  I  I99  1  0.83268877  0.16827023  0.00009684  1
  I  I100  1  0.82617959  0.16604622  0.33705561  1
  I  I101  1  0.82709858  0.17003560  0.66309861  1
  I  I102  1  0.83051948  0.50248386  0.00217472  1
  I  I103  1  0.82535538  0.50213610  0.33424085  1
  I  I104  1  0.82994168  0.49728693  0.66353096  1
  I  I105  1  0.82624819  0.82964608  0.00142560  1
  I  I106  1  0.82926960  0.83177042  0.33061881  1
  I  I107  1  0.83028279  0.83500546  0.66793394  1
  I  I108  1  -0.00028667  0.16654363  0.16658765  1
  I  I109  1  -0.00309982  0.17051944  0.50181091  1
  I  I110  1  0.00163227  0.16375456  0.83119089  1
  I  I111  1  -0.00601289  0.50634394  0.17265349  1
  I  I112  1  -0.00392158  0.49528392  0.49582787  1
  I  I113  1  -0.00025606  0.49960441  0.83355271  1
  I  I114  1  -0.00379159  0.82906991  0.16242571  1
  I  I115  1  -0.00026136  0.83421070  0.50043238  1
  I  I116  1  -0.00473678  0.83349417  0.83829312  1
  I  I117  1  0.33876981  0.16195826  0.17245462  1
  I  I118  1  0.33759452  0.16688976  0.49853520  1
  I  I119  1  0.33624844  0.16933288  0.83086190  1
  I  I120  1  0.33367026  0.50031484  0.16660964  1
  I  I121  1  0.33760652  0.49881241  0.50382540  1
  I  I122  1  0.33829848  0.50039958  0.82763349  1
  I  I123  1  0.33722514  0.83775147  0.17099057  1
  I  I124  1  0.33963636  0.83485414  0.49570194  1
  I  I125  1  0.33353576  0.83136721  0.83275687  1
  I  I126  1  0.66294689  0.16476108  0.16176761  1
  I  I127  1  0.66469176  0.16735371  0.50267042  1
  I  I128  1  0.66308091  0.16893836  0.83396974  1
  I  I129  1  0.66909714  0.50169471  0.16832976  1
  I  I130  1  0.66564968  0.49842546  0.50020232  1
  I  I131  1  0.66322997  0.49267899  0.83105861  1
  I  I132  1  0.66615226  0.83381516  0.16640804  1
  I  I133  1  0.66350006  0.83447813  0.49932826  1
  I  I134  1  0.66872501  0.83593882  0.83487687  1
