# generated using pymatgen
data_Cs27Sn14Pb13I81
_symmetry_space_group_name_H-M   'P 1'
_cell_length_a   19.00467609
_cell_length_b   19.00027389
_cell_length_c   19.00980512
_cell_angle_alpha   90.00190255
_cell_angle_beta   90.00009638
_cell_angle_gamma   89.99676863
_symmetry_Int_Tables_number   1
_chemical_formula_structural   Cs27Sn14Pb13I81
_chemical_formula_sum   'Cs27 Sn14 Pb13 I81'
_cell_volume   6864.32751920
_cell_formula_units_Z   1
loop_
 _symmetry_equiv_pos_site_id
 _symmetry_equiv_pos_as_xyz
  1  'x, y, z'
loop_
 _atom_site_type_symbol
 _atom_site_label
 _atom_site_symmetry_multiplicity
 _atom_site_fract_x
 _atom_site_fract_y
 _atom_site_fract_z
 _atom_site_occupancy
  Cs  Cs0  1  0.00028599  0.00019070  0.00084585  1
  Cs  Cs1  1  -0.00523161  -0.00623972  0.32781700  1
  Cs  Cs2  1  -0.00012503  -0.00059467  0.66798414  1
  Cs  Cs3  1  -0.00097268  0.33220316  -0.00124114  1
  Cs  Cs4  1  -0.00099854  0.33543240  0.33326425  1
  Cs  Cs5  1  0.00631326  0.33352720  0.66834841  1
  Cs  Cs6  1  0.00455522  0.66635928  0.00488633  1
  Cs  Cs7  1  0.00222752  0.66986647  0.32957006  1
  Cs  Cs8  1  -0.00008054  0.66818110  0.66623829  1
  Cs  Cs9  1  0.33513493  -0.00028318  -0.00124983  1
  Cs  Cs10  1  0.33890603  0.00280194  0.33526410  1
  Cs  Cs11  1  0.32981419  -0.00144818  0.66650118  1
  Cs  Cs12  1  0.32671848  0.33289015  -0.00142956  1
  Cs  Cs13  1  0.33582784  0.33291458  0.33801250  1
  Cs  Cs14  1  0.31657905  0.33018278  0.66419380  1
  Cs  Cs15  1  0.33665711  0.66589413  0.00126318  1
  Cs  Cs16  1  0.33297223  0.66576933  0.33272551  1
  Cs  Cs17  1  0.33831343  0.67013911  0.66616287  1
  Cs  Cs18  1  0.66653554  0.00246062  -0.00270446  1
  Cs  Cs19  1  0.66685182  0.00078917  0.33389803  1
  Cs  Cs20  1  0.66891555  -0.00018537  0.66935352  1
  Cs  Cs21  1  0.66898129  0.33288551  0.00227482  1
  Cs  Cs22  1  0.66544349  0.33335207  0.33221930  1
  Cs  Cs23  1  0.66948207  0.33586453  0.66648212  1
  Cs  Cs24  1  0.66096850  0.66173834  -0.00357813  1
  Cs  Cs25  1  0.66679285  0.66536372  0.33499353  1
  Cs  Cs26  1  0.66290877  0.66421196  0.66670311  1
  Sn  Sn27  1  0.50052268  0.16767185  0.83262703  1
  Sn  Sn28  1  0.50062708  0.50006219  0.49959342  1
  Sn  Sn29  1  0.83241996  0.16604185  0.83306441  1
  Sn  Sn30  1  0.16573011  0.16643484  0.16738643  1
  Sn  Sn31  1  0.83244192  0.49955405  0.16765285  1
  Sn  Sn32  1  0.49964769  0.83314060  0.49902278  1
  Sn  Sn33  1  0.16742840  0.83352121  0.50016502  1
  Sn  Sn34  1  0.50088207  0.50040184  0.16757936  1
  Sn  Sn35  1  0.50070297  0.83282552  0.16758594  1
  Sn  Sn36  1  0.83278007  0.49924907  0.49907415  1
  Sn  Sn37  1  0.83326911  0.16741183  0.49997288  1
  Sn  Sn38  1  0.83400864  0.16726727  0.16699632  1
  Sn  Sn39  1  0.83395532  0.83326503  0.83361309  1
  Sn  Sn40  1  0.16551728  0.83327129  0.83302067  1
  Pb  Pb41  1  0.16667238  0.50373869  0.83333363  1
  Pb  Pb42  1  0.83339296  0.49978771  0.83335543  1
  Pb  Pb43  1  0.16692972  0.49762875  0.16699368  1
  Pb  Pb44  1  0.16643809  0.50262310  0.49982318  1
  Pb  Pb45  1  0.83272622  0.83265718  0.50163046  1
  Pb  Pb46  1  0.50028700  0.83486677  0.83289212  1
  Pb  Pb47  1  0.16949620  0.83534271  0.16677257  1
  Pb  Pb48  1  0.49996965  0.49640723  0.83257155  1
  Pb  Pb49  1  0.50060413  0.16753137  0.16519066  1
  Pb  Pb50  1  0.83060555  0.83262199  0.16412713  1
  Pb  Pb51  1  0.16577111  0.16463143  0.83503190  1
  Pb  Pb52  1  0.50205886  0.16724595  0.50259676  1
  Pb  Pb53  1  0.16306800  0.16365552  0.49725916  1
  I  I54  1  0.15920688  0.00273433  0.16573935  1
  I  I55  1  0.17362551  -0.00355934  0.50502213  1
  I  I56  1  0.16564307  -0.00283376  0.82934483  1
  I  I57  1  0.16706516  0.32981710  0.16423817  1
  I  I58  1  0.17066642  0.33306719  0.49945494  1
  I  I59  1  0.16778827  0.33282997  0.83453504  1
  I  I60  1  0.16340464  0.66682153  0.16549463  1
  I  I61  1  0.16505047  0.67040892  0.50398920  1
  I  I62  1  0.15947951  0.67201501  0.83039163  1
  I  I63  1  0.49888019  -0.00187104  0.16931751  1
  I  I64  1  0.49715889  -0.00261784  0.49641870  1
  I  I65  1  0.50260041  0.00247946  0.83540612  1
  I  I66  1  0.50153704  0.33625898  0.17069919  1
  I  I67  1  0.50401568  0.33630685  0.49416105  1
  I  I68  1  0.51088371  0.32906273  0.83632130  1
  I  I69  1  0.50549839  0.66617403  0.16876379  1
  I  I70  1  0.50275499  0.66683364  0.49707293  1
  I  I71  1  0.49933954  0.66640168  0.83444638  1
  I  I72  1  0.83591676  0.00270381  0.16886186  1
  I  I73  1  0.83375115  0.00237450  0.49793171  1
  I  I74  1  0.83286136  0.00117776  0.83282830  1
  I  I75  1  0.83080470  0.33275540  0.16442378  1
  I  I76  1  0.82599452  0.33347105  0.50089207  1
  I  I77  1  0.82747498  0.33011309  0.83444225  1
  I  I78  1  0.83128591  0.66373693  0.17140916  1
  I  I79  1  0.83277940  0.66390349  0.49618432  1
  I  I80  1  0.83836543  0.66939997  0.83237173  1
  I  I81  1  0.16154277  0.16434662  0.00252461  1
  I  I82  1  0.16286717  0.16448055  0.32996989  1
  I  I83  1  0.16732001  0.16820148  0.66632450  1
  I  I84  1  0.16699871  0.50209000  0.00048378  1
  I  I85  1  0.16541037  0.50325393  0.33335604  1
  I  I86  1  0.16624802  0.49449427  0.66627560  1
  I  I87  1  0.16309392  0.83619360  -0.00220585  1
  I  I88  1  0.16852941  0.83443006  0.33582858  1
  I  I89  1  0.16957897  0.83474797  0.66656843  1
  I  I90  1  0.50613049  0.16395160  -0.00230206  1
  I  I91  1  0.49962653  0.16462254  0.33362001  1
  I  I92  1  0.50777337  0.16395181  0.66992627  1
  I  I93  1  0.50521309  0.50511782  0.00294367  1
  I  I94  1  0.50492720  0.50446567  0.33331760  1
  I  I95  1  0.50706282  0.50690561  0.66307926  1
  I  I96  1  0.50041108  0.83012568  0.00197419  1
  I  I97  1  0.49369661  0.83081819  0.33413166  1
  I  I98  1  0.49928491  0.82925001  0.66396281  1
  I  I99  1  0.83317866  0.16633313  0.00022784  1
  I  I100  1  0.83843225  0.17107171  0.33293368  1
  I  I101  1  0.82611360  0.16545398  0.66688083  1
  I  I102  1  0.82819319  0.49673991  0.00310821  1
  I  I103  1  0.82864295  0.49068089  0.33317012  1
  I  I104  1  0.82780539  0.49793028  0.66357745  1
  I  I105  1  0.83826045  0.83921295  -0.00337169  1
  I  I106  1  0.83656205  0.83736987  0.33315327  1
  I  I107  1  0.83249007  0.83876460  0.66933341  1
  I  I108  1  -0.00253435  0.17144257  0.16339397  1
  I  I109  1  -0.00466137  0.17278368  0.50749577  1
  I  I110  1  -0.00353116  0.16445938  0.83200416  1
  I  I111  1  -0.00337643  0.49793828  0.17034287  1
  I  I112  1  -0.00348217  0.49636565  0.49624209  1
  I  I113  1  -0.00033861  0.49451186  0.83332955  1
  I  I114  1  -0.00022577  0.83104149  0.16850946  1
  I  I115  1  0.00155285  0.83476678  0.50419540  1
  I  I116  1  -0.00045650  0.84048904  0.82690266  1
  I  I117  1  0.33198978  0.16429955  0.16170704  1
  I  I118  1  0.33311754  0.16937349  0.50063593  1
  I  I119  1  0.33505472  0.16530763  0.83716432  1
  I  I120  1  0.33685892  0.50338989  0.17044885  1
  I  I121  1  0.33658226  0.50238396  0.49498575  1
  I  I122  1  0.33373312  0.49759112  0.83494133  1
  I  I123  1  0.33712070  0.82900028  0.16429946  1
  I  I124  1  0.33453351  0.82750625  0.50317780  1
  I  I125  1  0.33167520  0.83636131  0.83236971  1
  I  I126  1  0.66987324  0.16750660  0.16731527  1
  I  I127  1  0.67000294  0.16419756  0.49399833  1
  I  I128  1  0.66892439  0.15846049  0.83659692  1
  I  I129  1  0.66702832  0.49724137  0.17054316  1
  I  I130  1  0.66673780  0.50310903  0.49579700  1
  I  I131  1  0.66669657  0.50680447  0.83325069  1
  I  I132  1  0.66322380  0.83563591  0.17264605  1
  I  I133  1  0.66399861  0.83254362  0.49746096  1
  I  I134  1  0.66894511  0.83739466  0.83355995  1
