# generated using pymatgen
data_Cs27Sn14Pb13I81
_symmetry_space_group_name_H-M   'P 1'
_cell_length_a   18.96207156
_cell_length_b   18.95668183
_cell_length_c   18.96242127
_cell_angle_alpha   89.99995893
_cell_angle_beta   89.99890278
_cell_angle_gamma   90.00039843
_symmetry_Int_Tables_number   1
_chemical_formula_structural   Cs27Sn14Pb13I81
_chemical_formula_sum   'Cs27 Sn14 Pb13 I81'
_cell_volume   6816.19321348
_cell_formula_units_Z   1
loop_
 _symmetry_equiv_pos_site_id
 _symmetry_equiv_pos_as_xyz
  1  'x, y, z'
loop_
 _atom_site_type_symbol
 _atom_site_label
 _atom_site_symmetry_multiplicity
 _atom_site_fract_x
 _atom_site_fract_y
 _atom_site_fract_z
 _atom_site_occupancy
  Cs  Cs0  1  -0.00103063  -0.00370626  -0.00247101  1
  Cs  Cs1  1  -0.00152879  -0.00139221  0.33179726  1
  Cs  Cs2  1  0.00049583  0.00066932  0.66902358  1
  Cs  Cs3  1  0.00079244  0.33747080  -0.00109579  1
  Cs  Cs4  1  0.00338898  0.33466173  0.33595200  1
  Cs  Cs5  1  -0.00157030  0.33199957  0.66491422  1
  Cs  Cs6  1  -0.00054573  0.66785015  0.00032638  1
  Cs  Cs7  1  0.00040813  0.66581950  0.33099142  1
  Cs  Cs8  1  -0.00128828  0.66688070  0.66827574  1
  Cs  Cs9  1  0.33235564  0.00019336  -0.00342494  1
  Cs  Cs10  1  0.33385918  0.00228210  0.33618049  1
  Cs  Cs11  1  0.33079100  -0.00003385  0.66411142  1
  Cs  Cs12  1  0.33645152  0.33317847  0.00086994  1
  Cs  Cs13  1  0.33008419  0.33071649  0.33184424  1
  Cs  Cs14  1  0.33422410  0.33297037  0.66882949  1
  Cs  Cs15  1  0.33299785  0.66641207  0.00042593  1
  Cs  Cs16  1  0.33432379  0.66722496  0.33334855  1
  Cs  Cs17  1  0.33780699  0.66722261  0.66565951  1
  Cs  Cs18  1  0.66705350  0.00508440  0.00293530  1
  Cs  Cs19  1  0.66689563  0.00198176  0.32963272  1
  Cs  Cs20  1  0.66932975  -0.00367151  0.66680059  1
  Cs  Cs21  1  0.66247093  0.32809305  -0.00039671  1
  Cs  Cs22  1  0.67075850  0.33080474  0.33418493  1
  Cs  Cs23  1  0.66853404  0.33418662  0.66692327  1
  Cs  Cs24  1  0.66773181  0.66701600  -0.00150682  1
  Cs  Cs25  1  0.66445199  0.66685369  0.33562992  1
  Cs  Cs26  1  0.66494429  0.66741746  0.66647758  1
  Sn  Sn27  1  0.83428590  0.83298825  0.50030638  1
  Sn  Sn28  1  0.50017726  0.50061944  0.16689318  1
  Sn  Sn29  1  0.16638736  0.16690966  0.16676484  1
  Sn  Sn30  1  0.50069617  0.83323899  0.83446774  1
  Sn  Sn31  1  0.49981744  0.16700659  0.50037446  1
  Sn  Sn32  1  0.83241852  0.83247906  0.83281839  1
  Sn  Sn33  1  0.83310381  0.50015152  0.16596236  1
  Sn  Sn34  1  0.16564504  0.83310500  0.49984073  1
  Sn  Sn35  1  0.16675752  0.49949717  0.16646175  1
  Sn  Sn36  1  0.16738457  0.16670946  0.49929010  1
  Sn  Sn37  1  0.49974655  0.83289787  0.16567373  1
  Sn  Sn38  1  0.16686221  0.50020754  0.50035546  1
  Sn  Sn39  1  0.83385185  0.50065824  0.83414595  1
  Sn  Sn40  1  0.16627144  0.50028319  0.83332347  1
  Pb  Pb41  1  0.16658581  0.16949919  0.83333009  1
  Pb  Pb42  1  0.50015043  0.83481426  0.49980948  1
  Pb  Pb43  1  0.49995283  0.16350153  0.83051699  1
  Pb  Pb44  1  0.83675604  0.16988783  0.16656704  1
  Pb  Pb45  1  0.83519760  0.50196196  0.50018937  1
  Pb  Pb46  1  0.16659796  0.83107939  0.83115399  1
  Pb  Pb47  1  0.49770114  0.49750992  0.49753994  1
  Pb  Pb48  1  0.49795425  0.16676488  0.16818118  1
  Pb  Pb49  1  0.50034851  0.50150342  0.83523606  1
  Pb  Pb50  1  0.83339581  0.16694911  0.83349170  1
  Pb  Pb51  1  0.16864262  0.83324885  0.16865905  1
  Pb  Pb52  1  0.83115880  0.83141194  0.16644742  1
  Pb  Pb53  1  0.83413692  0.16387712  0.50001577  1
  I  I54  1  0.16989914  0.00228969  0.17284692  1
  I  I55  1  0.16777511  0.00024363  0.49560848  1
  I  I56  1  0.16651824  -0.00035879  0.83303592  1
  I  I57  1  0.16788003  0.33525522  0.17157091  1
  I  I58  1  0.17083445  0.33379851  0.49822944  1
  I  I59  1  0.16113725  0.33801058  0.82977286  1
  I  I60  1  0.16547048  0.66327405  0.16790950  1
  I  I61  1  0.16235375  0.66620003  0.49908360  1
  I  I62  1  0.16525300  0.66278995  0.83516573  1
  I  I63  1  0.49860573  -0.00249178  0.16519171  1
  I  I64  1  0.49290915  0.00233857  0.49839479  1
  I  I65  1  0.50533391  -0.00471517  0.83994097  1
  I  I66  1  0.50039783  0.33629798  0.16819642  1
  I  I67  1  0.49419954  0.32994494  0.49797154  1
  I  I68  1  0.50000234  0.33351524  0.83399627  1
  I  I69  1  0.49692298  0.66593815  0.16449458  1
  I  I70  1  0.49825855  0.66665033  0.50043385  1
  I  I71  1  0.50071699  0.66962845  0.83299845  1
  I  I72  1  0.83277834  -0.00019256  0.16697275  1
  I  I73  1  0.83822035  -0.00426914  0.50580726  1
  I  I74  1  0.83017043  -0.00375944  0.82858299  1
  I  I75  1  0.82833346  0.33837107  0.16157039  1
  I  I76  1  0.83364276  0.33359846  0.50024112  1
  I  I77  1  0.83823735  0.33738577  0.83665584  1
  I  I78  1  0.83966413  0.66312853  0.16571266  1
  I  I79  1  0.83783265  0.66997274  0.50115538  1
  I  I80  1  0.83417964  0.66649643  0.83312639  1
  I  I81  1  0.16724649  0.17187197  0.00301654  1
  I  I82  1  0.17030463  0.17197655  0.33432341  1
  I  I83  1  0.17008191  0.16698030  0.66314899  1
  I  I84  1  0.16604337  0.49598951  0.00099285  1
  I  I85  1  0.16652981  0.49916363  0.33292983  1
  I  I86  1  0.16180313  0.50043517  0.66634129  1
  I  I87  1  0.16520456  0.83382751  -0.00003295  1
  I  I88  1  0.16344801  0.82931939  0.33699628  1
  I  I89  1  0.16782741  0.83381526  0.66285620  1
  I  I90  1  0.49827523  0.16762130  0.00018343  1
  I  I91  1  0.49617782  0.16403362  0.33600232  1
  I  I92  1  0.49160291  0.16558821  0.66266715  1
  I  I93  1  0.49458262  0.50132712  0.00352032  1
  I  I94  1  0.50045168  0.50730914  0.32920067  1
  I  I95  1  0.49906525  0.50098544  0.66659341  1
  I  I96  1  0.50396168  0.82884274  0.00005348  1
  I  I97  1  0.49902162  0.83030717  0.33112371  1
  I  I98  1  0.50102983  0.83478129  0.66870373  1
  I  I99  1  0.83429733  0.16155351  0.00022621  1
  I  I100  1  0.83126660  0.16586392  0.33333390  1
  I  I101  1  0.83504229  0.17080761  0.66648974  1
  I  I102  1  0.83978813  0.50612849  -0.00022498  1
  I  I103  1  0.83461046  0.50145231  0.33070685  1
  I  I104  1  0.83848388  0.50238292  0.66951565  1
  I  I105  1  0.83167829  0.83029108  -0.00284484  1
  I  I106  1  0.83616576  0.83217608  0.33559160  1
  I  I107  1  0.83114428  0.82795856  0.66737218  1
  I  I108  1  0.00480624  0.17079298  0.17436594  1
  I  I109  1  0.00389160  0.16916198  0.49638941  1
  I  I110  1  0.00026298  0.16205325  0.83134208  1
  I  I111  1  0.00102157  0.49586966  0.16655887  1
  I  I112  1  0.00383027  0.49614406  0.49584043  1
  I  I113  1  0.00011282  0.50529786  0.83787953  1
  I  I114  1  0.00007655  0.83317949  0.16554211  1
  I  I115  1  0.00071294  0.83447145  0.50455133  1
  I  I116  1  -0.00267767  0.83090630  0.83060616  1
  I  I117  1  0.32996706  0.17301341  0.17028537  1
  I  I118  1  0.33113554  0.16421973  0.49609973  1
  I  I119  1  0.33315165  0.16650453  0.83428140  1
  I  I120  1  0.33216864  0.50013330  0.16725767  1
  I  I121  1  0.32896787  0.50549700  0.50062125  1
  I  I122  1  0.33066427  0.50127943  0.83359292  1
  I  I123  1  0.33652826  0.82750042  0.16332478  1
  I  I124  1  0.33068502  0.83195014  0.49968376  1
  I  I125  1  0.33556234  0.83167291  0.83525623  1
  I  I126  1  0.66653359  0.16744435  0.16922677  1
  I  I127  1  0.66439242  0.16410793  0.49950719  1
  I  I128  1  0.66653444  0.17142495  0.83120652  1
  I  I129  1  0.66671866  0.50587278  0.16237415  1
  I  I130  1  0.66665335  0.50002632  0.49963319  1
  I  I131  1  0.66967784  0.50285402  0.83733638  1
  I  I132  1  0.66322801  0.82806091  0.16877127  1
  I  I133  1  0.66891076  0.83458058  0.50138838  1
  I  I134  1  0.66764971  0.82690154  0.82956768  1
