# generated using pymatgen
data_Cs27Sn14Pb13I81
_symmetry_space_group_name_H-M   'P 1'
_cell_length_a   18.97425928
_cell_length_b   18.96847779
_cell_length_c   18.98769679
_cell_angle_alpha   89.99924048
_cell_angle_beta   89.99982268
_cell_angle_gamma   89.99990675
_symmetry_Int_Tables_number   1
_chemical_formula_structural   Cs27Sn14Pb13I81
_chemical_formula_sum   'Cs27 Sn14 Pb13 I81'
_cell_volume   6833.91541583
_cell_formula_units_Z   1
loop_
 _symmetry_equiv_pos_site_id
 _symmetry_equiv_pos_as_xyz
  1  'x, y, z'
loop_
 _atom_site_type_symbol
 _atom_site_label
 _atom_site_symmetry_multiplicity
 _atom_site_fract_x
 _atom_site_fract_y
 _atom_site_fract_z
 _atom_site_occupancy
  Cs  Cs0  1  0.00767090  0.00117842  -0.00065141  1
  Cs  Cs1  1  0.00059296  0.00085769  0.33151817  1
  Cs  Cs2  1  0.00065810  0.00605037  0.66923526  1
  Cs  Cs3  1  0.00025630  0.33367621  -0.00150356  1
  Cs  Cs4  1  0.00253290  0.33255357  0.33901873  1
  Cs  Cs5  1  -0.00664167  0.32736888  0.66074785  1
  Cs  Cs6  1  0.00274267  0.66637772  0.00112357  1
  Cs  Cs7  1  -0.00067968  0.66730245  0.33181831  1
  Cs  Cs8  1  -0.00004491  0.66594623  0.66585505  1
  Cs  Cs9  1  0.33050006  0.00015930  -0.00096316  1
  Cs  Cs10  1  0.33563052  0.00032827  0.33227676  1
  Cs  Cs11  1  0.33657638  -0.00127166  0.66905322  1
  Cs  Cs12  1  0.33361202  0.33594781  0.00044216  1
  Cs  Cs13  1  0.33158270  0.33578160  0.33635899  1
  Cs  Cs14  1  0.33193281  0.33698228  0.66165657  1
  Cs  Cs15  1  0.32973685  0.66412633  -0.00071077  1
  Cs  Cs16  1  0.33407855  0.66537023  0.33527494  1
  Cs  Cs17  1  0.33265404  0.66614548  0.66513573  1
  Cs  Cs18  1  0.66561222  -0.00066499  0.00097218  1
  Cs  Cs19  1  0.66574218  -0.00157382  0.33297280  1
  Cs  Cs20  1  0.66409752  -0.00116682  0.66663392  1
  Cs  Cs21  1  0.66676724  0.33446309  0.00016460  1
  Cs  Cs22  1  0.66616566  0.33247000  0.33031860  1
  Cs  Cs23  1  0.67557951  0.33813195  0.66985676  1
  Cs  Cs24  1  0.66699844  0.66607176  0.00079409  1
  Cs  Cs25  1  0.66693818  0.66929687  0.33166599  1
  Cs  Cs26  1  0.66774488  0.66649462  0.66878092  1
  Sn  Sn27  1  0.50015151  0.83368169  0.49995897  1
  Sn  Sn28  1  0.50006131  0.16647479  0.83332252  1
  Sn  Sn29  1  0.50055693  0.16617842  0.50017679  1
  Sn  Sn30  1  0.50028356  0.83392774  0.16617927  1
  Sn  Sn31  1  0.83433557  0.49994109  0.16666150  1
  Sn  Sn32  1  0.50060474  0.16572485  0.16648161  1
  Sn  Sn33  1  0.16577069  0.50008608  0.16608142  1
  Sn  Sn34  1  0.83346457  0.83360056  0.50011426  1
  Sn  Sn35  1  0.50056734  0.83371705  0.83385191  1
  Sn  Sn36  1  0.83298091  0.83387148  0.16607829  1
  Sn  Sn37  1  0.83286959  0.16607181  0.16642876  1
  Sn  Sn38  1  0.16619639  0.49951406  0.83319616  1
  Sn  Sn39  1  0.83298305  0.83357295  0.83393047  1
  Sn  Sn40  1  0.16660959  0.83382151  0.49991977  1
  Pb  Pb41  1  0.83306322  0.50229439  0.49731101  1
  Pb  Pb42  1  0.16680195  0.83210206  0.83115853  1
  Pb  Pb43  1  0.16942459  0.16954837  0.83318848  1
  Pb  Pb44  1  0.50059642  0.50001208  0.50013284  1
  Pb  Pb45  1  0.16702389  0.83179618  0.16834630  1
  Pb  Pb46  1  0.50024336  0.50002292  0.16666550  1
  Pb  Pb47  1  0.83110078  0.16414245  0.83584155  1
  Pb  Pb48  1  0.83549828  0.50228726  0.83556001  1
  Pb  Pb49  1  0.16638084  0.50186425  0.50004110  1
  Pb  Pb50  1  0.16710768  0.16929767  0.16666238  1
  Pb  Pb51  1  0.83065058  0.16400537  0.49767593  1
  Pb  Pb52  1  0.49846153  0.50017514  0.83332588  1
  Pb  Pb53  1  0.16926260  0.16369227  0.49998814  1
  I  I54  1  0.16454580  -0.00004741  0.16820609  1
  I  I55  1  0.16430981  -0.00440912  0.49927843  1
  I  I56  1  0.16523925  -0.00010433  0.83206260  1
  I  I57  1  0.16389689  0.33728391  0.16321549  1
  I  I58  1  0.16991476  0.33321319  0.49919778  1
  I  I59  1  0.16936819  0.33732769  0.84009745  1
  I  I60  1  0.16315386  0.66399196  0.16413546  1
  I  I61  1  0.17053972  0.67011438  0.49920424  1
  I  I62  1  0.16888224  0.66447810  0.83796471  1
  I  I63  1  0.50696767  -0.00092323  0.16766358  1
  I  I64  1  0.49983625  -0.00180287  0.49912017  1
  I  I65  1  0.50294057  -0.00149624  0.83314371  1
  I  I66  1  0.50298692  0.32996937  0.16673107  1
  I  I67  1  0.49789576  0.32972400  0.49776034  1
  I  I68  1  0.49695609  0.33007206  0.83518772  1
  I  I69  1  0.50301611  0.67018906  0.16733349  1
  I  I70  1  0.49950599  0.67125746  0.49905083  1
  I  I71  1  0.50268154  0.67055538  0.83340434  1
  I  I72  1  0.82686909  -0.00136147  0.16812099  1
  I  I73  1  0.83483597  -0.00457243  0.49738814  1
  I  I74  1  0.83250140  -0.00432027  0.83432986  1
  I  I75  1  0.83127934  0.33299423  0.16593266  1
  I  I76  1  0.83215868  0.33280489  0.49878878  1
  I  I77  1  0.83186628  0.33315091  0.83523431  1
  I  I78  1  0.83301545  0.66833049  0.16747808  1
  I  I79  1  0.82971769  0.67139885  0.49760566  1
  I  I80  1  0.82618733  0.67076895  0.83467204  1
  I  I81  1  0.16961976  0.16332890  0.00010378  1
  I  I82  1  0.16923724  0.16953738  0.33320828  1
  I  I83  1  0.16747418  0.16956726  0.66658340  1
  I  I84  1  0.16412832  0.50291550  0.00106748  1
  I  I85  1  0.16312100  0.50135133  0.33052916  1
  I  I86  1  0.17132621  0.50375442  0.66904273  1
  I  I87  1  0.16708457  0.83275389  -0.00001484  1
  I  I88  1  0.16791768  0.83018686  0.33616021  1
  I  I89  1  0.16822100  0.82938602  0.66344387  1
  I  I90  1  0.50358865  0.16042397  0.00072836  1
  I  I91  1  0.50354970  0.15974880  0.33266118  1
  I  I92  1  0.49673163  0.15767482  0.66661215  1
  I  I93  1  0.50044195  0.50087597  0.00023009  1
  I  I94  1  0.49677215  0.50120681  0.33304222  1
  I  I95  1  0.49535977  0.50134479  0.66679534  1
  I  I96  1  0.50703893  0.83845049  0.00039696  1
  I  I97  1  0.50217855  0.83772099  0.33304811  1
  I  I98  1  0.50189468  0.83832848  0.66656251  1
  I  I99  1  0.82671940  0.16500009  0.00391696  1
  I  I100  1  0.82759792  0.16496929  0.32953832  1
  I  I101  1  0.83288927  0.16634536  0.66669980  1
  I  I102  1  0.83398023  0.50329866  0.00377610  1
  I  I103  1  0.83926736  0.50255728  0.32882110  1
  I  I104  1  0.83474075  0.50151721  0.66686923  1
  I  I105  1  0.82554107  0.83206980  0.00119573  1
  I  I106  1  0.83037721  0.83220947  0.33241018  1
  I  I107  1  0.82947777  0.83189122  0.66656694  1
  I  I108  1  -0.00320342  0.16219569  0.16642628  1
  I  I109  1  -0.00047324  0.16559727  0.49805689  1
  I  I110  1  -0.00035986  0.16502880  0.83563172  1
  I  I111  1  -0.00096842  0.50287882  0.16250362  1
  I  I112  1  -0.00018350  0.50327517  0.50089260  1
  I  I113  1  0.00305702  0.50452475  0.83710962  1
  I  I114  1  -0.00333767  0.83505818  0.16719486  1
  I  I115  1  -0.00101297  0.82930373  0.49826039  1
  I  I116  1  -0.00285761  0.82991472  0.83450480  1
  I  I117  1  0.33727592  0.16223764  0.16693103  1
  I  I118  1  0.33778988  0.16097567  0.49622259  1
  I  I119  1  0.33805718  0.15809212  0.83688967  1
  I  I120  1  0.33103116  0.50108707  0.16346603  1
  I  I121  1  0.33327069  0.50305683  0.49679402  1
  I  I122  1  0.33068785  0.50272162  0.84128495  1
  I  I123  1  0.33676239  0.83636559  0.16698865  1
  I  I124  1  0.33500910  0.83586861  0.49973680  1
  I  I125  1  0.33680021  0.83559136  0.83335835  1
  I  I126  1  0.66573376  0.16764610  0.16726779  1
  I  I127  1  0.66259442  0.15928264  0.50100382  1
  I  I128  1  0.66271077  0.16516756  0.83138064  1
  I  I129  1  0.66960337  0.50152758  0.16775986  1
  I  I130  1  0.66690531  0.50315414  0.49846135  1
  I  I131  1  0.66697525  0.49913528  0.83429543  1
  I  I132  1  0.66688433  0.83127767  0.17034799  1
  I  I133  1  0.66605835  0.83658906  0.49870652  1
  I  I134  1  0.66575535  0.83561540  0.83009474  1
