# generated using pymatgen
data_Cs27Sn13Pb14I81
_symmetry_space_group_name_H-M   'P 1'
_cell_length_a   19.05152603
_cell_length_b   19.05390657
_cell_length_c   19.04306739
_cell_angle_alpha   89.99932246
_cell_angle_beta   89.99915747
_cell_angle_gamma   90.00106641
_symmetry_Int_Tables_number   1
_chemical_formula_structural   Cs27Sn13Pb14I81
_chemical_formula_sum   'Cs27 Sn13 Pb14 I81'
_cell_volume   6912.74765764
_cell_formula_units_Z   1
loop_
 _symmetry_equiv_pos_site_id
 _symmetry_equiv_pos_as_xyz
  1  'x, y, z'
loop_
 _atom_site_type_symbol
 _atom_site_label
 _atom_site_symmetry_multiplicity
 _atom_site_fract_x
 _atom_site_fract_y
 _atom_site_fract_z
 _atom_site_occupancy
  Cs  Cs0  1  0.00216110  -0.00412590  0.00123376  1
  Cs  Cs1  1  -0.00043107  0.00051041  0.33384051  1
  Cs  Cs2  1  -0.00175697  0.00168861  0.66514072  1
  Cs  Cs3  1  0.00286784  0.33389423  0.00082387  1
  Cs  Cs4  1  -0.00337456  0.33209389  0.33195634  1
  Cs  Cs5  1  0.00081741  0.33109319  0.67091196  1
  Cs  Cs6  1  -0.00042433  0.67054188  0.00136346  1
  Cs  Cs7  1  -0.00006250  0.66750836  0.33173325  1
  Cs  Cs8  1  0.00000423  0.66594338  0.67096795  1
  Cs  Cs9  1  0.33899425  0.00109610  -0.00346991  1
  Cs  Cs10  1  0.33328882  -0.00386219  0.33597270  1
  Cs  Cs11  1  0.33591634  0.00094184  0.66644873  1
  Cs  Cs12  1  0.33059212  0.33167357  -0.01112446  1
  Cs  Cs13  1  0.33115102  0.33699806  0.33442646  1
  Cs  Cs14  1  0.33497464  0.33940953  0.67825464  1
  Cs  Cs15  1  0.33376061  0.67069087  0.00497291  1
  Cs  Cs16  1  0.33594606  0.66722021  0.34011768  1
  Cs  Cs17  1  0.34208899  0.65565390  0.65010627  1
  Cs  Cs18  1  0.65188935  0.00109505  -0.00015004  1
  Cs  Cs19  1  0.66648288  0.00334663  0.33151094  1
  Cs  Cs20  1  0.67037891  -0.00167048  0.66851245  1
  Cs  Cs21  1  0.66038787  0.33080225  0.00219143  1
  Cs  Cs22  1  0.67000307  0.33118022  0.33225035  1
  Cs  Cs23  1  0.66778279  0.33455469  0.66482947  1
  Cs  Cs24  1  0.66694938  0.66975553  -0.01066534  1
  Cs  Cs25  1  0.66848486  0.66442329  0.33321425  1
  Cs  Cs26  1  0.66191118  0.66650069  0.68160681  1
  Sn  Sn27  1  0.16685517  0.16704992  0.49937500  1
  Sn  Sn28  1  0.83355671  0.16668490  0.50062623  1
  Sn  Sn29  1  0.83340467  0.83268529  0.49919254  1
  Sn  Sn30  1  0.83399623  0.16620179  0.83366637  1
  Sn  Sn31  1  0.83325409  0.50125150  0.16715910  1
  Sn  Sn32  1  0.16675753  0.16635222  0.16751213  1
  Sn  Sn33  1  0.16653549  0.50024775  0.16705868  1
  Sn  Sn34  1  0.49953701  0.16711338  0.49927933  1
  Sn  Sn35  1  0.16590595  0.83345731  0.16634037  1
  Sn  Sn36  1  0.50014666  0.49990316  0.16707721  1
  Sn  Sn37  1  0.83353484  0.83282154  0.16742883  1
  Sn  Sn38  1  0.16684301  0.83300835  0.83280941  1
  Sn  Sn39  1  0.83371794  0.50060020  0.49939130  1
  Pb  Pb40  1  0.16643008  0.50354849  0.83588205  1
  Pb  Pb41  1  0.49979204  0.50002538  0.83645100  1
  Pb  Pb42  1  0.50337614  0.49751886  0.49754338  1
  Pb  Pb43  1  0.16470307  0.16450470  0.83325500  1
  Pb  Pb44  1  0.50287645  0.16670822  0.83010551  1
  Pb  Pb45  1  0.16461699  0.83506521  0.49973592  1
  Pb  Pb46  1  0.49616911  0.16912157  0.16935677  1
  Pb  Pb47  1  0.83371657  0.49761408  0.83433339  1
  Pb  Pb48  1  0.50034166  0.83103585  0.16720095  1
  Pb  Pb49  1  0.83488741  0.83573434  0.83418976  1
  Pb  Pb50  1  0.83487495  0.16615295  0.16648256  1
  Pb  Pb51  1  0.16372420  0.49732282  0.49771693  1
  Pb  Pb52  1  0.50377461  0.83541417  0.49967415  1
  Pb  Pb53  1  0.49565736  0.83329515  0.83289231  1
  I  I54  1  0.15751695  -0.00035982  0.16735169  1
  I  I55  1  0.16263850  0.00319434  0.49228813  1
  I  I56  1  0.16377449  -0.00227752  0.84325096  1
  I  I57  1  0.16459344  0.33347041  0.17507058  1
  I  I58  1  0.16236533  0.32943154  0.49224421  1
  I  I59  1  0.16727200  0.33350241  0.83402102  1
  I  I60  1  0.16468914  0.66666950  0.15829995  1
  I  I61  1  0.16616648  0.66652952  0.50142909  1
  I  I62  1  0.16090790  0.67076803  0.84183292  1
  I  I63  1  0.50178860  0.00008673  0.16563185  1
  I  I64  1  0.50180889  0.00353292  0.49869396  1
  I  I65  1  0.50154048  0.00028430  0.83637513  1
  I  I66  1  0.50595139  0.33624922  0.16890815  1
  I  I67  1  0.50378349  0.33012856  0.49748861  1
  I  I68  1  0.49804465  0.33306310  0.83434646  1
  I  I69  1  0.49339148  0.66355772  0.16864964  1
  I  I70  1  0.49783489  0.66631395  0.49993056  1
  I  I71  1  0.50442980  0.66672603  0.83229943  1
  I  I72  1  0.84146274  -0.00273503  0.17080440  1
  I  I73  1  0.83397212  0.00075863  0.49993290  1
  I  I74  1  0.83574442  0.00279125  0.82523922  1
  I  I75  1  0.83454634  0.33580796  0.17013556  1
  I  I76  1  0.83288100  0.33277373  0.49851657  1
  I  I77  1  0.83516238  0.33019843  0.82632455  1
  I  I78  1  0.83974387  0.66642551  0.17714381  1
  I  I79  1  0.83581400  0.66655741  0.49010275  1
  I  I80  1  0.83303133  0.66674107  0.82893112  1
  I  I81  1  0.16260463  0.17132028  0.00307383  1
  I  I82  1  0.16180071  0.16435785  0.33316958  1
  I  I83  1  0.16676914  0.16243177  0.66344300  1
  I  I84  1  0.16241350  0.48999521  0.00495816  1
  I  I85  1  0.16955455  0.50718398  0.32937295  1
  I  I86  1  0.16550655  0.49960555  0.66658197  1
  I  I87  1  0.15752412  0.83475645  0.00287806  1
  I  I88  1  0.16464901  0.83114480  0.32982886  1
  I  I89  1  0.16194101  0.84097951  0.66869968  1
  I  I90  1  0.50172977  0.16781913  -0.00006455  1
  I  I91  1  0.51109583  0.16666362  0.33624303  1
  I  I92  1  0.49214323  0.16767420  0.66253775  1
  I  I93  1  0.50463177  0.49812895  0.00465925  1
  I  I94  1  0.49554706  0.50001169  0.33027507  1
  I  I95  1  0.50069275  0.49979910  0.66635674  1
  I  I96  1  0.50853453  0.83397216  0.00032683  1
  I  I97  1  0.49195181  0.83409379  0.33325334  1
  I  I98  1  0.50026290  0.83297272  0.66641324  1
  I  I99  1  0.83899633  0.16784237  -0.00185873  1
  I  I100  1  0.83138915  0.16710166  0.33642999  1
  I  I101  1  0.83623482  0.16617683  0.66376031  1
  I  I102  1  0.83412967  0.50471330  0.00398008  1
  I  I103  1  0.83404184  0.49643865  0.33246079  1
  I  I104  1  0.83290473  0.50193936  0.66370001  1
  I  I105  1  0.83658119  0.82733324  0.00350973  1
  I  I106  1  0.84104688  0.83582944  0.33274498  1
  I  I107  1  0.83527251  0.83261603  0.66395955  1
  I  I108  1  0.00240457  0.17159625  0.17285471  1
  I  I109  1  -0.00093225  0.16620243  0.49956799  1
  I  I110  1  -0.00236561  0.16704406  0.82380474  1
  I  I111  1  -0.00017615  0.50022033  0.17162635  1
  I  I112  1  -0.00377228  0.49676880  0.49205548  1
  I  I113  1  -0.00007107  0.49807596  0.83504157  1
  I  I114  1  0.00000134  0.82767236  0.16697731  1
  I  I115  1  -0.00326458  0.83774152  0.49743753  1
  I  I116  1  0.00196361  0.83493930  0.83749649  1
  I  I117  1  0.32848541  0.16419443  0.17257592  1
  I  I118  1  0.33258156  0.16415585  0.48948409  1
  I  I119  1  0.33336457  0.16560731  0.83347290  1
  I  I120  1  0.33236110  0.49847924  0.16471107  1
  I  I121  1  0.33344597  0.49901769  0.49922734  1
  I  I122  1  0.33300205  0.49694348  0.83387964  1
  I  I123  1  0.33004624  0.83389387  0.15986533  1
  I  I124  1  0.33352113  0.83612645  0.50069113  1
  I  I125  1  0.32833668  0.83835651  0.84746245  1
  I  I126  1  0.66636635  0.16643916  0.16539277  1
  I  I127  1  0.66850716  0.16721840  0.50662504  1
  I  I128  1  0.67057065  0.16515496  0.82838479  1
  I  I129  1  0.66834683  0.50418157  0.17334883  1
  I  I130  1  0.67097107  0.49573579  0.49095885  1
  I  I131  1  0.66702015  0.50055965  0.83554023  1
  I  I132  1  0.67015412  0.82947751  0.17285636  1
  I  I133  1  0.67203098  0.83740423  0.49071735  1
  I  I134  1  0.66652403  0.83430444  0.83329364  1
