# generated using pymatgen
data_Cs27Sn14Pb13I81
_symmetry_space_group_name_H-M   'P 1'
_cell_length_a   18.98078856
_cell_length_b   18.96837456
_cell_length_c   18.97776333
_cell_angle_alpha   90.00152921
_cell_angle_beta   90.00066503
_cell_angle_gamma   90.00215062
_symmetry_Int_Tables_number   1
_chemical_formula_structural   Cs27Sn14Pb13I81
_chemical_formula_sum   'Cs27 Sn14 Pb13 I81'
_cell_volume   6832.65344987
_cell_formula_units_Z   1
loop_
 _symmetry_equiv_pos_site_id
 _symmetry_equiv_pos_as_xyz
  1  'x, y, z'
loop_
 _atom_site_type_symbol
 _atom_site_label
 _atom_site_symmetry_multiplicity
 _atom_site_fract_x
 _atom_site_fract_y
 _atom_site_fract_z
 _atom_site_occupancy
  Cs  Cs0  1  -0.00124627  0.00130516  -0.00406288  1
  Cs  Cs1  1  -0.00250105  0.00143331  0.33409446  1
  Cs  Cs2  1  -0.00136855  -0.00106082  0.66974271  1
  Cs  Cs3  1  -0.00054553  0.33320390  0.00090659  1
  Cs  Cs4  1  0.00215097  0.33272462  0.33364616  1
  Cs  Cs5  1  -0.00163575  0.33446193  0.66579344  1
  Cs  Cs6  1  0.00384108  0.66559119  0.00128067  1
  Cs  Cs7  1  0.00082677  0.66568603  0.33232658  1
  Cs  Cs8  1  0.00004317  0.66690533  0.66645560  1
  Cs  Cs9  1  0.33468199  0.00363063  -0.00008462  1
  Cs  Cs10  1  0.33459271  0.00709303  0.33255839  1
  Cs  Cs11  1  0.33565698  -0.00371961  0.66737598  1
  Cs  Cs12  1  0.33417184  0.33239044  0.00061533  1
  Cs  Cs13  1  0.33154965  0.32584534  0.33900072  1
  Cs  Cs14  1  0.34188432  0.33272581  0.65955843  1
  Cs  Cs15  1  0.32758153  0.66623232  0.00076818  1
  Cs  Cs16  1  0.33198167  0.66582725  0.33221564  1
  Cs  Cs17  1  0.33343602  0.67075105  0.66549155  1
  Cs  Cs18  1  0.66665288  -0.00038229  0.00193714  1
  Cs  Cs19  1  0.66815048  -0.00354574  0.33206464  1
  Cs  Cs20  1  0.66865777  0.00001495  0.66642667  1
  Cs  Cs21  1  0.66609613  0.33476079  -0.00374800  1
  Cs  Cs22  1  0.66775683  0.33460043  0.33522868  1
  Cs  Cs23  1  0.66085193  0.34062883  0.66930087  1
  Cs  Cs24  1  0.66580846  0.66568081  0.00318360  1
  Cs  Cs25  1  0.66605740  0.66967761  0.33054150  1
  Cs  Cs26  1  0.66627277  0.66325385  0.66661753  1
  Sn  Sn27  1  0.16632284  0.16847608  0.83290153  1
  Sn  Sn28  1  0.50036852  0.83332537  0.50037290  1
  Sn  Sn29  1  0.16721125  0.50001660  0.16618211  1
  Sn  Sn30  1  0.83391760  0.16642567  0.83278771  1
  Sn  Sn31  1  0.16665381  0.49812787  0.83327736  1
  Sn  Sn32  1  0.49922647  0.49971623  0.16681618  1
  Sn  Sn33  1  0.50146379  0.83317231  0.83335155  1
  Sn  Sn34  1  0.83338630  0.16632347  0.50081161  1
  Sn  Sn35  1  0.16637654  0.83369292  0.16769602  1
  Sn  Sn36  1  0.83350138  0.16772340  0.16636058  1
  Sn  Sn37  1  0.16630806  0.83352040  0.49844933  1
  Sn  Sn38  1  0.83229424  0.83339154  0.83283309  1
  Sn  Sn39  1  0.83348521  0.49905227  0.16652049  1
  Sn  Sn40  1  0.83341843  0.83376889  0.50093041  1
  Pb  Pb41  1  0.16630820  0.83349090  0.83335606  1
  Pb  Pb42  1  0.49691841  0.50274914  0.83518256  1
  Pb  Pb43  1  0.50312739  0.16961916  0.16662392  1
  Pb  Pb44  1  0.49716462  0.83204141  0.16657825  1
  Pb  Pb45  1  0.16444973  0.16394239  0.50316038  1
  Pb  Pb46  1  0.50049132  0.16456801  0.83331166  1
  Pb  Pb47  1  0.83499074  0.50028383  0.83529101  1
  Pb  Pb48  1  0.50328409  0.16393604  0.50006367  1
  Pb  Pb49  1  0.83523611  0.83338898  0.16633769  1
  Pb  Pb50  1  0.16474360  0.16696825  0.16500764  1
  Pb  Pb51  1  0.83336832  0.50035908  0.49753581  1
  Pb  Pb52  1  0.16663259  0.50168812  0.50002113  1
  Pb  Pb53  1  0.49998469  0.50266198  0.49738150  1
  I  I54  1  0.16444234  -0.00237186  0.16851824  1
  I  I55  1  0.16844268  -0.00440757  0.49482622  1
  I  I56  1  0.16425983  0.00182754  0.83352837  1
  I  I57  1  0.16705423  0.33640546  0.16281131  1
  I  I58  1  0.16441942  0.33281768  0.49723483  1
  I  I59  1  0.15880056  0.33333870  0.84178516  1
  I  I60  1  0.16369843  0.66588468  0.16383194  1
  I  I61  1  0.16332845  0.67058653  0.50120216  1
  I  I62  1  0.16671838  0.66502049  0.83596481  1
  I  I63  1  0.49976902  -0.00011882  0.16682533  1
  I  I64  1  0.49691577  -0.00441649  0.50289055  1
  I  I65  1  0.49815924  -0.00377456  0.83034165  1
  I  I66  1  0.49399402  0.33765206  0.16508914  1
  I  I67  1  0.50113857  0.33324459  0.49887413  1
  I  I68  1  0.50246254  0.33366078  0.83512951  1
  I  I69  1  0.50555710  0.66412260  0.16679516  1
  I  I70  1  0.50316811  0.67105892  0.50420255  1
  I  I71  1  0.50505904  0.67069462  0.82916914  1
  I  I72  1  0.83622424  0.00228288  0.16648282  1
  I  I73  1  0.83375247  -0.00107429  0.49800397  1
  I  I74  1  0.83646108  -0.00003275  0.83513499  1
  I  I75  1  0.83560452  0.33322396  0.16646039  1
  I  I76  1  0.83475593  0.33021451  0.50170393  1
  I  I77  1  0.83680188  0.33045341  0.83184530  1
  I  I78  1  0.83300447  0.66432702  0.16652456  1
  I  I79  1  0.83350868  0.67054912  0.50346785  1
  I  I80  1  0.83205095  0.66975829  0.82979023  1
  I  I81  1  0.15976333  0.16375661  -0.00282365  1
  I  I82  1  0.16484653  0.16825738  0.33360992  1
  I  I83  1  0.15961838  0.17009225  0.67094257  1
  I  I84  1  0.16548654  0.50451931  0.00125585  1
  I  I85  1  0.16562732  0.50428072  0.32981945  1
  I  I86  1  0.16436625  0.49933988  0.66969295  1
  I  I87  1  0.16579248  0.83090433  0.00183304  1
  I  I88  1  0.16533329  0.82633678  0.33335415  1
  I  I89  1  0.16645545  0.83355966  0.66451758  1
  I  I90  1  0.50229255  0.16187409  -0.00003564  1
  I  I91  1  0.50055833  0.16421587  0.33332171  1
  I  I92  1  0.50035403  0.16930951  0.66670175  1
  I  I93  1  0.50288079  0.50371385  0.00308281  1
  I  I94  1  0.49861083  0.50339408  0.32932302  1
  I  I95  1  0.49904077  0.49917306  0.66681296  1
  I  I96  1  0.50392728  0.83222198  -0.00248692  1
  I  I97  1  0.50391610  0.83101361  0.33605610  1
  I  I98  1  0.49744507  0.83355891  0.66640999  1
  I  I99  1  0.83762430  0.16559618  -0.00078618  1
  I  I100  1  0.83260447  0.16538031  0.33348413  1
  I  I101  1  0.83890481  0.15828158  0.66734514  1
  I  I102  1  0.83269107  0.49748367  0.00354427  1
  I  I103  1  0.83665360  0.49751730  0.32907371  1
  I  I104  1  0.83553039  0.49863492  0.66682968  1
  I  I105  1  0.83109941  0.83646810  -0.00262440  1
  I  I106  1  0.83135498  0.83585103  0.33577038  1
  I  I107  1  0.83553149  0.84085250  0.66655740  1
  I  I108  1  -0.00347588  0.17098702  0.16814197  1
  I  I109  1  -0.00362584  0.16012794  0.49737779  1
  I  I110  1  -0.00145243  0.16282448  0.83448077  1
  I  I111  1  0.00059438  0.50112797  0.16291941  1
  I  I112  1  -0.00007430  0.50425080  0.49712255  1
  I  I113  1  0.00280714  0.50264970  0.84025761  1
  I  I114  1  0.00290390  0.82745137  0.16916996  1
  I  I115  1  -0.00084609  0.83650416  0.50056225  1
  I  I116  1  -0.00250628  0.83478733  0.83083502  1
  I  I117  1  0.33313605  0.16586888  0.16444487  1
  I  I118  1  0.33322939  0.16560368  0.50036060  1
  I  I119  1  0.33051364  0.16751535  0.83606453  1
  I  I120  1  0.33195348  0.50893516  0.16151233  1
  I  I121  1  0.33324283  0.50263586  0.49852478  1
  I  I122  1  0.32907593  0.49730439  0.84061974  1
  I  I123  1  0.32928951  0.82683954  0.16832641  1
  I  I124  1  0.33322792  0.82974692  0.50184449  1
  I  I125  1  0.33483432  0.83224218  0.83041400  1
  I  I126  1  0.67169474  0.16918364  0.16386939  1
  I  I127  1  0.67156213  0.16063210  0.50127481  1
  I  I128  1  0.67058751  0.16339725  0.83387839  1
  I  I129  1  0.66739185  0.49644900  0.16774612  1
  I  I130  1  0.66683532  0.50196879  0.49774824  1
  I  I131  1  0.66656961  0.49838748  0.83573963  1
  I  I132  1  0.66683585  0.83180802  0.16849849  1
  I  I133  1  0.66764403  0.83749694  0.50417001  1
  I  I134  1  0.66814906  0.83861268  0.82670212  1
