# generated using pymatgen
data_Cs27Sn14Pb13I81
_symmetry_space_group_name_H-M   'P 1'
_cell_length_a   18.98407642
_cell_length_b   18.97350838
_cell_length_c   18.96926052
_cell_angle_alpha   90.00122213
_cell_angle_beta   90.00036866
_cell_angle_gamma   90.00027150
_symmetry_Int_Tables_number   1
_chemical_formula_structural   Cs27Sn14Pb13I81
_chemical_formula_sum   'Cs27 Sn14 Pb13 I81'
_cell_volume   6832.62393489
_cell_formula_units_Z   1
loop_
 _symmetry_equiv_pos_site_id
 _symmetry_equiv_pos_as_xyz
  1  'x, y, z'
loop_
 _atom_site_type_symbol
 _atom_site_label
 _atom_site_symmetry_multiplicity
 _atom_site_fract_x
 _atom_site_fract_y
 _atom_site_fract_z
 _atom_site_occupancy
  Cs  Cs0  1  0.00074764  0.00017997  -0.00343513  1
  Cs  Cs1  1  0.00243657  0.00075757  0.33638238  1
  Cs  Cs2  1  -0.00070096  0.00089344  0.66502949  1
  Cs  Cs3  1  -0.00074156  0.33152188  0.00010230  1
  Cs  Cs4  1  0.00008791  0.33390775  0.33244187  1
  Cs  Cs5  1  -0.00056138  0.33282618  0.66883071  1
  Cs  Cs6  1  -0.00427562  0.67246735  0.00178092  1
  Cs  Cs7  1  0.00056146  0.66421563  0.33213167  1
  Cs  Cs8  1  0.00268146  0.66664263  0.66731820  1
  Cs  Cs9  1  0.33441121  -0.00195364  0.00031582  1
  Cs  Cs10  1  0.33340656  0.00022151  0.33388927  1
  Cs  Cs11  1  0.33213161  0.00059242  0.66300328  1
  Cs  Cs12  1  0.33251317  0.33400334  0.00229025  1
  Cs  Cs13  1  0.33267386  0.33371441  0.33055926  1
  Cs  Cs14  1  0.33412843  0.33962830  0.67043938  1
  Cs  Cs15  1  0.33617549  0.66513723  -0.00599807  1
  Cs  Cs16  1  0.33008650  0.66588770  0.33413608  1
  Cs  Cs17  1  0.33658261  0.65742552  0.67392224  1
  Cs  Cs18  1  0.66423328  -0.00490957  0.00153865  1
  Cs  Cs19  1  0.66380052  0.00110308  0.33544658  1
  Cs  Cs20  1  0.66827781  0.00245596  0.66395229  1
  Cs  Cs21  1  0.66839228  0.33140297  -0.00110686  1
  Cs  Cs22  1  0.66822797  0.33361658  0.33291052  1
  Cs  Cs23  1  0.66715544  0.33262442  0.66805540  1
  Cs  Cs24  1  0.66789007  0.67611096  -0.00013582  1
  Cs  Cs25  1  0.67123053  0.66396289  0.33182678  1
  Cs  Cs26  1  0.66155286  0.66411139  0.66862285  1
  Sn  Sn27  1  0.83232410  0.16711665  0.83339059  1
  Sn  Sn28  1  0.50003755  0.50004415  0.16690471  1
  Sn  Sn29  1  0.16589363  0.16616818  0.16738253  1
  Sn  Sn30  1  0.16686470  0.83378549  0.16723638  1
  Sn  Sn31  1  0.16712533  0.83375789  0.49964109  1
  Sn  Sn32  1  0.83344366  0.16633393  0.49984417  1
  Sn  Sn33  1  0.49949486  0.83350844  0.49974298  1
  Sn  Sn34  1  0.50045720  0.16646521  0.83272994  1
  Sn  Sn35  1  0.83347389  0.49967208  0.83351205  1
  Sn  Sn36  1  0.49962247  0.16655807  0.50084953  1
  Sn  Sn37  1  0.83345039  0.83375391  0.49991917  1
  Sn  Sn38  1  0.83390272  0.16633163  0.16684636  1
  Sn  Sn39  1  0.16727056  0.50011271  0.16661797  1
  Sn  Sn40  1  0.16687091  0.16662722  0.49937393  1
  Pb  Pb41  1  0.83551700  0.83648585  0.16938486  1
  Pb  Pb42  1  0.50004182  0.49952131  0.49808170  1
  Pb  Pb43  1  0.16685498  0.83348784  0.83237112  1
  Pb  Pb44  1  0.50237812  0.49749942  0.83621408  1
  Pb  Pb45  1  0.16679598  0.16659701  0.83298567  1
  Pb  Pb46  1  0.83329914  0.83430752  0.83037199  1
  Pb  Pb47  1  0.49979663  0.16754102  0.16697500  1
  Pb  Pb48  1  0.16656939  0.49978655  0.49830923  1
  Pb  Pb49  1  0.49993443  0.83638901  0.83036253  1
  Pb  Pb50  1  0.16389560  0.49989993  0.83677724  1
  Pb  Pb51  1  0.83352406  0.49812798  0.16466054  1
  Pb  Pb52  1  0.49751826  0.83082524  0.16934796  1
  Pb  Pb53  1  0.83337613  0.49974435  0.50210068  1
  I  I54  1  0.16161043  0.00094477  0.17147301  1
  I  I55  1  0.16627776  0.00099744  0.49235684  1
  I  I56  1  0.16428097  0.00037727  0.83914038  1
  I  I57  1  0.16656058  0.33210831  0.17061383  1
  I  I58  1  0.16574599  0.32962051  0.49583467  1
  I  I59  1  0.16821421  0.33303412  0.83255754  1
  I  I60  1  0.17097809  0.66705019  0.17189361  1
  I  I61  1  0.16511486  0.67009930  0.49529203  1
  I  I62  1  0.16454857  0.66651685  0.83189797  1
  I  I63  1  0.50003740  -0.00007650  0.16405385  1
  I  I64  1  0.50026279  0.00137901  0.50285375  1
  I  I65  1  0.50745823  0.00435050  0.83454328  1
  I  I66  1  0.49389451  0.33510954  0.16847259  1
  I  I67  1  0.50075282  0.32947333  0.50244436  1
  I  I68  1  0.50191482  0.32967030  0.82564316  1
  I  I69  1  0.49547940  0.66317071  0.16840686  1
  I  I70  1  0.49998121  0.66969170  0.49673517  1
  I  I71  1  0.50112504  0.66651721  0.83237853  1
  I  I72  1  0.83677962  0.00472297  0.16136896  1
  I  I73  1  0.83392807  0.00178976  0.50169956  1
  I  I74  1  0.83031725  0.00391623  0.83460808  1
  I  I75  1  0.83848793  0.32968193  0.17167469  1
  I  I76  1  0.83323463  0.32932452  0.49802648  1
  I  I77  1  0.83010640  0.33069060  0.83138320  1
  I  I78  1  0.83413128  0.66696671  0.16590522  1
  I  I79  1  0.83410310  0.66981533  0.50113389  1
  I  I80  1  0.83513317  0.66452280  0.83323475  1
  I  I81  1  0.16344496  0.16691535  0.00337929  1
  I  I82  1  0.16385242  0.16649362  0.33346066  1
  I  I83  1  0.16394514  0.16030927  0.66302732  1
  I  I84  1  0.17142338  0.49746348  0.00494005  1
  I  I85  1  0.16835445  0.49882198  0.32994178  1
  I  I86  1  0.16627141  0.50031368  0.66694755  1
  I  I87  1  0.16578624  0.83458070  0.00340564  1
  I  I88  1  0.16634448  0.83470312  0.33413369  1
  I  I89  1  0.16478603  0.84100170  0.66206307  1
  I  I90  1  0.50348800  0.17088924  -0.00200155  1
  I  I91  1  0.50228453  0.16418972  0.33651109  1
  I  I92  1  0.50372040  0.16310877  0.66525479  1
  I  I93  1  0.49363221  0.49671758  0.00360008  1
  I  I94  1  0.49642020  0.49642078  0.33040352  1
  I  I95  1  0.50088552  0.50209807  0.66696281  1
  I  I96  1  0.49842659  0.83346837  0.00017161  1
  I  I97  1  0.50186480  0.84224417  0.33736219  1
  I  I98  1  0.49769566  0.83397624  0.66190714  1
  I  I99  1  0.83415031  0.17294813  -0.00003968  1
  I  I100  1  0.83374869  0.16307690  0.33417853  1
  I  I101  1  0.83309052  0.16653208  0.66573148  1
  I  I102  1  0.83436119  0.49134838  -0.00291497  1
  I  I103  1  0.83342097  0.49901767  0.33298709  1
  I  I104  1  0.83219914  0.49283404  0.66974950  1
  I  I105  1  0.83553199  0.83375725  0.00017725  1
  I  I106  1  0.83110088  0.83823729  0.33742693  1
  I  I107  1  0.83686681  0.83996218  0.66224631  1
  I  I108  1  0.00070631  0.16938438  0.16955030  1
  I  I109  1  -0.00017916  0.16157539  0.49942963  1
  I  I110  1  -0.00311858  0.17015061  0.83146052  1
  I  I111  1  0.00287547  0.50072909  0.16592856  1
  I  I112  1  -0.00005979  0.49990786  0.49792846  1
  I  I113  1  -0.00354684  0.49089796  0.83324849  1
  I  I114  1  0.00355061  0.82769086  0.17209877  1
  I  I115  1  0.00047370  0.84036616  0.49657558  1
  I  I116  1  -0.00015973  0.83477212  0.83156844  1
  I  I117  1  0.33022207  0.16580940  0.16974309  1
  I  I118  1  0.33304227  0.16043813  0.49880335  1
  I  I119  1  0.33612721  0.16565569  0.83010429  1
  I  I120  1  0.33193996  0.49598464  0.16847006  1
  I  I121  1  0.33329894  0.49920180  0.50154086  1
  I  I122  1  0.33353594  0.49932923  0.83221123  1
  I  I123  1  0.32937248  0.84024018  0.17300207  1
  I  I124  1  0.33268134  0.84227671  0.49457321  1
  I  I125  1  0.33351241  0.83488910  0.83215770  1
  I  I126  1  0.66907576  0.17083149  0.16927066  1
  I  I127  1  0.66710897  0.16140606  0.50013294  1
  I  I128  1  0.66775797  0.17115320  0.82968922  1
  I  I129  1  0.66477872  0.49582882  0.16679889  1
  I  I130  1  0.66670448  0.50053146  0.49573380  1
  I  I131  1  0.66979280  0.49577052  0.83448649  1
  I  I132  1  0.66672674  0.83181964  0.16775911  1
  I  I133  1  0.66666268  0.84099769  0.50134468  1
  I  I134  1  0.66672195  0.83047021  0.83356584  1
