# generated using pymatgen
data_Cs27Sn14Pb13I81
_symmetry_space_group_name_H-M   'P 1'
_cell_length_a   18.97481376
_cell_length_b   18.96840729
_cell_length_c   18.98910648
_cell_angle_alpha   89.99984917
_cell_angle_beta   89.99988735
_cell_angle_gamma   90.00086727
_symmetry_Int_Tables_number   1
_chemical_formula_structural   Cs27Sn14Pb13I81
_chemical_formula_sum   'Cs27 Sn14 Pb13 I81'
_cell_volume   6834.59709942
_cell_formula_units_Z   1
loop_
 _symmetry_equiv_pos_site_id
 _symmetry_equiv_pos_as_xyz
  1  'x, y, z'
loop_
 _atom_site_type_symbol
 _atom_site_label
 _atom_site_symmetry_multiplicity
 _atom_site_fract_x
 _atom_site_fract_y
 _atom_site_fract_z
 _atom_site_occupancy
  Cs  Cs0  1  0.00159138  0.00006427  -0.00054906  1
  Cs  Cs1  1  0.00258052  0.00108519  0.33248190  1
  Cs  Cs2  1  0.00071106  0.00034364  0.66777510  1
  Cs  Cs3  1  0.00024852  0.33295125  -0.00153163  1
  Cs  Cs4  1  -0.00053135  0.33514161  0.33595321  1
  Cs  Cs5  1  0.00017231  0.33401277  0.66798552  1
  Cs  Cs6  1  0.00165330  0.66563878  0.00029708  1
  Cs  Cs7  1  -0.00666604  0.66315884  0.33471163  1
  Cs  Cs8  1  -0.00173358  0.66585131  0.66577330  1
  Cs  Cs9  1  0.33038404  0.00123431  0.00146376  1
  Cs  Cs10  1  0.33120876  0.00136768  0.33262290  1
  Cs  Cs11  1  0.33105824  0.00166161  0.66561476  1
  Cs  Cs12  1  0.33305530  0.33266894  -0.00091538  1
  Cs  Cs13  1  0.33169192  0.33273621  0.33640207  1
  Cs  Cs14  1  0.33269579  0.33409026  0.66542139  1
  Cs  Cs15  1  0.33375311  0.66464615  -0.00025768  1
  Cs  Cs16  1  0.33861513  0.66632445  0.33497227  1
  Cs  Cs17  1  0.33976280  0.66432158  0.66557038  1
  Cs  Cs18  1  0.66803344  -0.00078752  -0.00030007  1
  Cs  Cs19  1  0.66575798  -0.00143551  0.33465840  1
  Cs  Cs20  1  0.66786533  -0.00226333  0.66588533  1
  Cs  Cs21  1  0.66734763  0.33255600  0.00009056  1
  Cs  Cs22  1  0.66906085  0.33571981  0.33220335  1
  Cs  Cs23  1  0.66717285  0.33158784  0.66810846  1
  Cs  Cs24  1  0.65874241  0.67261311  0.00678884  1
  Cs  Cs25  1  0.66777405  0.66571874  0.33376499  1
  Cs  Cs26  1  0.65798463  0.67567096  0.66017976  1
  Sn  Sn27  1  0.16644221  0.16715782  0.16597404  1
  Sn  Sn28  1  0.16661120  0.16695199  0.83392957  1
  Sn  Sn29  1  0.50108809  0.16669082  0.49996511  1
  Sn  Sn30  1  0.83268276  0.16661898  0.50014528  1
  Sn  Sn31  1  0.16657815  0.49962340  0.16613412  1
  Sn  Sn32  1  0.16626962  0.83299222  0.49992846  1
  Sn  Sn33  1  0.49994179  0.16674303  0.16673973  1
  Sn  Sn34  1  0.16639383  0.83276452  0.16702132  1
  Sn  Sn35  1  0.16642472  0.83292125  0.83300146  1
  Sn  Sn36  1  0.83368588  0.16663773  0.16658224  1
  Sn  Sn37  1  0.16578515  0.49978775  0.83405755  1
  Sn  Sn38  1  0.83302161  0.50025138  0.83349550  1
  Sn  Sn39  1  0.49997475  0.16668355  0.83329292  1
  Sn  Sn40  1  0.83348235  0.16729121  0.83339673  1
  Pb  Pb41  1  0.50034341  0.49737666  0.49993386  1
  Pb  Pb42  1  0.16665131  0.50315072  0.50024333  1
  Pb  Pb43  1  0.83548873  0.83554352  0.50000191  1
  Pb  Pb44  1  0.49725111  0.83613381  0.83356192  1
  Pb  Pb45  1  0.49767987  0.83564854  0.16672795  1
  Pb  Pb46  1  0.83323177  0.49798497  0.50321008  1
  Pb  Pb47  1  0.16638137  0.16571719  0.50006290  1
  Pb  Pb48  1  0.49776435  0.49752437  0.16657368  1
  Pb  Pb49  1  0.50067988  0.49809432  0.83339745  1
  Pb  Pb50  1  0.83513418  0.49806551  0.16397602  1
  Pb  Pb51  1  0.83550810  0.83520612  0.16650976  1
  Pb  Pb52  1  0.83499850  0.83259264  0.83345636  1
  Pb  Pb53  1  0.49772980  0.83599278  0.49969374  1
  I  I54  1  0.16702093  0.00154303  0.16410359  1
  I  I55  1  0.16684107  -0.00202006  0.50047112  1
  I  I56  1  0.16721529  0.00138773  0.83560695  1
  I  I57  1  0.16732692  0.33175175  0.15953170  1
  I  I58  1  0.16742802  0.33334566  0.49974375  1
  I  I59  1  0.16656740  0.33193646  0.83954715  1
  I  I60  1  0.16636250  0.66677458  0.16178816  1
  I  I61  1  0.16649575  0.67102949  0.50055640  1
  I  I62  1  0.16068127  0.66629468  0.83683287  1
  I  I63  1  0.49679653  0.00495117  0.16588583  1
  I  I64  1  0.50323218  0.00462215  0.50052702  1
  I  I65  1  0.50043266  0.00521914  0.83371782  1
  I  I66  1  0.49672953  0.32828746  0.16560867  1
  I  I67  1  0.50008082  0.32812854  0.50065146  1
  I  I68  1  0.49398695  0.32871141  0.83360641  1
  I  I69  1  0.49804081  0.66664985  0.16671931  1
  I  I70  1  0.49778106  0.66716940  0.50120011  1
  I  I71  1  0.49957153  0.66676098  0.83196678  1
  I  I72  1  0.83610963  0.00504611  0.16303593  1
  I  I73  1  0.83001527  0.00467666  0.50349631  1
  I  I74  1  0.83439737  0.00405906  0.83332072  1
  I  I75  1  0.83603942  0.32869764  0.16855632  1
  I  I76  1  0.83216896  0.32877213  0.49759688  1
  I  I77  1  0.83955064  0.33054750  0.83311808  1
  I  I78  1  0.83631003  0.66628268  0.16523691  1
  I  I79  1  0.83594438  0.66662409  0.50145391  1
  I  I80  1  0.84322256  0.66331884  0.83353359  1
  I  I81  1  0.16695522  0.16309572  -0.00021237  1
  I  I82  1  0.16706666  0.16575550  0.33027779  1
  I  I83  1  0.16694788  0.16612369  0.66979102  1
  I  I84  1  0.16354897  0.50168167  -0.00087536  1
  I  I85  1  0.16778183  0.49651007  0.33020959  1
  I  I86  1  0.16345677  0.49712628  0.67037340  1
  I  I87  1  0.16643367  0.83618906  -0.00012380  1
  I  I88  1  0.16708778  0.83845087  0.33217843  1
  I  I89  1  0.16598194  0.83734407  0.66790992  1
  I  I90  1  0.49978503  0.16684236  -0.00014809  1
  I  I91  1  0.50023052  0.16601713  0.33281437  1
  I  I92  1  0.50089957  0.16665081  0.66733200  1
  I  I93  1  0.50004904  0.49658859  -0.00009207  1
  I  I94  1  0.49552880  0.49552953  0.33309380  1
  I  I95  1  0.49529998  0.49579579  0.66702999  1
  I  I96  1  0.49824042  0.83623099  0.00004241  1
  I  I97  1  0.49425837  0.83867705  0.33322102  1
  I  I98  1  0.49609976  0.83652379  0.66671380  1
  I  I99  1  0.83289468  0.16963610  -0.00054236  1
  I  I100  1  0.83253644  0.16446359  0.33281762  1
  I  I101  1  0.83212575  0.16975150  0.66779043  1
  I  I102  1  0.83826806  0.49045611  -0.00381973  1
  I  I103  1  0.83657823  0.49694501  0.33312037  1
  I  I104  1  0.84413329  0.49058418  0.67119096  1
  I  I105  1  0.83649257  0.83845098  -0.00011579  1
  I  I106  1  0.83893819  0.83732739  0.33325846  1
  I  I107  1  0.83888644  0.83778942  0.66685639  1
  I  I108  1  0.00131574  0.16548161  0.16418616  1
  I  I109  1  -0.00241804  0.16440260  0.50036813  1
  I  I110  1  0.00101770  0.16621286  0.83517150  1
  I  I111  1  0.00396755  0.49711662  0.16450497  1
  I  I112  1  0.00017814  0.49617157  0.49838253  1
  I  I113  1  0.00177343  0.49322783  0.83657365  1
  I  I114  1  0.00478116  0.83832636  0.16504587  1
  I  I115  1  0.00387206  0.83793311  0.50050833  1
  I  I116  1  0.00433466  0.84064164  0.83440421  1
  I  I117  1  0.33184891  0.16575715  0.16418605  1
  I  I118  1  0.33534148  0.16405758  0.50018187  1
  I  I119  1  0.33194450  0.16569683  0.83547273  1
  I  I120  1  0.32869469  0.49784404  0.15920233  1
  I  I121  1  0.33296688  0.49656522  0.50240952  1
  I  I122  1  0.32976693  0.49912457  0.83698495  1
  I  I123  1  0.32848899  0.83753793  0.16527646  1
  I  I124  1  0.32945681  0.83758659  0.50051489  1
  I  I125  1  0.32820408  0.83392798  0.83425198  1
  I  I126  1  0.66687456  0.16695669  0.16351598  1
  I  I127  1  0.66680159  0.16707089  0.50084561  1
  I  I128  1  0.66734765  0.17209098  0.83554767  1
  I  I129  1  0.66688429  0.49702855  0.16524712  1
  I  I130  1  0.66697581  0.50117989  0.50148766  1
  I  I131  1  0.66991470  0.48926540  0.83217529  1
  I  I132  1  0.66656864  0.83543819  0.16675555  1
  I  I133  1  0.66653742  0.83332092  0.50137728  1
  I  I134  1  0.66648949  0.83410529  0.83173162  1
