# generated using pymatgen
data_Cs27Sn13Pb14I81
_symmetry_space_group_name_H-M   'P 1'
_cell_length_a   18.97520849
_cell_length_b   18.98455377
_cell_length_c   18.97201448
_cell_angle_alpha   90.00220417
_cell_angle_beta   90.00015834
_cell_angle_gamma   90.00060685
_symmetry_Int_Tables_number   1
_chemical_formula_structural   Cs27Sn13Pb14I81
_chemical_formula_sum   'Cs27 Sn13 Pb14 I81'
_cell_volume   6834.40005547
_cell_formula_units_Z   1
loop_
 _symmetry_equiv_pos_site_id
 _symmetry_equiv_pos_as_xyz
  1  'x, y, z'
loop_
 _atom_site_type_symbol
 _atom_site_label
 _atom_site_symmetry_multiplicity
 _atom_site_fract_x
 _atom_site_fract_y
 _atom_site_fract_z
 _atom_site_occupancy
  Cs  Cs0  1  -0.00068835  0.00092901  0.00026930  1
  Cs  Cs1  1  0.00261119  0.00513699  0.33808675  1
  Cs  Cs2  1  0.00111200  -0.00049042  0.66230424  1
  Cs  Cs3  1  0.00121317  0.33264666  0.00638951  1
  Cs  Cs4  1  0.00244049  0.32764783  0.32511517  1
  Cs  Cs5  1  -0.00102077  0.33165297  0.66697301  1
  Cs  Cs6  1  0.00064930  0.66584860  0.00127943  1
  Cs  Cs7  1  0.00046582  0.66699051  0.33183810  1
  Cs  Cs8  1  0.00009477  0.66917037  0.66653889  1
  Cs  Cs9  1  0.33682919  -0.00457277  -0.00149599  1
  Cs  Cs10  1  0.33361190  0.00112658  0.33269128  1
  Cs  Cs11  1  0.32914896  -0.00064673  0.66913371  1
  Cs  Cs12  1  0.33059012  0.33470497  -0.00273421  1
  Cs  Cs13  1  0.33393014  0.33274314  0.33385823  1
  Cs  Cs14  1  0.33634630  0.33541790  0.66756093  1
  Cs  Cs15  1  0.33000564  0.67030796  -0.00635616  1
  Cs  Cs16  1  0.33775900  0.66582732  0.33397352  1
  Cs  Cs17  1  0.32894266  0.66566202  0.67056812  1
  Cs  Cs18  1  0.66509771  -0.00305026  -0.00089661  1
  Cs  Cs19  1  0.66598094  0.00002390  0.33413199  1
  Cs  Cs20  1  0.66898655  0.00230040  0.66683940  1
  Cs  Cs21  1  0.66773763  0.33219279  -0.00090440  1
  Cs  Cs22  1  0.66590980  0.33411621  0.33294702  1
  Cs  Cs23  1  0.66521922  0.33481946  0.66727859  1
  Cs  Cs24  1  0.66807692  0.67118440  0.00132125  1
  Cs  Cs25  1  0.66451786  0.66575799  0.33416810  1
  Cs  Cs26  1  0.66907431  0.66284813  0.66399638  1
  Sn  Sn27  1  0.16625046  0.49976915  0.49948330  1
  Sn  Sn28  1  0.50000553  0.49940347  0.16654297  1
  Sn  Sn29  1  0.83438025  0.16679879  0.83333446  1
  Sn  Sn30  1  0.83341600  0.83335291  0.83368085  1
  Sn  Sn31  1  0.49995890  0.83322660  0.50061089  1
  Sn  Sn32  1  0.50024251  0.16780406  0.16698945  1
  Sn  Sn33  1  0.49980794  0.50008148  0.49942663  1
  Sn  Sn34  1  0.83451681  0.83347576  0.16691352  1
  Sn  Sn35  1  0.16573575  0.83330850  0.16719921  1
  Sn  Sn36  1  0.83413582  0.49954849  0.49987539  1
  Sn  Sn37  1  0.83332242  0.49982692  0.83312780  1
  Sn  Sn38  1  0.50018471  0.16664802  0.49944826  1
  Sn  Sn39  1  0.16585775  0.16685108  0.83334768  1
  Pb  Pb40  1  0.50241680  0.83309160  0.83001145  1
  Pb  Pb41  1  0.16910921  0.16893337  0.50176219  1
  Pb  Pb42  1  0.50022540  0.83309550  0.16812379  1
  Pb  Pb43  1  0.83199811  0.83160476  0.49978602  1
  Pb  Pb44  1  0.83108119  0.16421579  0.16458338  1
  Pb  Pb45  1  0.16381478  0.83520641  0.83502837  1
  Pb  Pb46  1  0.83143505  0.16936145  0.50175676  1
  Pb  Pb47  1  0.16941394  0.16462261  0.16460462  1
  Pb  Pb48  1  0.16354102  0.49816299  0.83141389  1
  Pb  Pb49  1  0.50014075  0.16672601  0.83337892  1
  Pb  Pb50  1  0.83151056  0.50161898  0.16683316  1
  Pb  Pb51  1  0.16945448  0.50180202  0.16860033  1
  Pb  Pb52  1  0.16888049  0.83137850  0.49798666  1
  Pb  Pb53  1  0.50196457  0.50027662  0.83351406  1
  I  I54  1  0.16500351  -0.00306336  0.16651664  1
  I  I55  1  0.16907510  0.00014920  0.50057722  1
  I  I56  1  0.16271817  0.00294812  0.83262815  1
  I  I57  1  0.16646602  0.33327400  0.16638795  1
  I  I58  1  0.16904822  0.33684494  0.50078367  1
  I  I59  1  0.16238875  0.33044014  0.83321791  1
  I  I60  1  0.16509252  0.66953667  0.16645730  1
  I  I61  1  0.16968488  0.66332555  0.50060342  1
  I  I62  1  0.16680504  0.66666991  0.83327415  1
  I  I63  1  0.50029766  0.00201948  0.17086626  1
  I  I64  1  0.50151532  0.00055368  0.49541916  1
  I  I65  1  0.50262097  0.00006201  0.83385550  1
  I  I66  1  0.50093557  0.33361245  0.17521294  1
  I  I67  1  0.50048904  0.33427959  0.49639890  1
  I  I68  1  0.50306865  0.33335111  0.82967180  1
  I  I69  1  0.50151823  0.66438270  0.17279820  1
  I  I70  1  0.50151318  0.66505897  0.49510657  1
  I  I71  1  0.50151675  0.66667430  0.83458605  1
  I  I72  1  0.83298027  -0.00369144  0.16130806  1
  I  I73  1  0.82967861  0.00015885  0.50151976  1
  I  I74  1  0.83522474  -0.00005011  0.83855275  1
  I  I75  1  0.83278249  0.33327323  0.16559030  1
  I  I76  1  0.82949988  0.33754194  0.50575623  1
  I  I77  1  0.83492524  0.33351196  0.82709165  1
  I  I78  1  0.83290062  0.66947438  0.16117753  1
  I  I79  1  0.82897378  0.66334096  0.50560088  1
  I  I80  1  0.83013009  0.66652587  0.83258715  1
  I  I81  1  0.16377424  0.16754337  -0.00312916  1
  I  I82  1  0.16645470  0.16643097  0.33327633  1
  I  I83  1  0.16406550  0.16581382  0.66957994  1
  I  I84  1  0.16783012  0.50016504  0.00003467  1
  I  I85  1  0.16292238  0.50019390  0.33684840  1
  I  I86  1  0.17383899  0.50039970  0.66330954  1
  I  I87  1  0.16831977  0.83266349  0.00296212  1
  I  I88  1  0.16004497  0.83357507  0.33024501  1
  I  I89  1  0.16746454  0.83344007  0.66661277  1
  I  I90  1  0.50075795  0.17079597  0.00270697  1
  I  I91  1  0.50005278  0.16766479  0.33405683  1
  I  I92  1  0.50099939  0.16868385  0.66371656  1
  I  I93  1  0.50255992  0.49478125  0.00302519  1
  I  I94  1  0.50283937  0.49987379  0.33507916  1
  I  I95  1  0.49946058  0.49863337  0.66301820  1
  I  I96  1  0.49886233  0.83394190  0.00008618  1
  I  I97  1  0.50288345  0.83196775  0.33604706  1
  I  I98  1  0.50124041  0.83249137  0.66201065  1
  I  I99  1  0.83402999  0.17201494  -0.00369168  1
  I  I100  1  0.83321559  0.16626584  0.33327648  1
  I  I101  1  0.83387769  0.16174324  0.67008950  1
  I  I102  1  0.83037449  0.49896242  -0.00268776  1
  I  I103  1  0.83172135  0.50369342  0.33616870  1
  I  I104  1  0.82978606  0.50177310  0.66637257  1
  I  I105  1  0.83492211  0.83104076  -0.00055269  1
  I  I106  1  0.83353775  0.82992047  0.33086148  1
  I  I107  1  0.82975364  0.83436330  0.66935789  1
  I  I108  1  -0.00002042  0.16719858  0.16690936  1
  I  I109  1  0.00000090  0.16799665  0.49999248  1
  I  I110  1  -0.00137944  0.16679131  0.83286820  1
  I  I111  1  -0.00001101  0.50036172  0.16813727  1
  I  I112  1  -0.00080827  0.50256000  0.50725295  1
  I  I113  1  -0.00453774  0.50309717  0.82766019  1
  I  I114  1  -0.00097412  0.83120176  0.16179960  1
  I  I115  1  -0.00003151  0.83057586  0.50142599  1
  I  I116  1  -0.00427456  0.83033266  0.83360208  1
  I  I117  1  0.33724596  0.16793398  0.16907003  1
  I  I118  1  0.33738725  0.16878721  0.49887002  1
  I  I119  1  0.33122178  0.16672759  0.83273295  1
  I  I120  1  0.33751453  0.49850116  0.17351394  1
  I  I121  1  0.33496962  0.49977788  0.49480353  1
  I  I122  1  0.33302498  0.49758568  0.83223673  1
  I  I123  1  0.33181078  0.83381746  0.16973042  1
  I  I124  1  0.33710085  0.83135288  0.49645205  1
  I  I125  1  0.33297778  0.83569718  0.83517436  1
  I  I126  1  0.66317581  0.16814155  0.16895972  1
  I  I127  1  0.66308872  0.16877274  0.49901041  1
  I  I128  1  0.66967092  0.16661788  0.83270678  1
  I  I129  1  0.66356697  0.49928978  0.17275959  1
  I  I130  1  0.66579620  0.50051476  0.50117919  1
  I  I131  1  0.67028624  0.49721537  0.82722433  1
  I  I132  1  0.66883817  0.83309945  0.16280185  1
  I  I133  1  0.66378889  0.83040380  0.49798195  1
  I  I134  1  0.67068370  0.83611812  0.84067745  1
