# generated using pymatgen
data_Cs27Sn13Pb14I81
_symmetry_space_group_name_H-M   'P 1'
_cell_length_a   18.97781672
_cell_length_b   18.98109509
_cell_length_c   18.97207532
_cell_angle_alpha   90.00307457
_cell_angle_beta   89.99981715
_cell_angle_gamma   90.00007620
_symmetry_Int_Tables_number   1
_chemical_formula_structural   Cs27Sn13Pb14I81
_chemical_formula_sum   'Cs27 Sn13 Pb14 I81'
_cell_volume   6834.11609953
_cell_formula_units_Z   1
loop_
 _symmetry_equiv_pos_site_id
 _symmetry_equiv_pos_as_xyz
  1  'x, y, z'
loop_
 _atom_site_type_symbol
 _atom_site_label
 _atom_site_symmetry_multiplicity
 _atom_site_fract_x
 _atom_site_fract_y
 _atom_site_fract_z
 _atom_site_occupancy
  Cs  Cs0  1  0.00004421  -0.00643574  -0.00219454  1
  Cs  Cs1  1  0.00250524  0.00411105  0.33511647  1
  Cs  Cs2  1  -0.00105485  -0.00034228  0.66733368  1
  Cs  Cs3  1  -0.00024055  0.33250790  0.00160785  1
  Cs  Cs4  1  -0.00048589  0.33304303  0.33382954  1
  Cs  Cs5  1  -0.00136076  0.33189962  0.66553855  1
  Cs  Cs6  1  -0.00294286  0.67690275  -0.00082134  1
  Cs  Cs7  1  0.00021557  0.66342355  0.33074509  1
  Cs  Cs8  1  0.00026387  0.66949708  0.66828778  1
  Cs  Cs9  1  0.33437458  0.00242593  0.00200193  1
  Cs  Cs10  1  0.33512797  -0.00101494  0.33309858  1
  Cs  Cs11  1  0.33361446  0.00194995  0.66522586  1
  Cs  Cs12  1  0.33629351  0.33290052  -0.00480929  1
  Cs  Cs13  1  0.33158642  0.33419314  0.33328588  1
  Cs  Cs14  1  0.33336273  0.33512463  0.67063303  1
  Cs  Cs15  1  0.32876830  0.66379189  -0.00201434  1
  Cs  Cs16  1  0.33319620  0.66628892  0.33560482  1
  Cs  Cs17  1  0.33588609  0.66303409  0.66532386  1
  Cs  Cs18  1  0.66554344  0.00034170  0.00222183  1
  Cs  Cs19  1  0.65906921  -0.00021617  0.33356742  1
  Cs  Cs20  1  0.66847287  -0.00381689  0.66495727  1
  Cs  Cs21  1  0.66448227  0.33198716  -0.00092192  1
  Cs  Cs22  1  0.66972560  0.33488165  0.33343340  1
  Cs  Cs23  1  0.66892759  0.33355062  0.66705305  1
  Cs  Cs24  1  0.67306669  0.66812319  -0.00103519  1
  Cs  Cs25  1  0.66575827  0.66526837  0.33041834  1
  Cs  Cs26  1  0.66448547  0.66912712  0.66741390  1
  Sn  Sn27  1  0.16599747  0.16762389  0.16717975  1
  Sn  Sn28  1  0.49957562  0.49874441  0.49930569  1
  Sn  Sn29  1  0.83358379  0.16732909  0.83433236  1
  Sn  Sn30  1  0.16565622  0.83317578  0.49980140  1
  Sn  Sn31  1  0.49914073  0.16810775  0.50018979  1
  Sn  Sn32  1  0.49928707  0.49984243  0.16716462  1
  Sn  Sn33  1  0.16732397  0.49898651  0.16710792  1
  Sn  Sn34  1  0.83385867  0.49928938  0.83326297  1
  Sn  Sn35  1  0.83403763  0.83307298  0.49909601  1
  Sn  Sn36  1  0.83406938  0.16668492  0.16592966  1
  Sn  Sn37  1  0.49926841  0.83344755  0.83374084  1
  Sn  Sn38  1  0.16764810  0.16707884  0.49946573  1
  Sn  Sn39  1  0.16713728  0.49971681  0.49956312  1
  Pb  Pb40  1  0.49939114  0.16876851  0.16867687  1
  Pb  Pb41  1  0.83198172  0.83392242  0.83168161  1
  Pb  Pb42  1  0.49963036  0.82993426  0.16380124  1
  Pb  Pb43  1  0.16682150  0.83335047  0.16899584  1
  Pb  Pb44  1  0.16955502  0.83346631  0.83065190  1
  Pb  Pb45  1  0.83342913  0.16518426  0.49963169  1
  Pb  Pb46  1  0.83333163  0.83673764  0.16977211  1
  Pb  Pb47  1  0.16461358  0.16674080  0.83364914  1
  Pb  Pb48  1  0.50186850  0.50127542  0.83337658  1
  Pb  Pb49  1  0.83352643  0.50198152  0.50146742  1
  Pb  Pb50  1  0.16413755  0.49990888  0.83380373  1
  Pb  Pb51  1  0.50238609  0.16490095  0.83061686  1
  Pb  Pb52  1  0.49934072  0.83279530  0.50073754  1
  Pb  Pb53  1  0.83400721  0.49825629  0.16461867  1
  I  I54  1  0.16203643  0.00348153  0.17096387  1
  I  I55  1  0.16660975  0.00106880  0.49704172  1
  I  I56  1  0.16398085  0.00012882  0.83231865  1
  I  I57  1  0.16531706  0.33330467  0.17582380  1
  I  I58  1  0.17090554  0.33334352  0.49600170  1
  I  I59  1  0.16800524  0.33337927  0.82777685  1
  I  I60  1  0.17105901  0.66316769  0.17094694  1
  I  I61  1  0.16722513  0.66556706  0.49706817  1
  I  I62  1  0.16313130  0.66655197  0.83339908  1
  I  I63  1  0.50074432  0.00035789  0.16788162  1
  I  I64  1  0.49818024  0.00209078  0.50213984  1
  I  I65  1  0.50264603  -0.00253875  0.82923263  1
  I  I66  1  0.49926974  0.33664405  0.16804754  1
  I  I67  1  0.49377921  0.33403209  0.49772493  1
  I  I68  1  0.50081982  0.33332481  0.83342485  1
  I  I69  1  0.49501228  0.66188881  0.17484049  1
  I  I70  1  0.49723691  0.66368006  0.49875441  1
  I  I71  1  0.50375813  0.66867607  0.82919914  1
  I  I72  1  0.83943459  0.00472133  0.15992020  1
  I  I73  1  0.83661724  -0.00242834  0.50264064  1
  I  I74  1  0.83215033  0.00276396  0.83514596  1
  I  I75  1  0.83492602  0.33030608  0.16696414  1
  I  I76  1  0.83432935  0.33327380  0.50020836  1
  I  I77  1  0.83225821  0.33260896  0.83442239  1
  I  I78  1  0.83333422  0.66653568  0.16454127  1
  I  I79  1  0.83639868  0.66956644  0.50415777  1
  I  I80  1  0.83148775  0.66492029  0.83115615  1
  I  I81  1  0.16485018  0.17224914  0.00360583  1
  I  I82  1  0.16342192  0.16728010  0.33429224  1
  I  I83  1  0.16871341  0.16706453  0.66300952  1
  I  I84  1  0.17168331  0.49369649  0.00367253  1
  I  I85  1  0.16979030  0.49970504  0.33441987  1
  I  I86  1  0.17037272  0.49964104  0.66309106  1
  I  I87  1  0.16687748  0.83274189  0.00014893  1
  I  I88  1  0.16449233  0.83362639  0.33756899  1
  I  I89  1  0.16243476  0.83355079  0.66197189  1
  I  I90  1  0.49826956  0.16675454  0.00013052  1
  I  I91  1  0.50182999  0.16582579  0.33688763  1
  I  I92  1  0.49518991  0.17199948  0.66243215  1
  I  I93  1  0.49605724  0.50156558  0.00277346  1
  I  I94  1  0.49720363  0.49739172  0.33462498  1
  I  I95  1  0.49643751  0.49867185  0.66351395  1
  I  I96  1  0.50364705  0.83324551  -0.00365597  1
  I  I97  1  0.50093167  0.83508078  0.33343689  1
  I  I98  1  0.50138400  0.83153136  0.66814232  1
  I  I99  1  0.83791984  0.17092659  0.00031309  1
  I  I100  1  0.83525884  0.16518227  0.33107659  1
  I  I101  1  0.83248692  0.16809267  0.66840919  1
  I  I102  1  0.83177657  0.49881750  -0.00306485  1
  I  I103  1  0.83237187  0.49990551  0.33323786  1
  I  I104  1  0.83250102  0.49405591  0.66917410  1
  I  I105  1  0.83157222  0.83144734  0.00005207  1
  I  I106  1  0.83598147  0.83297623  0.33754210  1
  I  I107  1  0.83647507  0.83594948  0.66389155  1
  I  I108  1  0.00118720  0.17295140  0.17025248  1
  I  I109  1  0.00296345  0.16867372  0.49919908  1
  I  I110  1  -0.00348152  0.16950591  0.83082801  1
  I  I111  1  0.00326555  0.49692975  0.17206121  1
  I  I112  1  0.00336644  0.49731051  0.49678329  1
  I  I113  1  -0.00353652  0.49655509  0.83138895  1
  I  I114  1  0.00002651  0.82811719  0.16402425  1
  I  I115  1  0.00118493  0.83427957  0.50153067  1
  I  I116  1  0.00001474  0.83280577  0.83299728  1
  I  I117  1  0.33015124  0.16779606  0.17035498  1
  I  I118  1  0.33204615  0.16379959  0.49491304  1
  I  I119  1  0.33350463  0.16485057  0.83469749  1
  I  I120  1  0.33243664  0.49523961  0.17096406  1
  I  I121  1  0.33281710  0.50210715  0.49732069  1
  I  I122  1  0.33331292  0.50251333  0.83274863  1
  I  I123  1  0.33322269  0.83890304  0.16844870  1
  I  I124  1  0.33035926  0.83360545  0.50183599  1
  I  I125  1  0.33685425  0.83139951  0.83035300  1
  I  I126  1  0.66873193  0.16785126  0.16471585  1
  I  I127  1  0.66442686  0.16851567  0.50050259  1
  I  I128  1  0.67026720  0.17002597  0.83735153  1
  I  I129  1  0.66437519  0.49901140  0.17068700  1
  I  I130  1  0.66377817  0.49735605  0.49750737  1
  I  I131  1  0.66951233  0.49717466  0.83241715  1
  I  I132  1  0.66662659  0.83320853  0.17028007  1
  I  I133  1  0.66807159  0.83479033  0.50340470  1
  I  I134  1  0.66463973  0.83245882  0.82746776  1
