# generated using pymatgen
data_Cs27Sn13Pb14I81
_symmetry_space_group_name_H-M   'P 1'
_cell_length_a   18.97999556
_cell_length_b   18.99022016
_cell_length_c   19.00499339
_cell_angle_alpha   89.99967129
_cell_angle_beta   89.99852556
_cell_angle_gamma   89.99834526
_symmetry_Int_Tables_number   1
_chemical_formula_structural   Cs27Sn13Pb14I81
_chemical_formula_sum   'Cs27 Sn13 Pb14 I81'
_cell_volume   6850.05137596
_cell_formula_units_Z   1
loop_
 _symmetry_equiv_pos_site_id
 _symmetry_equiv_pos_as_xyz
  1  'x, y, z'
loop_
 _atom_site_type_symbol
 _atom_site_label
 _atom_site_symmetry_multiplicity
 _atom_site_fract_x
 _atom_site_fract_y
 _atom_site_fract_z
 _atom_site_occupancy
  Cs  Cs0  1  -0.00386420  -0.00232576  0.00000922  1
  Cs  Cs1  1  0.00017406  0.00042391  0.33448802  1
  Cs  Cs2  1  -0.00223366  -0.00112954  0.66532726  1
  Cs  Cs3  1  0.00598794  0.34210309  -0.00254297  1
  Cs  Cs4  1  0.00788972  0.33948527  0.34459370  1
  Cs  Cs5  1  0.00778211  0.33957467  0.65842340  1
  Cs  Cs6  1  0.00047397  0.66339001  -0.00105997  1
  Cs  Cs7  1  0.00295878  0.66417869  0.33203101  1
  Cs  Cs8  1  0.00056523  0.66621484  0.66826732  1
  Cs  Cs9  1  0.33048650  0.00387696  -0.00159468  1
  Cs  Cs10  1  0.33237739  0.00030899  0.33045114  1
  Cs  Cs11  1  0.33508468  -0.00155031  0.67202302  1
  Cs  Cs12  1  0.33011908  0.32932421  -0.00430925  1
  Cs  Cs13  1  0.33428966  0.33234061  0.33437743  1
  Cs  Cs14  1  0.32831864  0.33148871  0.66952672  1
  Cs  Cs15  1  0.33307018  0.66670722  0.00276185  1
  Cs  Cs16  1  0.33499961  0.66753176  0.33236827  1
  Cs  Cs17  1  0.33570134  0.66982820  0.66513588  1
  Cs  Cs18  1  0.66888379  0.00175273  0.00013221  1
  Cs  Cs19  1  0.66769970  0.00173770  0.33241454  1
  Cs  Cs20  1  0.66734307  -0.00193997  0.66926750  1
  Cs  Cs21  1  0.66613231  0.33224360  0.00261138  1
  Cs  Cs22  1  0.66601481  0.33173451  0.33311911  1
  Cs  Cs23  1  0.66815790  0.33366166  0.66371190  1
  Cs  Cs24  1  0.66750717  0.66542661  0.00140056  1
  Cs  Cs25  1  0.66466225  0.66642576  0.33157609  1
  Cs  Cs26  1  0.66514693  0.66892221  0.66744536  1
  Sn  Sn27  1  0.50075254  0.16652433  0.16727806  1
  Sn  Sn28  1  0.83354195  0.16711606  0.83397118  1
  Sn  Sn29  1  0.50082053  0.83404906  0.16631146  1
  Sn  Sn30  1  0.83385410  0.83319576  0.49958218  1
  Sn  Sn31  1  0.83378747  0.16675611  0.16609598  1
  Sn  Sn32  1  0.16580632  0.83364416  0.83278182  1
  Sn  Sn33  1  0.83238745  0.83390143  0.16680546  1
  Sn  Sn34  1  0.50043973  0.49887162  0.50021070  1
  Sn  Sn35  1  0.50062987  0.49989781  0.83335757  1
  Sn  Sn36  1  0.16589527  0.83377660  0.50070120  1
  Sn  Sn37  1  0.50033788  0.16683014  0.49976395  1
  Sn  Sn38  1  0.83396890  0.83385206  0.83365050  1
  Sn  Sn39  1  0.50045276  0.49939216  0.16631666  1
  Pb  Pb40  1  0.50019321  0.83392093  0.49797767  1
  Pb  Pb41  1  0.16948380  0.50295488  0.83323557  1
  Pb  Pb42  1  0.83168113  0.16494038  0.49967971  1
  Pb  Pb43  1  0.83195450  0.49906046  0.16681217  1
  Pb  Pb44  1  0.16991603  0.50307512  0.50004892  1
  Pb  Pb45  1  0.16500507  0.16655664  0.16661099  1
  Pb  Pb46  1  0.16969675  0.49979996  0.16675693  1
  Pb  Pb47  1  0.16567415  0.83362268  0.16643814  1
  Pb  Pb48  1  0.83090687  0.50290738  0.49995867  1
  Pb  Pb49  1  0.16254503  0.16421065  0.83344767  1
  Pb  Pb50  1  0.50040165  0.83200379  0.83629267  1
  Pb  Pb51  1  0.83156828  0.49954066  0.83325523  1
  Pb  Pb52  1  0.16974029  0.16358795  0.50005410  1
  Pb  Pb53  1  0.50207475  0.16868976  0.83354467  1
  I  I54  1  0.17552955  -0.00024550  0.16701285  1
  I  I55  1  0.16504703  -0.00422406  0.50310975  1
  I  I56  1  0.16921165  -0.00393552  0.82944951  1
  I  I57  1  0.16631541  0.33320001  0.16590970  1
  I  I58  1  0.16501134  0.33343230  0.49953910  1
  I  I59  1  0.16666112  0.33340736  0.83440621  1
  I  I60  1  0.16842812  0.66709162  0.16697724  1
  I  I61  1  0.16463423  0.67075982  0.50359530  1
  I  I62  1  0.15933625  0.67079605  0.83007385  1
  I  I63  1  0.50379731  0.00028583  0.17270142  1
  I  I64  1  0.50005721  0.00225063  0.49428058  1
  I  I65  1  0.49738594  -0.00006223  0.83206000  1
  I  I66  1  0.50469218  0.33276779  0.16830881  1
  I  I67  1  0.50183972  0.33344529  0.49391317  1
  I  I68  1  0.50290787  0.33648447  0.83783162  1
  I  I69  1  0.50346405  0.66695022  0.16721876  1
  I  I70  1  0.49967736  0.66481469  0.49829578  1
  I  I71  1  0.50126643  0.66414191  0.83245534  1
  I  I72  1  0.82385210  -0.00124962  0.16538230  1
  I  I73  1  0.83309445  -0.00355596  0.50001346  1
  I  I74  1  0.83505403  -0.00164377  0.83446481  1
  I  I75  1  0.82557161  0.32941935  0.15962005  1
  I  I76  1  0.83288173  0.33314918  0.50032661  1
  I  I77  1  0.82716929  0.33005855  0.84061196  1
  I  I78  1  0.82851804  0.66999601  0.16585040  1
  I  I79  1  0.83424896  0.67166355  0.50028596  1
  I  I80  1  0.83574465  0.67027022  0.83418321  1
  I  I81  1  0.17457303  0.16346634  -0.00013492  1
  I  I82  1  0.16373508  0.16327821  0.33349367  1
  I  I83  1  0.16878608  0.16711054  0.66677465  1
  I  I84  1  0.16904696  0.50338131  -0.00024065  1
  I  I85  1  0.16757188  0.50338509  0.33367338  1
  I  I86  1  0.17042103  0.49918916  0.66662279  1
  I  I87  1  0.16473557  0.83273320  -0.00265656  1
  I  I88  1  0.16502221  0.83272131  0.33575503  1
  I  I89  1  0.15942492  0.83286081  0.66676814  1
  I  I90  1  0.50194358  0.16679739  0.00316148  1
  I  I91  1  0.50532591  0.17038662  0.33188722  1
  I  I92  1  0.50153406  0.17082328  0.66433146  1
  I  I93  1  0.50109931  0.50234662  0.00106316  1
  I  I94  1  0.50048247  0.50060812  0.33278990  1
  I  I95  1  0.50096058  0.49735739  0.66612175  1
  I  I96  1  0.50309371  0.83310041  0.00417324  1
  I  I97  1  0.50307823  0.82904179  0.33016603  1
  I  I98  1  0.50190115  0.83187514  0.66676403  1
  I  I99  1  0.82448582  0.15541627  0.00091269  1
  I  I100  1  0.82761862  0.15968752  0.33016912  1
  I  I101  1  0.82924744  0.15984770  0.66885778  1
  I  I102  1  0.82878431  0.50587935  0.00006355  1
  I  I103  1  0.82973283  0.50142130  0.33333743  1
  I  I104  1  0.82676036  0.50062162  0.66665140  1
  I  I105  1  0.83230706  0.83718089  0.00018572  1
  I  I106  1  0.83169865  0.83696881  0.33257536  1
  I  I107  1  0.83687824  0.83674384  0.66713095  1
  I  I108  1  -0.00469734  0.15578885  0.16154262  1
  I  I109  1  -0.00013030  0.16721419  0.49910159  1
  I  I110  1  -0.00535970  0.16358379  0.84128205  1
  I  I111  1  -0.00020266  0.50180207  0.16545491  1
  I  I112  1  0.00029102  0.49792495  0.50035137  1
  I  I113  1  0.00009375  0.49841761  0.83382449  1
  I  I114  1  -0.00391011  0.83936230  0.16705638  1
  I  I115  1  -0.00112425  0.83483909  0.49853167  1
  I  I116  1  -0.00151121  0.83725858  0.83453042  1
  I  I117  1  0.33707273  0.16597302  0.17111029  1
  I  I118  1  0.33802673  0.16933821  0.49295202  1
  I  I119  1  0.33331289  0.16635644  0.83350249  1
  I  I120  1  0.33914566  0.50299670  0.16745939  1
  I  I121  1  0.33810025  0.49912482  0.49825388  1
  I  I122  1  0.33769622  0.50098360  0.83463124  1
  I  I123  1  0.33626098  0.83188907  0.16783296  1
  I  I124  1  0.33152846  0.83210278  0.50377885  1
  I  I125  1  0.33146606  0.82951240  0.82868199  1
  I  I126  1  0.66562025  0.16495330  0.16662026  1
  I  I127  1  0.66350155  0.16780123  0.49764052  1
  I  I128  1  0.66955458  0.15776932  0.83462167  1
  I  I129  1  0.66274662  0.50200697  0.16705993  1
  I  I130  1  0.66239415  0.49960046  0.49882531  1
  I  I131  1  0.66327374  0.50442837  0.83404982  1
  I  I132  1  0.66693154  0.83289521  0.16717672  1
  I  I133  1  0.66919053  0.83269903  0.50274778  1
  I  I134  1  0.66983594  0.83526450  0.83020796  1
