# generated using pymatgen
data_Cs27Sn13Pb14I81
_symmetry_space_group_name_H-M   'P 1'
_cell_length_a   18.98272088
_cell_length_b   18.97253890
_cell_length_c   18.97652664
_cell_angle_alpha   89.99961449
_cell_angle_beta   89.99984847
_cell_angle_gamma   89.99918408
_symmetry_Int_Tables_number   1
_chemical_formula_structural   Cs27Sn13Pb14I81
_chemical_formula_sum   'Cs27 Sn13 Pb14 I81'
_cell_volume   6834.40385433
_cell_formula_units_Z   1
loop_
 _symmetry_equiv_pos_site_id
 _symmetry_equiv_pos_as_xyz
  1  'x, y, z'
loop_
 _atom_site_type_symbol
 _atom_site_label
 _atom_site_symmetry_multiplicity
 _atom_site_fract_x
 _atom_site_fract_y
 _atom_site_fract_z
 _atom_site_occupancy
  Cs  Cs0  1  -0.00292621  0.00002432  0.00217322  1
  Cs  Cs1  1  0.00070461  -0.00115406  0.33121428  1
  Cs  Cs2  1  -0.00188811  -0.00005110  0.66765995  1
  Cs  Cs3  1  0.00126762  0.33299984  -0.00247866  1
  Cs  Cs4  1  0.00190115  0.33338578  0.33665500  1
  Cs  Cs5  1  -0.00251781  0.33522875  0.66499165  1
  Cs  Cs6  1  0.00068733  0.66606764  -0.00111315  1
  Cs  Cs7  1  0.00275541  0.66841987  0.33409419  1
  Cs  Cs8  1  0.00204785  0.66503215  0.66644894  1
  Cs  Cs9  1  0.33295529  0.00136542  -0.00362740  1
  Cs  Cs10  1  0.33352532  -0.00053374  0.33241784  1
  Cs  Cs11  1  0.33621974  0.00605109  0.67428579  1
  Cs  Cs12  1  0.33322760  0.33349288  -0.00654216  1
  Cs  Cs13  1  0.33081187  0.33403510  0.33330526  1
  Cs  Cs14  1  0.33481549  0.32533823  0.67168648  1
  Cs  Cs15  1  0.33444479  0.66505229  -0.00550087  1
  Cs  Cs16  1  0.33272512  0.66699076  0.33477495  1
  Cs  Cs17  1  0.33153870  0.66817391  0.66600779  1
  Cs  Cs18  1  0.66977636  -0.00088253  0.00163514  1
  Cs  Cs19  1  0.66615633  -0.00177899  0.33154359  1
  Cs  Cs20  1  0.66613594  0.00190326  0.66805046  1
  Cs  Cs21  1  0.66560069  0.34104412  0.00166812  1
  Cs  Cs22  1  0.66769552  0.33566201  0.33422026  1
  Cs  Cs23  1  0.66860138  0.33002662  0.66464960  1
  Cs  Cs24  1  0.66452859  0.66041803  0.00156848  1
  Cs  Cs25  1  0.66441461  0.66724970  0.33278394  1
  Cs  Cs26  1  0.66588527  0.66635363  0.66596098  1
  Sn  Sn27  1  0.16818113  0.50082293  0.49902197  1
  Sn  Sn28  1  0.49945628  0.83296881  0.49948042  1
  Sn  Sn29  1  0.16678323  0.50097300  0.16724195  1
  Sn  Sn30  1  0.83312759  0.83347047  0.83370298  1
  Sn  Sn31  1  0.49976864  0.83390611  0.16711394  1
  Sn  Sn32  1  0.83320553  0.16592273  0.83459508  1
  Sn  Sn33  1  0.49891297  0.50060864  0.49974215  1
  Sn  Sn34  1  0.50076329  0.16612979  0.16714006  1
  Sn  Sn35  1  0.83225215  0.16623778  0.16603135  1
  Sn  Sn36  1  0.83326442  0.83333169  0.49997985  1
  Sn  Sn37  1  0.83314722  0.83342131  0.16660082  1
  Sn  Sn38  1  0.16707395  0.83240335  0.16704898  1
  Sn  Sn39  1  0.16726204  0.83361034  0.49948704  1
  Pb  Pb40  1  0.50311996  0.16645937  0.83689526  1
  Pb  Pb41  1  0.83348429  0.50270760  0.49974294  1
  Pb  Pb42  1  0.83330182  0.16397965  0.49909532  1
  Pb  Pb43  1  0.16439435  0.83345052  0.83333300  1
  Pb  Pb44  1  0.49745339  0.50019157  0.16834907  1
  Pb  Pb45  1  0.16656643  0.16633966  0.16667002  1
  Pb  Pb46  1  0.49999779  0.16619135  0.49751870  1
  Pb  Pb47  1  0.16683277  0.16603202  0.49996403  1
  Pb  Pb48  1  0.16669807  0.50028863  0.83247780  1
  Pb  Pb49  1  0.50263913  0.83317307  0.83356928  1
  Pb  Pb50  1  0.83325067  0.49998752  0.83337112  1
  Pb  Pb51  1  0.83593971  0.50006960  0.16685984  1
  Pb  Pb52  1  0.49998728  0.50017834  0.82930769  1
  Pb  Pb53  1  0.16341548  0.16638670  0.83346803  1
  I  I54  1  0.16538245  -0.00373851  0.17159237  1
  I  I55  1  0.16565165  -0.00459272  0.49402090  1
  I  I56  1  0.16843360  -0.00040136  0.83263366  1
  I  I57  1  0.16578630  0.33621134  0.17185927  1
  I  I58  1  0.17037573  0.33697576  0.49476875  1
  I  I59  1  0.16394420  0.33346169  0.83404540  1
  I  I60  1  0.16507985  0.66860431  0.17125207  1
  I  I61  1  0.16608903  0.66807916  0.49551677  1
  I  I62  1  0.16224259  0.66698461  0.83439652  1
  I  I63  1  0.49971289  -0.00201777  0.17269241  1
  I  I64  1  0.50028396  -0.00392689  0.49768711  1
  I  I65  1  0.49764204  -0.00016584  0.82736138  1
  I  I66  1  0.50482680  0.33095994  0.16816008  1
  I  I67  1  0.49490208  0.33621154  0.49843083  1
  I  I68  1  0.50253337  0.33314986  0.83395308  1
  I  I69  1  0.50414489  0.67011352  0.16870343  1
  I  I70  1  0.50058217  0.66861876  0.49414860  1
  I  I71  1  0.50404979  0.66697576  0.83897520  1
  I  I72  1  0.83489819  -0.00185440  0.16652344  1
  I  I73  1  0.83355428  -0.00475758  0.49949963  1
  I  I74  1  0.83393833  -0.00122388  0.83418551  1
  I  I75  1  0.82970798  0.33004949  0.16084775  1
  I  I76  1  0.83385549  0.33331724  0.50147393  1
  I  I77  1  0.83360824  0.32979973  0.83914393  1
  I  I78  1  0.83054730  0.67057475  0.16656986  1
  I  I79  1  0.83351776  0.67144520  0.49894937  1
  I  I80  1  0.83417897  0.67037231  0.83379799  1
  I  I81  1  0.16917098  0.16717230  0.00055768  1
  I  I82  1  0.16247146  0.16725482  0.33300370  1
  I  I83  1  0.16520867  0.16680449  0.66664220  1
  I  I84  1  0.16490257  0.50454370  0.00312283  1
  I  I85  1  0.16910208  0.50472840  0.33396096  1
  I  I86  1  0.16886290  0.50631605  0.66246107  1
  I  I87  1  0.16645736  0.82995527  0.00373346  1
  I  I88  1  0.16198415  0.82988205  0.33296782  1
  I  I89  1  0.16554617  0.82820945  0.66299740  1
  I  I90  1  0.50009815  0.15937185  0.00481373  1
  I  I91  1  0.50744079  0.16372413  0.32963087  1
  I  I92  1  0.50075256  0.16746990  0.66677374  1
  I  I93  1  0.49897826  0.50005811  0.00033060  1
  I  I94  1  0.49876022  0.50266668  0.33630506  1
  I  I95  1  0.49453860  0.50787442  0.66110780  1
  I  I96  1  0.49923435  0.83768412  0.00381913  1
  I  I97  1  0.50441763  0.83338101  0.33308616  1
  I  I98  1  0.50010055  0.82837553  0.66313558  1
  I  I99  1  0.83055518  0.15633653  0.00126409  1
  I  I100  1  0.83054225  0.16229495  0.32961362  1
  I  I101  1  0.83494517  0.16223791  0.66916987  1
  I  I102  1  0.83536919  0.50485862  0.00033670  1
  I  I103  1  0.83195273  0.49775712  0.33328734  1
  I  I104  1  0.83522002  0.50001660  0.66641494  1
  I  I105  1  0.83454708  0.83810080  0.00138587  1
  I  I106  1  0.83377296  0.83661714  0.33271733  1
  I  I107  1  0.83393902  0.83653914  0.66602268  1
  I  I108  1  -0.00326657  0.16246839  0.16249546  1
  I  I109  1  -0.00015559  0.16726436  0.49856971  1
  I  I110  1  -0.00468446  0.16148825  0.84087829  1
  I  I111  1  0.00376486  0.50428338  0.17322114  1
  I  I112  1  0.00335991  0.50375738  0.49683551  1
  I  I113  1  -0.00003616  0.49938172  0.83108821  1
  I  I114  1  -0.00049750  0.83387610  0.16914408  1
  I  I115  1  0.00012391  0.83044726  0.49726627  1
  I  I116  1  -0.00394220  0.83749254  0.83356985  1
  I  I117  1  0.33609608  0.16251531  0.16997789  1
  I  I118  1  0.33351111  0.16253842  0.49745598  1
  I  I119  1  0.33376032  0.16806437  0.83353698  1
  I  I120  1  0.32977579  0.50395692  0.16977519  1
  I  I121  1  0.33276276  0.51011647  0.49448564  1
  I  I122  1  0.33324454  0.50000511  0.83707625  1
  I  I123  1  0.33348323  0.83418567  0.17464283  1
  I  I124  1  0.33334089  0.82790466  0.49079935  1
  I  I125  1  0.33345408  0.83239263  0.83342140  1
  I  I126  1  0.66744336  0.15752000  0.16399465  1
  I  I127  1  0.66672299  0.16822903  0.50202966  1
  I  I128  1  0.67076369  0.15997812  0.83335800  1
  I  I129  1  0.66635041  0.50180053  0.16765526  1
  I  I130  1  0.66385687  0.50445649  0.50005077  1
  I  I131  1  0.66673956  0.50090023  0.83320952  1
  I  I132  1  0.66695943  0.83844319  0.16981003  1
  I  I133  1  0.66644604  0.82995791  0.49703554  1
  I  I134  1  0.67091165  0.83796097  0.83242267  1
