# generated using pymatgen
data_Cs27Sn14Pb13I81
_symmetry_space_group_name_H-M   'P 1'
_cell_length_a   19.03033992
_cell_length_b   19.03236343
_cell_length_c   19.03545204
_cell_angle_alpha   89.99996557
_cell_angle_beta   89.99756359
_cell_angle_gamma   89.99776488
_symmetry_Int_Tables_number   1
_chemical_formula_structural   Cs27Sn14Pb13I81
_chemical_formula_sum   'Cs27 Sn14 Pb13 I81'
_cell_volume   6894.49501043
_cell_formula_units_Z   1
loop_
 _symmetry_equiv_pos_site_id
 _symmetry_equiv_pos_as_xyz
  1  'x, y, z'
loop_
 _atom_site_type_symbol
 _atom_site_label
 _atom_site_symmetry_multiplicity
 _atom_site_fract_x
 _atom_site_fract_y
 _atom_site_fract_z
 _atom_site_occupancy
  Cs  Cs0  1  -0.00573230  0.00596177  -0.00005028  1
  Cs  Cs1  1  0.00198904  -0.00067922  0.34165530  1
  Cs  Cs2  1  0.00190443  0.00017090  0.66073307  1
  Cs  Cs3  1  0.00140682  0.33155247  -0.00171545  1
  Cs  Cs4  1  0.00424971  0.33419671  0.33534609  1
  Cs  Cs5  1  0.00447845  0.33505821  0.66954851  1
  Cs  Cs6  1  -0.00165450  0.66577047  0.00188251  1
  Cs  Cs7  1  -0.00295938  0.66757719  0.32665346  1
  Cs  Cs8  1  -0.00129539  0.66425570  0.66884976  1
  Cs  Cs9  1  0.33772098  -0.01020343  0.00040621  1
  Cs  Cs10  1  0.33061955  -0.00099009  0.33830390  1
  Cs  Cs11  1  0.33263352  0.00008091  0.66423769  1
  Cs  Cs12  1  0.32955546  0.33367818  -0.00217529  1
  Cs  Cs13  1  0.33493278  0.33680667  0.32628119  1
  Cs  Cs14  1  0.33236150  0.33168206  0.66871392  1
  Cs  Cs15  1  0.33335147  0.67680319  0.00745887  1
  Cs  Cs16  1  0.33189082  0.66157371  0.31529336  1
  Cs  Cs17  1  0.33273256  0.66755336  0.67212572  1
  Cs  Cs18  1  0.66798662  0.00332489  0.00671154  1
  Cs  Cs19  1  0.66724273  0.00166647  0.33539214  1
  Cs  Cs20  1  0.66632876  0.00027091  0.66435431  1
  Cs  Cs21  1  0.66761800  0.32525110  -0.00172760  1
  Cs  Cs22  1  0.65941182  0.33488746  0.33623716  1
  Cs  Cs23  1  0.66337237  0.33510114  0.66602554  1
  Cs  Cs24  1  0.67193970  0.67119809  -0.00236004  1
  Cs  Cs25  1  0.66960669  0.66314739  0.33978728  1
  Cs  Cs26  1  0.66757399  0.66615200  0.66417328  1
  Sn  Sn27  1  0.16729546  0.49999714  0.83289532  1
  Sn  Sn28  1  0.50003700  0.83305095  0.50020929  1
  Sn  Sn29  1  0.50053590  0.16612919  0.50104847  1
  Sn  Sn30  1  0.83241419  0.16710012  0.50059378  1
  Sn  Sn31  1  0.83263663  0.83401360  0.50038492  1
  Sn  Sn32  1  0.83293884  0.50038959  0.83427564  1
  Sn  Sn33  1  0.16663488  0.16623320  0.16499170  1
  Sn  Sn34  1  0.83326245  0.83305798  0.16694137  1
  Sn  Sn35  1  0.83347392  0.83315503  0.83283078  1
  Sn  Sn36  1  0.16705782  0.50081113  0.50095944  1
  Sn  Sn37  1  0.16815466  0.16656355  0.83437855  1
  Sn  Sn38  1  0.83276491  0.49934157  0.16525930  1
  Sn  Sn39  1  0.49879443  0.16697545  0.83267855  1
  Sn  Sn40  1  0.49984013  0.49984623  0.83360651  1
  Pb  Pb41  1  0.16406966  0.83358984  0.83321467  1
  Pb  Pb42  1  0.16440452  0.49841060  0.16510897  1
  Pb  Pb43  1  0.49750479  0.16666114  0.16653171  1
  Pb  Pb44  1  0.83484297  0.49999835  0.50052961  1
  Pb  Pb45  1  0.49706009  0.50044067  0.50220657  1
  Pb  Pb46  1  0.50266754  0.83387126  0.83144638  1
  Pb  Pb47  1  0.16771466  0.16855277  0.50071231  1
  Pb  Pb48  1  0.83314057  0.16703103  0.83114096  1
  Pb  Pb49  1  0.50341443  0.49977103  0.16247041  1
  Pb  Pb50  1  0.16723663  0.82966608  0.50014615  1
  Pb  Pb51  1  0.83505622  0.16728302  0.16972189  1
  Pb  Pb52  1  0.16351880  0.83667864  0.16653825  1
  Pb  Pb53  1  0.50345316  0.83344785  0.17020281  1
  I  I54  1  0.16462614  0.00408719  0.15985834  1
  I  I55  1  0.16498568  -0.00032396  0.49918030  1
  I  I56  1  0.17105095  0.00335036  0.83780741  1
  I  I57  1  0.16206149  0.33106850  0.16673486  1
  I  I58  1  0.16297077  0.33577043  0.50196175  1
  I  I59  1  0.16293114  0.33378945  0.83284953  1
  I  I60  1  0.16896069  0.66677825  0.16828041  1
  I  I61  1  0.16396985  0.66253480  0.51041500  1
  I  I62  1  0.16903672  0.66344466  0.82657266  1
  I  I63  1  0.50248907  0.00012274  0.15822783  1
  I  I64  1  0.50502269  0.00093775  0.50740480  1
  I  I65  1  0.49433570  0.00314640  0.83075162  1
  I  I66  1  0.50469699  0.33324660  0.17635918  1
  I  I67  1  0.50590624  0.33068240  0.50175489  1
  I  I68  1  0.50303515  0.33311698  0.82547463  1
  I  I69  1  0.49295265  0.66653596  0.16741218  1
  I  I70  1  0.50845389  0.66913952  0.50215782  1
  I  I71  1  0.49734337  0.66392972  0.83069291  1
  I  I72  1  0.83533478  -0.00251970  0.16235155  1
  I  I73  1  0.83105014  -0.00070355  0.50005824  1
  I  I74  1  0.83364150  -0.00244425  0.83618791  1
  I  I75  1  0.83632908  0.33585379  0.15996397  1
  I  I76  1  0.83012966  0.33098358  0.49995325  1
  I  I77  1  0.83419071  0.33632854  0.83760802  1
  I  I78  1  0.83512010  0.66682556  0.16899817  1
  I  I79  1  0.82914010  0.66946455  0.49971592  1
  I  I80  1  0.83352597  0.66576676  0.83110717  1
  I  I81  1  0.16959603  0.17601430  -0.00206525  1
  I  I82  1  0.16297635  0.16890804  0.33208817  1
  I  I83  1  0.16663098  0.17023408  0.66948559  1
  I  I84  1  0.16731143  0.49594472  -0.00377223  1
  I  I85  1  0.16367869  0.49747025  0.33467363  1
  I  I86  1  0.16161101  0.49241091  0.66896075  1
  I  I87  1  0.16663135  0.82720731  -0.00012173  1
  I  I88  1  0.16375653  0.83389149  0.33353476  1
  I  I89  1  0.16115828  0.83916785  0.66658205  1
  I  I90  1  0.49917900  0.17365763  -0.00343830  1
  I  I91  1  0.50421792  0.16098679  0.33652358  1
  I  I92  1  0.49774396  0.16697804  0.66692978  1
  I  I93  1  0.49241247  0.49153330  -0.00527963  1
  I  I94  1  0.49853473  0.49975845  0.33317365  1
  I  I95  1  0.50831249  0.49869589  0.66979496  1
  I  I96  1  0.50007494  0.83318508  0.00009557  1
  I  I97  1  0.50576570  0.84221953  0.33800214  1
  I  I98  1  0.50945638  0.83444346  0.66404052  1
  I  I99  1  0.83061122  0.16253851  -0.00005176  1
  I  I100  1  0.82972833  0.16219867  0.33726498  1
  I  I101  1  0.83547873  0.16163043  0.66368749  1
  I  I102  1  0.83608507  0.51044066  -0.00165883  1
  I  I103  1  0.83869444  0.50356051  0.33170641  1
  I  I104  1  0.83214627  0.50338427  0.66986718  1
  I  I105  1  0.83611074  0.82589727  -0.00030363  1
  I  I106  1  0.82924696  0.83278250  0.33389295  1
  I  I107  1  0.82921799  0.83227063  0.66631031  1
  I  I108  1  0.00223496  0.16741618  0.15889447  1
  I  I109  1  -0.00178849  0.16166511  0.49929754  1
  I  I110  1  0.00201858  0.17025829  0.83605797  1
  I  I111  1  -0.00307836  0.50511125  0.16105732  1
  I  I112  1  0.00207952  0.49725967  0.50726112  1
  I  I113  1  -0.00009234  0.49968140  0.83264049  1
  I  I114  1  -0.00417469  0.82688905  0.17077799  1
  I  I115  1  -0.00332098  0.83945360  0.49942478  1
  I  I116  1  -0.00419520  0.82850594  0.82952780  1
  I  I117  1  0.32986481  0.17104163  0.16953508  1
  I  I118  1  0.33630289  0.16109105  0.50135335  1
  I  I119  1  0.33344428  0.17826037  0.82997589  1
  I  I120  1  0.33344223  0.49829195  0.17002477  1
  I  I121  1  0.32983102  0.49722729  0.50793506  1
  I  I122  1  0.33308054  0.49145256  0.82332375  1
  I  I123  1  0.33348351  0.83302797  0.16840804  1
  I  I124  1  0.33632746  0.84181655  0.50353217  1
  I  I125  1  0.33345828  0.83022565  0.83085298  1
  I  I126  1  0.66666091  0.16584055  0.16329344  1
  I  I127  1  0.66640309  0.16300881  0.50608601  1
  I  I128  1  0.66442865  0.17082806  0.82948626  1
  I  I129  1  0.67126272  0.50442602  0.16419232  1
  I  I130  1  0.66643124  0.49912749  0.49899152  1
  I  I131  1  0.66708006  0.49957480  0.83859995  1
  I  I132  1  0.67111027  0.83063013  0.16128190  1
  I  I133  1  0.66835766  0.83799504  0.49987004  1
  I  I134  1  0.67049660  0.82765474  0.83538810  1
