# generated using pymatgen
data_Cs27Sn14Pb13I81
_symmetry_space_group_name_H-M   'P 1'
_cell_length_a   18.97538671
_cell_length_b   18.97757281
_cell_length_c   18.97333140
_cell_angle_alpha   90.00170321
_cell_angle_beta   89.99958384
_cell_angle_gamma   90.00091718
_symmetry_Int_Tables_number   1
_chemical_formula_structural   Cs27Sn14Pb13I81
_chemical_formula_sum   'Cs27 Sn14 Pb13 I81'
_cell_volume   6832.42532705
_cell_formula_units_Z   1
loop_
 _symmetry_equiv_pos_site_id
 _symmetry_equiv_pos_as_xyz
  1  'x, y, z'
loop_
 _atom_site_type_symbol
 _atom_site_label
 _atom_site_symmetry_multiplicity
 _atom_site_fract_x
 _atom_site_fract_y
 _atom_site_fract_z
 _atom_site_occupancy
  Cs  Cs0  1  0.00149705  -0.00124111  -0.00175447  1
  Cs  Cs1  1  -0.00005701  -0.00264613  0.33486212  1
  Cs  Cs2  1  -0.00015350  0.00042055  0.66739772  1
  Cs  Cs3  1  -0.00923772  0.33221943  -0.00244057  1
  Cs  Cs4  1  0.00277796  0.33892606  0.33707774  1
  Cs  Cs5  1  0.00185160  0.33278423  0.66571367  1
  Cs  Cs6  1  0.00204522  0.66843777  0.00267824  1
  Cs  Cs7  1  0.00153813  0.66778182  0.33124075  1
  Cs  Cs8  1  -0.00092418  0.66837622  0.66624017  1
  Cs  Cs9  1  0.33074960  0.00098460  -0.00068887  1
  Cs  Cs10  1  0.33427346  0.00075273  0.33103670  1
  Cs  Cs11  1  0.33499702  0.00140225  0.66782670  1
  Cs  Cs12  1  0.33733708  0.33029180  0.00044650  1
  Cs  Cs13  1  0.33287212  0.33537653  0.33363222  1
  Cs  Cs14  1  0.32994944  0.33011052  0.66527650  1
  Cs  Cs15  1  0.33349934  0.66324680  0.00063317  1
  Cs  Cs16  1  0.32941850  0.66617600  0.32962101  1
  Cs  Cs17  1  0.33782867  0.66802117  0.66918553  1
  Cs  Cs18  1  0.66812119  0.00268523  0.00439697  1
  Cs  Cs19  1  0.66581789  -0.00023663  0.33332894  1
  Cs  Cs20  1  0.66524638  -0.00130370  0.66497982  1
  Cs  Cs21  1  0.67145164  0.33865431  0.00724750  1
  Cs  Cs22  1  0.66503890  0.33233012  0.32940262  1
  Cs  Cs23  1  0.66788823  0.33422900  0.66676720  1
  Cs  Cs24  1  0.66373354  0.65945875  -0.00215992  1
  Cs  Cs25  1  0.66807507  0.66918495  0.33760521  1
  Cs  Cs26  1  0.66304847  0.66658577  0.66540919  1
  Sn  Sn27  1  0.83407970  0.83347043  0.50053597  1
  Sn  Sn28  1  0.16658120  0.49990417  0.83335089  1
  Sn  Sn29  1  0.83253214  0.16666012  0.50002841  1
  Sn  Sn30  1  0.16640259  0.83363866  0.50098899  1
  Sn  Sn31  1  0.16608541  0.16689384  0.16585634  1
  Sn  Sn32  1  0.83256878  0.50008909  0.50030452  1
  Sn  Sn33  1  0.50087751  0.16754388  0.50073538  1
  Sn  Sn34  1  0.83339351  0.83353010  0.83326666  1
  Sn  Sn35  1  0.83202299  0.83346616  0.16632740  1
  Sn  Sn36  1  0.50038042  0.49898066  0.50020653  1
  Sn  Sn37  1  0.16715740  0.16696871  0.83443494  1
  Sn  Sn38  1  0.16619518  0.83294295  0.83222823  1
  Sn  Sn39  1  0.50081620  0.83324254  0.16626388  1
  Sn  Sn40  1  0.50042692  0.16662504  0.83315596  1
  Pb  Pb41  1  0.16650854  0.49648576  0.16333261  1
  Pb  Pb42  1  0.83592007  0.16472003  0.16966817  1
  Pb  Pb43  1  0.50009413  0.83535339  0.83575510  1
  Pb  Pb44  1  0.49982227  0.83362894  0.49870730  1
  Pb  Pb45  1  0.83307642  0.16490582  0.83152110  1
  Pb  Pb46  1  0.49814291  0.49685527  0.83118151  1
  Pb  Pb47  1  0.16635396  0.83452233  0.16611957  1
  Pb  Pb48  1  0.16687919  0.16476468  0.50040514  1
  Pb  Pb49  1  0.49868093  0.16535638  0.16678543  1
  Pb  Pb50  1  0.83347304  0.50284589  0.16938544  1
  Pb  Pb51  1  0.49996713  0.50263411  0.16948526  1
  Pb  Pb52  1  0.16699103  0.50288670  0.50186750  1
  Pb  Pb53  1  0.83524548  0.50269680  0.83093856  1
  I  I54  1  0.16698138  0.00203031  0.16176342  1
  I  I55  1  0.16240700  -0.00314689  0.50448033  1
  I  I56  1  0.16645743  -0.00026673  0.83324778  1
  I  I57  1  0.16901843  0.32870715  0.16518907  1
  I  I58  1  0.16357704  0.33331017  0.50037937  1
  I  I59  1  0.17244354  0.33207936  0.83661401  1
  I  I60  1  0.16688749  0.66674817  0.16721279  1
  I  I61  1  0.16290200  0.67083351  0.50363863  1
  I  I62  1  0.16160817  0.66826214  0.82734604  1
  I  I63  1  0.50320042  -0.00250177  0.17052681  1
  I  I64  1  0.50228009  0.00254722  0.50210811  1
  I  I65  1  0.49313389  0.00297688  0.82537059  1
  I  I66  1  0.49729953  0.33326535  0.16568444  1
  I  I67  1  0.50692443  0.33224353  0.50369543  1
  I  I68  1  0.49314726  0.32889535  0.83103125  1
  I  I69  1  0.50251005  0.67066741  0.16789636  1
  I  I70  1  0.50285295  0.66495433  0.49783544  1
  I  I71  1  0.49869893  0.66671995  0.83279421  1
  I  I72  1  0.83072289  -0.00357662  0.16990219  1
  I  I73  1  0.83360697  -0.00111442  0.49999368  1
  I  I74  1  0.83938165  -0.00338927  0.83016366  1
  I  I75  1  0.83477401  0.33320774  0.16744133  1
  I  I76  1  0.82953273  0.33301907  0.50118240  1
  I  I77  1  0.83564734  0.33329981  0.83040654  1
  I  I78  1  0.83200633  0.67136765  0.16904598  1
  I  I79  1  0.83328214  0.66792589  0.49967925  1
  I  I80  1  0.83863482  0.67111329  0.83133072  1
  I  I81  1  0.17301321  0.16249134  -0.00216624  1
  I  I82  1  0.16648819  0.16136613  0.33205939  1
  I  I83  1  0.16771047  0.16677700  0.66945226  1
  I  I84  1  0.16725021  0.50883284  -0.00445749  1
  I  I85  1  0.16673579  0.50055701  0.33365494  1
  I  I86  1  0.16616404  0.49488093  0.66946076  1
  I  I87  1  0.16339701  0.83309646  -0.00327309  1
  I  I88  1  0.16379704  0.83570685  0.33545893  1
  I  I89  1  0.15897328  0.83602517  0.66749198  1
  I  I90  1  0.49453678  0.16188159  -0.00258188  1
  I  I91  1  0.50213315  0.16803932  0.33650007  1
  I  I92  1  0.49636528  0.16794578  0.66580426  1
  I  I93  1  0.49816341  0.49999650  -0.00022040  1
  I  I94  1  0.50286110  0.49318685  0.33771343  1
  I  I95  1  0.50414797  0.50149459  0.66316335  1
  I  I96  1  0.50301106  0.83704627  0.00316162  1
  I  I97  1  0.50306948  0.83555010  0.33112960  1
  I  I98  1  0.50108020  0.83224030  0.66676086  1
  I  I99  1  0.83188689  0.16390749  0.00000043  1
  I  I100  1  0.82867707  0.16309232  0.33786932  1
  I  I101  1  0.83486330  0.16294114  0.66314684  1
  I  I102  1  0.83469062  0.50108709  -0.00027149  1
  I  I103  1  0.83128045  0.50177978  0.33794888  1
  I  I104  1  0.83031318  0.50302178  0.66271027  1
  I  I105  1  0.83572249  0.83557893  -0.00046196  1
  I  I106  1  0.83392500  0.83347122  0.33481872  1
  I  I107  1  0.83963561  0.83385145  0.66557086  1
  I  I108  1  0.00342092  0.16260130  0.16023587  1
  I  I109  1  -0.00240108  0.16702288  0.49978201  1
  I  I110  1  0.00300447  0.16667241  0.83527744  1
  I  I111  1  0.00007370  0.50301843  0.17083919  1
  I  I112  1  -0.00266576  0.49801921  0.50131456  1
  I  I113  1  0.00324860  0.49475967  0.83001594  1
  I  I114  1  -0.00259791  0.83508974  0.16838362  1
  I  I115  1  -0.00146037  0.83408168  0.49820131  1
  I  I116  1  0.00081346  0.83599578  0.83342891  1
  I  I117  1  0.33077617  0.16122024  0.16720156  1
  I  I118  1  0.33574874  0.16906690  0.50086854  1
  I  I119  1  0.33210889  0.16382280  0.83029409  1
  I  I120  1  0.33315837  0.50498342  0.17084356  1
  I  I121  1  0.33576157  0.49584069  0.50151509  1
  I  I122  1  0.33010822  0.50655828  0.83000945  1
  I  I123  1  0.33486471  0.83587691  0.16887453  1
  I  I124  1  0.33090925  0.83412012  0.50288347  1
  I  I125  1  0.33010305  0.83289534  0.82946449  1
  I  I126  1  0.66702855  0.16561101  0.16477921  1
  I  I127  1  0.66647774  0.16358238  0.50532460  1
  I  I128  1  0.66422992  0.16221546  0.82860302  1
  I  I129  1  0.66676323  0.49727036  0.16304243  1
  I  I130  1  0.66742446  0.50310097  0.50089401  1
  I  I131  1  0.66675205  0.50099454  0.83348594  1
  I  I132  1  0.66794538  0.83578820  0.16963269  1
  I  I133  1  0.66973812  0.83329992  0.50183034  1
  I  I134  1  0.66949522  0.83584501  0.82877093  1
