# generated using pymatgen
data_Cs27Sn13Pb14I81
_symmetry_space_group_name_H-M   'P 1'
_cell_length_a   18.97190833
_cell_length_b   18.97876838
_cell_length_c   18.97849947
_cell_angle_alpha   90.00070643
_cell_angle_beta   89.99862339
_cell_angle_gamma   89.99798618
_symmetry_Int_Tables_number   1
_chemical_formula_structural   Cs27Sn13Pb14I81
_chemical_formula_sum   'Cs27 Sn13 Pb14 I81'
_cell_volume   6833.46406186
_cell_formula_units_Z   1
loop_
 _symmetry_equiv_pos_site_id
 _symmetry_equiv_pos_as_xyz
  1  'x, y, z'
loop_
 _atom_site_type_symbol
 _atom_site_label
 _atom_site_symmetry_multiplicity
 _atom_site_fract_x
 _atom_site_fract_y
 _atom_site_fract_z
 _atom_site_occupancy
  Cs  Cs0  1  -0.00173391  -0.00026556  -0.00173963  1
  Cs  Cs1  1  0.00373996  -0.00802292  0.33334399  1
  Cs  Cs2  1  -0.00950878  0.00107093  0.66911627  1
  Cs  Cs3  1  0.00222588  0.33133395  -0.00218814  1
  Cs  Cs4  1  -0.00145840  0.33570181  0.33288050  1
  Cs  Cs5  1  0.00183877  0.33398867  0.66946536  1
  Cs  Cs6  1  -0.00302576  0.66943129  0.00424946  1
  Cs  Cs7  1  -0.00557673  0.67317046  0.33978515  1
  Cs  Cs8  1  0.00489023  0.66473936  0.65532565  1
  Cs  Cs9  1  0.33343109  -0.00068263  0.00076942  1
  Cs  Cs10  1  0.33282588  0.00135515  0.33270431  1
  Cs  Cs11  1  0.33478290  -0.00064535  0.66717504  1
  Cs  Cs12  1  0.33285859  0.33349753  0.00110664  1
  Cs  Cs13  1  0.33517639  0.33042057  0.33097809  1
  Cs  Cs14  1  0.33118839  0.33449545  0.66760391  1
  Cs  Cs15  1  0.33516599  0.66668966  -0.00110849  1
  Cs  Cs16  1  0.33315605  0.66835082  0.33393713  1
  Cs  Cs17  1  0.33225057  0.66609989  0.66686326  1
  Cs  Cs18  1  0.66619779  -0.00206345  -0.00302883  1
  Cs  Cs19  1  0.66485450  0.00420675  0.33685562  1
  Cs  Cs20  1  0.67419048  0.00050130  0.66762570  1
  Cs  Cs21  1  0.66528363  0.33566076  0.00176882  1
  Cs  Cs22  1  0.66676273  0.33334725  0.33413056  1
  Cs  Cs23  1  0.66687380  0.33150236  0.66460171  1
  Cs  Cs24  1  0.66687450  0.66625236  -0.00161163  1
  Cs  Cs25  1  0.66965481  0.66401382  0.33226878  1
  Cs  Cs26  1  0.66513080  0.66904462  0.67100745  1
  Sn  Sn27  1  0.50009390  0.16652057  0.16568388  1
  Sn  Sn28  1  0.83342359  0.16658821  0.16681318  1
  Sn  Sn29  1  0.49963947  0.50080978  0.49982431  1
  Sn  Sn30  1  0.16696361  0.50004737  0.16684661  1
  Sn  Sn31  1  0.50068608  0.49886771  0.83330798  1
  Sn  Sn32  1  0.49963907  0.16735072  0.83388084  1
  Sn  Sn33  1  0.49920771  0.50025531  0.16679013  1
  Sn  Sn34  1  0.16667126  0.16673829  0.49956365  1
  Sn  Sn35  1  0.49978465  0.83269163  0.49925076  1
  Sn  Sn36  1  0.16670549  0.83322751  0.83340814  1
  Sn  Sn37  1  0.16644614  0.16741054  0.16766446  1
  Sn  Sn38  1  0.49983635  0.83320473  0.16763300  1
  Sn  Sn39  1  0.83312389  0.50011340  0.83337392  1
  Pb  Pb40  1  0.83055189  0.16878054  0.83556567  1
  Pb  Pb41  1  0.16894715  0.83584608  0.50222281  1
  Pb  Pb42  1  0.83060704  0.49972117  0.50268980  1
  Pb  Pb43  1  0.16855347  0.83321459  0.16552496  1
  Pb  Pb44  1  0.82999425  0.83331395  0.49993454  1
  Pb  Pb45  1  0.49916298  0.83320813  0.83319691  1
  Pb  Pb46  1  0.83667982  0.83006148  0.83334092  1
  Pb  Pb47  1  0.16856922  0.16516096  0.83382440  1
  Pb  Pb48  1  0.16692989  0.50178998  0.83562433  1
  Pb  Pb49  1  0.82992421  0.83616536  0.16661023  1
  Pb  Pb50  1  0.49886921  0.16677881  0.50018185  1
  Pb  Pb51  1  0.16902355  0.49816307  0.49691234  1
  Pb  Pb52  1  0.83686559  0.16693585  0.49712560  1
  Pb  Pb53  1  0.83348687  0.49836587  0.16529006  1
  I  I54  1  0.16904204  0.00321639  0.16875551  1
  I  I55  1  0.17158699  0.00332597  0.49167929  1
  I  I56  1  0.17219909  -0.00216914  0.83587808  1
  I  I57  1  0.17289962  0.33241541  0.16845848  1
  I  I58  1  0.17085512  0.33040202  0.49895083  1
  I  I59  1  0.16602645  0.33342346  0.83205065  1
  I  I60  1  0.17384127  0.66397720  0.16208921  1
  I  I61  1  0.16655394  0.66665768  0.50023239  1
  I  I62  1  0.17126339  0.66900743  0.83591560  1
  I  I63  1  0.49917403  0.00120156  0.16617011  1
  I  I64  1  0.49681947  -0.00197711  0.49611887  1
  I  I65  1  0.49626144  0.00232738  0.83753064  1
  I  I66  1  0.49904379  0.33322805  0.16570787  1
  I  I67  1  0.49849102  0.33596357  0.49819226  1
  I  I68  1  0.50189207  0.33409228  0.83685588  1
  I  I69  1  0.49461567  0.66539146  0.16605634  1
  I  I70  1  0.49894070  0.66594484  0.49726458  1
  I  I71  1  0.50185002  0.66364729  0.83615227  1
  I  I72  1  0.83461458  0.00432724  0.16535197  1
  I  I73  1  0.82988923  0.00030851  0.50127531  1
  I  I74  1  0.83204970  0.00011041  0.83385460  1
  I  I75  1  0.82835949  0.33041786  0.16531211  1
  I  I76  1  0.82932292  0.33327101  0.49983736  1
  I  I77  1  0.83118367  0.33641186  0.83477631  1
  I  I78  1  0.83332229  0.66658943  0.16479982  1
  I  I79  1  0.83664974  0.66638317  0.49889103  1
  I  I80  1  0.82271423  0.66276656  0.83679188  1
  I  I81  1  0.16697826  0.16917876  0.00354231  1
  I  I82  1  0.17111567  0.16969952  0.33095403  1
  I  I83  1  0.17207291  0.16478268  0.66487521  1
  I  I84  1  0.17396436  0.49311294  0.00345948  1
  I  I85  1  0.17334140  0.49771245  0.32885864  1
  I  I86  1  0.16766216  0.49930374  0.66661944  1
  I  I87  1  0.17173138  0.83506680  -0.00190403  1
  I  I88  1  0.16713600  0.83272332  0.33335555  1
  I  I89  1  0.17167968  0.83308750  0.66952149  1
  I  I90  1  0.49776882  0.16903392  0.00172078  1
  I  I91  1  0.50089754  0.16849891  0.33001796  1
  I  I92  1  0.49631175  0.16971724  0.66906379  1
  I  I93  1  0.49995236  0.49909758  0.00074810  1
  I  I94  1  0.49513561  0.49967823  0.33201628  1
  I  I95  1  0.50434469  0.49997986  0.66727549  1
  I  I96  1  0.49777611  0.83245543  0.00260971  1
  I  I97  1  0.49826237  0.83138793  0.33230649  1
  I  I98  1  0.49657423  0.83007159  0.66449785  1
  I  I99  1  0.83729175  0.16775945  0.00337504  1
  I  I100  1  0.82461371  0.16908024  0.32913177  1
  I  I101  1  0.83276192  0.16671818  0.66687561  1
  I  I102  1  0.82591144  0.49888880  -0.00245697  1
  I  I103  1  0.83218391  0.49850268  0.33325174  1
  I  I104  1  0.82794073  0.49913953  0.67070455  1
  I  I105  1  0.83065149  0.83351626  0.00001702  1
  I  I106  1  0.83682538  0.83225263  0.33300596  1
  I  I107  1  0.83039298  0.83524547  0.66688892  1
  I  I108  1  0.00127476  0.17300227  0.17064022  1
  I  I109  1  0.00472066  0.16674216  0.49610516  1
  I  I110  1  -0.00002109  0.16684360  0.83403418  1
  I  I111  1  0.00280760  0.49351673  0.16210870  1
  I  I112  1  0.00038137  0.49869786  0.50077432  1
  I  I113  1  -0.00201256  0.50125388  0.83740725  1
  I  I114  1  0.00011378  0.83312059  0.16413167  1
  I  I115  1  0.00036185  0.83420386  0.50146797  1
  I  I116  1  0.00395105  0.83519616  0.83602586  1
  I  I117  1  0.33439513  0.16764622  0.16676051  1
  I  I118  1  0.33136819  0.16681952  0.49342762  1
  I  I119  1  0.33680605  0.17214090  0.83904229  1
  I  I120  1  0.33545774  0.49501105  0.16441336  1
  I  I121  1  0.33743580  0.50299096  0.50498341  1
  I  I122  1  0.33688751  0.49779489  0.83286447  1
  I  I123  1  0.33704513  0.83724200  0.16860293  1
  I  I124  1  0.33690921  0.82993723  0.49628909  1
  I  I125  1  0.33191849  0.83213803  0.83446423  1
  I  I126  1  0.66458302  0.16691257  0.16178752  1
  I  I127  1  0.66652352  0.16592634  0.49969670  1
  I  I128  1  0.66220998  0.16660775  0.83775874  1
  I  I129  1  0.66283823  0.49886403  0.16781181  1
  I  I130  1  0.66172021  0.50150609  0.49374633  1
  I  I131  1  0.66373245  0.49686649  0.83611493  1
  I  I132  1  0.66132263  0.83140508  0.16802681  1
  I  I133  1  0.66152492  0.83135072  0.49724627  1
  I  I134  1  0.66656735  0.83538315  0.83301489  1
