# generated using pymatgen
data_Cs27Sn14Pb13I81
_symmetry_space_group_name_H-M   'P 1'
_cell_length_a   18.99919116
_cell_length_b   18.98310269
_cell_length_c   18.99217196
_cell_angle_alpha   89.99878175
_cell_angle_beta   90.00084931
_cell_angle_gamma   90.00253717
_symmetry_Int_Tables_number   1
_chemical_formula_structural   Cs27Sn14Pb13I81
_chemical_formula_sum   'Cs27 Sn14 Pb13 I81'
_cell_volume   6849.78504343
_cell_formula_units_Z   1
loop_
 _symmetry_equiv_pos_site_id
 _symmetry_equiv_pos_as_xyz
  1  'x, y, z'
loop_
 _atom_site_type_symbol
 _atom_site_label
 _atom_site_symmetry_multiplicity
 _atom_site_fract_x
 _atom_site_fract_y
 _atom_site_fract_z
 _atom_site_occupancy
  Cs  Cs0  1  0.00020371  -0.00141855  -0.00161427  1
  Cs  Cs1  1  0.00451167  0.00145605  0.33429010  1
  Cs  Cs2  1  -0.00259558  0.00004420  0.66845686  1
  Cs  Cs3  1  -0.00006337  0.33343185  0.00515174  1
  Cs  Cs4  1  0.00174025  0.33359233  0.33133548  1
  Cs  Cs5  1  -0.00518511  0.33457632  0.66587166  1
  Cs  Cs6  1  -0.00248851  0.66728333  -0.00144701  1
  Cs  Cs7  1  -0.00108976  0.66461995  0.33309617  1
  Cs  Cs8  1  0.00146116  0.66500991  0.66809331  1
  Cs  Cs9  1  0.33160453  0.00263322  0.00095570  1
  Cs  Cs10  1  0.33161890  0.00154429  0.33392700  1
  Cs  Cs11  1  0.33301241  0.00022468  0.66514738  1
  Cs  Cs12  1  0.33471238  0.33322288  -0.00129399  1
  Cs  Cs13  1  0.33114972  0.33092598  0.33354456  1
  Cs  Cs14  1  0.33374532  0.33350216  0.66663255  1
  Cs  Cs15  1  0.34264492  0.65991922  -0.01241538  1
  Cs  Cs16  1  0.33274398  0.66729510  0.33477876  1
  Cs  Cs17  1  0.33176178  0.66461033  0.67182058  1
  Cs  Cs18  1  0.66917102  -0.00724352  -0.00029144  1
  Cs  Cs19  1  0.66512076  -0.00074462  0.33534070  1
  Cs  Cs20  1  0.67072105  0.00094247  0.66533348  1
  Cs  Cs21  1  0.66521540  0.33539938  0.00041973  1
  Cs  Cs22  1  0.66699666  0.33260661  0.33477582  1
  Cs  Cs23  1  0.67006282  0.33380198  0.66572459  1
  Cs  Cs24  1  0.66085206  0.67249188  0.00749075  1
  Cs  Cs25  1  0.66791814  0.66764236  0.33074565  1
  Cs  Cs26  1  0.66686374  0.66319265  0.66466104  1
  Sn  Sn27  1  0.16657463  0.83418450  0.49922214  1
  Sn  Sn28  1  0.16693431  0.16681496  0.83284596  1
  Sn  Sn29  1  0.49982551  0.16631519  0.83287335  1
  Sn  Sn30  1  0.49931045  0.16661734  0.50031396  1
  Sn  Sn31  1  0.83383198  0.83253602  0.49985068  1
  Sn  Sn32  1  0.50027868  0.16642462  0.16668491  1
  Sn  Sn33  1  0.50054017  0.49978236  0.49968213  1
  Sn  Sn34  1  0.83310126  0.16621935  0.16682239  1
  Sn  Sn35  1  0.83293844  0.50030667  0.83353490  1
  Sn  Sn36  1  0.16743753  0.83337406  0.16697350  1
  Sn  Sn37  1  0.16719830  0.16604895  0.50073663  1
  Sn  Sn38  1  0.16675637  0.16601180  0.16658364  1
  Sn  Sn39  1  0.49955988  0.83335373  0.50006203  1
  Sn  Sn40  1  0.83266432  0.50090446  0.50038596  1
  Pb  Pb41  1  0.83318921  0.83048340  0.83110715  1
  Pb  Pb42  1  0.83355846  0.16672624  0.49852034  1
  Pb  Pb43  1  0.50005692  0.83610063  0.83064444  1
  Pb  Pb44  1  0.83327080  0.49849376  0.16709354  1
  Pb  Pb45  1  0.16673879  0.83543090  0.83336534  1
  Pb  Pb46  1  0.16427062  0.49698397  0.83332153  1
  Pb  Pb47  1  0.50226618  0.49746279  0.83086773  1
  Pb  Pb48  1  0.16709229  0.50114564  0.16651652  1
  Pb  Pb49  1  0.83579310  0.83573542  0.16931960  1
  Pb  Pb50  1  0.83303836  0.16811006  0.83606348  1
  Pb  Pb51  1  0.16666612  0.50020158  0.49985464  1
  Pb  Pb52  1  0.49691448  0.83553890  0.16884106  1
  Pb  Pb53  1  0.49969824  0.49795847  0.16945133  1
  I  I54  1  0.16655586  0.00237048  0.16923605  1
  I  I55  1  0.16925721  0.00123742  0.49890502  1
  I  I56  1  0.16947069  0.00410172  0.83281751  1
  I  I57  1  0.16627586  0.32895366  0.16850305  1
  I  I58  1  0.16970692  0.32982438  0.49865852  1
  I  I59  1  0.17166590  0.32836528  0.83281606  1
  I  I60  1  0.16364393  0.67063056  0.17734336  1
  I  I61  1  0.16873738  0.67013406  0.49403891  1
  I  I62  1  0.16502545  0.66672218  0.83303770  1
  I  I63  1  0.50190190  0.00436897  0.16977283  1
  I  I64  1  0.49965075  0.00111250  0.49954106  1
  I  I65  1  0.49627394  0.00462055  0.83117680  1
  I  I66  1  0.49659324  0.32853575  0.16942381  1
  I  I67  1  0.50073026  0.33172315  0.49972674  1
  I  I68  1  0.49555042  0.32927685  0.83135015  1
  I  I69  1  0.49933815  0.66717639  0.16789496  1
  I  I70  1  0.50065942  0.66699909  0.49973503  1
  I  I71  1  0.50050931  0.66644689  0.83224739  1
  I  I72  1  0.83084573  0.00383142  0.16801036  1
  I  I73  1  0.83111222  -0.00214933  0.49695401  1
  I  I74  1  0.83361586  0.00020036  0.83250801  1
  I  I75  1  0.83693746  0.32991382  0.17030716  1
  I  I76  1  0.82995315  0.33543674  0.50217375  1
  I  I77  1  0.83347643  0.33545397  0.82324137  1
  I  I78  1  0.83629872  0.66706072  0.16494249  1
  I  I79  1  0.83035827  0.66674817  0.50383010  1
  I  I80  1  0.83486239  0.66259558  0.83023522  1
  I  I81  1  0.16903926  0.16365276  0.00084392  1
  I  I82  1  0.16901842  0.16344641  0.33373530  1
  I  I83  1  0.17402694  0.16326158  0.66543161  1
  I  I84  1  0.16292753  0.49880833  -0.00016487  1
  I  I85  1  0.16374620  0.49290279  0.33369085  1
  I  I86  1  0.16835056  0.49921425  0.66632420  1
  I  I87  1  0.16404890  0.84113490  0.00310889  1
  I  I88  1  0.16651247  0.84362933  0.33506969  1
  I  I89  1  0.16681192  0.83798585  0.66287143  1
  I  I90  1  0.49583029  0.16833903  0.00032668  1
  I  I91  1  0.49746562  0.16713478  0.33449816  1
  I  I92  1  0.49241888  0.16686364  0.66504134  1
  I  I93  1  0.50143844  0.49805380  -0.00029507  1
  I  I94  1  0.50739723  0.49723217  0.33800638  1
  I  I95  1  0.50161974  0.49710756  0.66262058  1
  I  I96  1  0.49957886  0.83433025  0.00023417  1
  I  I97  1  0.50290068  0.83608865  0.33749838  1
  I  I98  1  0.49653748  0.83613378  0.66161189  1
  I  I99  1  0.83471201  0.17015931  0.00372606  1
  I  I100  1  0.83390980  0.16851034  0.33084431  1
  I  I101  1  0.83402444  0.16505253  0.66650191  1
  I  I102  1  0.83661295  0.49299482  -0.00237871  1
  I  I103  1  0.82920668  0.50301191  0.33685648  1
  I  I104  1  0.82939404  0.50124337  0.66461816  1
  I  I105  1  0.83558099  0.83274629  0.00047126  1
  I  I106  1  0.83038376  0.82674303  0.33751107  1
  I  I107  1  0.83611005  0.83564485  0.66207659  1
  I  I108  1  0.00142163  0.16442397  0.16768737  1
  I  I109  1  0.00290450  0.16409800  0.49941425  1
  I  I110  1  0.00278074  0.16795826  0.83242789  1
  I  I111  1  -0.00008768  0.49412945  0.17002842  1
  I  I112  1  -0.00286142  0.50196381  0.50356968  1
  I  I113  1  -0.00331950  0.49740050  0.82375697  1
  I  I114  1  0.00344559  0.84184693  0.17395953  1
  I  I115  1  0.00062590  0.83425118  0.49614980  1
  I  I116  1  0.00003030  0.83683332  0.83002233  1
  I  I117  1  0.33295702  0.16326797  0.16791533  1
  I  I118  1  0.33375268  0.16495225  0.49631249  1
  I  I119  1  0.33323079  0.16688653  0.83647867  1
  I  I120  1  0.33351013  0.49581406  0.16964154  1
  I  I121  1  0.33622660  0.49993336  0.49865399  1
  I  I122  1  0.33373462  0.50151842  0.83253385  1
  I  I123  1  0.32939871  0.84247058  0.17537082  1
  I  I124  1  0.33309318  0.83603691  0.49539485  1
  I  I125  1  0.33333179  0.82956575  0.83054813  1
  I  I126  1  0.66572411  0.16988469  0.16911392  1
  I  I127  1  0.66377421  0.16462150  0.49980523  1
  I  I128  1  0.66376516  0.16894547  0.83064658  1
  I  I129  1  0.66658771  0.49573376  0.16554175  1
  I  I130  1  0.66657786  0.50081796  0.50411801  1
  I  I131  1  0.66959713  0.49444120  0.82837282  1
  I  I132  1  0.66637904  0.83576126  0.16795083  1
  I  I133  1  0.66623065  0.83476446  0.50183651  1
  I  I134  1  0.66666223  0.83873268  0.83156992  1
