# generated using pymatgen
data_Cs27Sn13Pb14I81
_symmetry_space_group_name_H-M   'P 1'
_cell_length_a   18.97648031
_cell_length_b   18.97797025
_cell_length_c   18.98137902
_cell_angle_alpha   89.99780113
_cell_angle_beta   89.99983615
_cell_angle_gamma   90.00099655
_symmetry_Int_Tables_number   1
_chemical_formula_structural   Cs27Sn13Pb14I81
_chemical_formula_sum   'Cs27 Sn13 Pb14 I81'
_cell_volume   6835.86041891
_cell_formula_units_Z   1
loop_
 _symmetry_equiv_pos_site_id
 _symmetry_equiv_pos_as_xyz
  1  'x, y, z'
loop_
 _atom_site_type_symbol
 _atom_site_label
 _atom_site_symmetry_multiplicity
 _atom_site_fract_x
 _atom_site_fract_y
 _atom_site_fract_z
 _atom_site_occupancy
  Cs  Cs0  1  0.00156787  0.00086378  -0.00024842  1
  Cs  Cs1  1  0.00005411  0.00122398  0.33424932  1
  Cs  Cs2  1  -0.00061447  -0.00059331  0.66747643  1
  Cs  Cs3  1  0.00053668  0.33171734  0.00019242  1
  Cs  Cs4  1  -0.00029565  0.33373279  0.33538685  1
  Cs  Cs5  1  -0.00022767  0.33464872  0.66578742  1
  Cs  Cs6  1  0.00049432  0.66698204  -0.00166361  1
  Cs  Cs7  1  -0.00364251  0.66342008  0.33531736  1
  Cs  Cs8  1  0.00106517  0.66619272  0.66757462  1
  Cs  Cs9  1  0.32979233  0.00124767  -0.00020064  1
  Cs  Cs10  1  0.33401423  -0.00029259  0.33367204  1
  Cs  Cs11  1  0.33527318  0.00096927  0.66665819  1
  Cs  Cs12  1  0.33417091  0.33123116  -0.00124094  1
  Cs  Cs13  1  0.33363654  0.33473568  0.33720191  1
  Cs  Cs14  1  0.34350487  0.33352994  0.66570861  1
  Cs  Cs15  1  0.33273885  0.66723168  0.00006932  1
  Cs  Cs16  1  0.33578663  0.66544217  0.33318247  1
  Cs  Cs17  1  0.33071220  0.66461836  0.66700300  1
  Cs  Cs18  1  0.66862421  -0.00106306  0.00199912  1
  Cs  Cs19  1  0.66411922  -0.00450165  0.33377107  1
  Cs  Cs20  1  0.66609133  0.00049024  0.66403982  1
  Cs  Cs21  1  0.66550554  0.33560536  0.00108188  1
  Cs  Cs22  1  0.66596033  0.33687955  0.33090057  1
  Cs  Cs23  1  0.65836123  0.33173083  0.66716146  1
  Cs  Cs24  1  0.66425008  0.66458507  0.00531041  1
  Cs  Cs25  1  0.66648211  0.66738733  0.32931618  1
  Cs  Cs26  1  0.66608705  0.66757340  0.66328171  1
  Sn  Sn27  1  0.83251730  0.16640326  0.16676926  1
  Sn  Sn28  1  0.50002097  0.83343357  0.83344318  1
  Sn  Sn29  1  0.83399529  0.49996701  0.83325012  1
  Sn  Sn30  1  0.83406610  0.16662564  0.50020795  1
  Sn  Sn31  1  0.83374161  0.16692990  0.83313425  1
  Sn  Sn32  1  0.50079941  0.16643886  0.16643411  1
  Sn  Sn33  1  0.16662902  0.83298062  0.83331510  1
  Sn  Sn34  1  0.16624476  0.50065657  0.16572593  1
  Sn  Sn35  1  0.16613958  0.83243956  0.16688664  1
  Sn  Sn36  1  0.83298418  0.83299709  0.83354075  1
  Sn  Sn37  1  0.16596806  0.50017444  0.83425076  1
  Sn  Sn38  1  0.16606575  0.16603575  0.50054841  1
  Sn  Sn39  1  0.16622721  0.83421773  0.50006904  1
  Pb  Pb40  1  0.83557141  0.83507437  0.16484815  1
  Pb  Pb41  1  0.50061209  0.16643525  0.49746481  1
  Pb  Pb42  1  0.50043958  0.50053423  0.49974901  1
  Pb  Pb43  1  0.49752671  0.83331692  0.50205504  1
  Pb  Pb44  1  0.83324422  0.49760161  0.50260262  1
  Pb  Pb45  1  0.16621560  0.16692931  0.16857576  1
  Pb  Pb46  1  0.83523710  0.83499002  0.50190818  1
  Pb  Pb47  1  0.49755906  0.83503713  0.16467911  1
  Pb  Pb48  1  0.50306027  0.16430150  0.83540010  1
  Pb  Pb49  1  0.16664953  0.50016544  0.50055041  1
  Pb  Pb50  1  0.83559001  0.49787594  0.16455656  1
  Pb  Pb51  1  0.16527596  0.16723923  0.83104008  1
  Pb  Pb52  1  0.49710528  0.49789024  0.16635671  1
  Pb  Pb53  1  0.50002504  0.50267040  0.83347610  1
  I  I54  1  0.16638546  -0.00242715  0.16303683  1
  I  I55  1  0.16273756  -0.00046723  0.50015265  1
  I  I56  1  0.16544362  -0.00306521  0.83603231  1
  I  I57  1  0.16616068  0.33554073  0.16221772  1
  I  I58  1  0.16215192  0.33052980  0.49831648  1
  I  I59  1  0.16095754  0.33616189  0.83774384  1
  I  I60  1  0.16697986  0.66751439  0.16603615  1
  I  I61  1  0.16780531  0.66985144  0.50169299  1
  I  I62  1  0.16235452  0.66806416  0.83211769  1
  I  I63  1  0.50204560  0.00293725  0.16558086  1
  I  I64  1  0.49997959  0.00007026  0.50103299  1
  I  I65  1  0.49650898  -0.00334933  0.83399456  1
  I  I66  1  0.50260124  0.32980397  0.16554354  1
  I  I67  1  0.49570569  0.33266802  0.50187168  1
  I  I68  1  0.49888940  0.33323023  0.83341698  1
  I  I69  1  0.50027287  0.66684614  0.16548155  1
  I  I70  1  0.49691134  0.66725903  0.50105545  1
  I  I71  1  0.50223842  0.67051287  0.83424524  1
  I  I72  1  0.83361795  0.00352515  0.16320133  1
  I  I73  1  0.83646583  0.00353515  0.50297607  1
  I  I74  1  0.83466496  -0.00006244  0.83359418  1
  I  I75  1  0.83312253  0.32945180  0.16388362  1
  I  I76  1  0.84184357  0.32873516  0.50121744  1
  I  I77  1  0.84024760  0.33301932  0.83395394  1
  I  I78  1  0.83287314  0.66663808  0.16503481  1
  I  I79  1  0.83573517  0.66678850  0.50238309  1
  I  I80  1  0.83637653  0.66728400  0.83338335  1
  I  I81  1  0.16562744  0.16416540  -0.00006595  1
  I  I82  1  0.16165217  0.16279344  0.33619347  1
  I  I83  1  0.16076844  0.16228727  0.66337752  1
  I  I84  1  0.16307873  0.50735036  -0.00118283  1
  I  I85  1  0.16796284  0.50189749  0.33074035  1
  I  I86  1  0.16202045  0.50403952  0.67015591  1
  I  I87  1  0.16647545  0.82967989  -0.00121418  1
  I  I88  1  0.16683484  0.83516685  0.33320691  1
  I  I89  1  0.16603098  0.83362815  0.66814403  1
  I  I90  1  0.50300518  0.16592321  0.00292684  1
  I  I91  1  0.50381076  0.16565356  0.32991653  1
  I  I92  1  0.49967297  0.16647371  0.66677007  1
  I  I93  1  0.50094163  0.49866216  -0.00023790  1
  I  I94  1  0.49647081  0.49860337  0.33274402  1
  I  I95  1  0.49656493  0.49780111  0.66737470  1
  I  I96  1  0.49792514  0.83482392  -0.00342555  1
  I  I97  1  0.49747862  0.83542987  0.33303635  1
  I  I98  1  0.49874977  0.83501383  0.67066387  1
  I  I99  1  0.82981452  0.16597613  -0.00071747  1
  I  I100  1  0.83525779  0.16628251  0.33333892  1
  I  I101  1  0.84025456  0.16564630  0.66735715  1
  I  I102  1  0.83618429  0.49802521  -0.00387488  1
  I  I103  1  0.83589685  0.49681678  0.33307168  1
  I  I104  1  0.84200146  0.49972458  0.67144215  1
  I  I105  1  0.83695032  0.83686477  -0.00408299  1
  I  I106  1  0.83600473  0.83669045  0.33329463  1
  I  I107  1  0.83637130  0.83595343  0.67100281  1
  I  I108  1  -0.00256802  0.16620848  0.16426986  1
  I  I109  1  -0.00021972  0.16258462  0.49804157  1
  I  I110  1  -0.00312859  0.16218051  0.83825859  1
  I  I111  1  0.00363594  0.50141322  0.16402062  1
  I  I112  1  0.00022519  0.50005375  0.49868000  1
  I  I113  1  0.00063893  0.50435222  0.83674349  1
  I  I114  1  0.00401153  0.83364213  0.16321169  1
  I  I115  1  0.00383971  0.83609866  0.50287283  1
  I  I116  1  0.00071638  0.83347814  0.83330429  1
  I  I117  1  0.33468196  0.16599106  0.16811398  1
  I  I118  1  0.33051699  0.16329460  0.49797586  1
  I  I119  1  0.33341004  0.16642637  0.83383784  1
  I  I120  1  0.32882732  0.50146685  0.15968752  1
  I  I121  1  0.33249719  0.49595199  0.50290201  1
  I  I122  1  0.32985371  0.50488153  0.83615610  1
  I  I123  1  0.32908084  0.83358096  0.16359558  1
  I  I124  1  0.32850981  0.84045613  0.50236764  1
  I  I125  1  0.33126997  0.82906428  0.83335887  1
  I  I126  1  0.66819141  0.16606828  0.16636458  1
  I  I127  1  0.67023670  0.16752943  0.50429505  1
  I  I128  1  0.67153555  0.16745953  0.82796946  1
  I  I129  1  0.66691459  0.49942256  0.16502509  1
  I  I130  1  0.66721959  0.49670015  0.50328887  1
  I  I131  1  0.67009425  0.49873895  0.83208569  1
  I  I132  1  0.66683155  0.83426088  0.16389576  1
  I  I133  1  0.66691139  0.83608238  0.50316038  1
  I  I134  1  0.66782217  0.83569299  0.83353654  1
