# generated using pymatgen
data_Cs27Sn14Pb13I81
_symmetry_space_group_name_H-M   'P 1'
_cell_length_a   18.96515375
_cell_length_b   18.98076286
_cell_length_c   18.98071889
_cell_angle_alpha   90.00028815
_cell_angle_beta   89.99888523
_cell_angle_gamma   90.00212704
_symmetry_Int_Tables_number   1
_chemical_formula_structural   Cs27Sn14Pb13I81
_chemical_formula_sum   'Cs27 Sn14 Pb13 I81'
_cell_volume   6832.54794648
_cell_formula_units_Z   1
loop_
 _symmetry_equiv_pos_site_id
 _symmetry_equiv_pos_as_xyz
  1  'x, y, z'
loop_
 _atom_site_type_symbol
 _atom_site_label
 _atom_site_symmetry_multiplicity
 _atom_site_fract_x
 _atom_site_fract_y
 _atom_site_fract_z
 _atom_site_occupancy
  Cs  Cs0  1  -0.00808705  -0.00490451  0.00665792  1
  Cs  Cs1  1  0.01096120  0.00183348  0.32818027  1
  Cs  Cs2  1  0.00140647  -0.00304676  0.66621752  1
  Cs  Cs3  1  -0.00048601  0.33031005  0.00106769  1
  Cs  Cs4  1  -0.00293921  0.33241635  0.33082372  1
  Cs  Cs5  1  0.00302542  0.33573823  0.66619441  1
  Cs  Cs6  1  -0.00003511  0.67614000  -0.00397388  1
  Cs  Cs7  1  -0.00526188  0.66555072  0.33073322  1
  Cs  Cs8  1  0.00333119  0.66682606  0.67120650  1
  Cs  Cs9  1  0.33464900  0.00216602  0.00307888  1
  Cs  Cs10  1  0.32950242  0.00103321  0.33411428  1
  Cs  Cs11  1  0.33266911  0.00179679  0.66364841  1
  Cs  Cs12  1  0.33393989  0.33597032  -0.00211451  1
  Cs  Cs13  1  0.33423082  0.33316190  0.33324110  1
  Cs  Cs14  1  0.33252911  0.33390568  0.66866786  1
  Cs  Cs15  1  0.33350854  0.66325799  -0.00141517  1
  Cs  Cs16  1  0.33625412  0.66596627  0.33298213  1
  Cs  Cs17  1  0.33263513  0.66478142  0.66772382  1
  Cs  Cs18  1  0.67233600  0.00239823  -0.00448234  1
  Cs  Cs19  1  0.66389288  -0.00094940  0.33736361  1
  Cs  Cs20  1  0.66636230  0.00119856  0.66726265  1
  Cs  Cs21  1  0.66793363  0.32995651  -0.00184504  1
  Cs  Cs22  1  0.66765136  0.33531890  0.33522218  1
  Cs  Cs23  1  0.66694133  0.33184359  0.66584984  1
  Cs  Cs24  1  0.66553640  0.66745976  0.00077307  1
  Cs  Cs25  1  0.66608834  0.66536544  0.33509902  1
  Cs  Cs26  1  0.66592197  0.66644862  0.66417091  1
  Sn  Sn27  1  0.83245683  0.49985760  0.83337265  1
  Sn  Sn28  1  0.50051763  0.16687131  0.49917166  1
  Sn  Sn29  1  0.50129388  0.50064609  0.83319332  1
  Sn  Sn30  1  0.16720431  0.50016023  0.16757626  1
  Sn  Sn31  1  0.16737252  0.50009165  0.49853987  1
  Sn  Sn32  1  0.50011320  0.83350532  0.16664949  1
  Sn  Sn33  1  0.50032041  0.83334864  0.50015162  1
  Sn  Sn34  1  0.49921348  0.49981598  0.50013437  1
  Sn  Sn35  1  0.49975487  0.83275843  0.83307670  1
  Sn  Sn36  1  0.83311992  0.16531227  0.49997609  1
  Sn  Sn37  1  0.16639701  0.16590141  0.83370890  1
  Sn  Sn38  1  0.50018350  0.16695468  0.16751997  1
  Sn  Sn39  1  0.49973853  0.49974316  0.16674729  1
  Sn  Sn40  1  0.83290313  0.83470603  0.49978321  1
  Pb  Pb41  1  0.83046065  0.83338332  0.16980169  1
  Pb  Pb42  1  0.83609162  0.16838552  0.83078888  1
  Pb  Pb43  1  0.49906220  0.16662557  0.83308313  1
  Pb  Pb44  1  0.16684945  0.16888830  0.50098963  1
  Pb  Pb45  1  0.16928190  0.83042398  0.16672624  1
  Pb  Pb46  1  0.83075089  0.83144913  0.83082520  1
  Pb  Pb47  1  0.83333571  0.50021107  0.50147954  1
  Pb  Pb48  1  0.16903758  0.16894924  0.16435081  1
  Pb  Pb49  1  0.16944853  0.83665476  0.83344543  1
  Pb  Pb50  1  0.83304578  0.50014917  0.16381705  1
  Pb  Pb51  1  0.83062898  0.16666007  0.16965548  1
  Pb  Pb52  1  0.16688556  0.49913776  0.83399695  1
  Pb  Pb53  1  0.16692808  0.83047318  0.49988283  1
  I  I54  1  0.16872763  0.00009292  0.16539870  1
  I  I55  1  0.16927501  0.00004701  0.50268609  1
  I  I56  1  0.17042446  0.00387464  0.82960845  1
  I  I57  1  0.17445628  0.33682668  0.16986927  1
  I  I58  1  0.17180755  0.33678800  0.49865301  1
  I  I59  1  0.17079856  0.33201335  0.83178585  1
  I  I60  1  0.17382412  0.66233036  0.16941371  1
  I  I61  1  0.17223996  0.66241426  0.49899841  1
  I  I62  1  0.16486995  0.66660733  0.83296984  1
  I  I63  1  0.50089811  -0.00009294  0.16951375  1
  I  I64  1  0.50463491  -0.00002138  0.49863489  1
  I  I65  1  0.49671775  -0.00256565  0.83274468  1
  I  I66  1  0.49613581  0.33424862  0.16914905  1
  I  I67  1  0.50022961  0.33381511  0.49828442  1
  I  I68  1  0.50092386  0.33627977  0.83289590  1
  I  I69  1  0.49662899  0.66601023  0.16873586  1
  I  I70  1  0.50040902  0.66635935  0.49852943  1
  I  I71  1  0.50276325  0.66541799  0.83254721  1
  I  I72  1  0.83188109  0.00002018  0.16189794  1
  I  I73  1  0.82173142  0.00002946  0.50203176  1
  I  I74  1  0.83271335  -0.00020267  0.83355076  1
  I  I75  1  0.83023244  0.33353055  0.16934802  1
  I  I76  1  0.82893412  0.33138582  0.50193889  1
  I  I77  1  0.82530173  0.33625634  0.83039075  1
  I  I78  1  0.83108908  0.66658688  0.17004636  1
  I  I79  1  0.82828335  0.66882109  0.50110358  1
  I  I80  1  0.83261722  0.66344958  0.83037554  1
  I  I81  1  0.17150242  0.17204515  -0.00280441  1
  I  I82  1  0.16506162  0.16653357  0.33316751  1
  I  I83  1  0.17091329  0.17198875  0.66839342  1
  I  I84  1  0.17279071  0.49722472  0.00241410  1
  I  I85  1  0.17647805  0.49923882  0.33373985  1
  I  I86  1  0.17050516  0.49813245  0.66463980  1
  I  I87  1  0.16912177  0.82971024  0.00001247  1
  I  I88  1  0.16870699  0.83673491  0.33347514  1
  I  I89  1  0.16999981  0.82959114  0.66654797  1
  I  I90  1  0.49563547  0.16779646  0.00236798  1
  I  I91  1  0.50291215  0.16784416  0.33439419  1
  I  I92  1  0.50176328  0.16740542  0.66358274  1
  I  I93  1  0.49896106  0.50240031  0.00021539  1
  I  I94  1  0.49550100  0.50155843  0.33378355  1
  I  I95  1  0.49955009  0.50194000  0.66606114  1
  I  I96  1  0.49707582  0.82896886  0.00019119  1
  I  I97  1  0.50404533  0.83002081  0.33400106  1
  I  I98  1  0.50348072  0.83016766  0.66576414  1
  I  I99  1  0.83278594  0.16893833  -0.00003947  1
  I  I100  1  0.83158200  0.16616699  0.33782776  1
  I  I101  1  0.82412205  0.16476670  0.66302556  1
  I  I102  1  0.82785800  0.49895699  -0.00383837  1
  I  I103  1  0.83189954  0.49992480  0.33345408  1
  I  I104  1  0.82829423  0.49966596  0.66901957  1
  I  I105  1  0.83261961  0.83145695  -0.00011197  1
  I  I106  1  0.82558875  0.83355811  0.33769631  1
  I  I107  1  0.82540995  0.83586110  0.66313233  1
  I  I108  1  0.00013520  0.16974203  0.16702697  1
  I  I109  1  -0.00246652  0.16472638  0.50470550  1
  I  I110  1  0.00329328  0.17328550  0.82985059  1
  I  I111  1  0.00289660  0.49790497  0.17176526  1
  I  I112  1  0.00244089  0.49900904  0.49859660  1
  I  I113  1  -0.00181359  0.49627391  0.83025314  1
  I  I114  1  -0.00011952  0.83134905  0.16746225  1
  I  I115  1  -0.00286773  0.83617240  0.50191895  1
  I  I116  1  -0.00034054  0.83039466  0.83050378  1
  I  I117  1  0.33763015  0.16449890  0.17365110  1
  I  I118  1  0.33691624  0.16450414  0.49781756  1
  I  I119  1  0.33196110  0.17064573  0.83061906  1
  I  I120  1  0.33600559  0.50020469  0.16540271  1
  I  I121  1  0.33605037  0.49960985  0.50230443  1
  I  I122  1  0.33674074  0.50221469  0.83286417  1
  I  I123  1  0.33829988  0.83529117  0.17073000  1
  I  I124  1  0.33756291  0.83581164  0.49974304  1
  I  I125  1  0.33814596  0.82467412  0.82995965  1
  I  I126  1  0.66183585  0.17081536  0.16586093  1
  I  I127  1  0.66438877  0.16909744  0.49753400  1
  I  I128  1  0.66654715  0.16600138  0.83512748  1
  I  I129  1  0.66238925  0.50081628  0.17052357  1
  I  I130  1  0.66315376  0.50012535  0.49778435  1
  I  I131  1  0.66386232  0.50243682  0.83189925  1
  I  I132  1  0.66160178  0.82864045  0.16466209  1
  I  I133  1  0.66391677  0.83128949  0.49989297  1
  I  I134  1  0.66222643  0.83253657  0.83543314  1
