# generated using pymatgen
data_Cs27Sn13Pb14I81
_symmetry_space_group_name_H-M   'P 1'
_cell_length_a   19.00292760
_cell_length_b   18.98387344
_cell_length_c   18.99160358
_cell_angle_alpha   89.99883607
_cell_angle_beta   90.00161998
_cell_angle_gamma   89.99897558
_symmetry_Int_Tables_number   1
_chemical_formula_structural   Cs27Sn13Pb14I81
_chemical_formula_sum   'Cs27 Sn13 Pb14 I81'
_cell_volume   6851.20526802
_cell_formula_units_Z   1
loop_
 _symmetry_equiv_pos_site_id
 _symmetry_equiv_pos_as_xyz
  1  'x, y, z'
loop_
 _atom_site_type_symbol
 _atom_site_label
 _atom_site_symmetry_multiplicity
 _atom_site_fract_x
 _atom_site_fract_y
 _atom_site_fract_z
 _atom_site_occupancy
  Cs  Cs0  1  -0.00023378  0.00130720  0.00199675  1
  Cs  Cs1  1  -0.00054153  -0.00093004  0.33122868  1
  Cs  Cs2  1  -0.00157964  0.00102923  0.66589529  1
  Cs  Cs3  1  -0.00258546  0.33356855  -0.00015890  1
  Cs  Cs4  1  0.00296787  0.33958120  0.33972643  1
  Cs  Cs5  1  0.00149427  0.33837034  0.65939568  1
  Cs  Cs6  1  0.00152547  0.66030021  -0.00139298  1
  Cs  Cs7  1  -0.00185655  0.66352021  0.33242630  1
  Cs  Cs8  1  -0.00008225  0.65898144  0.66912348  1
  Cs  Cs9  1  0.33206786  0.00000574  0.00021209  1
  Cs  Cs10  1  0.33250189  -0.00029224  0.33180541  1
  Cs  Cs11  1  0.33217263  -0.00144263  0.66831038  1
  Cs  Cs12  1  0.33481701  0.33035426  0.00318577  1
  Cs  Cs13  1  0.34051979  0.34116873  0.34148795  1
  Cs  Cs14  1  0.33294832  0.33280203  0.65828851  1
  Cs  Cs15  1  0.33023339  0.66819390  -0.00148226  1
  Cs  Cs16  1  0.33298623  0.66626132  0.33262014  1
  Cs  Cs17  1  0.33197350  0.66883343  0.66949355  1
  Cs  Cs18  1  0.66765812  0.00084598  0.00014378  1
  Cs  Cs19  1  0.66848533  -0.00033180  0.33280307  1
  Cs  Cs20  1  0.66916795  -0.00086385  0.66842056  1
  Cs  Cs21  1  0.66756723  0.33238357  0.00013665  1
  Cs  Cs22  1  0.65562402  0.34166189  0.34003193  1
  Cs  Cs23  1  0.66717213  0.33524034  0.66457094  1
  Cs  Cs24  1  0.66762539  0.66752726  -0.00062874  1
  Cs  Cs25  1  0.66866635  0.66535200  0.33534865  1
  Cs  Cs26  1  0.66787505  0.66796291  0.66687779  1
  Sn  Sn27  1  0.50005915  0.16659096  0.83342231  1
  Sn  Sn28  1  0.49910982  0.83415453  0.50006544  1
  Sn  Sn29  1  0.83392630  0.16646173  0.16669555  1
  Sn  Sn30  1  0.16617369  0.16632869  0.83392677  1
  Sn  Sn31  1  0.16623342  0.83406385  0.16724456  1
  Sn  Sn32  1  0.50072477  0.83370276  0.83366949  1
  Sn  Sn33  1  0.83320604  0.83414290  0.83443580  1
  Sn  Sn34  1  0.83368405  0.83405196  0.16528175  1
  Sn  Sn35  1  0.83381441  0.16574909  0.83388169  1
  Sn  Sn36  1  0.16597891  0.16638946  0.16634273  1
  Sn  Sn37  1  0.16685717  0.83412145  0.49920357  1
  Sn  Sn38  1  0.50016053  0.83373215  0.16649627  1
  Sn  Sn39  1  0.49963284  0.49992326  0.83409166  1
  Pb  Pb40  1  0.83336054  0.16645737  0.49885272  1
  Pb  Pb41  1  0.16654438  0.16436695  0.49883651  1
  Pb  Pb42  1  0.16951265  0.49570397  0.83377867  1
  Pb  Pb43  1  0.50020157  0.16359226  0.50269426  1
  Pb  Pb44  1  0.83379638  0.83348357  0.49998128  1
  Pb  Pb45  1  0.49999890  0.50308074  0.16401726  1
  Pb  Pb46  1  0.50018700  0.16502635  0.16532602  1
  Pb  Pb47  1  0.16692747  0.50388423  0.49999940  1
  Pb  Pb48  1  0.49995565  0.50375720  0.50305847  1
  Pb  Pb49  1  0.16675997  0.49890124  0.16634076  1
  Pb  Pb50  1  0.16578835  0.83475974  0.83371721  1
  Pb  Pb51  1  0.83325010  0.49886025  0.16647361  1
  Pb  Pb52  1  0.83136373  0.49941638  0.83357994  1
  Pb  Pb53  1  0.83304635  0.50008952  0.49998155  1
  I  I54  1  0.16639157  -0.00122406  0.16615175  1
  I  I55  1  0.17183990  -0.00352623  0.49896259  1
  I  I56  1  0.17215651  0.00266761  0.83410759  1
  I  I57  1  0.16062955  0.32898488  0.15909948  1
  I  I58  1  0.16609574  0.33327114  0.50071789  1
  I  I59  1  0.16472167  0.32755241  0.84047499  1
  I  I60  1  0.16684381  0.67055072  0.17098826  1
  I  I61  1  0.17150834  0.67203819  0.49463125  1
  I  I62  1  0.16670793  0.66669478  0.83236924  1
  I  I63  1  0.49932136  -0.00398949  0.16386815  1
  I  I64  1  0.49641967  -0.00447571  0.50251710  1
  I  I65  1  0.50086307  -0.00097876  0.83286753  1
  I  I66  1  0.49991464  0.33316337  0.16443162  1
  I  I67  1  0.50015947  0.33357680  0.50045485  1
  I  I68  1  0.50025736  0.33216993  0.83499280  1
  I  I69  1  0.49993037  0.67227806  0.16488190  1
  I  I70  1  0.49621671  0.67166197  0.50141443  1
  I  I71  1  0.50509674  0.66905592  0.83263884  1
  I  I72  1  0.83401330  -0.00134106  0.16169063  1
  I  I73  1  0.83207993  -0.00042123  0.50231572  1
  I  I74  1  0.82726810  -0.00033966  0.83652204  1
  I  I75  1  0.83959711  0.32889542  0.15867929  1
  I  I76  1  0.83387673  0.33305593  0.50165903  1
  I  I77  1  0.83187520  0.32932245  0.83844080  1
  I  I78  1  0.83342657  0.67071421  0.16278431  1
  I  I79  1  0.83326407  0.66757310  0.50092149  1
  I  I80  1  0.82850454  0.67008680  0.83644124  1
  I  I81  1  0.16712702  0.15918352  -0.00003970  1
  I  I82  1  0.15985243  0.16211519  0.32929249  1
  I  I83  1  0.16755281  0.16469386  0.66953220  1
  I  I84  1  0.16781064  0.50797518  -0.00016640  1
  I  I85  1  0.16776932  0.49538637  0.33330460  1
  I  I86  1  0.16653259  0.50089485  0.66696005  1
  I  I87  1  0.17032779  0.83546470  0.00289213  1
  I  I88  1  0.17069647  0.83898905  0.33170563  1
  I  I89  1  0.17162805  0.83527598  0.66517006  1
  I  I90  1  0.49951514  0.16327000  -0.00364857  1
  I  I91  1  0.50009470  0.16517691  0.33324777  1
  I  I92  1  0.49987841  0.16443185  0.67191178  1
  I  I93  1  0.50074705  0.50226020  -0.00385202  1
  I  I94  1  0.50012932  0.49957623  0.33361631  1
  I  I95  1  0.50065323  0.50065656  0.67071748  1
  I  I96  1  0.50028778  0.83331327  -0.00078057  1
  I  I97  1  0.49947793  0.83419097  0.33261188  1
  I  I98  1  0.49945952  0.83331691  0.66817157  1
  I  I99  1  0.83359143  0.16137616  -0.00090978  1
  I  I100  1  0.84024853  0.15793288  0.32886581  1
  I  I101  1  0.83250379  0.16101710  0.67058621  1
  I  I102  1  0.83223066  0.50230804  -0.00012735  1
  I  I103  1  0.83260389  0.50196242  0.33297085  1
  I  I104  1  0.83276766  0.50186618  0.66730701  1
  I  I105  1  0.82868620  0.83717431  -0.00013786  1
  I  I106  1  0.83035162  0.83767125  0.32975710  1
  I  I107  1  0.82874389  0.83760293  0.67009765  1
  I  I108  1  0.00002138  0.15569415  0.15624172  1
  I  I109  1  0.00013675  0.16342840  0.50704830  1
  I  I110  1  -0.00066325  0.15857031  0.83776645  1
  I  I111  1  0.00003598  0.50645419  0.16597291  1
  I  I112  1  0.00034826  0.50191691  0.50156917  1
  I  I113  1  0.00012178  0.50258564  0.83220482  1
  I  I114  1  -0.00008130  0.83782136  0.16752282  1
  I  I115  1  0.00288832  0.83486025  0.49658827  1
  I  I116  1  -0.00304176  0.83860281  0.83517971  1
  I  I117  1  0.33071428  0.15982991  0.15975434  1
  I  I118  1  0.33338303  0.16681832  0.50141286  1
  I  I119  1  0.33361484  0.16488461  0.83742573  1
  I  I120  1  0.33348549  0.50040640  0.16513154  1
  I  I121  1  0.33366319  0.49761105  0.50089498  1
  I  I122  1  0.33720277  0.50607908  0.83363664  1
  I  I123  1  0.33327467  0.83662032  0.16664703  1
  I  I124  1  0.33402867  0.83404422  0.49809453  1
  I  I125  1  0.33605985  0.83395179  0.83478663  1
  I  I126  1  0.66959659  0.16000063  0.16023054  1
  I  I127  1  0.66657618  0.16403672  0.50006574  1
  I  I128  1  0.66678057  0.16479810  0.83715032  1
  I  I129  1  0.66650744  0.49998643  0.16637086  1
  I  I130  1  0.66590353  0.50199939  0.50000651  1
  I  I131  1  0.66345630  0.49828958  0.83317583  1
  I  I132  1  0.66688698  0.83694987  0.16532747  1
  I  I133  1  0.66382805  0.83265892  0.49931867  1
  I  I134  1  0.66559878  0.83681664  0.83513230  1
