# generated using pymatgen
data_Cs27Sn14Pb13I81
_symmetry_space_group_name_H-M   'P 1'
_cell_length_a   18.95827239
_cell_length_b   18.96649120
_cell_length_c   18.95802968
_cell_angle_alpha   89.99885281
_cell_angle_beta   90.00031705
_cell_angle_gamma   90.00062995
_symmetry_Int_Tables_number   1
_chemical_formula_structural   Cs27Sn14Pb13I81
_chemical_formula_sum   'Cs27 Sn14 Pb13 I81'
_cell_volume   6816.77487415
_cell_formula_units_Z   1
loop_
 _symmetry_equiv_pos_site_id
 _symmetry_equiv_pos_as_xyz
  1  'x, y, z'
loop_
 _atom_site_type_symbol
 _atom_site_label
 _atom_site_symmetry_multiplicity
 _atom_site_fract_x
 _atom_site_fract_y
 _atom_site_fract_z
 _atom_site_occupancy
  Cs  Cs0  1  -0.00088272  0.00108043  0.00101217  1
  Cs  Cs1  1  0.00061347  -0.00112436  0.33263375  1
  Cs  Cs2  1  -0.00154244  0.00040179  0.66539586  1
  Cs  Cs3  1  -0.00051021  0.33212388  -0.00038150  1
  Cs  Cs4  1  -0.00114170  0.33496827  0.33191229  1
  Cs  Cs5  1  0.00045327  0.33297918  0.66792578  1
  Cs  Cs6  1  0.00217343  0.66884055  -0.00072026  1
  Cs  Cs7  1  -0.00153167  0.66745506  0.33994228  1
  Cs  Cs8  1  0.00440645  0.66618757  0.65895564  1
  Cs  Cs9  1  0.33281386  -0.00493101  -0.00004050  1
  Cs  Cs10  1  0.33529288  0.00262285  0.33328310  1
  Cs  Cs11  1  0.33465392  -0.00026281  0.66658474  1
  Cs  Cs12  1  0.33067823  0.33509949  -0.00112569  1
  Cs  Cs13  1  0.33542877  0.33105969  0.33337524  1
  Cs  Cs14  1  0.33517508  0.33340616  0.66630077  1
  Cs  Cs15  1  0.33410526  0.67039579  -0.00052664  1
  Cs  Cs16  1  0.33456959  0.66619158  0.33237729  1
  Cs  Cs17  1  0.33014139  0.66675961  0.66685391  1
  Cs  Cs18  1  0.66846057  -0.00222083  0.00020150  1
  Cs  Cs19  1  0.66289794  0.00274399  0.33364824  1
  Cs  Cs20  1  0.66745760  0.00063185  0.66736611  1
  Cs  Cs21  1  0.66897803  0.33501216  0.00038248  1
  Cs  Cs22  1  0.66529032  0.33460187  0.32589822  1
  Cs  Cs23  1  0.66465340  0.33270331  0.66802491  1
  Cs  Cs24  1  0.66388538  0.66728914  0.00065469  1
  Cs  Cs25  1  0.66768663  0.66301610  0.33476136  1
  Cs  Cs26  1  0.66696363  0.66569323  0.66504571  1
  Sn  Sn27  1  0.16675211  0.16653547  0.83310379  1
  Sn  Sn28  1  0.50008905  0.83232326  0.50030041  1
  Sn  Sn29  1  0.83395671  0.83335179  0.16625571  1
  Sn  Sn30  1  0.16644612  0.16671232  0.16661072  1
  Sn  Sn31  1  0.16644929  0.50020960  0.16665212  1
  Sn  Sn32  1  0.50024803  0.16712708  0.83354942  1
  Sn  Sn33  1  0.83314617  0.50036387  0.83307983  1
  Sn  Sn34  1  0.83312376  0.16677372  0.83277679  1
  Sn  Sn35  1  0.16565247  0.16675728  0.50013125  1
  Sn  Sn36  1  0.83376971  0.16696883  0.50030125  1
  Sn  Sn37  1  0.50057712  0.49941204  0.83259641  1
  Sn  Sn38  1  0.83366226  0.83286904  0.83354195  1
  Sn  Sn39  1  0.50009058  0.50077988  0.50071304  1
  Sn  Sn40  1  0.16566975  0.83313335  0.16674431  1
  Pb  Pb41  1  0.16878444  0.83564368  0.49760661  1
  Pb  Pb42  1  0.50032785  0.16728817  0.50173029  1
  Pb  Pb43  1  0.83129173  0.49707038  0.50219366  1
  Pb  Pb44  1  0.83504089  0.16507948  0.16648484  1
  Pb  Pb45  1  0.49806897  0.49996863  0.16579981  1
  Pb  Pb46  1  0.83563138  0.50272895  0.16420077  1
  Pb  Pb47  1  0.50209113  0.83291595  0.83161593  1
  Pb  Pb48  1  0.16885013  0.49747594  0.49781669  1
  Pb  Pb49  1  0.50052723  0.83328394  0.16905974  1
  Pb  Pb50  1  0.16672559  0.49838666  0.83462714  1
  Pb  Pb51  1  0.49745227  0.16665108  0.16287232  1
  Pb  Pb52  1  0.16414836  0.83573070  0.83473163  1
  Pb  Pb53  1  0.83164633  0.83530746  0.49996986  1
  I  I54  1  0.16287969  0.00056018  0.16603251  1
  I  I55  1  0.16603130  0.00399054  0.49919355  1
  I  I56  1  0.16795222  0.00444161  0.83534746  1
  I  I57  1  0.16856218  0.33207804  0.16570523  1
  I  I58  1  0.16570423  0.32913855  0.49881145  1
  I  I59  1  0.16311227  0.32964589  0.83609646  1
  I  I60  1  0.16380192  0.66738972  0.16517594  1
  I  I61  1  0.16648266  0.66660027  0.49806822  1
  I  I62  1  0.16727683  0.66682851  0.83678549  1
  I  I63  1  0.49732023  0.00002636  0.16828706  1
  I  I64  1  0.49977345  -0.00119006  0.50046600  1
  I  I65  1  0.49997018  0.00268594  0.83143908  1
  I  I66  1  0.49806940  0.33324287  0.17203066  1
  I  I67  1  0.49860364  0.33557512  0.50341237  1
  I  I68  1  0.50335177  0.33312181  0.82772924  1
  I  I69  1  0.49607851  0.66667035  0.16271075  1
  I  I70  1  0.50056545  0.66589443  0.50521009  1
  I  I71  1  0.50444141  0.66372287  0.83185842  1
  I  I72  1  0.83915023  -0.00278433  0.16100437  1
  I  I73  1  0.83447782  0.00329034  0.50571612  1
  I  I74  1  0.83365049  0.00117153  0.83381204  1
  I  I75  1  0.83487980  0.33338584  0.16628296  1
  I  I76  1  0.83607793  0.32906923  0.50537559  1
  I  I77  1  0.83270805  0.33222433  0.82901072  1
  I  I78  1  0.83855690  0.67059580  0.16198757  1
  I  I79  1  0.83305831  0.66649255  0.50076167  1
  I  I80  1  0.82700532  0.66654216  0.83973594  1
  I  I81  1  0.16680556  0.16693397  -0.00028509  1
  I  I82  1  0.16256498  0.16604888  0.33320781  1
  I  I83  1  0.16597255  0.16725440  0.66745307  1
  I  I84  1  0.16812693  0.49700311  0.00274576  1
  I  I85  1  0.16827100  0.49767495  0.32979091  1
  I  I86  1  0.16560543  0.49799314  0.66662726  1
  I  I87  1  0.16664807  0.83601377  0.00319033  1
  I  I88  1  0.16069531  0.83574322  0.32936017  1
  I  I89  1  0.16617942  0.83508637  0.66647877  1
  I  I90  1  0.50222148  0.17192670  -0.00534956  1
  I  I91  1  0.49982772  0.16673406  0.33345264  1
  I  I92  1  0.49627833  0.16758596  0.66992809  1
  I  I93  1  0.50289136  0.49488445  -0.00368080  1
  I  I94  1  0.49742119  0.50340528  0.33587821  1
  I  I95  1  0.50313181  0.49881986  0.66784436  1
  I  I96  1  0.49831916  0.83369049  -0.00018374  1
  I  I97  1  0.50089774  0.82928377  0.33687302  1
  I  I98  1  0.50194894  0.83381955  0.66400647  1
  I  I99  1  0.83396619  0.16791926  -0.00346318  1
  I  I100  1  0.83742378  0.16386333  0.33570249  1
  I  I101  1  0.83790107  0.16427087  0.66858017  1
  I  I102  1  0.82735678  0.49333880  -0.00409215  1
  I  I103  1  0.83210471  0.49951188  0.33335359  1
  I  I104  1  0.83287817  0.50361000  0.67072017  1
  I  I105  1  0.83632517  0.83662042  -0.00091368  1
  I  I106  1  0.83685731  0.83609575  0.33082726  1
  I  I107  1  0.83011900  0.83418651  0.66950694  1
  I  I108  1  0.00359017  0.16796879  0.16217761  1
  I  I109  1  0.00037423  0.16540069  0.50499999  1
  I  I110  1  -0.00042584  0.16667592  0.83350180  1
  I  I111  1  0.00355906  0.49562951  0.16421854  1
  I  I112  1  -0.00002530  0.50051767  0.50055003  1
  I  I113  1  -0.00272562  0.49776455  0.83695599  1
  I  I114  1  0.00053957  0.83507463  0.16196576  1
  I  I115  1  -0.00004178  0.83362349  0.50110784  1
  I  I116  1  -0.00420324  0.83360251  0.83468785  1
  I  I117  1  0.32866689  0.16390115  0.16881868  1
  I  I118  1  0.33084178  0.16643020  0.49990862  1
  I  I119  1  0.33306302  0.17174245  0.83344427  1
  I  I120  1  0.32982620  0.50070183  0.16464928  1
  I  I121  1  0.33678660  0.50137519  0.50678200  1
  I  I122  1  0.33612603  0.49423503  0.83140363  1
  I  I123  1  0.33021413  0.83475695  0.16798615  1
  I  I124  1  0.33647147  0.83243598  0.49962979  1
  I  I125  1  0.33326286  0.83434987  0.83460804  1
  I  I126  1  0.66685927  0.16437128  0.16824187  1
  I  I127  1  0.66902503  0.16515076  0.50624768  1
  I  I128  1  0.66771830  0.16678702  0.82734493  1
  I  I129  1  0.66694583  0.50156957  0.16828882  1
  I  I130  1  0.66326354  0.50151246  0.50124960  1
  I  I131  1  0.66662353  0.49454910  0.83049016  1
  I  I132  1  0.66978935  0.83449747  0.16251658  1
  I  I133  1  0.66394245  0.83314885  0.49888692  1
  I  I134  1  0.67026138  0.83892473  0.83892356  1
