# generated using pymatgen
data_Cs27Sn13Pb14I81
_symmetry_space_group_name_H-M   'P 1'
_cell_length_a   18.97997586
_cell_length_b   18.98075934
_cell_length_c   18.97593613
_cell_angle_alpha   89.99939800
_cell_angle_beta   90.00046463
_cell_angle_gamma   89.99981595
_symmetry_Int_Tables_number   1
_chemical_formula_structural   Cs27Sn13Pb14I81
_chemical_formula_sum   'Cs27 Sn13 Pb14 I81'
_cell_volume   6836.16361107
_cell_formula_units_Z   1
loop_
 _symmetry_equiv_pos_site_id
 _symmetry_equiv_pos_as_xyz
  1  'x, y, z'
loop_
 _atom_site_type_symbol
 _atom_site_label
 _atom_site_symmetry_multiplicity
 _atom_site_fract_x
 _atom_site_fract_y
 _atom_site_fract_z
 _atom_site_occupancy
  Cs  Cs0  1  0.00258270  -0.00105118  0.00199662  1
  Cs  Cs1  1  0.00109691  0.00013507  0.33505059  1
  Cs  Cs2  1  -0.00193630  0.00041671  0.66373468  1
  Cs  Cs3  1  -0.00032005  0.33362839  -0.00023118  1
  Cs  Cs4  1  -0.00088531  0.33447422  0.33126047  1
  Cs  Cs5  1  0.00446329  0.33192003  0.66856021  1
  Cs  Cs6  1  0.00085743  0.66689009  -0.00047817  1
  Cs  Cs7  1  -0.00431301  0.66476278  0.33376674  1
  Cs  Cs8  1  0.00216881  0.66649233  0.66550452  1
  Cs  Cs9  1  0.33407716  -0.00312142  0.00196503  1
  Cs  Cs10  1  0.33259701  -0.00088998  0.33032889  1
  Cs  Cs11  1  0.33486745  -0.00083972  0.66841000  1
  Cs  Cs12  1  0.33288803  0.32844259  0.00094919  1
  Cs  Cs13  1  0.33418964  0.33436975  0.33386943  1
  Cs  Cs14  1  0.32973484  0.33580833  0.66679603  1
  Cs  Cs15  1  0.33283954  0.67267150  0.00093633  1
  Cs  Cs16  1  0.33408096  0.66630832  0.33287729  1
  Cs  Cs17  1  0.32976514  0.66413685  0.66701071  1
  Cs  Cs18  1  0.66309281  -0.00097652  -0.00040789  1
  Cs  Cs19  1  0.66610618  0.00016368  0.33482859  1
  Cs  Cs20  1  0.66721317  -0.00005850  0.66612870  1
  Cs  Cs21  1  0.66722415  0.33523117  -0.00029992  1
  Cs  Cs22  1  0.66634060  0.33588132  0.33217820  1
  Cs  Cs23  1  0.66510281  0.33190281  0.66853381  1
  Cs  Cs24  1  0.66626552  0.66483400  -0.00011049  1
  Cs  Cs25  1  0.66942374  0.66352497  0.33493541  1
  Cs  Cs26  1  0.66687492  0.66728654  0.66558522  1
  Sn  Sn27  1  0.83318229  0.83354902  0.83424869  1
  Sn  Sn28  1  0.16690100  0.16579378  0.49981413  1
  Sn  Sn29  1  0.83268757  0.50005284  0.83310508  1
  Sn  Sn30  1  0.49986832  0.16589060  0.50001455  1
  Sn  Sn31  1  0.83302868  0.16557001  0.16648942  1
  Sn  Sn32  1  0.16788181  0.49999466  0.16642853  1
  Sn  Sn33  1  0.50037353  0.49995678  0.83425380  1
  Sn  Sn34  1  0.49904349  0.83397679  0.50000864  1
  Sn  Sn35  1  0.16777238  0.83403043  0.49990214  1
  Sn  Sn36  1  0.83313071  0.16638181  0.83368820  1
  Sn  Sn37  1  0.49875964  0.49994029  0.16549172  1
  Sn  Sn38  1  0.83302735  0.83436340  0.16585751  1
  Sn  Sn39  1  0.83322254  0.16688693  0.49985442  1
  Pb  Pb40  1  0.50163824  0.16835974  0.83143225  1
  Pb  Pb41  1  0.16714739  0.50002580  0.83601407  1
  Pb  Pb42  1  0.16445917  0.83357401  0.83106337  1
  Pb  Pb43  1  0.16658798  0.50007101  0.49786134  1
  Pb  Pb44  1  0.50197562  0.83132993  0.83117162  1
  Pb  Pb45  1  0.83301424  0.49996044  0.16469492  1
  Pb  Pb46  1  0.16437420  0.83165961  0.16894056  1
  Pb  Pb47  1  0.50206682  0.16836825  0.16856918  1
  Pb  Pb48  1  0.83342244  0.49675600  0.50329300  1
  Pb  Pb49  1  0.50235518  0.83134251  0.16882801  1
  Pb  Pb50  1  0.50006411  0.50002906  0.50044427  1
  Pb  Pb51  1  0.83326451  0.83497881  0.50001466  1
  Pb  Pb52  1  0.16485809  0.16628226  0.83149130  1
  Pb  Pb53  1  0.16468811  0.16805205  0.16867170  1
  I  I54  1  0.16518560  -0.00005788  0.16714993  1
  I  I55  1  0.16507417  0.00082081  0.49959546  1
  I  I56  1  0.16401638  -0.00005374  0.83503442  1
  I  I57  1  0.16698661  0.33612184  0.16953244  1
  I  I58  1  0.16567173  0.33012965  0.49945226  1
  I  I59  1  0.16257189  0.33337662  0.82930411  1
  I  I60  1  0.16707064  0.66368725  0.16944327  1
  I  I61  1  0.17109871  0.66961581  0.49945905  1
  I  I62  1  0.16198215  0.66658238  0.82896007  1
  I  I63  1  0.50076445  -0.00005689  0.16709815  1
  I  I64  1  0.50132903  0.00075097  0.50015848  1
  I  I65  1  0.50296281  -0.00008758  0.83201324  1
  I  I66  1  0.50017912  0.33656413  0.16617226  1
  I  I67  1  0.50143218  0.33040648  0.49990693  1
  I  I68  1  0.50758265  0.33651948  0.83436244  1
  I  I69  1  0.49999342  0.66324483  0.16600742  1
  I  I70  1  0.49592187  0.66932345  0.49998866  1
  I  I71  1  0.50778365  0.66326788  0.83417270  1
  I  I72  1  0.83391135  0.00066872  0.16339066  1
  I  I73  1  0.83326941  0.00318777  0.50411858  1
  I  I74  1  0.83486218  0.00048639  0.83181508  1
  I  I75  1  0.83346412  0.33079180  0.16783957  1
  I  I76  1  0.83277815  0.32826567  0.49737860  1
  I  I77  1  0.82941209  0.33300413  0.83227624  1
  I  I78  1  0.83356816  0.66876118  0.16338013  1
  I  I79  1  0.83337577  0.66678606  0.49894323  1
  I  I80  1  0.82955501  0.66670752  0.83871595  1
  I  I81  1  0.16317295  0.16995715  0.00034806  1
  I  I82  1  0.16283829  0.16412619  0.33726682  1
  I  I83  1  0.16339194  0.16522069  0.66239230  1
  I  I84  1  0.16541869  0.49973662  0.00354424  1
  I  I85  1  0.17151538  0.49932008  0.33028383  1
  I  I86  1  0.16602465  0.49972398  0.66671454  1
  I  I87  1  0.16581227  0.83090729  0.00031968  1
  I  I88  1  0.16702167  0.83719684  0.33699605  1
  I  I89  1  0.16726732  0.83584810  0.66258166  1
  I  I90  1  0.50309874  0.16779044  0.00005941  1
  I  I91  1  0.50380183  0.16623621  0.33714874  1
  I  I92  1  0.50368994  0.16579424  0.66278482  1
  I  I93  1  0.50281207  0.49973719  -0.00007880  1
  I  I94  1  0.49692911  0.49942492  0.33101111  1
  I  I95  1  0.50685676  0.49954602  0.66927366  1
  I  I96  1  0.50053420  0.83297180  0.00003936  1
  I  I97  1  0.49997709  0.83498413  0.33690754  1
  I  I98  1  0.50008411  0.83520471  0.66301289  1
  I  I99  1  0.83326066  0.16780659  -0.00027397  1
  I  I100  1  0.83364080  0.16168542  0.33364895  1
  I  I101  1  0.83327110  0.16711488  0.66642800  1
  I  I102  1  0.83221307  0.49534104  -0.00307894  1
  I  I103  1  0.83262716  0.50056691  0.33313558  1
  I  I104  1  0.82701391  0.50242291  0.67136992  1
  I  I105  1  0.83318931  0.83731461  -0.00034928  1
  I  I106  1  0.83357040  0.83703162  0.33129347  1
  I  I107  1  0.83319960  0.83329954  0.66905720  1
  I  I108  1  -0.00412501  0.16688804  0.16902779  1
  I  I109  1  -0.00067283  0.16280148  0.50071175  1
  I  I110  1  -0.00484344  0.17063050  0.83035567  1
  I  I111  1  0.00128514  0.49952979  0.16749931  1
  I  I112  1  -0.00013133  0.50135818  0.49823337  1
  I  I113  1  -0.00317285  0.49910874  0.83408391  1
  I  I114  1  -0.00381396  0.83402132  0.16576493  1
  I  I115  1  0.00174211  0.83734117  0.50021712  1
  I  I116  1  -0.00469386  0.83031183  0.83411434  1
  I  I117  1  0.33345110  0.16842641  0.16980008  1
  I  I118  1  0.33344423  0.16355788  0.49943337  1
  I  I119  1  0.33360365  0.17104560  0.82988812  1
  I  I120  1  0.33424323  0.49969015  0.16305001  1
  I  I121  1  0.33345647  0.49538112  0.50413740  1
  I  I122  1  0.33651394  0.49968974  0.83288686  1
  I  I123  1  0.33345135  0.83230496  0.16730645  1
  I  I124  1  0.33348355  0.84127027  0.49944197  1
  I  I125  1  0.33361689  0.83001489  0.83260222  1
  I  I126  1  0.67077619  0.16651906  0.16947337  1
  I  I127  1  0.66726585  0.16299535  0.50068795  1
  I  I128  1  0.67080757  0.16571450  0.82980661  1
  I  I129  1  0.66474531  0.49956416  0.16535844  1
  I  I130  1  0.66673515  0.50121163  0.49450041  1
  I  I131  1  0.66768363  0.49911233  0.83907721  1
  I  I132  1  0.67046743  0.83458431  0.16605035  1
  I  I133  1  0.66480738  0.83690252  0.50033395  1
  I  I134  1  0.67064326  0.83537832  0.83332483  1
