# generated using pymatgen
data_Cs27Sn14Pb13I81
_symmetry_space_group_name_H-M   'P 1'
_cell_length_a   18.97473113
_cell_length_b   18.97450285
_cell_length_c   18.98275588
_cell_angle_alpha   90.00034888
_cell_angle_beta   90.00085901
_cell_angle_gamma   90.00057030
_symmetry_Int_Tables_number   1
_chemical_formula_structural   Cs27Sn14Pb13I81
_chemical_formula_sum   'Cs27 Sn14 Pb13 I81'
_cell_volume   6834.47720238
_cell_formula_units_Z   1
loop_
 _symmetry_equiv_pos_site_id
 _symmetry_equiv_pos_as_xyz
  1  'x, y, z'
loop_
 _atom_site_type_symbol
 _atom_site_label
 _atom_site_symmetry_multiplicity
 _atom_site_fract_x
 _atom_site_fract_y
 _atom_site_fract_z
 _atom_site_occupancy
  Cs  Cs0  1  0.00035260  0.00115331  -0.00100996  1
  Cs  Cs1  1  -0.00124385  -0.00179762  0.33803995  1
  Cs  Cs2  1  -0.00082381  -0.00171409  0.66434780  1
  Cs  Cs3  1  -0.00060315  0.33232875  -0.00097055  1
  Cs  Cs4  1  0.00247313  0.33396232  0.33172488  1
  Cs  Cs5  1  0.00175654  0.33488585  0.66834058  1
  Cs  Cs6  1  -0.00355189  0.66640145  -0.00150386  1
  Cs  Cs7  1  0.00295266  0.66837811  0.33541090  1
  Cs  Cs8  1  -0.00110056  0.66671671  0.66658847  1
  Cs  Cs9  1  0.33330052  -0.00212435  0.00074652  1
  Cs  Cs10  1  0.33416097  -0.00197269  0.32887805  1
  Cs  Cs11  1  0.33468614  0.00070184  0.66807579  1
  Cs  Cs12  1  0.33321691  0.33381153  0.00113768  1
  Cs  Cs13  1  0.33227410  0.33544486  0.33134050  1
  Cs  Cs14  1  0.33343935  0.33309149  0.66619593  1
  Cs  Cs15  1  0.33540302  0.66808472  0.00256848  1
  Cs  Cs16  1  0.32970030  0.66772777  0.32618410  1
  Cs  Cs17  1  0.33673880  0.66605050  0.66733147  1
  Cs  Cs18  1  0.66692257  0.00451604  0.00212847  1
  Cs  Cs19  1  0.66689759  0.00855549  0.33570106  1
  Cs  Cs20  1  0.66478146  0.00388669  0.66295974  1
  Cs  Cs21  1  0.66803965  0.32875655  0.00212414  1
  Cs  Cs22  1  0.66517951  0.32866966  0.33325100  1
  Cs  Cs23  1  0.66420838  0.33365096  0.66586762  1
  Cs  Cs24  1  0.66879172  0.66609212  -0.00091732  1
  Cs  Cs25  1  0.66690443  0.66603560  0.33377171  1
  Cs  Cs26  1  0.66582047  0.66626224  0.66712691  1
  Sn  Sn27  1  0.50045537  0.50132398  0.50048565  1
  Sn  Sn28  1  0.50060096  0.83258502  0.83263646  1
  Sn  Sn29  1  0.16644741  0.16649145  0.16650163  1
  Sn  Sn30  1  0.83280750  0.50054035  0.83324535  1
  Sn  Sn31  1  0.16678610  0.16658540  0.50020408  1
  Sn  Sn32  1  0.16659828  0.83293236  0.83310335  1
  Sn  Sn33  1  0.16698005  0.50047709  0.83328318  1
  Sn  Sn34  1  0.83280774  0.83290061  0.83385886  1
  Sn  Sn35  1  0.83332061  0.50087103  0.16671051  1
  Sn  Sn36  1  0.83300516  0.83279791  0.16620559  1
  Sn  Sn37  1  0.49999848  0.83222345  0.50048215  1
  Sn  Sn38  1  0.50034849  0.50070001  0.83288740  1
  Sn  Sn39  1  0.16658481  0.16651973  0.83313987  1
  Sn  Sn40  1  0.83280306  0.50018594  0.50018216  1
  Pb  Pb41  1  0.16412743  0.49878316  0.16382146  1
  Pb  Pb42  1  0.83117372  0.83136306  0.50046016  1
  Pb  Pb43  1  0.49715881  0.16669298  0.16655875  1
  Pb  Pb44  1  0.50297916  0.83315710  0.16632128  1
  Pb  Pb45  1  0.83569896  0.16995574  0.50029715  1
  Pb  Pb46  1  0.16728095  0.49897323  0.50187119  1
  Pb  Pb47  1  0.16938754  0.83493494  0.50232121  1
  Pb  Pb48  1  0.49763117  0.16674678  0.83345962  1
  Pb  Pb49  1  0.16395279  0.83501734  0.16421552  1
  Pb  Pb50  1  0.83537911  0.16639394  0.16664270  1
  Pb  Pb51  1  0.49755416  0.16715413  0.50016849  1
  Pb  Pb52  1  0.50254364  0.50017433  0.16641156  1
  Pb  Pb53  1  0.83535537  0.16641111  0.83301603  1
  I  I54  1  0.16440835  0.00305724  0.16373730  1
  I  I55  1  0.16759052  0.00310892  0.50296548  1
  I  I56  1  0.16655650  -0.00029964  0.83371845  1
  I  I57  1  0.16397654  0.33064145  0.16376975  1
  I  I58  1  0.16719815  0.33079080  0.50368907  1
  I  I59  1  0.16573186  0.33376628  0.83309482  1
  I  I60  1  0.16812281  0.66679243  0.16608933  1
  I  I61  1  0.16427786  0.66669979  0.50151175  1
  I  I62  1  0.16563345  0.66654561  0.83263228  1
  I  I63  1  0.50290068  -0.00036843  0.16657289  1
  I  I64  1  0.49845174  -0.00287271  0.50545436  1
  I  I65  1  0.49995471  -0.00362645  0.82943598  1
  I  I66  1  0.50288689  0.33372304  0.16635669  1
  I  I67  1  0.50322761  0.33697165  0.50512145  1
  I  I68  1  0.50035400  0.33705429  0.82900353  1
  I  I69  1  0.49498762  0.66665347  0.16720187  1
  I  I70  1  0.50388275  0.66568768  0.50672939  1
  I  I71  1  0.49584399  0.66633841  0.82937589  1
  I  I72  1  0.83464908  -0.00313830  0.15961082  1
  I  I73  1  0.83242443  -0.00021508  0.49929582  1
  I  I74  1  0.83366502  -0.00370369  0.83898345  1
  I  I75  1  0.83483053  0.33656830  0.16494923  1
  I  I76  1  0.82669212  0.33832393  0.50123569  1
  I  I77  1  0.83380208  0.33714273  0.83423247  1
  I  I78  1  0.83381232  0.66594327  0.16345850  1
  I  I79  1  0.83373261  0.66311253  0.50120993  1
  I  I80  1  0.83806764  0.66585520  0.83400531  1
  I  I81  1  0.16568313  0.16700715  -0.00134348  1
  I  I82  1  0.16603214  0.16859016  0.33335603  1
  I  I83  1  0.16687038  0.16755199  0.66807879  1
  I  I84  1  0.16765392  0.49772326  -0.00482263  1
  I  I85  1  0.16640090  0.49556760  0.33321770  1
  I  I86  1  0.16181766  0.49746807  0.67053305  1
  I  I87  1  0.17180479  0.83514045  -0.00445879  1
  I  I88  1  0.16670844  0.83664443  0.33332366  1
  I  I89  1  0.16058453  0.83539657  0.67100677  1
  I  I90  1  0.49756680  0.16701607  -0.00037998  1
  I  I91  1  0.49722931  0.16634041  0.33367735  1
  I  I92  1  0.49637655  0.16652735  0.66684078  1
  I  I93  1  0.49863562  0.50417014  -0.00382733  1
  I  I94  1  0.50404615  0.50273581  0.33667307  1
  I  I95  1  0.50420714  0.50302253  0.66792578  1
  I  I96  1  0.49664684  0.82908593  -0.00385500  1
  I  I97  1  0.50051854  0.82936593  0.33626257  1
  I  I98  1  0.50101886  0.82936004  0.66846060  1
  I  I99  1  0.83650670  0.17123812  -0.00021294  1
  I  I100  1  0.83723112  0.16570892  0.33341118  1
  I  I101  1  0.83785114  0.16577382  0.66672651  1
  I  I102  1  0.83490125  0.50365406  -0.00152276  1
  I  I103  1  0.82904564  0.50300869  0.33345167  1
  I  I104  1  0.83390762  0.50304272  0.66811224  1
  I  I105  1  0.83305202  0.82541785  -0.00196175  1
  I  I106  1  0.83282248  0.82899597  0.33115728  1
  I  I107  1  0.83666746  0.82949632  0.67018022  1
  I  I108  1  0.00323411  0.16792113  0.16422818  1
  I  I109  1  0.00376306  0.16729968  0.50149528  1
  I  I110  1  0.00411762  0.16779173  0.83378506  1
  I  I111  1  -0.00394497  0.50279561  0.16710010  1
  I  I112  1  -0.00261055  0.49702389  0.50143242  1
  I  I113  1  -0.00052639  0.50102382  0.83344865  1
  I  I114  1  -0.00376052  0.82913232  0.16108464  1
  I  I115  1  -0.00010102  0.83396122  0.50039597  1
  I  I116  1  -0.00020302  0.83146627  0.83826685  1
  I  I117  1  0.32876562  0.16692070  0.16507223  1
  I  I118  1  0.32974486  0.16925906  0.50229438  1
  I  I119  1  0.32895677  0.16725212  0.83321222  1
  I  I120  1  0.33316832  0.49664100  0.16701685  1
  I  I121  1  0.33643151  0.50061920  0.50655065  1
  I  I122  1  0.33361835  0.50087127  0.82770547  1
  I  I123  1  0.33327973  0.83655117  0.16613266  1
  I  I124  1  0.33722542  0.82727821  0.50625276  1
  I  I125  1  0.33344629  0.83203009  0.82826556  1
  I  I126  1  0.66714696  0.16668738  0.16699513  1
  I  I127  1  0.66641231  0.16488193  0.49917568  1
  I  I128  1  0.66658349  0.16696174  0.83369206  1
  I  I129  1  0.67068846  0.50349361  0.16108018  1
  I  I130  1  0.66661131  0.50338306  0.50560145  1
  I  I131  1  0.66711717  0.50738318  0.83253239  1
  I  I132  1  0.67068733  0.82863323  0.15947047  1
  I  I133  1  0.66342446  0.83199349  0.50651168  1
  I  I134  1  0.66682994  0.82469282  0.83381748  1
