# generated using pymatgen
data_Cs27Sn14Pb13I81
_symmetry_space_group_name_H-M   'P 1'
_cell_length_a   18.96133071
_cell_length_b   18.96033424
_cell_length_c   18.95963504
_cell_angle_alpha   90.00012954
_cell_angle_beta   90.00061484
_cell_angle_gamma   89.99917188
_symmetry_Int_Tables_number   1
_chemical_formula_structural   Cs27Sn14Pb13I81
_chemical_formula_sum   'Cs27 Sn14 Pb13 I81'
_cell_volume   6816.23845613
_cell_formula_units_Z   1
loop_
 _symmetry_equiv_pos_site_id
 _symmetry_equiv_pos_as_xyz
  1  'x, y, z'
loop_
 _atom_site_type_symbol
 _atom_site_label
 _atom_site_symmetry_multiplicity
 _atom_site_fract_x
 _atom_site_fract_y
 _atom_site_fract_z
 _atom_site_occupancy
  Cs  Cs0  1  -0.00287752  -0.00089532  -0.00323322  1
  Cs  Cs1  1  0.00031681  -0.00032393  0.33418241  1
  Cs  Cs2  1  0.00056996  -0.00004597  0.66703889  1
  Cs  Cs3  1  -0.00113827  0.34334104  -0.00276514  1
  Cs  Cs4  1  0.00139702  0.33458209  0.33127477  1
  Cs  Cs5  1  -0.00159948  0.33219729  0.66968060  1
  Cs  Cs6  1  0.00376960  0.66208940  0.00308603  1
  Cs  Cs7  1  -0.00167387  0.66611772  0.33216914  1
  Cs  Cs8  1  0.00162670  0.67028654  0.66418072  1
  Cs  Cs9  1  0.33558310  -0.00095345  0.00662367  1
  Cs  Cs10  1  0.33241202  0.00346915  0.32892993  1
  Cs  Cs11  1  0.33111833  0.00079386  0.66556378  1
  Cs  Cs12  1  0.33090780  0.33509249  0.00141870  1
  Cs  Cs13  1  0.33474537  0.32969196  0.33360926  1
  Cs  Cs14  1  0.33299923  0.33240074  0.66544394  1
  Cs  Cs15  1  0.33356191  0.66597486  -0.00082623  1
  Cs  Cs16  1  0.33397816  0.66703224  0.33452272  1
  Cs  Cs17  1  0.33424952  0.66644870  0.66719826  1
  Cs  Cs18  1  0.66690380  0.00037504  0.00155632  1
  Cs  Cs19  1  0.66721362  0.00036992  0.33282994  1
  Cs  Cs20  1  0.66755910  0.00018009  0.66656979  1
  Cs  Cs21  1  0.66957010  0.33214877  -0.00335667  1
  Cs  Cs22  1  0.66548333  0.33478927  0.33422274  1
  Cs  Cs23  1  0.66778912  0.33155213  0.66792825  1
  Cs  Cs24  1  0.66174440  0.66657373  -0.00234352  1
  Cs  Cs25  1  0.66841845  0.66425097  0.33614979  1
  Cs  Cs26  1  0.66406196  0.66624882  0.66449368  1
  Sn  Sn27  1  0.83335569  0.83429916  0.50005251  1
  Sn  Sn28  1  0.49904086  0.49975989  0.49934729  1
  Sn  Sn29  1  0.16627414  0.83444635  0.83280148  1
  Sn  Sn30  1  0.50008508  0.49995480  0.16727721  1
  Sn  Sn31  1  0.49968865  0.83390880  0.49998037  1
  Sn  Sn32  1  0.83389752  0.83337103  0.83324455  1
  Sn  Sn33  1  0.50073433  0.16634483  0.50062631  1
  Sn  Sn34  1  0.83366999  0.16634877  0.16756723  1
  Sn  Sn35  1  0.83275914  0.16595408  0.49901958  1
  Sn  Sn36  1  0.49865291  0.16617659  0.83278043  1
  Sn  Sn37  1  0.83333751  0.83388252  0.16673756  1
  Sn  Sn38  1  0.16725177  0.50054361  0.50020966  1
  Sn  Sn39  1  0.16682797  0.83277239  0.50035508  1
  Sn  Sn40  1  0.16768807  0.16567395  0.83351883  1
  Pb  Pb41  1  0.83341130  0.49971618  0.50025869  1
  Pb  Pb42  1  0.83111689  0.50014314  0.16680936  1
  Pb  Pb43  1  0.16446876  0.83355268  0.16672989  1
  Pb  Pb44  1  0.83349660  0.16509051  0.83313244  1
  Pb  Pb45  1  0.50238889  0.83144884  0.16942006  1
  Pb  Pb46  1  0.16325600  0.16661473  0.16291504  1
  Pb  Pb47  1  0.16626974  0.16643585  0.50104876  1
  Pb  Pb48  1  0.50189919  0.16835285  0.16681764  1
  Pb  Pb49  1  0.16686412  0.50066796  0.83073284  1
  Pb  Pb50  1  0.83331289  0.50424065  0.83305671  1
  Pb  Pb51  1  0.49945822  0.83547612  0.83146470  1
  Pb  Pb52  1  0.16940737  0.50008452  0.16979101  1
  Pb  Pb53  1  0.49989675  0.49722845  0.83253973  1
  I  I54  1  0.17025944  0.00003082  0.17203153  1
  I  I55  1  0.16744533  -0.00306481  0.50289482  1
  I  I56  1  0.16542177  -0.00106798  0.82555619  1
  I  I57  1  0.16363196  0.33331521  0.16696447  1
  I  I58  1  0.17019342  0.33532459  0.50138852  1
  I  I59  1  0.17039923  0.33061765  0.83162114  1
  I  I60  1  0.16389111  0.66685387  0.16272272  1
  I  I61  1  0.16907874  0.66832978  0.50526268  1
  I  I62  1  0.16133476  0.67032339  0.83069442  1
  I  I63  1  0.49988030  0.00003146  0.16724836  1
  I  I64  1  0.50186627  0.00015368  0.50521627  1
  I  I65  1  0.50008117  0.00343461  0.82728558  1
  I  I66  1  0.50245718  0.33598416  0.17356210  1
  I  I67  1  0.49998919  0.33285589  0.49982267  1
  I  I68  1  0.49608640  0.32911495  0.82752236  1
  I  I69  1  0.50248594  0.66365710  0.17235905  1
  I  I70  1  0.50057119  0.66718505  0.49607029  1
  I  I71  1  0.50103700  0.66694480  0.83262795  1
  I  I72  1  0.83192088  -0.00065441  0.16838100  1
  I  I73  1  0.83048514  -0.00099304  0.49976175  1
  I  I74  1  0.83456423  -0.00304925  0.83179373  1
  I  I75  1  0.83158197  0.33034413  0.17206284  1
  I  I76  1  0.83025765  0.32990488  0.49578067  1
  I  I77  1  0.83366976  0.33295064  0.83364266  1
  I  I78  1  0.83258899  0.67001742  0.16836910  1
  I  I79  1  0.83115909  0.67025201  0.49998968  1
  I  I80  1  0.83863623  0.67255852  0.83168241  1
  I  I81  1  0.17269093  0.15964440  -0.00503041  1
  I  I82  1  0.16849835  0.16681906  0.33340190  1
  I  I83  1  0.16574584  0.16515355  0.66897581  1
  I  I84  1  0.16738500  0.50006762  -0.00007769  1
  I  I85  1  0.16715071  0.50595057  0.33794174  1
  I  I86  1  0.17362323  0.50208018  0.66276343  1
  I  I87  1  0.16182952  0.83758356  -0.00342184  1
  I  I88  1  0.16590009  0.82920763  0.33709847  1
  I  I89  1  0.16171759  0.83327645  0.66551577  1
  I  I90  1  0.49860978  0.16825375  -0.00251335  1
  I  I91  1  0.50240792  0.16547616  0.33681016  1
  I  I92  1  0.50285118  0.16848943  0.66473543  1
  I  I93  1  0.50297302  0.49888154  0.00233590  1
  I  I94  1  0.49731626  0.49852526  0.33594734  1
  I  I95  1  0.49674163  0.50223208  0.66267760  1
  I  I96  1  0.50093770  0.83232198  0.00001737  1
  I  I97  1  0.49921444  0.83784048  0.33821216  1
  I  I98  1  0.50453080  0.82900833  0.66272443  1
  I  I99  1  0.83224250  0.16170523  0.00194340  1
  I  I100  1  0.82747240  0.15877232  0.33493434  1
  I  I101  1  0.83172294  0.16297380  0.66385838  1
  I  I102  1  0.83069197  0.49770240  0.00012267  1
  I  I103  1  0.83502567  0.50400035  0.33373358  1
  I  I104  1  0.83049871  0.49736086  0.66615774  1
  I  I105  1  0.83737849  0.83812297  -0.00020598  1
  I  I106  1  0.83267281  0.83687006  0.33485596  1
  I  I107  1  0.83430576  0.83725739  0.66526584  1
  I  I108  1  -0.00470722  0.16220484  0.17399585  1
  I  I109  1  -0.00280419  0.16348043  0.49866712  1
  I  I110  1  0.00217122  0.16367662  0.83193572  1
  I  I111  1  -0.00008132  0.49972525  0.16688147  1
  I  I112  1  0.00270949  0.50370774  0.50190649  1
  I  I113  1  0.00025389  0.49329491  0.83202553  1
  I  I114  1  -0.00397989  0.83667808  0.17160036  1
  I  I115  1  -0.00055884  0.83307820  0.50099774  1
  I  I116  1  0.00015034  0.83979864  0.82733967  1
  I  I117  1  0.33345375  0.16847420  0.16860546  1
  I  I118  1  0.33604637  0.16531273  0.50287444  1
  I  I119  1  0.33360600  0.16221473  0.82588462  1
  I  I120  1  0.33723832  0.49926705  0.16891246  1
  I  I121  1  0.33438462  0.50326667  0.49706867  1
  I  I122  1  0.33345148  0.50417479  0.83511709  1
  I  I123  1  0.33362376  0.83148550  0.16641054  1
  I  I124  1  0.33323765  0.83165262  0.50560170  1
  I  I125  1  0.33038805  0.83476520  0.82706693  1
  I  I126  1  0.66984276  0.16267193  0.16647223  1
  I  I127  1  0.66619356  0.16427049  0.50220193  1
  I  I128  1  0.66466275  0.16624207  0.83140178  1
  I  I129  1  0.66356004  0.50048116  0.17573258  1
  I  I130  1  0.66343416  0.50238844  0.49655920  1
  I  I131  1  0.66636631  0.49902503  0.83117640  1
  I  I132  1  0.67069463  0.83704520  0.16583822  1
  I  I133  1  0.66712128  0.83332578  0.50019292  1
  I  I134  1  0.66923080  0.83508176  0.83205428  1
