# generated using pymatgen
data_Cs27Sn14Pb13I81
_symmetry_space_group_name_H-M   'P 1'
_cell_length_a   18.96060627
_cell_length_b   18.96006984
_cell_length_c   18.96128102
_cell_angle_alpha   90.00035672
_cell_angle_beta   89.99866975
_cell_angle_gamma   89.99961193
_symmetry_Int_Tables_number   1
_chemical_formula_structural   Cs27Sn14Pb13I81
_chemical_formula_sum   'Cs27 Sn14 Pb13 I81'
_cell_volume   6816.47470497
_cell_formula_units_Z   1
loop_
 _symmetry_equiv_pos_site_id
 _symmetry_equiv_pos_as_xyz
  1  'x, y, z'
loop_
 _atom_site_type_symbol
 _atom_site_label
 _atom_site_symmetry_multiplicity
 _atom_site_fract_x
 _atom_site_fract_y
 _atom_site_fract_z
 _atom_site_occupancy
  Cs  Cs0  1  0.00034430  0.00078194  0.00094404  1
  Cs  Cs1  1  -0.00134327  -0.00176354  0.33243506  1
  Cs  Cs2  1  -0.00159040  0.00331997  0.66669645  1
  Cs  Cs3  1  -0.00073269  0.33024456  -0.00630598  1
  Cs  Cs4  1  0.00053034  0.33536735  0.33341898  1
  Cs  Cs5  1  -0.00208044  0.33309636  0.67274791  1
  Cs  Cs6  1  -0.00100175  0.66726205  0.00012683  1
  Cs  Cs7  1  0.00050464  0.66709252  0.33281796  1
  Cs  Cs8  1  0.00267300  0.66374563  0.66770083  1
  Cs  Cs9  1  0.33242369  0.00033390  0.00010191  1
  Cs  Cs10  1  0.33244050  0.00467925  0.33280950  1
  Cs  Cs11  1  0.33722705  -0.00369382  0.66582202  1
  Cs  Cs12  1  0.33449053  0.32839181  0.00167582  1
  Cs  Cs13  1  0.33493285  0.33326013  0.33125633  1
  Cs  Cs14  1  0.33236648  0.33503571  0.66722819  1
  Cs  Cs15  1  0.33432013  0.66768283  0.00071310  1
  Cs  Cs16  1  0.33041522  0.66424288  0.33236785  1
  Cs  Cs17  1  0.33336593  0.66732159  0.66714401  1
  Cs  Cs18  1  0.66751551  -0.00443538  -0.00104044  1
  Cs  Cs19  1  0.67119808  0.00102667  0.34161845  1
  Cs  Cs20  1  0.66375472  0.00150328  0.65997015  1
  Cs  Cs21  1  0.66594122  0.33349197  0.00048119  1
  Cs  Cs22  1  0.66401607  0.33364197  0.33198111  1
  Cs  Cs23  1  0.66916728  0.33157112  0.66793841  1
  Cs  Cs24  1  0.66574623  0.66750013  0.00085826  1
  Cs  Cs25  1  0.67110294  0.66511990  0.33151338  1
  Cs  Cs26  1  0.66230753  0.66736563  0.66768842  1
  Sn  Sn27  1  0.16774306  0.83263995  0.16663652  1
  Sn  Sn28  1  0.49993785  0.16735382  0.83340909  1
  Sn  Sn29  1  0.83457689  0.49882101  0.16692481  1
  Sn  Sn30  1  0.83343224  0.16762791  0.16672388  1
  Sn  Sn31  1  0.16570438  0.50022910  0.16675609  1
  Sn  Sn32  1  0.49989385  0.50013123  0.50078473  1
  Sn  Sn33  1  0.83365319  0.50005398  0.49957568  1
  Sn  Sn34  1  0.16668022  0.83355077  0.49982414  1
  Sn  Sn35  1  0.49945910  0.83355860  0.16762647  1
  Sn  Sn36  1  0.49974699  0.49903291  0.83299213  1
  Sn  Sn37  1  0.16658440  0.16718215  0.50007534  1
  Sn  Sn38  1  0.16641512  0.49971278  0.49947815  1
  Sn  Sn39  1  0.83396308  0.83315957  0.83270796  1
  Sn  Sn40  1  0.16559002  0.83308359  0.83343159  1
  Pb  Pb41  1  0.83117140  0.16412317  0.83512565  1
  Pb  Pb42  1  0.16867167  0.50151820  0.83394733  1
  Pb  Pb43  1  0.16505673  0.16692833  0.16821534  1
  Pb  Pb44  1  0.49784181  0.83104291  0.49698722  1
  Pb  Pb45  1  0.83573419  0.83092134  0.50260727  1
  Pb  Pb46  1  0.50247583  0.16366210  0.16524688  1
  Pb  Pb47  1  0.49971511  0.83318982  0.83444850  1
  Pb  Pb48  1  0.83118021  0.50155851  0.83365689  1
  Pb  Pb49  1  0.49982579  0.50114906  0.16684034  1
  Pb  Pb50  1  0.49798155  0.16926646  0.50173435  1
  Pb  Pb51  1  0.16851466  0.16379341  0.83087907  1
  Pb  Pb52  1  0.83553736  0.16938832  0.49814642  1
  Pb  Pb53  1  0.83394176  0.83283231  0.16573130  1
  I  I54  1  0.16853086  -0.00304546  0.16742960  1
  I  I55  1  0.16715794  -0.00107752  0.50001160  1
  I  I56  1  0.16574196  -0.00449137  0.83510102  1
  I  I57  1  0.16542355  0.33653385  0.17218495  1
  I  I58  1  0.16770185  0.33527933  0.49455169  1
  I  I59  1  0.16691109  0.33330323  0.83311648  1
  I  I60  1  0.16505488  0.66664680  0.17094513  1
  I  I61  1  0.16685057  0.66595271  0.49922410  1
  I  I62  1  0.16640745  0.66983686  0.82996177  1
  I  I63  1  0.49392823  -0.00397902  0.16238417  1
  I  I64  1  0.49828886  -0.00008676  0.50153604  1
  I  I65  1  0.49926895  0.00158773  0.83691360  1
  I  I66  1  0.49803647  0.33340139  0.16711837  1
  I  I67  1  0.49719970  0.33762023  0.49987649  1
  I  I68  1  0.50019863  0.33447562  0.83019292  1
  I  I69  1  0.49956636  0.66895709  0.16359649  1
  I  I70  1  0.49775689  0.66278727  0.50685913  1
  I  I71  1  0.49982470  0.66448043  0.83050572  1
  I  I72  1  0.83320871  0.00144378  0.16284586  1
  I  I73  1  0.83474676  -0.00000743  0.49894941  1
  I  I74  1  0.83610247  -0.00361276  0.83714597  1
  I  I75  1  0.83778164  0.33538870  0.16994183  1
  I  I76  1  0.83560717  0.33768307  0.49949585  1
  I  I77  1  0.83312150  0.33345923  0.83236432  1
  I  I78  1  0.83432378  0.66379192  0.16936471  1
  I  I79  1  0.83515049  0.66269479  0.49293007  1
  I  I80  1  0.83531942  0.66928028  0.83606642  1
  I  I81  1  0.16675711  0.16627586  -0.00009161  1
  I  I82  1  0.16671513  0.16339208  0.33628303  1
  I  I83  1  0.16645505  0.16918380  0.66290029  1
  I  I84  1  0.16377756  0.50582589  0.00310383  1
  I  I85  1  0.16776398  0.50470408  0.33405146  1
  I  I86  1  0.16510997  0.50155608  0.66358992  1
  I  I87  1  0.16712439  0.82830970  0.00092848  1
  I  I88  1  0.17139278  0.83116347  0.33308954  1
  I  I89  1  0.16255150  0.83198441  0.66617389  1
  I  I90  1  0.49905122  0.17323254  -0.00269402  1
  I  I91  1  0.49977604  0.16690169  0.33351604  1
  I  I92  1  0.49994103  0.16582004  0.66967331  1
  I  I93  1  0.50023289  0.49968688  -0.00202390  1
  I  I94  1  0.49897226  0.50289408  0.33591564  1
  I  I95  1  0.49921548  0.49821607  0.66598317  1
  I  I96  1  0.49505103  0.83047103  0.00225672  1
  I  I97  1  0.49591968  0.83115315  0.32938325  1
  I  I98  1  0.49920351  0.83403686  0.66631162  1
  I  I99  1  0.83474931  0.17307304  0.00304234  1
  I  I100  1  0.83292465  0.16587217  0.33022026  1
  I  I101  1  0.83349783  0.16673645  0.66650325  1
  I  I102  1  0.83638655  0.49909379  0.00303293  1
  I  I103  1  0.83231151  0.49812918  0.33306644  1
  I  I104  1  0.83654212  0.50278464  0.66397737  1
  I  I105  1  0.83771137  0.83122080  -0.00209269  1
  I  I106  1  0.83275640  0.83474066  0.33358150  1
  I  I107  1  0.83706916  0.83169611  0.67018014  1
  I  I108  1  -0.00274487  0.16603351  0.16700193  1
  I  I109  1  0.00359076  0.16711055  0.49990352  1
  I  I110  1  0.00006105  0.16665584  0.83301576  1
  I  I111  1  0.00067782  0.50339596  0.17459189  1
  I  I112  1  0.00120449  0.50151283  0.49447375  1
  I  I113  1  0.00013501  0.50076417  0.83123040  1
  I  I114  1  0.00329669  0.83178265  0.16822466  1
  I  I115  1  0.00431640  0.83074961  0.49429941  1
  I  I116  1  0.00143154  0.83188301  0.83605145  1
  I  I117  1  0.33324556  0.16820934  0.16664075  1
  I  I118  1  0.32985539  0.16759197  0.49907367  1
  I  I119  1  0.33622913  0.16921953  0.83426244  1
  I  I120  1  0.33046801  0.50385510  0.16993656  1
  I  I121  1  0.33193344  0.50098710  0.50002894  1
  I  I122  1  0.33651888  0.50044647  0.82948035  1
  I  I123  1  0.33106216  0.82741044  0.16384361  1
  I  I124  1  0.32922613  0.83044391  0.50561327  1
  I  I125  1  0.33047787  0.83262174  0.83193299  1
  I  I126  1  0.67012749  0.17228440  0.16579502  1
  I  I127  1  0.66676072  0.16727048  0.50009052  1
  I  I128  1  0.66348459  0.16849535  0.83396153  1
  I  I129  1  0.66907822  0.49950215  0.16943567  1
  I  I130  1  0.66684628  0.50042009  0.49932939  1
  I  I131  1  0.66330899  0.50062807  0.83014649  1
  I  I132  1  0.66519436  0.83179187  0.16105420  1
  I  I133  1  0.66670350  0.83187626  0.50050873  1
  I  I134  1  0.66827580  0.83190136  0.83837432  1
