# generated using pymatgen
data_Cs27Sn14Pb13I81
_symmetry_space_group_name_H-M   'P 1'
_cell_length_a   18.97194345
_cell_length_b   18.98210097
_cell_length_c   18.97305908
_cell_angle_alpha   89.99976329
_cell_angle_beta   90.00021852
_cell_angle_gamma   89.99869899
_symmetry_Int_Tables_number   1
_chemical_formula_structural   Cs27Sn14Pb13I81
_chemical_formula_sum   'Cs27 Sn14 Pb13 I81'
_cell_volume   6832.71741361
_cell_formula_units_Z   1
loop_
 _symmetry_equiv_pos_site_id
 _symmetry_equiv_pos_as_xyz
  1  'x, y, z'
loop_
 _atom_site_type_symbol
 _atom_site_label
 _atom_site_symmetry_multiplicity
 _atom_site_fract_x
 _atom_site_fract_y
 _atom_site_fract_z
 _atom_site_occupancy
  Cs  Cs0  1  0.00430711  -0.00266040  -0.00393504  1
  Cs  Cs1  1  -0.00343481  -0.00117735  0.33524669  1
  Cs  Cs2  1  0.00053094  0.00153927  0.66792468  1
  Cs  Cs3  1  -0.00018864  0.33884733  -0.00273519  1
  Cs  Cs4  1  0.00059637  0.33190437  0.33607476  1
  Cs  Cs5  1  -0.00137847  0.33375402  0.66689470  1
  Cs  Cs6  1  -0.00297447  0.66314584  0.00108416  1
  Cs  Cs7  1  0.00202016  0.66970708  0.33125504  1
  Cs  Cs8  1  -0.00056270  0.66178744  0.66741178  1
  Cs  Cs9  1  0.33177663  -0.00165503  -0.00053494  1
  Cs  Cs10  1  0.33121262  0.00165990  0.32985737  1
  Cs  Cs11  1  0.33325319  -0.00072524  0.67051068  1
  Cs  Cs12  1  0.33466354  0.33273079  0.00095809  1
  Cs  Cs13  1  0.33304915  0.33462021  0.33351128  1
  Cs  Cs14  1  0.33379773  0.33352093  0.66443014  1
  Cs  Cs15  1  0.33366551  0.66798116  0.00152735  1
  Cs  Cs16  1  0.33205847  0.66508748  0.33350255  1
  Cs  Cs17  1  0.33830376  0.66749404  0.66343336  1
  Cs  Cs18  1  0.66549870  0.00213216  0.00145475  1
  Cs  Cs19  1  0.67701414  0.00287950  0.33440380  1
  Cs  Cs20  1  0.66726778  -0.00211101  0.66515426  1
  Cs  Cs21  1  0.66582647  0.33454116  -0.00044062  1
  Cs  Cs22  1  0.66801281  0.32595667  0.33167124  1
  Cs  Cs23  1  0.66687662  0.33306286  0.66901248  1
  Cs  Cs24  1  0.66905262  0.66320597  -0.00063955  1
  Cs  Cs25  1  0.66732854  0.67198855  0.33642487  1
  Cs  Cs26  1  0.66296086  0.66946990  0.66488113  1
  Sn  Sn27  1  0.83314168  0.83421465  0.83350142  1
  Sn  Sn28  1  0.50053630  0.16711836  0.83251842  1
  Sn  Sn29  1  0.16753901  0.49985180  0.16577252  1
  Sn  Sn30  1  0.49873009  0.49936786  0.83384115  1
  Sn  Sn31  1  0.16661677  0.16675829  0.16725225  1
  Sn  Sn32  1  0.16710836  0.83423226  0.49986913  1
  Sn  Sn33  1  0.83293936  0.50000792  0.49939887  1
  Sn  Sn34  1  0.16824115  0.50012798  0.83372112  1
  Sn  Sn35  1  0.83245337  0.16564217  0.83352020  1
  Sn  Sn36  1  0.16742632  0.83333021  0.16744947  1
  Sn  Sn37  1  0.49942663  0.50094155  0.16625981  1
  Sn  Sn38  1  0.49919812  0.16642052  0.50062497  1
  Sn  Sn39  1  0.16762094  0.16557863  0.49939640  1
  Sn  Sn40  1  0.49973375  0.83269774  0.16684235  1
  Pb  Pb41  1  0.83238778  0.49982636  0.83203276  1
  Pb  Pb42  1  0.83350658  0.83337202  0.16460915  1
  Pb  Pb43  1  0.83703462  0.16676272  0.16347190  1
  Pb  Pb44  1  0.50208212  0.49799156  0.49920677  1
  Pb  Pb45  1  0.83372830  0.16789662  0.50207701  1
  Pb  Pb46  1  0.49780316  0.83640727  0.49703466  1
  Pb  Pb47  1  0.50170227  0.83329233  0.83539956  1
  Pb  Pb48  1  0.83276578  0.49996987  0.16943873  1
  Pb  Pb49  1  0.16535409  0.83034388  0.83338555  1
  Pb  Pb50  1  0.16580326  0.49983805  0.49950473  1
  Pb  Pb51  1  0.49839707  0.16668123  0.16646590  1
  Pb  Pb52  1  0.83605179  0.83136861  0.50228874  1
  Pb  Pb53  1  0.16728619  0.16860769  0.83315539  1
  I  I54  1  0.17076859  -0.00035972  0.17067903  1
  I  I55  1  0.16911517  0.00085981  0.49225056  1
  I  I56  1  0.16716408  0.00000086  0.83586709  1
  I  I57  1  0.17058619  0.33393767  0.16670948  1
  I  I58  1  0.16826687  0.33073268  0.49732815  1
  I  I59  1  0.16473033  0.33642747  0.83698249  1
  I  I60  1  0.17010539  0.66650032  0.16706609  1
  I  I61  1  0.16291558  0.66862079  0.49714265  1
  I  I62  1  0.16911627  0.66251495  0.83638188  1
  I  I63  1  0.49423824  -0.00202030  0.16553800  1
  I  I64  1  0.49885569  0.00419203  0.50629124  1
  I  I65  1  0.50249971  0.00282543  0.83120008  1
  I  I66  1  0.49537971  0.33585680  0.16545106  1
  I  I67  1  0.49329535  0.33022951  0.49971430  1
  I  I68  1  0.50229006  0.33352118  0.83578871  1
  I  I69  1  0.49148456  0.66558781  0.16055417  1
  I  I70  1  0.50033665  0.66682115  0.50296950  1
  I  I71  1  0.49805413  0.66370944  0.83556170  1
  I  I72  1  0.83130308  0.00015053  0.16891692  1
  I  I73  1  0.83216489  0.00000742  0.49995460  1
  I  I74  1  0.82950284  0.00100354  0.83271804  1
  I  I75  1  0.83309629  0.33333036  0.16471434  1
  I  I76  1  0.83684803  0.33531637  0.50317029  1
  I  I77  1  0.83291921  0.33128890  0.83108074  1
  I  I78  1  0.83810276  0.66658741  0.16350605  1
  I  I79  1  0.83489867  0.66399515  0.50342685  1
  I  I80  1  0.83543208  0.66813030  0.83200376  1
  I  I81  1  0.16656762  0.16438979  0.00251078  1
  I  I82  1  0.17287250  0.16906712  0.33353501  1
  I  I83  1  0.16683362  0.16402208  0.66418357  1
  I  I84  1  0.16831668  0.49910161  0.00091065  1
  I  I85  1  0.16970865  0.49991942  0.33013395  1
  I  I86  1  0.16772445  0.49926586  0.66886098  1
  I  I87  1  0.16894727  0.83658217  0.00314481  1
  I  I88  1  0.16961546  0.83123946  0.33210897  1
  I  I89  1  0.16323573  0.83748065  0.66435637  1
  I  I90  1  0.50274937  0.16846052  -0.00261213  1
  I  I91  1  0.49654544  0.16802815  0.33534544  1
  I  I92  1  0.49765478  0.17295909  0.66758305  1
  I  I93  1  0.49663176  0.49721882  -0.00032999  1
  I  I94  1  0.49484343  0.50219329  0.33006155  1
  I  I95  1  0.49710975  0.49708547  0.66943584  1
  I  I96  1  0.49238344  0.83459449  0.00319194  1
  I  I97  1  0.49776229  0.82617752  0.32923300  1
  I  I98  1  0.49975257  0.83059880  0.66653134  1
  I  I99  1  0.82697168  0.16523240  -0.00436736  1
  I  I100  1  0.83013752  0.16843869  0.33347797  1
  I  I101  1  0.83483286  0.16502042  0.66991751  1
  I  I102  1  0.83485143  0.49989539  0.00003872  1
  I  I103  1  0.83544930  0.49911389  0.33668392  1
  I  I104  1  0.83635500  0.49928442  0.66476341  1
  I  I105  1  0.83644481  0.83575887  -0.00315121  1
  I  I106  1  0.83187572  0.83173949  0.33344650  1
  I  I107  1  0.83428434  0.83636819  0.66989474  1
  I  I108  1  0.00534688  0.16690635  0.17272284  1
  I  I109  1  0.00314904  0.16504539  0.49700364  1
  I  I110  1  -0.00157875  0.16541693  0.83377818  1
  I  I111  1  0.00351540  0.50076790  0.16235316  1
  I  I112  1  -0.00165428  0.49790808  0.50271638  1
  I  I113  1  0.00200659  0.49998533  0.83622477  1
  I  I114  1  0.00374411  0.83243304  0.16942340  1
  I  I115  1  0.00393838  0.83918118  0.49279533  1
  I  I116  1  -0.00239962  0.83814195  0.83437911  1
  I  I117  1  0.33011878  0.16702596  0.16570951  1
  I  I118  1  0.33245925  0.16523645  0.50266901  1
  I  I119  1  0.33597679  0.17001839  0.83238134  1
  I  I120  1  0.33243697  0.50051809  0.16261707  1
  I  I121  1  0.33351315  0.50085926  0.50132804  1
  I  I122  1  0.33400269  0.49404017  0.83674790  1
  I  I123  1  0.33189909  0.83216595  0.16873107  1
  I  I124  1  0.32967424  0.83237935  0.50008019  1
  I  I125  1  0.33332418  0.83570518  0.83199912  1
  I  I126  1  0.66650070  0.16680562  0.16971224  1
  I  I127  1  0.66425379  0.17041959  0.50178343  1
  I  I128  1  0.66530813  0.16954333  0.82798253  1
  I  I129  1  0.66294454  0.50421133  0.16175932  1
  I  I130  1  0.66929582  0.49784496  0.50270533  1
  I  I131  1  0.66350121  0.49826409  0.83696230  1
  I  I132  1  0.66366975  0.82738766  0.16366991  1
  I  I133  1  0.66653145  0.83340725  0.49860939  1
  I  I134  1  0.66944438  0.83204155  0.83491967  1
