# generated using pymatgen
data_Cs27Sn13Pb14I81
_symmetry_space_group_name_H-M   'P 1'
_cell_length_a   18.97559396
_cell_length_b   18.98484523
_cell_length_c   18.97016874
_cell_angle_alpha   90.00025815
_cell_angle_beta   90.00019258
_cell_angle_gamma   90.00034289
_symmetry_Int_Tables_number   1
_chemical_formula_structural   Cs27Sn13Pb14I81
_chemical_formula_sum   'Cs27 Sn13 Pb14 I81'
_cell_volume   6833.97890360
_cell_formula_units_Z   1
loop_
 _symmetry_equiv_pos_site_id
 _symmetry_equiv_pos_as_xyz
  1  'x, y, z'
loop_
 _atom_site_type_symbol
 _atom_site_label
 _atom_site_symmetry_multiplicity
 _atom_site_fract_x
 _atom_site_fract_y
 _atom_site_fract_z
 _atom_site_occupancy
  Cs  Cs0  1  -0.00045821  -0.00019471  -0.00019557  1
  Cs  Cs1  1  -0.00043542  -0.00065428  0.33374291  1
  Cs  Cs2  1  0.00055897  0.00274877  0.66507952  1
  Cs  Cs3  1  0.00043300  0.33455955  0.00102407  1
  Cs  Cs4  1  -0.00513933  0.33311046  0.33547236  1
  Cs  Cs5  1  -0.00027034  0.32821099  0.66373104  1
  Cs  Cs6  1  -0.00011293  0.66592832  0.00027307  1
  Cs  Cs7  1  0.00059309  0.66647680  0.33218067  1
  Cs  Cs8  1  0.00293358  0.66917902  0.67101689  1
  Cs  Cs9  1  0.33801792  0.00352325  0.00138427  1
  Cs  Cs10  1  0.33716451  -0.00222078  0.33231429  1
  Cs  Cs11  1  0.33006944  0.00613371  0.66456745  1
  Cs  Cs12  1  0.33326575  0.33164832  -0.00117962  1
  Cs  Cs13  1  0.33406664  0.33676792  0.33204950  1
  Cs  Cs14  1  0.33516285  0.33377083  0.66853715  1
  Cs  Cs15  1  0.33147664  0.66584390  0.00212441  1
  Cs  Cs16  1  0.33135225  0.66688906  0.33402222  1
  Cs  Cs17  1  0.33314521  0.66155157  0.66345587  1
  Cs  Cs18  1  0.66302976  -0.00172387  -0.00088290  1
  Cs  Cs19  1  0.66424272  0.00018581  0.33399399  1
  Cs  Cs20  1  0.66856356  -0.00353957  0.66497741  1
  Cs  Cs21  1  0.66726602  0.33295129  0.00037046  1
  Cs  Cs22  1  0.67151910  0.33516572  0.33572799  1
  Cs  Cs23  1  0.66501461  0.33664805  0.66335012  1
  Cs  Cs24  1  0.66683560  0.66964115  -0.00369910  1
  Cs  Cs25  1  0.66815533  0.66563032  0.33332227  1
  Cs  Cs26  1  0.66225609  0.66860370  0.67004759  1
  Sn  Sn27  1  0.50002272  0.16626480  0.49984807  1
  Sn  Sn28  1  0.49962655  0.50019945  0.16624543  1
  Sn  Sn29  1  0.83321493  0.16748878  0.83410661  1
  Sn  Sn30  1  0.83426044  0.49896223  0.83342335  1
  Sn  Sn31  1  0.83394677  0.16558393  0.16577586  1
  Sn  Sn32  1  0.83387220  0.83421437  0.16726352  1
  Sn  Sn33  1  0.83285720  0.83303202  0.49916928  1
  Sn  Sn34  1  0.16599749  0.83382172  0.16564443  1
  Sn  Sn35  1  0.50053442  0.83403632  0.49986420  1
  Sn  Sn36  1  0.16697456  0.83315262  0.83437355  1
  Sn  Sn37  1  0.16601007  0.16650840  0.16672033  1
  Sn  Sn38  1  0.16551859  0.50040895  0.83425146  1
  Sn  Sn39  1  0.16728579  0.49987058  0.16606392  1
  Pb  Pb40  1  0.50007942  0.83152550  0.16803446  1
  Pb  Pb41  1  0.49599857  0.83345694  0.83052181  1
  Pb  Pb42  1  0.50071179  0.16861684  0.16818766  1
  Pb  Pb43  1  0.83179600  0.16470606  0.49964814  1
  Pb  Pb44  1  0.83361454  0.50332709  0.50367519  1
  Pb  Pb45  1  0.16492354  0.16690349  0.83546068  1
  Pb  Pb46  1  0.50321237  0.16660675  0.83087826  1
  Pb  Pb47  1  0.83493941  0.83356494  0.83372747  1
  Pb  Pb48  1  0.50007608  0.50034068  0.49764055  1
  Pb  Pb49  1  0.16617865  0.49974309  0.50022955  1
  Pb  Pb50  1  0.16660435  0.83332784  0.49981843  1
  Pb  Pb51  1  0.49949070  0.50004108  0.83579918  1
  Pb  Pb52  1  0.83391383  0.50031766  0.16517153  1
  Pb  Pb53  1  0.16897724  0.16675835  0.49664481  1
  I  I54  1  0.16160883  -0.00073795  0.16350915  1
  I  I55  1  0.16533800  -0.00014444  0.50196641  1
  I  I56  1  0.16474778  -0.00243436  0.83653714  1
  I  I57  1  0.16755227  0.33372657  0.16311762  1
  I  I58  1  0.16929968  0.33312855  0.50026795  1
  I  I59  1  0.16473624  0.33624046  0.83812178  1
  I  I60  1  0.16665759  0.66703329  0.16331566  1
  I  I61  1  0.16913930  0.66687022  0.49620702  1
  I  I62  1  0.16009025  0.66611837  0.84085052  1
  I  I63  1  0.49733154  -0.00004980  0.16728984  1
  I  I64  1  0.50394025  -0.00093033  0.49764321  1
  I  I65  1  0.50026007  -0.00006031  0.83685597  1
  I  I66  1  0.49542612  0.33627622  0.16900330  1
  I  I67  1  0.49992808  0.33093268  0.49841628  1
  I  I68  1  0.49606355  0.33337756  0.83032335  1
  I  I69  1  0.49582527  0.66385028  0.16905999  1
  I  I70  1  0.50357033  0.66965094  0.49902734  1
  I  I71  1  0.50589988  0.66671586  0.83097809  1
  I  I72  1  0.84070644  -0.00011572  0.16532741  1
  I  I73  1  0.83176962  -0.00318349  0.50055966  1
  I  I74  1  0.83511174  0.00212051  0.83406282  1
  I  I75  1  0.83566978  0.33091993  0.16463502  1
  I  I76  1  0.83094312  0.33320052  0.49751544  1
  I  I77  1  0.83859078  0.33324899  0.83972544  1
  I  I78  1  0.83596295  0.66943068  0.16924063  1
  I  I79  1  0.82754022  0.67119267  0.49316362  1
  I  I80  1  0.83597631  0.66468907  0.83352628  1
  I  I81  1  0.16566478  0.16666666  0.00383465  1
  I  I82  1  0.15964453  0.16611529  0.32811669  1
  I  I83  1  0.16581145  0.16617112  0.66692721  1
  I  I84  1  0.16659691  0.50172126  0.00094081  1
  I  I85  1  0.17138604  0.50198149  0.32932497  1
  I  I86  1  0.16324159  0.50646458  0.67067995  1
  I  I87  1  0.15989982  0.83120751  0.00171654  1
  I  I88  1  0.16576254  0.83242212  0.32971689  1
  I  I89  1  0.16629058  0.82740905  0.66957196  1
  I  I90  1  0.49860800  0.16835572  0.00032923  1
  I  I91  1  0.50110959  0.16239906  0.33580881  1
  I  I92  1  0.50056638  0.16266135  0.66292896  1
  I  I93  1  0.49778769  0.49984048  0.00363035  1
  I  I94  1  0.49342941  0.50026748  0.32977159  1
  I  I95  1  0.49960671  0.50000356  0.66669382  1
  I  I96  1  0.50313246  0.83149547  0.00015624  1
  I  I97  1  0.49960219  0.83621701  0.33596906  1
  I  I98  1  0.50738466  0.83576511  0.66255117  1
  I  I99  1  0.83719594  0.16475869  0.00128171  1
  I  I100  1  0.83611964  0.16491051  0.33012024  1
  I  I101  1  0.83200499  0.16919106  0.66913866  1
  I  I102  1  0.83495200  0.50110553  -0.00263802  1
  I  I103  1  0.83305870  0.49766939  0.33312481  1
  I  I104  1  0.83917908  0.49420899  0.67160946  1
  I  I105  1  0.83647807  0.83384727  0.00292955  1
  I  I106  1  0.83549154  0.83856863  0.33174299  1
  I  I107  1  0.83085511  0.83288080  0.66468109  1
  I  I108  1  -0.00027514  0.16752086  0.16357523  1
  I  I109  1  -0.00031428  0.16518922  0.50158217  1
  I  I110  1  -0.00311230  0.16737741  0.83425069  1
  I  I111  1  0.00302425  0.50076668  0.16385901  1
  I  I112  1  -0.00028983  0.50121143  0.49398502  1
  I  I113  1  0.00092751  0.50138171  0.84041313  1
  I  I114  1  0.00023443  0.83184979  0.16911655  1
  I  I115  1  -0.00264591  0.83309137  0.49823326  1
  I  I116  1  0.00279220  0.83119460  0.83324801  1
  I  I117  1  0.33051876  0.16442714  0.16858234  1
  I  I118  1  0.33676540  0.15905548  0.49880902  1
  I  I119  1  0.33308885  0.16699474  0.83330389  1
  I  I120  1  0.33111371  0.50019372  0.16249950  1
  I  I121  1  0.33335166  0.50233276  0.50289607  1
  I  I122  1  0.32966982  0.50483909  0.83512897  1
  I  I123  1  0.33010719  0.83488656  0.16481444  1
  I  I124  1  0.33585589  0.83667587  0.49959731  1
  I  I125  1  0.32812231  0.82676488  0.83956732  1
  I  I126  1  0.67008270  0.16360075  0.16442788  1
  I  I127  1  0.66412307  0.16395310  0.49756786  1
  I  I128  1  0.67141715  0.17155118  0.84097404  1
  I  I129  1  0.66524435  0.49963956  0.16633322  1
  I  I130  1  0.66686092  0.49838109  0.49821052  1
  I  I131  1  0.66952342  0.49637472  0.83477035  1
  I  I132  1  0.66970420  0.83610041  0.16894716  1
  I  I133  1  0.66739274  0.83730379  0.49436638  1
  I  I134  1  0.66682593  0.83235420  0.83503830  1
