# generated using pymatgen
data_Cs27Sn14Pb13I81
_symmetry_space_group_name_H-M   'P 1'
_cell_length_a   18.96590215
_cell_length_b   18.98194686
_cell_length_c   18.98194679
_cell_angle_alpha   90.00002787
_cell_angle_beta   90.00215141
_cell_angle_gamma   90.00215145
_symmetry_Int_Tables_number   1
_chemical_formula_structural   Cs27Sn14Pb13I81
_chemical_formula_sum   'Cs27 Sn14 Pb13 I81'
_cell_volume   6833.68584495
_cell_formula_units_Z   1
loop_
 _symmetry_equiv_pos_site_id
 _symmetry_equiv_pos_as_xyz
  1  'x, y, z'
loop_
 _atom_site_type_symbol
 _atom_site_label
 _atom_site_symmetry_multiplicity
 _atom_site_fract_x
 _atom_site_fract_y
 _atom_site_fract_z
 _atom_site_occupancy
  Cs  Cs0  1  0.00142256  0.00057698  0.00523797  1
  Cs  Cs1  1  0.00069245  -0.00155908  0.33177456  1
  Cs  Cs2  1  -0.00097183  -0.00171367  0.66130969  1
  Cs  Cs3  1  0.00040407  0.32907496  -0.00156627  1
  Cs  Cs4  1  -0.00097195  0.32797647  0.33161965  1
  Cs  Cs5  1  -0.00033953  0.33617352  0.66950665  1
  Cs  Cs6  1  0.00264941  0.66865027  0.00198360  1
  Cs  Cs7  1  0.00142258  0.67190455  0.33391011  1
  Cs  Cs8  1  0.00040416  0.66510035  0.66240835  1
  Cs  Cs9  1  0.33316495  -0.00302755  0.00093744  1
  Cs  Cs10  1  0.33387545  -0.00066991  0.33266337  1
  Cs  Cs11  1  0.33603102  0.00129611  0.66593573  1
  Cs  Cs12  1  0.33210356  0.33392099  -0.00228559  1
  Cs  Cs13  1  0.33603090  0.33260261  0.33462936  1
  Cs  Cs14  1  0.33023242  0.33460399  0.66793737  1
  Cs  Cs15  1  0.33234341  0.66905295  0.00238621  1
  Cs  Cs16  1  0.33316484  0.66760396  0.33030572  1
  Cs  Cs17  1  0.33210367  0.66438110  0.66725448  1
  Cs  Cs18  1  0.66717442  -0.00110132  -0.00442960  1
  Cs  Cs19  1  0.66499103  0.00199228  0.33532559  1
  Cs  Cs20  1  0.66543836  0.00222370  0.66840200  1
  Cs  Cs21  1  0.66693955  0.33531156  -0.00127112  1
  Cs  Cs22  1  0.66543840  0.33506884  0.33555716  1
  Cs  Cs23  1  0.66680523  0.33253207  0.66586545  1
  Cs  Cs24  1  0.66976998  0.66480674  -0.00185998  1
  Cs  Cs25  1  0.66717435  0.66223709  0.33223191  1
  Cs  Cs26  1  0.66693952  0.66539584  0.66864494  1
  Sn  Sn27  1  0.83240750  0.16763847  0.50097182  1
  Sn  Sn28  1  0.50040045  0.83385303  0.16718637  1
  Sn  Sn29  1  0.16775282  0.83242370  0.16575707  1
  Sn  Sn30  1  0.50009728  0.83291700  0.49938359  1
  Sn  Sn31  1  0.50039260  0.50011178  0.50101551  1
  Sn  Sn32  1  0.50009733  0.16605030  0.16625035  1
  Sn  Sn33  1  0.83268876  0.49938952  0.83272281  1
  Sn  Sn34  1  0.50028500  0.16688215  0.50021544  1
  Sn  Sn35  1  0.83261621  0.16725293  0.83243901  1
  Sn  Sn36  1  0.16664468  0.50000532  0.16685425  1
  Sn  Sn37  1  0.83261619  0.49910576  0.50058630  1
  Sn  Sn38  1  0.50039260  0.16768218  0.83344509  1
  Sn  Sn39  1  0.16664466  0.83352094  0.83333862  1
  Sn  Sn40  1  0.50034479  0.49937699  0.83271032  1
  Pb  Pb41  1  0.16935717  0.16623640  0.16667564  1
  Pb  Pb42  1  0.49889446  0.83302003  0.83338889  1
  Pb  Pb43  1  0.16626723  0.16422037  0.83308807  1
  Pb  Pb44  1  0.83613871  0.49987441  0.16682784  1
  Pb  Pb45  1  0.83254043  0.83337411  0.16670741  1
  Pb  Pb46  1  0.16641177  0.50164991  0.83498324  1
  Pb  Pb47  1  0.83027197  0.16671887  0.16666965  1
  Pb  Pb48  1  0.49889440  0.50005550  0.16635334  1
  Pb  Pb49  1  0.16626727  0.49975473  0.49755375  1
  Pb  Pb50  1  0.16615602  0.16697103  0.50030432  1
  Pb  Pb51  1  0.83027195  0.83333625  0.50005224  1
  Pb  Pb52  1  0.83613876  0.83349452  0.83320780  1
  Pb  Pb53  1  0.16935725  0.83334228  0.49956975  1
  I  I54  1  0.16915607  -0.00327353  0.16263554  1
  I  I55  1  0.16599055  -0.00011285  0.49792212  1
  I  I56  1  0.16863756  -0.00334999  0.84137332  1
  I  I57  1  0.16784519  0.33556608  0.16736713  1
  I  I58  1  0.17319567  0.33356286  0.49676571  1
  I  I59  1  0.16757256  0.33339069  0.83590138  1
  I  I60  1  0.17351892  0.66809393  0.16297887  1
  I  I61  1  0.16664858  0.66663143  0.50161137  1
  I  I62  1  0.16874012  0.66934107  0.83655414  1
  I  I63  1  0.49420968  -0.00011721  0.16999919  1
  I  I64  1  0.50243410  0.00099392  0.49944276  1
  I  I65  1  0.50257768  0.00282418  0.83125404  1
  I  I66  1  0.49822096  0.33086900  0.16914813  1
  I  I67  1  0.50350000  0.33313183  0.49866844  1
  I  I68  1  0.50238054  0.33310326  0.83177771  1
  I  I69  1  0.49635791  0.66911578  0.17009440  1
  I  I70  1  0.50280818  0.66577783  0.49965418  1
  I  I71  1  0.50271463  0.66377286  0.83040703  1
  I  I72  1  0.83873310  0.00028460  0.16655173  1
  I  I73  1  0.82948725  0.00342726  0.50455935  1
  I  I74  1  0.82807351  0.00355915  0.82921980  1
  I  I75  1  0.83518966  0.33330250  0.16670936  1
  I  I76  1  0.82416669  0.33331694  0.50343173  1
  I  I77  1  0.82960117  0.33337270  0.82965079  1
  I  I78  1  0.82864374  0.66639541  0.16628186  1
  I  I79  1  0.82966200  0.66327947  0.50438044  1
  I  I80  1  0.82860023  0.66322475  0.82944204  1
  I  I81  1  0.16664871  0.16827865  -0.00003517  1
  I  I82  1  0.16599054  0.16458925  0.33322044  1
  I  I83  1  0.17319575  0.16343138  0.66689615  1
  I  I84  1  0.16874037  0.50322093  0.00267447  1
  I  I85  1  0.16863731  0.50803927  0.32998334  1
  I  I86  1  0.16757264  0.50256860  0.66672403  1
  I  I87  1  0.17351918  0.82964494  0.00142729  1
  I  I88  1  0.16915603  0.82930273  0.33005978  1
  I  I89  1  0.16784491  0.83403399  0.66889948  1
  I  I90  1  0.50280778  0.16632089  -0.00088881  1
  I  I91  1  0.50243415  0.16610914  0.33432724  1
  I  I92  1  0.50350035  0.16533525  0.66646514  1
  I  I93  1  0.50271463  0.49707366  -0.00289381  1
  I  I94  1  0.50257763  0.49792080  0.33615751  1
  I  I95  1  0.50238052  0.49844440  0.66643656  1
  I  I96  1  0.49635804  0.83676107  0.00244911  1
  I  I97  1  0.49420978  0.83666589  0.33321616  1
  I  I98  1  0.49822084  0.83581460  0.66420237  1
  I  I99  1  0.82966248  0.17104710  -0.00338722  1
  I  I100  1  0.82948738  0.17122613  0.33676059  1
  I  I101  1  0.82416602  0.17009849  0.66665031  1
  I  I102  1  0.82860019  0.49610905  -0.00344195  1
  I  I103  1  0.82807375  0.49588640  0.33689245  1
  I  I104  1  0.82960113  0.49631724  0.66670604  1
  I  I105  1  0.82864328  0.83294804  -0.00027127  1
  I  I106  1  0.83873310  0.83321848  0.33361794  1
  I  I107  1  0.83519015  0.83337606  0.66663583  1
  I  I108  1  -0.00010938  0.16574536  0.16695083  1
  I  I109  1  -0.00415811  0.17202057  0.50535417  1
  I  I110  1  -0.00368836  0.17104069  0.82834217  1
  I  I111  1  0.00385309  0.50830934  0.16636792  1
  I  I112  1  -0.00368838  0.49500917  0.50437416  1
  I  I113  1  -0.00321856  0.49650137  0.82983469  1
  I  I114  1  0.00339124  0.82898351  0.16231663  1
  I  I115  1  -0.00010937  0.83361754  0.49907853  1
  I  I116  1  0.00385307  0.83303492  0.84164304  1
  I  I117  1  0.33783560  0.16514610  0.16743313  1
  I  I118  1  0.33765423  0.16677212  0.50010559  1
  I  I119  1  0.33702837  0.17010325  0.83253705  1
  I  I120  1  0.33123802  0.50225035  0.16616575  1
  I  I121  1  0.33702837  0.49920392  0.50343642  1
  I  I122  1  0.33643849  0.49641080  0.82974409  1
  I  I123  1  0.33410502  0.83344859  0.16678201  1
  I  I124  1  0.33783564  0.83409956  0.49847951  1
  I  I125  1  0.33123802  0.83283205  0.83558359  1
  I  I126  1  0.66200616  0.16094767  0.16726506  1
  I  I127  1  0.66509724  0.16671402  0.50004701  1
  I  I128  1  0.66535620  0.16924566  0.83290567  1
  I  I129  1  0.66659872  0.50090945  0.16639236  1
  I  I130  1  0.66535621  0.49957167  0.50257880  1
  I  I131  1  0.66593013  0.49735915  0.83069257  1
  I  I132  1  0.66240940  0.83779208  0.17112557  1
  I  I133  1  0.66200621  0.83393196  0.49428144  1
  I  I134  1  0.66659866  0.83305891  0.83424241  1
