# generated using pymatgen
data_Cs27Sn13Pb14I81
_symmetry_space_group_name_H-M   'P 1'
_cell_length_a   19.00375115
_cell_length_b   18.98589167
_cell_length_c   18.98562969
_cell_angle_alpha   89.99479591
_cell_angle_beta   90.00042003
_cell_angle_gamma   89.99927822
_symmetry_Int_Tables_number   1
_chemical_formula_structural   Cs27Sn13Pb14I81
_chemical_formula_sum   'Cs27 Sn13 Pb14 I81'
_cell_volume   6850.07517237
_cell_formula_units_Z   1
loop_
 _symmetry_equiv_pos_site_id
 _symmetry_equiv_pos_as_xyz
  1  'x, y, z'
loop_
 _atom_site_type_symbol
 _atom_site_label
 _atom_site_symmetry_multiplicity
 _atom_site_fract_x
 _atom_site_fract_y
 _atom_site_fract_z
 _atom_site_occupancy
  Cs  Cs0  1  0.00248432  -0.00242461  -0.00189058  1
  Cs  Cs1  1  -0.00258442  0.00039390  0.33462487  1
  Cs  Cs2  1  -0.00049686  0.00070710  0.66600836  1
  Cs  Cs3  1  -0.00597554  0.33392835  0.00097787  1
  Cs  Cs4  1  -0.00263008  0.32905376  0.33193634  1
  Cs  Cs5  1  0.00374497  0.33371913  0.66642772  1
  Cs  Cs6  1  0.00197421  0.66775557  -0.00138796  1
  Cs  Cs7  1  0.00092271  0.66898342  0.33573276  1
  Cs  Cs8  1  -0.00053192  0.66588295  0.66505662  1
  Cs  Cs9  1  0.33226383  -0.00067006  -0.00044022  1
  Cs  Cs10  1  0.33474306  0.00135191  0.33251838  1
  Cs  Cs11  1  0.33625112  0.00398456  0.66980817  1
  Cs  Cs12  1  0.33202202  0.33408108  0.00072154  1
  Cs  Cs13  1  0.33395166  0.33294226  0.33211270  1
  Cs  Cs14  1  0.33153279  0.33375884  0.66686115  1
  Cs  Cs15  1  0.32965192  0.66679393  0.00185875  1
  Cs  Cs16  1  0.33482843  0.66646509  0.33289898  1
  Cs  Cs17  1  0.33383437  0.66414216  0.66531483  1
  Cs  Cs18  1  0.66538117  0.00133257  -0.00526351  1
  Cs  Cs19  1  0.66616013  -0.00379721  0.33250067  1
  Cs  Cs20  1  0.66286280  0.00692100  0.67606571  1
  Cs  Cs21  1  0.67778757  0.33458338  0.00248961  1
  Cs  Cs22  1  0.66899030  0.33081684  0.32891537  1
  Cs  Cs23  1  0.66515939  0.32884270  0.66923799  1
  Cs  Cs24  1  0.66978041  0.66424826  -0.00214507  1
  Cs  Cs25  1  0.66488595  0.67049307  0.33648532  1
  Cs  Cs26  1  0.66657457  0.66654270  0.66369090  1
  Sn  Sn27  1  0.49998962  0.83318379  0.49981181  1
  Sn  Sn28  1  0.16767806  0.49934230  0.83285169  1
  Sn  Sn29  1  0.83305241  0.50020309  0.49985714  1
  Sn  Sn30  1  0.49935518  0.16607166  0.16665359  1
  Sn  Sn31  1  0.83268192  0.83300331  0.49984566  1
  Sn  Sn32  1  0.16740673  0.16664919  0.16589436  1
  Sn  Sn33  1  0.16696313  0.16761941  0.83449165  1
  Sn  Sn34  1  0.16683970  0.50068854  0.50018749  1
  Sn  Sn35  1  0.50013401  0.50027410  0.50053492  1
  Sn  Sn36  1  0.83230385  0.83315685  0.16709555  1
  Sn  Sn37  1  0.49925068  0.50014579  0.83292578  1
  Sn  Sn38  1  0.16729462  0.83292112  0.50013253  1
  Sn  Sn39  1  0.50072899  0.83391235  0.16699891  1
  Pb  Pb40  1  0.50004667  0.50053069  0.16668793  1
  Pb  Pb41  1  0.83317378  0.83315093  0.83254451  1
  Pb  Pb42  1  0.83295862  0.16602983  0.50009615  1
  Pb  Pb43  1  0.16697262  0.83529948  0.16907934  1
  Pb  Pb44  1  0.50006244  0.16687196  0.49797479  1
  Pb  Pb45  1  0.16689353  0.83281248  0.83029558  1
  Pb  Pb46  1  0.49983158  0.83072916  0.83348366  1
  Pb  Pb47  1  0.83338500  0.50338779  0.16973778  1
  Pb  Pb48  1  0.16652537  0.49779468  0.16700106  1
  Pb  Pb49  1  0.83318088  0.16353087  0.16677215  1
  Pb  Pb50  1  0.16684858  0.16691398  0.49997987  1
  Pb  Pb51  1  0.49805703  0.16994194  0.83656259  1
  Pb  Pb52  1  0.83369760  0.50021004  0.83048948  1
  Pb  Pb53  1  0.83665207  0.16680777  0.83333330  1
  I  I54  1  0.16805279  0.00312082  0.16198881  1
  I  I55  1  0.16550452  -0.00294011  0.49891155  1
  I  I56  1  0.16547690  0.00265665  0.83635217  1
  I  I57  1  0.17404114  0.32978509  0.16879298  1
  I  I58  1  0.16693695  0.33674913  0.50109611  1
  I  I59  1  0.17135813  0.33449007  0.82980343  1
  I  I60  1  0.16707753  0.66689485  0.16376364  1
  I  I61  1  0.16622996  0.66594100  0.50476870  1
  I  I62  1  0.16977819  0.66316172  0.83061024  1
  I  I63  1  0.49938318  -0.00116571  0.17392764  1
  I  I64  1  0.49948448  -0.00347379  0.49678779  1
  I  I65  1  0.49912821  0.00026324  0.83005223  1
  I  I66  1  0.49383486  0.33097687  0.16761615  1
  I  I67  1  0.49835840  0.33698664  0.50277343  1
  I  I68  1  0.49725151  0.33736333  0.82531601  1
  I  I69  1  0.50413902  0.66993763  0.16926912  1
  I  I70  1  0.49948296  0.66686480  0.49766036  1
  I  I71  1  0.49252022  0.66297314  0.83317383  1
  I  I72  1  0.83298202  -0.00390024  0.17673528  1
  I  I73  1  0.83576807  -0.00427314  0.49454527  1
  I  I74  1  0.83485347  -0.00003151  0.82994609  1
  I  I75  1  0.83267568  0.33320087  0.16769270  1
  I  I76  1  0.83489266  0.33681638  0.50161438  1
  I  I77  1  0.83025923  0.33375179  0.83204604  1
  I  I78  1  0.82629938  0.67112504  0.16851302  1
  I  I79  1  0.83402762  0.66700265  0.49594138  1
  I  I80  1  0.83695595  0.66645461  0.83781770  1
  I  I81  1  0.17141596  0.17165021  -0.00011732  1
  I  I82  1  0.16984435  0.16607063  0.33083412  1
  I  I83  1  0.16577220  0.16834004  0.66908151  1
  I  I84  1  0.17301082  0.49820271  -0.00318788  1
  I  I85  1  0.16816332  0.50330438  0.33717803  1
  I  I86  1  0.16706805  0.49751157  0.66557120  1
  I  I87  1  0.16575092  0.83099119  0.00002760  1
  I  I88  1  0.16660316  0.82811601  0.33714527  1
  I  I89  1  0.16568681  0.83397090  0.66198188  1
  I  I90  1  0.49709295  0.15944099  0.00402286  1
  I  I91  1  0.49259042  0.16762656  0.33013609  1
  I  I92  1  0.49893443  0.16336774  0.66709201  1
  I  I93  1  0.49244545  0.50011270  -0.00276291  1
  I  I94  1  0.49855775  0.50129958  0.33679481  1
  I  I95  1  0.49894638  0.50605383  0.66486222  1
  I  I96  1  0.50498083  0.83662503  0.00341296  1
  I  I97  1  0.50035391  0.83119447  0.33449968  1
  I  I98  1  0.50064108  0.83061175  0.66308460  1
  I  I99  1  0.83096868  0.16564832  0.00031627  1
  I  I100  1  0.83783928  0.17100819  0.33316341  1
  I  I101  1  0.83471388  0.16321741  0.66670002  1
  I  I102  1  0.83314478  0.50031080  -0.00008407  1
  I  I103  1  0.83330838  0.50075958  0.33803931  1
  I  I104  1  0.83398388  0.50886773  0.66244599  1
  I  I105  1  0.82817654  0.83584446  0.00322111  1
  I  I106  1  0.83274008  0.82930710  0.33469686  1
  I  I107  1  0.83426144  0.82785228  0.66220260  1
  I  I108  1  0.00284051  0.16699092  0.16315557  1
  I  I109  1  0.00025735  0.16614382  0.49804369  1
  I  I110  1  0.00492449  0.17376905  0.83940563  1
  I  I111  1  0.00001511  0.49917434  0.16627979  1
  I  I112  1  0.00076130  0.50643111  0.50356032  1
  I  I113  1  0.00347695  0.49555399  0.82898055  1
  I  I114  1  -0.00211524  0.83419573  0.17209050  1
  I  I115  1  -0.00013425  0.82734697  0.49616439  1
  I  I116  1  0.00025535  0.83254963  0.83451247  1
  I  I117  1  0.33344911  0.16035845  0.16438561  1
  I  I118  1  0.33328653  0.16538405  0.50022309  1
  I  I119  1  0.33029228  0.16841200  0.83398418  1
  I  I120  1  0.33336188  0.50411481  0.17148603  1
  I  I121  1  0.33326956  0.50631444  0.50429579  1
  I  I122  1  0.33254363  0.49669893  0.82376783  1
  I  I123  1  0.33620146  0.83524111  0.17163685  1
  I  I124  1  0.33401603  0.82680646  0.49571191  1
  I  I125  1  0.33327427  0.83526558  0.83398260  1
  I  I126  1  0.66373748  0.16580710  0.16945337  1
  I  I127  1  0.66644293  0.16829919  0.49749352  1
  I  I128  1  0.66619941  0.16733251  0.83369388  1
  I  I129  1  0.66653440  0.49314045  0.16436571  1
  I  I130  1  0.66590294  0.50736488  0.50324583  1
  I  I131  1  0.66379108  0.50204749  0.82987764  1
  I  I132  1  0.66560565  0.83880169  0.17709416  1
  I  I133  1  0.66615270  0.82480805  0.49332982  1
  I  I134  1  0.66637472  0.83159353  0.82946842  1
