# generated using pymatgen
data_Cs27Sn14Pb13I81
_symmetry_space_group_name_H-M   'P 1'
_cell_length_a   18.97564956
_cell_length_b   18.97053105
_cell_length_c   18.97998610
_cell_angle_alpha   90.00051566
_cell_angle_beta   90.00069170
_cell_angle_gamma   90.00187728
_symmetry_Int_Tables_number   1
_chemical_formula_structural   Cs27Sn14Pb13I81
_chemical_formula_sum   'Cs27 Sn14 Pb13 I81'
_cell_volume   6832.38026185
_cell_formula_units_Z   1
loop_
 _symmetry_equiv_pos_site_id
 _symmetry_equiv_pos_as_xyz
  1  'x, y, z'
loop_
 _atom_site_type_symbol
 _atom_site_label
 _atom_site_symmetry_multiplicity
 _atom_site_fract_x
 _atom_site_fract_y
 _atom_site_fract_z
 _atom_site_occupancy
  Cs  Cs0  1  0.00087963  -0.00147244  -0.00261159  1
  Cs  Cs1  1  0.00260616  0.00287811  0.33672661  1
  Cs  Cs2  1  0.00072678  -0.00032389  0.66676709  1
  Cs  Cs3  1  0.00325005  0.33567368  0.00619519  1
  Cs  Cs4  1  -0.00100813  0.33728527  0.33189349  1
  Cs  Cs5  1  -0.00078609  0.33586485  0.66377534  1
  Cs  Cs6  1  -0.00486851  0.66626891  0.00260794  1
  Cs  Cs7  1  -0.00343245  0.65780968  0.33409345  1
  Cs  Cs8  1  0.00124505  0.66478057  0.66492839  1
  Cs  Cs9  1  0.32954509  -0.00092013  -0.00057218  1
  Cs  Cs10  1  0.33377098  -0.00000368  0.33394134  1
  Cs  Cs11  1  0.33109157  -0.00186956  0.66553449  1
  Cs  Cs12  1  0.33507718  0.33708252  0.00063661  1
  Cs  Cs13  1  0.33499973  0.33101279  0.33129617  1
  Cs  Cs14  1  0.33576280  0.33618352  0.66925068  1
  Cs  Cs15  1  0.33264406  0.66691444  -0.00551470  1
  Cs  Cs16  1  0.33824298  0.67019681  0.33469854  1
  Cs  Cs17  1  0.33183491  0.66774738  0.66963427  1
  Cs  Cs18  1  0.67229996  -0.00015962  -0.00207338  1
  Cs  Cs19  1  0.66466893  0.00049352  0.33403693  1
  Cs  Cs20  1  0.67014785  0.00252779  0.66677207  1
  Cs  Cs21  1  0.66264400  0.33099180  -0.00448675  1
  Cs  Cs22  1  0.66632404  0.33331477  0.33411762  1
  Cs  Cs23  1  0.66493892  0.33193590  0.66931009  1
  Cs  Cs24  1  0.67196267  0.66940523  0.00348570  1
  Cs  Cs25  1  0.66506040  0.66666514  0.32898395  1
  Cs  Cs26  1  0.66657683  0.66568899  0.66625584  1
  Sn  Sn27  1  0.16719107  0.83418073  0.83329882  1
  Sn  Sn28  1  0.16551473  0.83378717  0.49957032  1
  Sn  Sn29  1  0.16682594  0.16665167  0.83241141  1
  Sn  Sn30  1  0.49981793  0.16739473  0.49963678  1
  Sn  Sn31  1  0.49974427  0.49925145  0.49953224  1
  Sn  Sn32  1  0.50023671  0.83407625  0.83324496  1
  Sn  Sn33  1  0.16643290  0.83301282  0.16726054  1
  Sn  Sn34  1  0.83259521  0.16623959  0.16731259  1
  Sn  Sn35  1  0.16675453  0.16643295  0.50097287  1
  Sn  Sn36  1  0.83348426  0.16607005  0.49915559  1
  Sn  Sn37  1  0.83347541  0.49964541  0.83318091  1
  Sn  Sn38  1  0.83412105  0.83377025  0.49966798  1
  Sn  Sn39  1  0.50082553  0.16685090  0.16710526  1
  Sn  Sn40  1  0.49980974  0.49956639  0.16725222  1
  Pb  Pb41  1  0.49999578  0.83402689  0.50150330  1
  Pb  Pb42  1  0.16961113  0.50323210  0.16691984  1
  Pb  Pb43  1  0.83067930  0.49710042  0.16468061  1
  Pb  Pb44  1  0.16701506  0.16543388  0.16707535  1
  Pb  Pb45  1  0.50163437  0.50232731  0.83358234  1
  Pb  Pb46  1  0.83587399  0.83586002  0.16977444  1
  Pb  Pb47  1  0.49850432  0.83424008  0.16431587  1
  Pb  Pb48  1  0.16441087  0.50009678  0.83328550  1
  Pb  Pb49  1  0.49782980  0.16458234  0.83336585  1
  Pb  Pb50  1  0.83080000  0.49948950  0.50101869  1
  Pb  Pb51  1  0.83429480  0.83190653  0.83103894  1
  Pb  Pb52  1  0.16948051  0.49978382  0.49983830  1
  Pb  Pb53  1  0.83624230  0.16838338  0.83316147  1
  I  I54  1  0.16957823  -0.00251050  0.16633091  1
  I  I55  1  0.16823407  0.00027858  0.50105784  1
  I  I56  1  0.17008028  -0.00098519  0.83213905  1
  I  I57  1  0.16472328  0.33313097  0.16562132  1
  I  I58  1  0.16378396  0.32953952  0.50485325  1
  I  I59  1  0.16524325  0.33031073  0.82782458  1
  I  I60  1  0.16807342  0.67137605  0.16575023  1
  I  I61  1  0.16341788  0.67020284  0.50178981  1
  I  I62  1  0.17051632  0.67025507  0.83180597  1
  I  I63  1  0.50171600  0.00329482  0.17217455  1
  I  I64  1  0.49946921  0.00329170  0.49623334  1
  I  I65  1  0.49796581  -0.00308194  0.83246668  1
  I  I66  1  0.50291097  0.33211806  0.17030736  1
  I  I67  1  0.50018802  0.33166377  0.49728360  1
  I  I68  1  0.49896690  0.33306583  0.83329824  1
  I  I69  1  0.49711558  0.66456277  0.17044988  1
  I  I70  1  0.50028788  0.66484932  0.49766828  1
  I  I71  1  0.49292508  0.66992179  0.83166444  1
  I  I72  1  0.82530132  0.00367133  0.16653027  1
  I  I73  1  0.83188513  0.00132343  0.49825819  1
  I  I74  1  0.83157746  0.00016179  0.83481634  1
  I  I75  1  0.83491206  0.32931938  0.17388518  1
  I  I76  1  0.83642519  0.32975634  0.49771632  1
  I  I77  1  0.83252618  0.33558438  0.83076782  1
  I  I78  1  0.83292060  0.66674523  0.16649765  1
  I  I79  1  0.83761312  0.66900541  0.50391445  1
  I  I80  1  0.83329677  0.66439356  0.83115887  1
  I  I81  1  0.16616099  0.16136203  -0.00197506  1
  I  I82  1  0.16757927  0.16137953  0.33654373  1
  I  I83  1  0.16672547  0.15831060  0.66516678  1
  I  I84  1  0.16887484  0.49837615  0.00001477  1
  I  I85  1  0.16288083  0.49981488  0.33346068  1
  I  I86  1  0.16950273  0.50376463  0.66651076  1
  I  I87  1  0.17298499  0.83791905  -0.00113272  1
  I  I88  1  0.16412505  0.83912479  0.33488983  1
  I  I89  1  0.16723020  0.83783951  0.66628731  1
  I  I90  1  0.50284183  0.16986675  0.00277857  1
  I  I91  1  0.49832897  0.16992741  0.33440552  1
  I  I92  1  0.50251686  0.16964569  0.66348804  1
  I  I93  1  0.50096035  0.49548835  0.00259931  1
  I  I94  1  0.50027343  0.49697594  0.33367527  1
  I  I95  1  0.50160737  0.49603089  0.66422257  1
  I  I96  1  0.49337590  0.83246538  -0.00327333  1
  I  I97  1  0.49847534  0.83200892  0.33337993  1
  I  I98  1  0.49398991  0.83256322  0.66902170  1
  I  I99  1  0.82912458  0.16926792  0.00238282  1
  I  I100  1  0.83458866  0.16302663  0.33486286  1
  I  I101  1  0.83068259  0.16423502  0.66331129  1
  I  I102  1  0.83192679  0.50081159  -0.00266221  1
  I  I103  1  0.83397606  0.50224154  0.33325292  1
  I  I104  1  0.83068779  0.49893592  0.66850386  1
  I  I105  1  0.83366180  0.83298958  0.00015691  1
  I  I106  1  0.83686515  0.83405525  0.33769608  1
  I  I107  1  0.83727428  0.83961983  0.66326178  1
  I  I108  1  -0.00203870  0.16380929  0.16900615  1
  I  I109  1  0.00012726  0.16075013  0.50067258  1
  I  I110  1  0.00390354  0.15937465  0.82991475  1
  I  I111  1  -0.00029594  0.49935009  0.16440315  1
  I  I112  1  -0.00015946  0.49879567  0.50221459  1
  I  I113  1  -0.00297960  0.50143987  0.83173312  1
  I  I114  1  0.00370175  0.83643600  0.15963742  1
  I  I115  1  0.00118073  0.84168807  0.50274104  1
  I  I116  1  0.00349829  0.83653709  0.83446576  1
  I  I117  1  0.33610181  0.16881480  0.16994330  1
  I  I118  1  0.33331738  0.16555545  0.49934865  1
  I  I119  1  0.32992923  0.16432841  0.82941430  1
  I  I120  1  0.33737498  0.49130117  0.16916811  1
  I  I121  1  0.33742819  0.49676162  0.49770800  1
  I  I122  1  0.33343130  0.49978373  0.83348490  1
  I  I123  1  0.33051388  0.83610578  0.17172196  1
  I  I124  1  0.33039925  0.83624020  0.49931834  1
  I  I125  1  0.33157541  0.83548672  0.83060205  1
  I  I126  1  0.66585530  0.16962849  0.17438891  1
  I  I127  1  0.66661876  0.16593379  0.49555503  1
  I  I128  1  0.66669205  0.16566683  0.83137083  1
  I  I129  1  0.66298715  0.50071255  0.17091313  1
  I  I130  1  0.66306588  0.49714517  0.49778531  1
  I  I131  1  0.66895079  0.50115751  0.83204841  1
  I  I132  1  0.66680825  0.83118959  0.16567646  1
  I  I133  1  0.66873568  0.83654619  0.50347264  1
  I  I134  1  0.66499394  0.83080330  0.83135052  1
