# generated using pymatgen
data_Cs27Sn13Pb14I81
_symmetry_space_group_name_H-M   'P 1'
_cell_length_a   19.00382457
_cell_length_b   18.97219124
_cell_length_c   19.00315513
_cell_angle_alpha   90.00071393
_cell_angle_beta   90.00066117
_cell_angle_gamma   90.00025165
_symmetry_Int_Tables_number   1
_chemical_formula_structural   Cs27Sn13Pb14I81
_chemical_formula_sum   'Cs27 Sn13 Pb14 I81'
_cell_volume   6851.47725161
_cell_formula_units_Z   1
loop_
 _symmetry_equiv_pos_site_id
 _symmetry_equiv_pos_as_xyz
  1  'x, y, z'
loop_
 _atom_site_type_symbol
 _atom_site_label
 _atom_site_symmetry_multiplicity
 _atom_site_fract_x
 _atom_site_fract_y
 _atom_site_fract_z
 _atom_site_occupancy
  Cs  Cs0  1  -0.00075640  0.00131512  -0.00004684  1
  Cs  Cs1  1  0.00025918  -0.00000138  0.33356616  1
  Cs  Cs2  1  -0.00078966  0.00044820  0.66715921  1
  Cs  Cs3  1  -0.00356770  0.33525789  -0.00241104  1
  Cs  Cs4  1  -0.00165889  0.33199141  0.33179694  1
  Cs  Cs5  1  -0.00183351  0.33522949  0.67094878  1
  Cs  Cs6  1  0.00285772  0.66156969  0.00283687  1
  Cs  Cs7  1  0.00636805  0.66070258  0.34199574  1
  Cs  Cs8  1  0.00076891  0.66207566  0.65543965  1
  Cs  Cs9  1  0.33446241  -0.00042130  -0.00053953  1
  Cs  Cs10  1  0.33356980  0.00108820  0.33190154  1
  Cs  Cs11  1  0.33588760  0.00082409  0.66956961  1
  Cs  Cs12  1  0.33299551  0.33553591  -0.00024710  1
  Cs  Cs13  1  0.33780065  0.33317751  0.33688838  1
  Cs  Cs14  1  0.33528420  0.33717829  0.66412310  1
  Cs  Cs15  1  0.33231502  0.66265320  0.00022068  1
  Cs  Cs16  1  0.32304626  0.66224839  0.33204969  1
  Cs  Cs17  1  0.33186604  0.66049956  0.66864318  1
  Cs  Cs18  1  0.66644351  -0.00094548  0.00056006  1
  Cs  Cs19  1  0.66607211  0.00075604  0.33153145  1
  Cs  Cs20  1  0.66498207  -0.00093285  0.66869398  1
  Cs  Cs21  1  0.67023680  0.33859478  -0.00061977  1
  Cs  Cs22  1  0.66427807  0.33728917  0.33432597  1
  Cs  Cs23  1  0.66701408  0.34049762  0.66641350  1
  Cs  Cs24  1  0.66439247  0.66828514  0.00102619  1
  Cs  Cs25  1  0.67051833  0.66226168  0.33345718  1
  Cs  Cs26  1  0.66865457  0.66604101  0.66370483  1
  Sn  Sn27  1  0.83285321  0.16552586  0.16743094  1
  Sn  Sn28  1  0.50032929  0.16597923  0.16538497  1
  Sn  Sn29  1  0.16584286  0.16563946  0.50048306  1
  Sn  Sn30  1  0.49970502  0.83371370  0.49928590  1
  Sn  Sn31  1  0.50035124  0.83395844  0.16712296  1
  Sn  Sn32  1  0.83376877  0.83387553  0.83404229  1
  Sn  Sn33  1  0.16683441  0.16587765  0.16625811  1
  Sn  Sn34  1  0.49987481  0.83424488  0.83339053  1
  Sn  Sn35  1  0.83342104  0.16555825  0.49944891  1
  Sn  Sn36  1  0.16763240  0.16563171  0.83335598  1
  Sn  Sn37  1  0.49968707  0.16629177  0.83423205  1
  Sn  Sn38  1  0.83335055  0.83390042  0.16626828  1
  Sn  Sn39  1  0.16641004  0.83418501  0.83344861  1
  Pb  Pb40  1  0.83171720  0.83534434  0.49923426  1
  Pb  Pb41  1  0.49991885  0.50421861  0.49976313  1
  Pb  Pb42  1  0.16677846  0.49597780  0.50011345  1
  Pb  Pb43  1  0.16916267  0.83592845  0.50267413  1
  Pb  Pb44  1  0.83275201  0.16536653  0.83358742  1
  Pb  Pb45  1  0.16640685  0.83504034  0.16479602  1
  Pb  Pb46  1  0.50000992  0.50047477  0.16654651  1
  Pb  Pb47  1  0.83334020  0.50085391  0.16659876  1
  Pb  Pb48  1  0.16668026  0.49614520  0.16648653  1
  Pb  Pb49  1  0.83321729  0.49627038  0.49981722  1
  Pb  Pb50  1  0.50014282  0.50007276  0.83357583  1
  Pb  Pb51  1  0.16663059  0.49967594  0.83344102  1
  Pb  Pb52  1  0.50031206  0.16542615  0.50026864  1
  Pb  Pb53  1  0.83337556  0.50482556  0.83360335  1
  I  I54  1  0.16676063  0.00380876  0.16854183  1
  I  I55  1  0.16255077  0.00394516  0.49750191  1
  I  I56  1  0.16864273  0.00106083  0.83341730  1
  I  I57  1  0.16656672  0.32699655  0.16367023  1
  I  I58  1  0.16443850  0.32762383  0.50241373  1
  I  I59  1  0.17150294  0.32884781  0.83318034  1
  I  I60  1  0.16735101  0.66698720  0.16437534  1
  I  I61  1  0.16805530  0.66690718  0.50143549  1
  I  I62  1  0.16907168  0.67022122  0.83454217  1
  I  I63  1  0.50083491  0.00045882  0.16514801  1
  I  I64  1  0.50010762  -0.00237706  0.50125354  1
  I  I65  1  0.49845667  -0.00064979  0.83421154  1
  I  I66  1  0.49988103  0.32903392  0.16257456  1
  I  I67  1  0.49966967  0.33309719  0.50023446  1
  I  I68  1  0.49462806  0.32942068  0.83745297  1
  I  I69  1  0.50607132  0.67105494  0.16468637  1
  I  I70  1  0.50208671  0.67242448  0.50251804  1
  I  I71  1  0.49931228  0.67109906  0.83410403  1
  I  I72  1  0.83177709  0.00092102  0.16645065  1
  I  I73  1  0.83780497  0.00328818  0.49795319  1
  I  I74  1  0.83248869  -0.00281632  0.83424016  1
  I  I75  1  0.83333267  0.32936461  0.17091598  1
  I  I76  1  0.83630943  0.32782859  0.49424950  1
  I  I77  1  0.83351271  0.33316017  0.83271378  1
  I  I78  1  0.82550736  0.67091301  0.16008761  1
  I  I79  1  0.83106791  0.66694992  0.50094445  1
  I  I80  1  0.83068312  0.67311865  0.84015805  1
  I  I81  1  0.16768530  0.16225164  -0.00032954  1
  I  I82  1  0.16633221  0.16730421  0.33277964  1
  I  I83  1  0.16665376  0.16181032  0.66750451  1
  I  I84  1  0.16693877  0.49863376  -0.00018048  1
  I  I85  1  0.16665762  0.50204277  0.33344561  1
  I  I86  1  0.16670807  0.49925507  0.66676920  1
  I  I87  1  0.17065440  0.84029735  -0.00323063  1
  I  I88  1  0.16756612  0.83459057  0.33332880  1
  I  I89  1  0.16603670  0.84048642  0.67077270  1
  I  I90  1  0.49654535  0.15885215  0.00024708  1
  I  I91  1  0.49733320  0.16215143  0.33049829  1
  I  I92  1  0.49656633  0.16089116  0.66948438  1
  I  I93  1  0.49967487  0.50291911  0.00001143  1
  I  I94  1  0.50021919  0.49651572  0.33318872  1
  I  I95  1  0.49988248  0.49738382  0.66675374  1
  I  I96  1  0.50153070  0.83797466  -0.00019660  1
  I  I97  1  0.50621049  0.84027566  0.33175407  1
  I  I98  1  0.50044734  0.83908118  0.66845328  1
  I  I99  1  0.83571181  0.16451523  0.00293350  1
  I  I100  1  0.83685249  0.16087443  0.33179533  1
  I  I101  1  0.83682259  0.16415971  0.66497000  1
  I  I102  1  0.83403113  0.49285187  0.00015364  1
  I  I103  1  0.83335669  0.50468750  0.33325222  1
  I  I104  1  0.83315335  0.49888687  0.66662778  1
  I  I105  1  0.82771041  0.84098492  0.00037563  1
  I  I106  1  0.82648340  0.83720131  0.32990340  1
  I  I107  1  0.83129626  0.83608299  0.66918411  1
  I  I108  1  -0.00035269  0.16282110  0.16770610  1
  I  I109  1  0.00028913  0.16529249  0.49668373  1
  I  I110  1  0.00247088  0.16238549  0.83492170  1
  I  I111  1  -0.00005514  0.50077990  0.16600847  1
  I  I112  1  0.00005940  0.50536949  0.50001595  1
  I  I113  1  0.00005645  0.49656116  0.83416112  1
  I  I114  1  -0.00294893  0.83958619  0.16037778  1
  I  I115  1  0.00018412  0.83218871  0.50091556  1
  I  I116  1  0.00015767  0.84031420  0.83887027  1
  I  I117  1  0.33390305  0.16238721  0.16647163  1
  I  I118  1  0.33111019  0.16459739  0.49777646  1
  I  I119  1  0.33344273  0.15886479  0.83592299  1
  I  I120  1  0.33339865  0.50153558  0.16664115  1
  I  I121  1  0.33328226  0.49706254  0.50027037  1
  I  I122  1  0.33339882  0.50368820  0.83301568  1
  I  I123  1  0.33643207  0.83830817  0.16598667  1
  I  I124  1  0.33685064  0.83793077  0.49847939  1
  I  I125  1  0.33412121  0.83865056  0.83296431  1
  I  I126  1  0.66640774  0.16190663  0.16726976  1
  I  I127  1  0.66889398  0.16375178  0.49654612  1
  I  I128  1  0.66374181  0.16121791  0.83546013  1
  I  I129  1  0.66669566  0.49471515  0.16697210  1
  I  I130  1  0.66659939  0.49636467  0.50063945  1
  I  I131  1  0.66665974  0.49620751  0.83254154  1
  I  I132  1  0.66607122  0.84229255  0.16111457  1
  I  I133  1  0.66400044  0.83807414  0.50552732  1
  I  I134  1  0.66562336  0.83827296  0.83386737  1
