# generated using pymatgen
data_Cs27Sn13Pb14I81
_symmetry_space_group_name_H-M   'P 1'
_cell_length_a   18.99510892
_cell_length_b   18.98502844
_cell_length_c   18.99518583
_cell_angle_alpha   89.99894191
_cell_angle_beta   90.00000005
_cell_angle_gamma   90.00055992
_symmetry_Int_Tables_number   1
_chemical_formula_structural   Cs27Sn13Pb14I81
_chemical_formula_sum   'Cs27 Sn13 Pb14 I81'
_cell_volume   6850.09487954
_cell_formula_units_Z   1
loop_
 _symmetry_equiv_pos_site_id
 _symmetry_equiv_pos_as_xyz
  1  'x, y, z'
loop_
 _atom_site_type_symbol
 _atom_site_label
 _atom_site_symmetry_multiplicity
 _atom_site_fract_x
 _atom_site_fract_y
 _atom_site_fract_z
 _atom_site_occupancy
  Cs  Cs0  1  0.00032220  -0.00493665  -0.00366877  1
  Cs  Cs1  1  -0.00028104  0.00247214  0.33236963  1
  Cs  Cs2  1  0.00311244  0.00225884  0.67184004  1
  Cs  Cs3  1  -0.00141926  0.33160267  -0.00048105  1
  Cs  Cs4  1  -0.00011948  0.33147335  0.33352945  1
  Cs  Cs5  1  -0.00110586  0.33403711  0.66668832  1
  Cs  Cs6  1  -0.00080217  0.67332681  0.00416013  1
  Cs  Cs7  1  0.00584643  0.66978316  0.33297598  1
  Cs  Cs8  1  0.00325589  0.66375290  0.66285079  1
  Cs  Cs9  1  0.33492026  0.00027484  -0.01293734  1
  Cs  Cs10  1  0.33521087  0.00264575  0.33423476  1
  Cs  Cs11  1  0.33370662  0.00016579  0.67571338  1
  Cs  Cs12  1  0.33458098  0.33361368  0.00500340  1
  Cs  Cs13  1  0.33304294  0.33087032  0.32788597  1
  Cs  Cs14  1  0.33353844  0.33327289  0.66708860  1
  Cs  Cs15  1  0.33255716  0.66621316  0.00371780  1
  Cs  Cs16  1  0.32764679  0.66708458  0.33157684  1
  Cs  Cs17  1  0.33300762  0.66741419  0.66520057  1
  Cs  Cs18  1  0.66637263  -0.00558353  -0.00939017  1
  Cs  Cs19  1  0.66637239  -0.00114912  0.33486031  1
  Cs  Cs20  1  0.66395113  -0.00082459  0.66907168  1
  Cs  Cs21  1  0.66676165  0.33419121  0.00296950  1
  Cs  Cs22  1  0.66706942  0.33208518  0.33317422  1
  Cs  Cs23  1  0.66871012  0.33619511  0.66503598  1
  Cs  Cs24  1  0.66712177  0.66770182  -0.00006176  1
  Cs  Cs25  1  0.66688631  0.66872889  0.33497940  1
  Cs  Cs26  1  0.66579991  0.66407431  0.66479304  1
  Sn  Sn27  1  0.83295830  0.50027722  0.49919884  1
  Sn  Sn28  1  0.16580692  0.16614172  0.16708612  1
  Sn  Sn29  1  0.50048668  0.83237806  0.49880523  1
  Sn  Sn30  1  0.50027808  0.50065416  0.49987213  1
  Sn  Sn31  1  0.16608417  0.16676916  0.49945665  1
  Sn  Sn32  1  0.16651713  0.49989887  0.83351889  1
  Sn  Sn33  1  0.83346637  0.49978780  0.16744773  1
  Sn  Sn34  1  0.83382472  0.16670770  0.16717634  1
  Sn  Sn35  1  0.83307042  0.83339108  0.49990315  1
  Sn  Sn36  1  0.50003846  0.83376880  0.16776620  1
  Sn  Sn37  1  0.83356142  0.49993512  0.83351939  1
  Sn  Sn38  1  0.83402989  0.16643950  0.49938578  1
  Sn  Sn39  1  0.49992038  0.50000678  0.83272156  1
  Pb  Pb40  1  0.50042667  0.17031354  0.83328915  1
  Pb  Pb41  1  0.16708878  0.83639405  0.49995028  1
  Pb  Pb42  1  0.16366429  0.49806602  0.16447353  1
  Pb  Pb43  1  0.83315911  0.16865829  0.83332482  1
  Pb  Pb44  1  0.50217898  0.50161603  0.16759642  1
  Pb  Pb45  1  0.50109095  0.16365103  0.16664370  1
  Pb  Pb46  1  0.50012000  0.83019043  0.83231103  1
  Pb  Pb47  1  0.83190586  0.83404171  0.16882600  1
  Pb  Pb48  1  0.83343894  0.83005690  0.82967545  1
  Pb  Pb49  1  0.16636380  0.16903627  0.83363861  1
  Pb  Pb50  1  0.16955102  0.83697005  0.16687550  1
  Pb  Pb51  1  0.50042996  0.16679294  0.50003520  1
  Pb  Pb52  1  0.16640222  0.82991095  0.83315792  1
  Pb  Pb53  1  0.16698263  0.49783292  0.50096000  1
  I  I54  1  0.15762695  0.00464276  0.17194422  1
  I  I55  1  0.16202591  0.00425682  0.49585581  1
  I  I56  1  0.16807742  0.00035835  0.83308299  1
  I  I57  1  0.16671528  0.33029376  0.17087979  1
  I  I58  1  0.16200048  0.33019753  0.49760371  1
  I  I59  1  0.16620812  0.33679512  0.83199015  1
  I  I60  1  0.16586799  0.66674940  0.16408810  1
  I  I61  1  0.16423412  0.66653320  0.50278613  1
  I  I62  1  0.16622544  0.66165701  0.83138315  1
  I  I63  1  0.50157513  -0.00378440  0.17639982  1
  I  I64  1  0.50387185  -0.00289841  0.49465516  1
  I  I65  1  0.49857925  -0.00054328  0.83325212  1
  I  I66  1  0.49827630  0.33328371  0.16572408  1
  I  I67  1  0.50392512  0.33656477  0.50564268  1
  I  I68  1  0.50103975  0.33866798  0.82647793  1
  I  I69  1  0.50316912  0.66924093  0.16785823  1
  I  I70  1  0.50891507  0.66577818  0.50131776  1
  I  I71  1  0.50171658  0.66240904  0.83124427  1
  I  I72  1  0.83610885  0.00327079  0.17332464  1
  I  I73  1  0.83255994  0.00061562  0.49298347  1
  I  I74  1  0.83351299  -0.00027938  0.83434690  1
  I  I75  1  0.83556060  0.33372048  0.17077961  1
  I  I76  1  0.83303865  0.33427012  0.50067859  1
  I  I77  1  0.83277461  0.33739388  0.82795145  1
  I  I78  1  0.83028551  0.66392370  0.16557390  1
  I  I79  1  0.82741301  0.66542071  0.50158371  1
  I  I80  1  0.83216199  0.66153234  0.83541784  1
  I  I81  1  0.16212029  0.16879406  0.00308472  1
  I  I82  1  0.16183893  0.16838846  0.33371961  1
  I  I83  1  0.16194862  0.16776268  0.66389102  1
  I  I84  1  0.16910598  0.49687654  -0.00341588  1
  I  I85  1  0.16746916  0.50063585  0.33308121  1
  I  I86  1  0.16205755  0.49664181  0.66893268  1
  I  I87  1  0.16857677  0.83562836  0.00017229  1
  I  I88  1  0.16568081  0.82841528  0.33346816  1
  I  I89  1  0.16859510  0.83710573  0.66632524  1
  I  I90  1  0.49894356  0.16575806  0.00025991  1
  I  I91  1  0.49861916  0.17221868  0.33344538  1
  I  I92  1  0.49876128  0.16154472  0.66625449  1
  I  I93  1  0.50131558  0.50100665  -0.00232570  1
  I  I94  1  0.50595513  0.50142589  0.33664893  1
  I  I95  1  0.50519465  0.50478436  0.66566102  1
  I  I96  1  0.49968279  0.83341668  0.00202049  1
  I  I97  1  0.50482914  0.82733305  0.33521298  1
  I  I98  1  0.50454139  0.83153934  0.66308979  1
  I  I99  1  0.83736778  0.17292532  0.00340439  1
  I  I100  1  0.83727609  0.17276464  0.33431164  1
  I  I101  1  0.83718839  0.16783333  0.66301037  1
  I  I102  1  0.83264827  0.49350178  0.00015430  1
  I  I103  1  0.82721090  0.49814129  0.33461997  1
  I  I104  1  0.83226840  0.49983977  0.66567065  1
  I  I105  1  0.83136069  0.83326186  -0.00000255  1
  I  I106  1  0.83048061  0.82821804  0.33686765  1
  I  I107  1  0.82572308  0.83534947  0.66155705  1
  I  I108  1  -0.00129627  0.17242472  0.17227121  1
  I  I109  1  -0.00177818  0.16817858  0.49623409  1
  I  I110  1  -0.00021975  0.17093169  0.83175013  1
  I  I111  1  -0.00454030  0.49943796  0.16847132  1
  I  I112  1  -0.00345065  0.50215358  0.50174144  1
  I  I113  1  -0.00123351  0.49812979  0.83140776  1
  I  I114  1  -0.00012017  0.83041353  0.16737201  1
  I  I115  1  -0.00317862  0.82825081  0.50026465  1
  I  I116  1  -0.00036659  0.83111969  0.83290040  1
  I  I117  1  0.33072428  0.16649434  0.17189235  1
  I  I118  1  0.33072556  0.16838999  0.49564147  1
  I  I119  1  0.33310094  0.16895618  0.83286639  1
  I  I120  1  0.33334110  0.49902616  0.16522614  1
  I  I121  1  0.33634952  0.50329992  0.50612033  1
  I  I122  1  0.33410540  0.49960817  0.82669435  1
  I  I123  1  0.33719243  0.83087844  0.17455688  1
  I  I124  1  0.33681188  0.82783475  0.49666682  1
  I  I125  1  0.33361118  0.83216508  0.83136944  1
  I  I126  1  0.67051411  0.17211174  0.17277431  1
  I  I127  1  0.67020978  0.16826653  0.49533977  1
  I  I128  1  0.66703896  0.16839000  0.83361254  1
  I  I129  1  0.67023679  0.49360096  0.16296921  1
  I  I130  1  0.66801731  0.49852637  0.50489214  1
  I  I131  1  0.66716024  0.49973135  0.83110115  1
  I  I132  1  0.66421086  0.83388408  0.16953400  1
  I  I133  1  0.66696033  0.83350628  0.49604479  1
  I  I134  1  0.66673493  0.83267494  0.83654257  1
