# generated using pymatgen
data_Cs27Sn13Pb14I81
_symmetry_space_group_name_H-M   'P 1'
_cell_length_a   18.97494979
_cell_length_b   18.98360241
_cell_length_c   18.97494971
_cell_angle_alpha   90.00030633
_cell_angle_beta   89.99998469
_cell_angle_gamma   89.99969370
_symmetry_Int_Tables_number   1
_chemical_formula_structural   Cs27Sn13Pb14I81
_chemical_formula_sum   'Cs27 Sn13 Pb14 I81'
_cell_volume   6835.02171337
_cell_formula_units_Z   1
loop_
 _symmetry_equiv_pos_site_id
 _symmetry_equiv_pos_as_xyz
  1  'x, y, z'
loop_
 _atom_site_type_symbol
 _atom_site_label
 _atom_site_symmetry_multiplicity
 _atom_site_fract_x
 _atom_site_fract_y
 _atom_site_fract_z
 _atom_site_occupancy
  Cs  Cs0  1  0.00153978  0.00033859  0.00004106  1
  Cs  Cs1  1  -0.00099850  -0.00056685  0.33433185  1
  Cs  Cs2  1  0.00125346  -0.00113466  0.66324063  1
  Cs  Cs3  1  -0.00501269  0.33313489  0.00148812  1
  Cs  Cs4  1  -0.00165250  0.34030274  0.33498584  1
  Cs  Cs5  1  -0.00010031  0.33595652  0.66329151  1
  Cs  Cs6  1  0.00130079  0.66582258  -0.00077379  1
  Cs  Cs7  1  0.00020774  0.66634859  0.33312562  1
  Cs  Cs8  1  -0.00288632  0.66772580  0.66779536  1
  Cs  Cs9  1  0.33236551  0.00044370  0.00096773  1
  Cs  Cs10  1  0.33329230  0.00033849  0.33179363  1
  Cs  Cs11  1  0.33721835  0.00317433  0.66572128  1
  Cs  Cs12  1  0.33307169  0.33518756  0.00026159  1
  Cs  Cs13  1  0.33184515  0.33313489  0.33834618  1
  Cs  Cs14  1  0.33350106  0.33076058  0.66195341  1
  Cs  Cs15  1  0.33217913  0.66504584  0.00115422  1
  Cs  Cs16  1  0.33410719  0.66582250  0.33203260  1
  Cs  Cs17  1  0.33615756  0.66675086  0.66824599  1
  Cs  Cs18  1  0.66761203  0.00317440  -0.00388501  1
  Cs  Cs19  1  0.67009260  -0.00113465  0.33207978  1
  Cs  Cs20  1  0.66101762  0.00141636  0.67231578  1
  Cs  Cs21  1  0.67137960  0.33076048  -0.00016762  1
  Cs  Cs22  1  0.67004181  0.33595621  0.33343370  1
  Cs  Cs23  1  0.66685671  0.33391175  0.66647666  1
  Cs  Cs24  1  0.66508731  0.66675072  -0.00282419  1
  Cs  Cs25  1  0.66553823  0.66772589  0.33621963  1
  Cs  Cs26  1  0.66644623  0.66630208  0.66688714  1
  Sn  Sn27  1  0.49937926  0.16679634  0.16672476  1
  Sn  Sn28  1  0.83386249  0.83468020  0.49947086  1
  Sn  Sn29  1  0.16660857  0.16679637  0.83395406  1
  Sn  Sn30  1  0.50013418  0.83359490  0.16646697  1
  Sn  Sn31  1  0.49899063  0.49976677  0.83434267  1
  Sn  Sn32  1  0.16749201  0.49969089  0.83363969  1
  Sn  Sn33  1  0.83330927  0.16542248  0.50002406  1
  Sn  Sn34  1  0.16647263  0.83342093  0.49975936  1
  Sn  Sn35  1  0.83357399  0.83342092  0.16686067  1
  Sn  Sn36  1  0.16649693  0.83393046  0.16683643  1
  Sn  Sn37  1  0.16710953  0.16636682  0.16622382  1
  Sn  Sn38  1  0.16686637  0.83359494  0.83319916  1
  Sn  Sn39  1  0.49969363  0.49969089  0.16584137  1
  Pb  Pb40  1  0.83535119  0.83354577  0.83318086  1
  Pb  Pb41  1  0.49981836  0.49995673  0.50010058  1
  Pb  Pb42  1  0.50276365  0.16645633  0.49708579  1
  Pb  Pb43  1  0.83399271  0.16468782  0.16807572  1
  Pb  Pb44  1  0.49740022  0.83185316  0.83593312  1
  Pb  Pb45  1  0.83338544  0.50102880  0.49994790  1
  Pb  Pb46  1  0.50015250  0.83354575  0.49798216  1
  Pb  Pb47  1  0.83323266  0.49995671  0.83351501  1
  Pb  Pb48  1  0.16686012  0.50325652  0.50309853  1
  Pb  Pb49  1  0.16817324  0.49966926  0.16516007  1
  Pb  Pb50  1  0.49763791  0.16903811  0.83569542  1
  Pb  Pb51  1  0.83624758  0.16645637  0.83056973  1
  Pb  Pb52  1  0.16525760  0.16468780  0.49934063  1
  Pb  Pb53  1  0.83023483  0.50325650  0.16647319  1
  I  I54  1  0.17088414  -0.00131900  0.16244910  1
  I  I55  1  0.16432118  -0.00354834  0.50296380  1
  I  I56  1  0.16444983  -0.00051002  0.83535641  1
  I  I57  1  0.17102279  0.33021542  0.16231049  1
  I  I58  1  0.16425984  0.33319030  0.49965690  1
  I  I59  1  0.17056931  0.33301341  0.83880289  1
  I  I60  1  0.16707532  0.67002790  0.16625823  1
  I  I61  1  0.16045661  0.67160905  0.49697547  1
  I  I62  1  0.16998011  0.66741665  0.83361054  1
  I  I63  1  0.49797695  -0.00051001  0.16888397  1
  I  I64  1  0.49763625  -0.00010741  0.49921827  1
  I  I65  1  0.49934214  0.00021586  0.83399120  1
  I  I66  1  0.49453086  0.33301339  0.16276355  1
  I  I67  1  0.50181922  0.33315242  0.49737893  1
  I  I68  1  0.49397731  0.33686236  0.83935612  1
  I  I69  1  0.49972238  0.66741665  0.16335316  1
  I  I70  1  0.50171760  0.66691929  0.49725646  1
  I  I71  1  0.49422260  0.66387223  0.83911067  1
  I  I72  1  0.83036970  -0.00354834  0.16901201  1
  I  I73  1  0.83890280  -0.00179088  0.49443065  1
  I  I74  1  0.83411451  -0.00010744  0.83569710  1
  I  I75  1  0.83367629  0.33319026  0.16907348  1
  I  I76  1  0.83331017  0.33064206  0.50002301  1
  I  I77  1  0.83595484  0.33315244  0.83151412  1
  I  I78  1  0.83635782  0.67160901  0.17287701  1
  I  I79  1  0.83754548  0.67081561  0.49578768  1
  I  I80  1  0.83607711  0.66691926  0.83161567  1
  I  I81  1  0.17019336  0.16101651  0.00074312  1
  I  I82  1  0.17005504  0.16088640  0.32992602  1
  I  I83  1  0.16409319  0.16609706  0.66929300  1
  I  I84  1  0.16904987  0.50546943  -0.00297212  1
  I  I85  1  0.16794044  0.49984306  0.33328850  1
  I  I86  1  0.17295745  0.49827651  0.67145357  1
  I  I87  1  0.16713494  0.83349215  0.00087861  1
  I  I88  1  0.16626411  0.83825569  0.33185480  1
  I  I89  1  0.16037594  0.83212554  0.66686183  1
  I  I90  1  0.49929001  0.16288632  0.00399687  1
  I  I91  1  0.49183694  0.16821472  0.32855974  1
  I  I92  1  0.49938807  0.16870664  0.66692112  1
  I  I93  1  0.49472927  0.50207272  0.00091132  1
  I  I94  1  0.50079607  0.50143006  0.32955606  1
  I  I95  1  0.49564677  0.50104059  0.67025205  1
  I  I96  1  0.50065614  0.83497799  0.00453283  1
  I  I97  1  0.49517792  0.83042671  0.32900227  1
  I  I98  1  0.50020580  0.83021021  0.66703884  1
  I  I99  1  0.83181940  0.16589631  0.00019598  1
  I  I100  1  0.83479751  0.16285007  0.33578742  1
  I  I101  1  0.83516820  0.15927537  0.66281029  1
  I  I102  1  0.83546389  0.50144364  0.00023423  1
  I  I103  1  0.83192950  0.49820966  0.33306529  1
  I  I104  1  0.83167712  0.50240924  0.66666799  1
  I  I105  1  0.83380829  0.83240446  0.00329229  1
  I  I106  1  0.83790516  0.83666395  0.33274258  1
  I  I107  1  0.83967809  0.83550370  0.66337629  1
  I  I108  1  0.00340732  0.16088645  0.16327805  1
  I  I109  1  -0.00245406  0.16285015  0.49853606  1
  I  I110  1  0.00477359  0.16821406  0.84149657  1
  I  I111  1  0.00004486  0.49984313  0.16539315  1
  I  I112  1  0.00026807  0.49820973  0.50140340  1
  I  I113  1  0.00377724  0.50143020  0.83253722  1
  I  I114  1  0.00147855  0.83825547  0.16706914  1
  I  I115  1  0.00059078  0.83666383  0.49542817  1
  I  I116  1  0.00433106  0.83042700  0.83815532  1
  I  I117  1  0.33259029  0.16101655  0.16313988  1
  I  I118  1  0.33313738  0.16589626  0.50151355  1
  I  I119  1  0.32933651  0.16288653  0.83404390  1
  I  I120  1  0.33630548  0.50546916  0.16428318  1
  I  I121  1  0.33309911  0.50144339  0.49786952  1
  I  I122  1  0.33242195  0.50207260  0.83860430  1
  I  I123  1  0.33245473  0.83349235  0.16619812  1
  I  I124  1  0.33004104  0.83240467  0.49952478  1
  I  I125  1  0.32880054  0.83497776  0.83267761  1
  I  I126  1  0.66404030  0.16609692  0.16924050  1
  I  I127  1  0.67052303  0.15927529  0.49816517  1
  I  I128  1  0.66641220  0.16870694  0.83394473  1
  I  I129  1  0.66187979  0.49827705  0.16037564  1
  I  I130  1  0.66666531  0.50240919  0.50165670  1
  I  I131  1  0.66308126  0.50104060  0.83768623  1
  I  I132  1  0.66647146  0.83212550  0.17295767  1
  I  I133  1  0.66995705  0.83550377  0.49365546  1
  I  I134  1  0.66629450  0.83020986  0.83312700  1
