# generated using pymatgen
data_Cs27Sn13Pb14I81
_symmetry_space_group_name_H-M   'P 1'
_cell_length_a   18.98407449
_cell_length_b   18.98890180
_cell_length_c   19.00275246
_cell_angle_alpha   89.99913346
_cell_angle_beta   90.00062901
_cell_angle_gamma   90.00441332
_symmetry_Int_Tables_number   1
_chemical_formula_structural   Cs27Sn13Pb14I81
_chemical_formula_sum   'Cs27 Sn13 Pb14 I81'
_cell_volume   6850.24000376
_cell_formula_units_Z   1
loop_
 _symmetry_equiv_pos_site_id
 _symmetry_equiv_pos_as_xyz
  1  'x, y, z'
loop_
 _atom_site_type_symbol
 _atom_site_label
 _atom_site_symmetry_multiplicity
 _atom_site_fract_x
 _atom_site_fract_y
 _atom_site_fract_z
 _atom_site_occupancy
  Cs  Cs0  1  -0.00223372  -0.00353286  0.00354089  1
  Cs  Cs1  1  0.00175092  -0.00603522  0.33318661  1
  Cs  Cs2  1  0.00158977  0.00502300  0.66413427  1
  Cs  Cs3  1  0.00138046  0.33345877  0.00115995  1
  Cs  Cs4  1  -0.00284711  0.33624893  0.32968281  1
  Cs  Cs5  1  -0.00179366  0.33161668  0.66739477  1
  Cs  Cs6  1  -0.00364340  0.67067360  -0.00062773  1
  Cs  Cs7  1  0.00054296  0.67039681  0.33185725  1
  Cs  Cs8  1  -0.00099700  0.66487888  0.66773258  1
  Cs  Cs9  1  0.33588855  0.00255697  -0.00548620  1
  Cs  Cs10  1  0.33148200  -0.00192665  0.33714080  1
  Cs  Cs11  1  0.33137963  0.00933137  0.66852110  1
  Cs  Cs12  1  0.33112215  0.33514039  0.00013601  1
  Cs  Cs13  1  0.33504412  0.33460338  0.33225540  1
  Cs  Cs14  1  0.33198489  0.33124329  0.66802026  1
  Cs  Cs15  1  0.33348540  0.66417790  0.00003631  1
  Cs  Cs16  1  0.33369819  0.66633948  0.33295974  1
  Cs  Cs17  1  0.33455489  0.66556516  0.66747090  1
  Cs  Cs18  1  0.66736655  -0.00025838  -0.00145114  1
  Cs  Cs19  1  0.66642254  0.00370286  0.33383425  1
  Cs  Cs20  1  0.66652458  -0.00157227  0.66765093  1
  Cs  Cs21  1  0.66957123  0.33068934  0.00728660  1
  Cs  Cs22  1  0.66788457  0.33049355  0.33095870  1
  Cs  Cs23  1  0.67128237  0.33335714  0.66383086  1
  Cs  Cs24  1  0.66928700  0.67051595  -0.00413580  1
  Cs  Cs25  1  0.66224368  0.66538388  0.33698273  1
  Cs  Cs26  1  0.66772921  0.66865188  0.66647187  1
  Sn  Sn27  1  0.16718292  0.49963199  0.16663891  1
  Sn  Sn28  1  0.83340447  0.16567477  0.50042500  1
  Sn  Sn29  1  0.49953903  0.83263377  0.16715268  1
  Sn  Sn30  1  0.83322799  0.16678089  0.83315846  1
  Sn  Sn31  1  0.83276444  0.83398848  0.50008438  1
  Sn  Sn32  1  0.49990098  0.49973486  0.83329752  1
  Sn  Sn33  1  0.49900227  0.50048460  0.50029811  1
  Sn  Sn34  1  0.16706851  0.83272151  0.83295285  1
  Sn  Sn35  1  0.49935837  0.50110519  0.16648040  1
  Sn  Sn36  1  0.50020100  0.83292818  0.49959483  1
  Sn  Sn37  1  0.16721597  0.50099033  0.83331544  1
  Sn  Sn38  1  0.16718133  0.16689735  0.16696001  1
  Sn  Sn39  1  0.16732512  0.50006898  0.50001215  1
  Pb  Pb40  1  0.16755837  0.83117246  0.50207880  1
  Pb  Pb41  1  0.16493907  0.16735968  0.83522626  1
  Pb  Pb42  1  0.83303835  0.50036250  0.49988234  1
  Pb  Pb43  1  0.16928281  0.83260264  0.16469677  1
  Pb  Pb44  1  0.16436414  0.16971524  0.49758361  1
  Pb  Pb45  1  0.49826349  0.83154564  0.83266242  1
  Pb  Pb46  1  0.50253224  0.17013364  0.83340650  1
  Pb  Pb47  1  0.83292925  0.50060481  0.16660430  1
  Pb  Pb48  1  0.82992973  0.83310620  0.16938140  1
  Pb  Pb49  1  0.49750159  0.16649043  0.16678682  1
  Pb  Pb50  1  0.83587181  0.16645657  0.16712479  1
  Pb  Pb51  1  0.50179900  0.16683867  0.50005762  1
  Pb  Pb52  1  0.83337885  0.49824409  0.83343910  1
  Pb  Pb53  1  0.83571094  0.83540798  0.83076116  1
  I  I54  1  0.16638250  0.00173957  0.16383301  1
  I  I55  1  0.16871404  -0.00001639  0.50057348  1
  I  I56  1  0.16513939  -0.00198929  0.83494867  1
  I  I57  1  0.17133014  0.33579735  0.16453896  1
  I  I58  1  0.17179229  0.33780598  0.50537616  1
  I  I59  1  0.16939601  0.33699682  0.83204759  1
  I  I60  1  0.16920839  0.66309733  0.16860196  1
  I  I61  1  0.16536276  0.66297931  0.49492207  1
  I  I62  1  0.16983947  0.66439986  0.83523102  1
  I  I63  1  0.49899777  -0.00314680  0.17272016  1
  I  I64  1  0.50267937  -0.00330213  0.49432723  1
  I  I65  1  0.49774934  -0.00012653  0.83364692  1
  I  I66  1  0.49867421  0.33699498  0.16741686  1
  I  I67  1  0.49735384  0.33713015  0.49891477  1
  I  I68  1  0.49161401  0.33852342  0.83324994  1
  I  I69  1  0.49356215  0.66503596  0.16865364  1
  I  I70  1  0.50290548  0.66576147  0.49883754  1
  I  I71  1  0.49816327  0.66311534  0.83333161  1
  I  I72  1  0.83477382  -0.00012045  0.16437545  1
  I  I73  1  0.82742327  -0.00047565  0.50426352  1
  I  I74  1  0.83584940  0.00308582  0.83159070  1
  I  I75  1  0.82883347  0.33323729  0.16969710  1
  I  I76  1  0.83431145  0.33113565  0.50415779  1
  I  I77  1  0.83493086  0.33058127  0.82508410  1
  I  I78  1  0.84044743  0.66701309  0.16771533  1
  I  I79  1  0.83150455  0.66926239  0.49919820  1
  I  I80  1  0.83260336  0.66682605  0.83215531  1
  I  I81  1  0.16449418  0.17335444  0.00262277  1
  I  I82  1  0.16530879  0.17204633  0.33009121  1
  I  I83  1  0.16664526  0.16732614  0.66654113  1
  I  I84  1  0.17301847  0.49860240  0.00004293  1
  I  I85  1  0.17193905  0.49478003  0.33309829  1
  I  I86  1  0.17228423  0.50494916  0.66688752  1
  I  I87  1  0.16800929  0.82790023  -0.00285184  1
  I  I88  1  0.16359429  0.83346111  0.33349043  1
  I  I89  1  0.16750966  0.82670565  0.66953724  1
  I  I90  1  0.50369211  0.16500218  0.00008128  1
  I  I91  1  0.50333265  0.17168110  0.33342034  1
  I  I92  1  0.49695159  0.16653556  0.66668965  1
  I  I93  1  0.49284619  0.50317902  0.00052546  1
  I  I94  1  0.49402761  0.50434431  0.33348878  1
  I  I95  1  0.49401325  0.50367115  0.66604910  1
  I  I96  1  0.49657970  0.82884810  0.00218850  1
  I  I97  1  0.50331836  0.82441110  0.33409865  1
  I  I98  1  0.50404819  0.82759258  0.66352116  1
  I  I99  1  0.83465332  0.16970337  -0.00223717  1
  I  I100  1  0.83344433  0.16371902  0.33635030  1
  I  I101  1  0.83473045  0.16412124  0.66583376  1
  I  I102  1  0.83306824  0.49589432  -0.00011016  1
  I  I103  1  0.83492069  0.49629229  0.33355176  1
  I  I104  1  0.83383318  0.50039961  0.66650860  1
  I  I105  1  0.83290992  0.83539042  -0.00022886  1
  I  I106  1  0.83503444  0.83988745  0.33736389  1
  I  I107  1  0.82561666  0.83380899  0.66321529  1
  I  I108  1  0.00352962  0.17531630  0.16610912  1
  I  I109  1  -0.00333645  0.16172812  0.50398565  1
  I  I110  1  -0.00260365  0.16915655  0.82842817  1
  I  I111  1  0.00375661  0.49442969  0.16691074  1
  I  I112  1  0.00298432  0.49925674  0.50064102  1
  I  I113  1  0.00363409  0.50212206  0.83280572  1
  I  I114  1  0.00033629  0.83361973  0.16678140  1
  I  I115  1  -0.00196039  0.83601424  0.50282624  1
  I  I116  1  0.00345629  0.82490954  0.83356339  1
  I  I117  1  0.32995195  0.17070648  0.16509107  1
  I  I118  1  0.33307329  0.16371208  0.49931090  1
  I  I119  1  0.33306654  0.16437491  0.83457853  1
  I  I120  1  0.33326390  0.49939878  0.16689189  1
  I  I121  1  0.33407800  0.50575538  0.49953539  1
  I  I122  1  0.33268080  0.50328713  0.83341602  1
  I  I123  1  0.33679431  0.83093948  0.17470084  1
  I  I124  1  0.33657790  0.82901045  0.49583539  1
  I  I125  1  0.33046944  0.83154213  0.83204711  1
  I  I126  1  0.66666371  0.16824791  0.16650112  1
  I  I127  1  0.66985418  0.16863030  0.50298210  1
  I  I128  1  0.67026944  0.16708783  0.82922614  1
  I  I129  1  0.66240712  0.50300816  0.16756849  1
  I  I130  1  0.66315338  0.50058929  0.49978146  1
  I  I131  1  0.66325824  0.49859495  0.83254684  1
  I  I132  1  0.66198293  0.82604302  0.16584385  1
  I  I133  1  0.66562499  0.83040791  0.49666126  1
  I  I134  1  0.66649421  0.83275643  0.83564368  1
