# generated using pymatgen
data_Cs27Sn13Pb14I81
_symmetry_space_group_name_H-M   'P 1'
_cell_length_a   18.98353194
_cell_length_b   18.98296966
_cell_length_c   18.96616566
_cell_angle_alpha   89.99922753
_cell_angle_beta   89.99951294
_cell_angle_gamma   89.99974671
_symmetry_Int_Tables_number   1
_chemical_formula_structural   Cs27Sn13Pb14I81
_chemical_formula_sum   'Cs27 Sn13 Pb14 I81'
_cell_volume   6834.71973324
_cell_formula_units_Z   1
loop_
 _symmetry_equiv_pos_site_id
 _symmetry_equiv_pos_as_xyz
  1  'x, y, z'
loop_
 _atom_site_type_symbol
 _atom_site_label
 _atom_site_symmetry_multiplicity
 _atom_site_fract_x
 _atom_site_fract_y
 _atom_site_fract_z
 _atom_site_occupancy
  Cs  Cs0  1  -0.00023348  0.00028573  0.00099292  1
  Cs  Cs1  1  0.00292566  0.00068838  0.33021567  1
  Cs  Cs2  1  -0.00106128  -0.00144821  0.66585545  1
  Cs  Cs3  1  -0.00319645  0.33151757  0.00049317  1
  Cs  Cs4  1  0.00092508  0.33353724  0.33985822  1
  Cs  Cs5  1  0.00103967  0.33298960  0.65969181  1
  Cs  Cs6  1  0.00094010  0.66734167  -0.00081023  1
  Cs  Cs7  1  0.00074845  0.66519247  0.33127979  1
  Cs  Cs8  1  0.00076203  0.66841296  0.66812164  1
  Cs  Cs9  1  0.33349072  0.00062764  0.00052469  1
  Cs  Cs10  1  0.33222007  -0.00028108  0.33428784  1
  Cs  Cs11  1  0.33358138  0.00062742  0.66538133  1
  Cs  Cs12  1  0.33537502  0.33445218  0.00094243  1
  Cs  Cs13  1  0.33943182  0.34053139  0.33864454  1
  Cs  Cs14  1  0.32894149  0.33331653  0.66408566  1
  Cs  Cs15  1  0.33157160  0.66559252  -0.00048410  1
  Cs  Cs16  1  0.33420865  0.66349265  0.33331208  1
  Cs  Cs17  1  0.33183136  0.66543630  0.66847743  1
  Cs  Cs18  1  0.66733669  0.00178759  0.00013812  1
  Cs  Cs19  1  0.66363040  -0.00028265  0.33713365  1
  Cs  Cs20  1  0.66725673  -0.00300492  0.66249218  1
  Cs  Cs21  1  0.66729220  0.33265509  -0.00062281  1
  Cs  Cs22  1  0.66041489  0.33467077  0.33862644  1
  Cs  Cs23  1  0.66867820  0.33435417  0.66907312  1
  Cs  Cs24  1  0.66806959  0.66604061  -0.00032739  1
  Cs  Cs25  1  0.66578503  0.66709933  0.34029406  1
  Cs  Cs26  1  0.66750821  0.66827012  0.66149635  1
  Sn  Sn27  1  0.83302318  0.83349409  0.16619321  1
  Sn  Sn28  1  0.16688394  0.83395503  0.16720908  1
  Sn  Sn29  1  0.16660779  0.16667290  0.16599654  1
  Sn  Sn30  1  0.50008260  0.83342769  0.16571842  1
  Sn  Sn31  1  0.50020862  0.83337146  0.83435765  1
  Sn  Sn32  1  0.16643928  0.83339264  0.49902862  1
  Sn  Sn33  1  0.50080435  0.50004434  0.83404380  1
  Sn  Sn34  1  0.83371016  0.16710282  0.16648251  1
  Sn  Sn35  1  0.50019455  0.16663784  0.83391608  1
  Sn  Sn36  1  0.83276612  0.49945471  0.83437574  1
  Sn  Sn37  1  0.83333929  0.49942785  0.16609741  1
  Sn  Sn38  1  0.83356825  0.16719450  0.83391093  1
  Sn  Sn39  1  0.16625104  0.16660132  0.83447422  1
  Pb  Pb40  1  0.49768148  0.83339868  0.49985101  1
  Pb  Pb41  1  0.50015319  0.50019526  0.50367804  1
  Pb  Pb42  1  0.83133957  0.83352789  0.83502037  1
  Pb  Pb43  1  0.83332082  0.16650988  0.49948408  1
  Pb  Pb44  1  0.50265211  0.50261639  0.16459693  1
  Pb  Pb45  1  0.83336280  0.50003142  0.50036840  1
  Pb  Pb46  1  0.49999397  0.16516834  0.16530417  1
  Pb  Pb47  1  0.16873648  0.83545845  0.83420449  1
  Pb  Pb48  1  0.16442727  0.49914631  0.16643079  1
  Pb  Pb49  1  0.16651371  0.50310416  0.49992118  1
  Pb  Pb50  1  0.49993386  0.16653345  0.50332564  1
  Pb  Pb51  1  0.83598511  0.83352019  0.49654634  1
  Pb  Pb52  1  0.16669773  0.16502760  0.49903803  1
  Pb  Pb53  1  0.16587429  0.49689529  0.83372300  1
  I  I54  1  0.16183981  -0.00048370  0.16589968  1
  I  I55  1  0.16726807  -0.00278955  0.49771288  1
  I  I56  1  0.16549084  0.00356340  0.83487340  1
  I  I57  1  0.16195877  0.32944945  0.16032528  1
  I  I58  1  0.16660989  0.33317539  0.50077421  1
  I  I59  1  0.17142272  0.32869674  0.83940353  1
  I  I60  1  0.16591703  0.66986394  0.17075243  1
  I  I61  1  0.16695448  0.67120083  0.49358488  1
  I  I62  1  0.16737071  0.66682517  0.83224175  1
  I  I63  1  0.50338132  -0.00322689  0.16028516  1
  I  I64  1  0.50026904  -0.00036175  0.50309606  1
  I  I65  1  0.49943500  0.00022576  0.83755382  1
  I  I66  1  0.49892736  0.33345883  0.16530302  1
  I  I67  1  0.49864873  0.33347982  0.49831805  1
  I  I68  1  0.50143123  0.33285065  0.83287642  1
  I  I69  1  0.49812371  0.67088366  0.16054774  1
  I  I70  1  0.49889918  0.66697739  0.50201508  1
  I  I71  1  0.50396647  0.66687500  0.83746362  1
  I  I72  1  0.83509199  0.00027502  0.16193931  1
  I  I73  1  0.83278352  -0.00011401  0.50296244  1
  I  I74  1  0.83302832  0.00312822  0.83744133  1
  I  I75  1  0.83926320  0.33232834  0.16019050  1
  I  I76  1  0.83460561  0.33330239  0.49659670  1
  I  I77  1  0.82808929  0.33257418  0.84146688  1
  I  I78  1  0.83369415  0.66699452  0.16213484  1
  I  I79  1  0.83455873  0.66683590  0.50122577  1
  I  I80  1  0.82853504  0.66412968  0.83782393  1
  I  I81  1  0.16523083  0.15999333  0.00025226  1
  I  I82  1  0.15925734  0.16260803  0.32927758  1
  I  I83  1  0.16714911  0.16568509  0.66983588  1
  I  I84  1  0.16879960  0.50655997  -0.00004166  1
  I  I85  1  0.16439514  0.49571991  0.33294123  1
  I  I86  1  0.16547492  0.50051404  0.66710826  1
  I  I87  1  0.16497347  0.83543735  0.00345587  1
  I  I88  1  0.16735284  0.83959732  0.33067318  1
  I  I89  1  0.16954841  0.83491388  0.66521000  1
  I  I90  1  0.50013563  0.16743902  -0.00355464  1
  I  I91  1  0.50020644  0.16395058  0.33299230  1
  I  I92  1  0.49996223  0.16331271  0.67268433  1
  I  I93  1  0.50167649  0.49782274  -0.00372611  1
  I  I94  1  0.50106523  0.50162617  0.33307239  1
  I  I95  1  0.50701713  0.50275296  0.67224772  1
  I  I96  1  0.49783211  0.83394983  0.00003154  1
  I  I97  1  0.50275655  0.83418844  0.32972378  1
  I  I98  1  0.49841647  0.83382427  0.67013487  1
  I  I99  1  0.83411610  0.16678498  -0.00017742  1
  I  I100  1  0.83987335  0.16609718  0.32885789  1
  I  I101  1  0.83349774  0.17190833  0.67075946  1
  I  I102  1  0.82976555  0.49908840  -0.00036025  1
  I  I103  1  0.83556404  0.50068124  0.32969699  1
  I  I104  1  0.82897443  0.49477257  0.67076601  1
  I  I105  1  0.83838108  0.83362438  0.00352828  1
  I  I106  1  0.82752545  0.83362452  0.32775520  1
  I  I107  1  0.83332765  0.83294528  0.66680243  1
  I  I108  1  -0.00040326  0.16062865  0.15799057  1
  I  I109  1  0.00006830  0.16546794  0.50564222  1
  I  I110  1  -0.00072266  0.17035073  0.83766004  1
  I  I111  1  -0.00392187  0.50536593  0.15929844  1
  I  I112  1  -0.00019736  0.50021106  0.50290002  1
  I  I113  1  -0.00376286  0.49701711  0.83727669  1
  I  I114  1  -0.00007995  0.83413487  0.17112692  1
  I  I115  1  0.00368900  0.83454724  0.49663623  1
  I  I116  1  -0.00000843  0.83260089  0.83300200  1
  I  I117  1  0.33054055  0.15904686  0.16077829  1
  I  I118  1  0.33311160  0.16508852  0.50076557  1
  I  I119  1  0.33336879  0.16507627  0.83699974  1
  I  I120  1  0.33369327  0.50091269  0.16555156  1
  I  I121  1  0.33343125  0.49979357  0.50119645  1
  I  I122  1  0.33624207  0.50029704  0.83223655  1
  I  I123  1  0.33286508  0.83881566  0.16630216  1
  I  I124  1  0.33018456  0.83499107  0.49428096  1
  I  I125  1  0.33685377  0.83298253  0.83811735  1
  I  I126  1  0.66982744  0.16515287  0.16140388  1
  I  I127  1  0.66673115  0.16522642  0.49864051  1
  I  I128  1  0.66716884  0.16774311  0.83784676  1
  I  I129  1  0.67081853  0.49831119  0.16319179  1
  I  I130  1  0.66680185  0.50195704  0.49754944  1
  I  I131  1  0.66703216  0.49497839  0.83797179  1
  I  I132  1  0.66693843  0.83382535  0.15970930  1
  I  I133  1  0.66660930  0.83261306  0.49977242  1
  I  I134  1  0.66325553  0.83750944  0.83892552  1
