# generated using pymatgen
data_Cs27Sn14Pb13I81
_symmetry_space_group_name_H-M   'P 1'
_cell_length_a   18.97426897
_cell_length_b   18.97569446
_cell_length_c   18.97528786
_cell_angle_alpha   89.99922217
_cell_angle_beta   89.99864383
_cell_angle_gamma   89.99870990
_symmetry_Int_Tables_number   1
_chemical_formula_structural   Cs27Sn14Pb13I81
_chemical_formula_sum   'Cs27 Sn14 Pb13 I81'
_cell_volume   6832.05106782
_cell_formula_units_Z   1
loop_
 _symmetry_equiv_pos_site_id
 _symmetry_equiv_pos_as_xyz
  1  'x, y, z'
loop_
 _atom_site_type_symbol
 _atom_site_label
 _atom_site_symmetry_multiplicity
 _atom_site_fract_x
 _atom_site_fract_y
 _atom_site_fract_z
 _atom_site_occupancy
  Cs  Cs0  1  0.00059869  -0.00204104  -0.00378321  1
  Cs  Cs1  1  -0.00551695  0.00312794  0.33836420  1
  Cs  Cs2  1  -0.00861201  -0.00257913  0.66460782  1
  Cs  Cs3  1  -0.00126200  0.33619525  0.00202569  1
  Cs  Cs4  1  0.00139639  0.33534497  0.33338411  1
  Cs  Cs5  1  0.00273035  0.32998084  0.66470073  1
  Cs  Cs6  1  0.00251231  0.66531987  -0.00031994  1
  Cs  Cs7  1  0.00038235  0.66190532  0.33284551  1
  Cs  Cs8  1  0.00110225  0.67160861  0.66557849  1
  Cs  Cs9  1  0.33480216  -0.00076413  -0.00091162  1
  Cs  Cs10  1  0.33482348  0.00041987  0.33311916  1
  Cs  Cs11  1  0.33266291  0.00031509  0.66744285  1
  Cs  Cs12  1  0.33300394  0.33078195  -0.00141468  1
  Cs  Cs13  1  0.33344314  0.33148826  0.33415083  1
  Cs  Cs14  1  0.33340901  0.33498517  0.66668382  1
  Cs  Cs15  1  0.32835807  0.67360682  0.00208933  1
  Cs  Cs16  1  0.33270787  0.66873126  0.33358394  1
  Cs  Cs17  1  0.33376781  0.66463091  0.66539243  1
  Cs  Cs18  1  0.66360764  0.00205975  0.00312196  1
  Cs  Cs19  1  0.66648372  -0.00151431  0.33185686  1
  Cs  Cs20  1  0.67163565  -0.00068479  0.66619571  1
  Cs  Cs21  1  0.66831121  0.33393376  -0.00064823  1
  Cs  Cs22  1  0.66323912  0.33423771  0.33109730  1
  Cs  Cs23  1  0.66501742  0.33753000  0.67255991  1
  Cs  Cs24  1  0.66903413  0.66134549  0.00000244  1
  Cs  Cs25  1  0.66662442  0.66831365  0.33466272  1
  Cs  Cs26  1  0.66676834  0.66376870  0.66752763  1
  Sn  Sn27  1  0.49931395  0.83437129  0.50115003  1
  Sn  Sn28  1  0.49964056  0.16756654  0.16657969  1
  Sn  Sn29  1  0.49933708  0.16583226  0.83307165  1
  Sn  Sn30  1  0.16715915  0.16723518  0.83385279  1
  Sn  Sn31  1  0.83367811  0.83368630  0.16634848  1
  Sn  Sn32  1  0.16703046  0.49939271  0.83274212  1
  Sn  Sn33  1  0.49926677  0.49965945  0.16653248  1
  Sn  Sn34  1  0.16727460  0.83313865  0.49980310  1
  Sn  Sn35  1  0.16599601  0.50068551  0.50073828  1
  Sn  Sn36  1  0.83402667  0.49956585  0.50025597  1
  Sn  Sn37  1  0.50008298  0.16592496  0.50050726  1
  Sn  Sn38  1  0.83354928  0.16586843  0.16657638  1
  Sn  Sn39  1  0.50011953  0.83400817  0.83237078  1
  Sn  Sn40  1  0.16654339  0.16641401  0.16600127  1
  Pb  Pb41  1  0.16404982  0.83660758  0.16946178  1
  Pb  Pb42  1  0.49931359  0.50024057  0.49866367  1
  Pb  Pb43  1  0.83676391  0.49988864  0.83064653  1
  Pb  Pb44  1  0.83007241  0.83336110  0.83610255  1
  Pb  Pb45  1  0.16839490  0.83416597  0.83114256  1
  Pb  Pb46  1  0.49763136  0.50017810  0.83587177  1
  Pb  Pb47  1  0.50115103  0.83366303  0.16666294  1
  Pb  Pb48  1  0.83278748  0.83157921  0.49837923  1
  Pb  Pb49  1  0.16824990  0.16649474  0.50055418  1
  Pb  Pb50  1  0.82987174  0.16921298  0.49790508  1
  Pb  Pb51  1  0.83344211  0.16672081  0.83570790  1
  Pb  Pb52  1  0.83149390  0.49966478  0.16815714  1
  Pb  Pb53  1  0.16875693  0.49808198  0.16682863  1
  I  I54  1  0.17430266  0.00449967  0.16173445  1
  I  I55  1  0.17059057  -0.00210916  0.49827789  1
  I  I56  1  0.17048576  0.00323120  0.83779096  1
  I  I57  1  0.16352997  0.32980923  0.16831139  1
  I  I58  1  0.16483920  0.33552038  0.50022205  1
  I  I59  1  0.17313777  0.33230631  0.83100462  1
  I  I60  1  0.16708641  0.66681548  0.16439538  1
  I  I61  1  0.16911723  0.66603106  0.50491873  1
  I  I62  1  0.16863830  0.66458100  0.83063374  1
  I  I63  1  0.49885225  0.00329418  0.16686449  1
  I  I64  1  0.49409866  0.00004988  0.49709219  1
  I  I65  1  0.49382923  0.00172228  0.83577859  1
  I  I66  1  0.50248617  0.33070617  0.16821707  1
  I  I67  1  0.49978316  0.33067908  0.50030939  1
  I  I68  1  0.49802423  0.33014868  0.83108068  1
  I  I69  1  0.50293707  0.66492947  0.16801216  1
  I  I70  1  0.49945398  0.66930960  0.50180691  1
  I  I71  1  0.49916569  0.66915212  0.82967258  1
  I  I72  1  0.82940050  0.00153807  0.16855580  1
  I  I73  1  0.83596304  0.00024672  0.49987566  1
  I  I74  1  0.83872939  0.00010211  0.82997077  1
  I  I75  1  0.83333798  0.33024077  0.16821214  1
  I  I76  1  0.83973250  0.33650534  0.49682275  1
  I  I77  1  0.82728350  0.33330332  0.83569810  1
  I  I78  1  0.82886019  0.66860688  0.16931843  1
  I  I79  1  0.83244536  0.66395375  0.49545987  1
  I  I80  1  0.83174400  0.66660192  0.83762059  1
  I  I81  1  0.17193548  0.17231469  -0.00018275  1
  I  I82  1  0.16865832  0.16673517  0.33107359  1
  I  I83  1  0.17350531  0.16897730  0.66926999  1
  I  I84  1  0.17007634  0.49718304  -0.00225857  1
  I  I85  1  0.16455870  0.50211472  0.33611080  1
  I  I86  1  0.16438870  0.49684106  0.66601425  1
  I  I87  1  0.16729938  0.83012706  0.00001324  1
  I  I88  1  0.17464955  0.82765849  0.33710510  1
  I  I89  1  0.16842185  0.83342890  0.66320331  1
  I  I90  1  0.49949486  0.16633406  0.00028177  1
  I  I91  1  0.49957544  0.16708766  0.33263167  1
  I  I92  1  0.49369910  0.16272231  0.66714104  1
  I  I93  1  0.50037615  0.49522265  0.00339792  1
  I  I94  1  0.49885445  0.49469438  0.33087301  1
  I  I95  1  0.50210539  0.49740627  0.66682611  1
  I  I96  1  0.50138830  0.83668630  -0.00216627  1
  I  I97  1  0.49817501  0.83592176  0.33591855  1
  I  I98  1  0.49625220  0.84076595  0.66575524  1
  I  I99  1  0.82774160  0.16426538  0.00403019  1
  I  I100  1  0.83389530  0.16330248  0.32974852  1
  I  I101  1  0.83373397  0.16762997  0.66647042  1
  I  I102  1  0.83289137  0.50038934  0.00015867  1
  I  I103  1  0.83963626  0.49975861  0.33583834  1
  I  I104  1  0.83079981  0.50120395  0.66270981  1
  I  I105  1  0.83146257  0.83772934  0.00397328  1
  I  I106  1  0.82979418  0.83815385  0.33076443  1
  I  I107  1  0.83477782  0.83186525  0.66647843  1
  I  I108  1  0.00039582  0.16233082  0.16267294  1
  I  I109  1  -0.00006999  0.16468275  0.49926671  1
  I  I110  1  0.00350047  0.17158711  0.83797008  1
  I  I111  1  0.00032614  0.49872444  0.16603599  1
  I  I112  1  0.00167132  0.50546462  0.50151213  1
  I  I113  1  0.00483834  0.49352880  0.83453810  1
  I  I114  1  -0.00339886  0.83780659  0.16895939  1
  I  I115  1  0.00238635  0.83102654  0.49795949  1
  I  I116  1  0.00021082  0.83361768  0.83229468  1
  I  I117  1  0.33441370  0.17207135  0.16652548  1
  I  I118  1  0.33646504  0.16774051  0.49463964  1
  I  I119  1  0.33419677  0.16687655  0.83857692  1
  I  I120  1  0.33646479  0.49418954  0.16963494  1
  I  I121  1  0.33065284  0.50073946  0.50243190  1
  I  I122  1  0.33016934  0.49736257  0.82576932  1
  I  I123  1  0.33317700  0.83287165  0.16587250  1
  I  I124  1  0.33430704  0.83069040  0.50195704  1
  I  I125  1  0.33650706  0.83527324  0.83359205  1
  I  I126  1  0.66534642  0.16645396  0.16777396  1
  I  I127  1  0.66166955  0.16164275  0.49932038  1
  I  I128  1  0.66303385  0.16280698  0.83385965  1
  I  I129  1  0.66359279  0.49466906  0.16883211  1
  I  I130  1  0.66783588  0.49968255  0.49492900  1
  I  I131  1  0.66628471  0.49985412  0.83289931  1
  I  I132  1  0.66869409  0.83890185  0.16902759  1
  I  I133  1  0.66346528  0.83594485  0.50117599  1
  I  I134  1  0.66183221  0.83990725  0.82660522  1
