# generated using pymatgen
data_Cs27Sn14Pb13I81
_symmetry_space_group_name_H-M   'P 1'
_cell_length_a   18.97811467
_cell_length_b   18.96820104
_cell_length_c   18.97898088
_cell_angle_alpha   90.00138910
_cell_angle_beta   89.99979752
_cell_angle_gamma   90.00209214
_symmetry_Int_Tables_number   1
_chemical_formula_structural   Cs27Sn14Pb13I81
_chemical_formula_sum   'Cs27 Sn14 Pb13 I81'
_cell_volume   6832.06671089
_cell_formula_units_Z   1
loop_
 _symmetry_equiv_pos_site_id
 _symmetry_equiv_pos_as_xyz
  1  'x, y, z'
loop_
 _atom_site_type_symbol
 _atom_site_label
 _atom_site_symmetry_multiplicity
 _atom_site_fract_x
 _atom_site_fract_y
 _atom_site_fract_z
 _atom_site_occupancy
  Cs  Cs0  1  -0.00020126  -0.00046075  -0.00133660  1
  Cs  Cs1  1  -0.00094707  -0.00063367  0.33514590  1
  Cs  Cs2  1  0.00092144  0.00055338  0.66599469  1
  Cs  Cs3  1  0.00075112  0.33313452  0.00029630  1
  Cs  Cs4  1  0.00087514  0.33524463  0.33461153  1
  Cs  Cs5  1  -0.00360843  0.33304545  0.66591935  1
  Cs  Cs6  1  -0.00100678  0.66796276  0.00122726  1
  Cs  Cs7  1  0.00295205  0.66769423  0.33139425  1
  Cs  Cs8  1  -0.00135125  0.66849349  0.66756109  1
  Cs  Cs9  1  0.33388400  0.00123932  -0.00178330  1
  Cs  Cs10  1  0.33482276  0.00211716  0.33454687  1
  Cs  Cs11  1  0.33144945  -0.00053474  0.66704226  1
  Cs  Cs12  1  0.33152306  0.33070962  0.00260743  1
  Cs  Cs13  1  0.33062403  0.33454296  0.33106437  1
  Cs  Cs14  1  0.33320898  0.33102809  0.66730030  1
  Cs  Cs15  1  0.33210180  0.66703473  -0.00652111  1
  Cs  Cs16  1  0.33094975  0.66148148  0.33853478  1
  Cs  Cs17  1  0.34413354  0.66841105  0.66722988  1
  Cs  Cs18  1  0.66850465  0.00013352  0.00550888  1
  Cs  Cs19  1  0.66565355  -0.00281564  0.33003588  1
  Cs  Cs20  1  0.66958022  0.00210594  0.66431608  1
  Cs  Cs21  1  0.66612208  0.33420914  0.00015194  1
  Cs  Cs22  1  0.66906627  0.33241385  0.33232695  1
  Cs  Cs23  1  0.67042106  0.33834924  0.66655322  1
  Cs  Cs24  1  0.66662777  0.66532256  0.00071614  1
  Cs  Cs25  1  0.66169160  0.67258817  0.33121698  1
  Cs  Cs26  1  0.65837532  0.65798842  0.66697966  1
  Sn  Sn27  1  0.49947861  0.16665242  0.50069101  1
  Sn  Sn28  1  0.83314463  0.16594145  0.83410172  1
  Sn  Sn29  1  0.50066407  0.49975682  0.16660331  1
  Sn  Sn30  1  0.16634765  0.49937992  0.83274170  1
  Sn  Sn31  1  0.16726130  0.16615551  0.49997762  1
  Sn  Sn32  1  0.16587009  0.83408839  0.49941857  1
  Sn  Sn33  1  0.50047076  0.16650482  0.83249352  1
  Sn  Sn34  1  0.83384501  0.83317432  0.50140900  1
  Sn  Sn35  1  0.16642242  0.16753680  0.83317672  1
  Sn  Sn36  1  0.16556851  0.16561892  0.16681346  1
  Sn  Sn37  1  0.16688466  0.83444629  0.16739755  1
  Sn  Sn38  1  0.83254538  0.49925599  0.16681360  1
  Sn  Sn39  1  0.83311254  0.83382112  0.83194806  1
  Sn  Sn40  1  0.83441362  0.16751430  0.16606700  1
  Pb  Pb41  1  0.16641158  0.49996746  0.16505853  1
  Pb  Pb42  1  0.16535365  0.83376429  0.83266517  1
  Pb  Pb43  1  0.49598448  0.83054424  0.16663603  1
  Pb  Pb44  1  0.50001002  0.49654226  0.49757184  1
  Pb  Pb45  1  0.83354607  0.16549558  0.49972070  1
  Pb  Pb46  1  0.49962534  0.83576678  0.50006419  1
  Pb  Pb47  1  0.83350690  0.50375583  0.49695716  1
  Pb  Pb48  1  0.50372004  0.83633084  0.83348745  1
  Pb  Pb49  1  0.49767027  0.49702967  0.83529422  1
  Pb  Pb50  1  0.83495615  0.83370485  0.16667999  1
  Pb  Pb51  1  0.49995940  0.16767779  0.16668366  1
  Pb  Pb52  1  0.83495708  0.49976792  0.83499690  1
  Pb  Pb53  1  0.16649047  0.50024213  0.50315851  1
  I  I54  1  0.16067983  0.00200843  0.16478832  1
  I  I55  1  0.16644904  0.00128922  0.50093416  1
  I  I56  1  0.16790414  0.00353674  0.83396175  1
  I  I57  1  0.16614033  0.33004987  0.16812230  1
  I  I58  1  0.17092951  0.32964974  0.49646512  1
  I  I59  1  0.16491381  0.33027923  0.83523722  1
  I  I60  1  0.16577152  0.66906904  0.16938018  1
  I  I61  1  0.16131313  0.67009706  0.49440497  1
  I  I62  1  0.16310169  0.66509715  0.83682501  1
  I  I63  1  0.50281607  0.00028673  0.16696821  1
  I  I64  1  0.49765213  0.00380699  0.50233604  1
  I  I65  1  0.49198337  0.00464826  0.83147236  1
  I  I66  1  0.49904019  0.33529708  0.16619887  1
  I  I67  1  0.49333341  0.32859121  0.50421827  1
  I  I68  1  0.50458710  0.32888634  0.82990192  1
  I  I69  1  0.50734032  0.66284931  0.16607495  1
  I  I70  1  0.49947652  0.66663996  0.49863964  1
  I  I71  1  0.49817266  0.66637710  0.83462488  1
  I  I72  1  0.83583144  0.00291611  0.16489787  1
  I  I73  1  0.83549141  -0.00235846  0.49903331  1
  I  I74  1  0.83639694  0.00187228  0.83612750  1
  I  I75  1  0.83569948  0.33148589  0.16079672  1
  I  I76  1  0.83350439  0.33319513  0.50181999  1
  I  I77  1  0.83249306  0.32970355  0.83588152  1
  I  I78  1  0.83199544  0.66472447  0.16635902  1
  I  I79  1  0.84154879  0.67176129  0.50499521  1
  I  I80  1  0.83871871  0.66913034  0.83234740  1
  I  I81  1  0.16641664  0.16697952  -0.00004870  1
  I  I82  1  0.16719011  0.16226320  0.33306197  1
  I  I83  1  0.16741418  0.16647920  0.66696594  1
  I  I84  1  0.16649685  0.49500924  -0.00247094  1
  I  I85  1  0.16706706  0.49817378  0.33327586  1
  I  I86  1  0.16535311  0.49398444  0.67078932  1
  I  I87  1  0.16448590  0.83585840  0.00194279  1
  I  I88  1  0.16006389  0.84073260  0.33373823  1
  I  I89  1  0.16327619  0.83767248  0.66389609  1
  I  I90  1  0.49730682  0.16870479  -0.00250646  1
  I  I91  1  0.49617414  0.16819812  0.33551744  1
  I  I92  1  0.49555567  0.16565635  0.66726727  1
  I  I93  1  0.50341761  0.49670321  0.00285609  1
  I  I94  1  0.50229891  0.49780135  0.32977577  1
  I  I95  1  0.49825852  0.50179408  0.66688296  1
  I  I96  1  0.49932948  0.83630022  0.00004333  1
  I  I97  1  0.50618935  0.83685046  0.33330874  1
  I  I98  1  0.49466200  0.83073525  0.66681945  1
  I  I99  1  0.83624716  0.16436836  -0.00042185  1
  I  I100  1  0.83601504  0.16874447  0.33053328  1
  I  I101  1  0.83587037  0.16367021  0.66939550  1
  I  I102  1  0.83149635  0.50015775  0.00299351  1
  I  I103  1  0.83215451  0.49230345  0.32888665  1
  I  I104  1  0.83500158  0.49747520  0.66681394  1
  I  I105  1  0.83595939  0.83532072  -0.00202364  1
  I  I106  1  0.83636144  0.83373918  0.33539385  1
  I  I107  1  0.84147784  0.84172745  0.66698254  1
  I  I108  1  0.00049736  0.16871299  0.16336564  1
  I  I109  1  0.00304420  0.16414475  0.50170307  1
  I  I110  1  0.00033889  0.16657600  0.83465426  1
  I  I111  1  -0.00214713  0.49851700  0.16433166  1
  I  I112  1  0.00012692  0.49435544  0.49717398  1
  I  I113  1  0.00265981  0.49332055  0.83694315  1
  I  I114  1  0.00286548  0.83303821  0.16749826  1
  I  I115  1  0.00110434  0.84052944  0.49955268  1
  I  I116  1  -0.00251137  0.83958284  0.83331166  1
  I  I117  1  0.33023786  0.16537326  0.16430328  1
  I  I118  1  0.33144728  0.16123162  0.50251298  1
  I  I119  1  0.33203294  0.17182595  0.83385796  1
  I  I120  1  0.33478693  0.49880970  0.16494918  1
  I  I121  1  0.33311118  0.50437665  0.49662350  1
  I  I122  1  0.32984887  0.49551157  0.83715532  1
  I  I123  1  0.32803120  0.83981981  0.17168118  1
  I  I124  1  0.32980724  0.83559542  0.49523194  1
  I  I125  1  0.33328920  0.83247770  0.83385925  1
  I  I126  1  0.66940404  0.16883642  0.16372209  1
  I  I127  1  0.66473311  0.16526839  0.50252369  1
  I  I128  1  0.66761302  0.16113444  0.83409451  1
  I  I129  1  0.66788375  0.49279881  0.16531195  1
  I  I130  1  0.66677646  0.49885134  0.50310511  1
  I  I131  1  0.66664195  0.49998119  0.83356485  1
  I  I132  1  0.66681084  0.83558732  0.16729161  1
  I  I133  1  0.66952460  0.83560684  0.50301991  1
  I  I134  1  0.67187093  0.83804726  0.82890751  1
