# generated using pymatgen
data_Cs27Sn14Pb13I81
_symmetry_space_group_name_H-M   'P 1'
_cell_length_a   18.97966426
_cell_length_b   18.97311675
_cell_length_c   18.97274573
_cell_angle_alpha   90.00345338
_cell_angle_beta   90.00260830
_cell_angle_gamma   89.99970899
_symmetry_Int_Tables_number   1
_chemical_formula_structural   Cs27Sn14Pb13I81
_chemical_formula_sum   'Cs27 Sn14 Pb13 I81'
_cell_volume   6832.14995730
_cell_formula_units_Z   1
loop_
 _symmetry_equiv_pos_site_id
 _symmetry_equiv_pos_as_xyz
  1  'x, y, z'
loop_
 _atom_site_type_symbol
 _atom_site_label
 _atom_site_symmetry_multiplicity
 _atom_site_fract_x
 _atom_site_fract_y
 _atom_site_fract_z
 _atom_site_occupancy
  Cs  Cs0  1  -0.00083944  -0.00134235  -0.00130631  1
  Cs  Cs1  1  0.00071899  0.00287461  0.33513204  1
  Cs  Cs2  1  -0.00053672  -0.00241478  0.66695765  1
  Cs  Cs3  1  0.00255492  0.33399865  -0.00302841  1
  Cs  Cs4  1  0.00162285  0.33464317  0.33643797  1
  Cs  Cs5  1  -0.00085513  0.33364872  0.66987444  1
  Cs  Cs6  1  -0.00094892  0.66796263  0.00091925  1
  Cs  Cs7  1  -0.00415560  0.66036585  0.33263102  1
  Cs  Cs8  1  0.00414688  0.66786536  0.66654809  1
  Cs  Cs9  1  0.33272524  -0.00004822  0.00327012  1
  Cs  Cs10  1  0.33134443  -0.00003482  0.33146833  1
  Cs  Cs11  1  0.33163464  -0.00784973  0.66369989  1
  Cs  Cs12  1  0.33235504  0.33430715  0.00009202  1
  Cs  Cs13  1  0.32878163  0.33247561  0.33098253  1
  Cs  Cs14  1  0.33334997  0.33608183  0.66892073  1
  Cs  Cs15  1  0.33316623  0.66438662  0.00053136  1
  Cs  Cs16  1  0.33379964  0.66811998  0.33447057  1
  Cs  Cs17  1  0.34085121  0.67469565  0.65889271  1
  Cs  Cs18  1  0.66791633  0.00132428  0.00013326  1
  Cs  Cs19  1  0.66702986  0.00104584  0.33393240  1
  Cs  Cs20  1  0.66857552  0.00236911  0.66438432  1
  Cs  Cs21  1  0.66582689  0.33176537  -0.00105415  1
  Cs  Cs22  1  0.66823393  0.33256572  0.33375463  1
  Cs  Cs23  1  0.66714880  0.33144665  0.66804190  1
  Cs  Cs24  1  0.66780973  0.66987829  0.00139742  1
  Cs  Cs25  1  0.67059384  0.66361862  0.33270547  1
  Cs  Cs26  1  0.65494681  0.66723951  0.66524068  1
  Sn  Sn27  1  0.83336435  0.83355150  0.50015373  1
  Sn  Sn28  1  0.49951734  0.49965808  0.16645905  1
  Sn  Sn29  1  0.49961529  0.83345697  0.16654844  1
  Sn  Sn30  1  0.16732697  0.50091671  0.16585839  1
  Sn  Sn31  1  0.83355967  0.49987387  0.83326037  1
  Sn  Sn32  1  0.16680490  0.83223141  0.16641437  1
  Sn  Sn33  1  0.50006520  0.16697528  0.49976260  1
  Sn  Sn34  1  0.16646180  0.49985305  0.83363151  1
  Sn  Sn35  1  0.49949143  0.16647671  0.83309961  1
  Sn  Sn36  1  0.50068675  0.16686222  0.16684360  1
  Sn  Sn37  1  0.16682708  0.16684119  0.83331675  1
  Sn  Sn38  1  0.83307540  0.16692741  0.16653839  1
  Sn  Sn39  1  0.83280979  0.16609473  0.50007558  1
  Sn  Sn40  1  0.83353851  0.16717975  0.83344136  1
  Pb  Pb41  1  0.49998511  0.49698907  0.49682468  1
  Pb  Pb42  1  0.83320542  0.83294212  0.83096325  1
  Pb  Pb43  1  0.50209429  0.83588391  0.49689104  1
  Pb  Pb44  1  0.16660246  0.16706279  0.16495535  1
  Pb  Pb45  1  0.83347775  0.83570841  0.16833539  1
  Pb  Pb46  1  0.16402917  0.83334658  0.49663373  1
  Pb  Pb47  1  0.83363722  0.49741715  0.16452243  1
  Pb  Pb48  1  0.50010052  0.83634244  0.83585198  1
  Pb  Pb49  1  0.16672728  0.16683220  0.50351954  1
  Pb  Pb50  1  0.16688196  0.49997763  0.50072747  1
  Pb  Pb51  1  0.16673302  0.83242377  0.83533714  1
  Pb  Pb52  1  0.49967994  0.49835779  0.83518382  1
  Pb  Pb53  1  0.83325778  0.49950801  0.50355482  1
  I  I54  1  0.16981226  -0.00152626  0.16534932  1
  I  I55  1  0.16833187  0.00027333  0.49946851  1
  I  I56  1  0.16543765  0.00294077  0.83507830  1
  I  I57  1  0.16996446  0.33584176  0.16408681  1
  I  I58  1  0.16459283  0.33305001  0.49312719  1
  I  I59  1  0.16535451  0.33288065  0.83995238  1
  I  I60  1  0.17420171  0.66571109  0.16102861  1
  I  I61  1  0.16399594  0.66684285  0.50443290  1
  I  I62  1  0.15887254  0.66291439  0.83735761  1
  I  I63  1  0.49955583  0.00143798  0.16626298  1
  I  I64  1  0.50253860  0.00412972  0.49893171  1
  I  I65  1  0.50168621  0.00526399  0.83589133  1
  I  I66  1  0.49981450  0.33201734  0.16620774  1
  I  I67  1  0.50811623  0.32865782  0.49871642  1
  I  I68  1  0.50098880  0.32947543  0.83635044  1
  I  I69  1  0.49487055  0.66649038  0.16573281  1
  I  I70  1  0.50171442  0.66694623  0.49988409  1
  I  I71  1  0.50079222  0.66653883  0.83479574  1
  I  I72  1  0.82972532  0.00406468  0.16182332  1
  I  I73  1  0.82929136  0.00272277  0.50129831  1
  I  I74  1  0.83340073  0.00386955  0.83546720  1
  I  I75  1  0.82890432  0.32914037  0.17082783  1
  I  I76  1  0.82913692  0.32951034  0.49808023  1
  I  I77  1  0.83412062  0.33099827  0.83211731  1
  I  I78  1  0.83050253  0.66649537  0.16731377  1
  I  I79  1  0.83549604  0.66900847  0.49836014  1
  I  I80  1  0.84045036  0.66343594  0.83396544  1
  I  I81  1  0.16592640  0.16773383  -0.00304463  1
  I  I82  1  0.16589967  0.16666827  0.33321315  1
  I  I83  1  0.16597430  0.17345045  0.67171944  1
  I  I84  1  0.16681107  0.49860209  0.00036037  1
  I  I85  1  0.17068765  0.50325033  0.32971544  1
  I  I86  1  0.16005320  0.49239139  0.67079225  1
  I  I87  1  0.16953993  0.83350462  0.00349405  1
  I  I88  1  0.17207444  0.82963874  0.32863339  1
  I  I89  1  0.16551460  0.83378739  0.66653228  1
  I  I90  1  0.50327960  0.16662078  0.00071150  1
  I  I91  1  0.50776010  0.16648589  0.33207877  1
  I  I92  1  0.50439679  0.16790335  0.66723476  1
  I  I93  1  0.49864165  0.49636609  0.00353145  1
  I  I94  1  0.49480646  0.49768315  0.32835115  1
  I  I95  1  0.50013155  0.49843353  0.66684678  1
  I  I96  1  0.49787033  0.83629373  0.00427557  1
  I  I97  1  0.49589332  0.83645585  0.32899668  1
  I  I98  1  0.50061326  0.83371900  0.66619089  1
  I  I99  1  0.83010260  0.17038739  -0.00050237  1
  I  I100  1  0.82604483  0.16204048  0.33329320  1
  I  I101  1  0.83025107  0.16663547  0.66722662  1
  I  I102  1  0.83445942  0.49282584  -0.00313179  1
  I  I103  1  0.83379557  0.49853822  0.33323285  1
  I  I104  1  0.84049669  0.49221990  0.67128000  1
  I  I105  1  0.83329491  0.83543654  0.00026888  1
  I  I106  1  0.83299793  0.84108282  0.33595940  1
  I  I107  1  0.83365684  0.84153275  0.66342617  1
  I  I108  1  -0.00252557  0.16586130  0.16678171  1
  I  I109  1  -0.00346195  0.16323581  0.49816518  1
  I  I110  1  -0.00078225  0.17061131  0.83431142  1
  I  I111  1  0.00273075  0.50364726  0.16454864  1
  I  I112  1  -0.00020984  0.49746969  0.49392054  1
  I  I113  1  0.00049419  0.48957747  0.83964932  1
  I  I114  1  0.00243467  0.83017895  0.16744437  1
  I  I115  1  -0.00355059  0.84284868  0.49903452  1
  I  I116  1  -0.00003716  0.83914357  0.83604489  1
  I  I117  1  0.33635330  0.16630036  0.16660222  1
  I  I118  1  0.33656951  0.16775235  0.49724669  1
  I  I119  1  0.33368334  0.17112756  0.83596788  1
  I  I120  1  0.33324132  0.49765003  0.16095325  1
  I  I121  1  0.33361319  0.49777887  0.50453474  1
  I  I122  1  0.33049978  0.49259703  0.83810413  1
  I  I123  1  0.33403463  0.83653869  0.16591893  1
  I  I124  1  0.33364496  0.83449342  0.50155442  1
  I  I125  1  0.33340488  0.83512182  0.83086738  1
  I  I126  1  0.66551647  0.16624286  0.16282812  1
  I  I127  1  0.66723839  0.16314428  0.50285656  1
  I  I128  1  0.66707000  0.17021735  0.83407594  1
  I  I129  1  0.66413579  0.50139317  0.16555232  1
  I  I130  1  0.66672988  0.50222400  0.49942581  1
  I  I131  1  0.66891366  0.49409066  0.83431851  1
  I  I132  1  0.66394219  0.83212522  0.16774397  1
  I  I133  1  0.66964759  0.83703466  0.49826226  1
  I  I134  1  0.66667138  0.83209361  0.83695721  1
