# generated using pymatgen
data_Cs27Sn13Pb14I81
_symmetry_space_group_name_H-M   'P 1'
_cell_length_a   18.97730448
_cell_length_b   18.98351547
_cell_length_c   18.97368662
_cell_angle_alpha   89.99771177
_cell_angle_beta   89.99922865
_cell_angle_gamma   89.99964121
_symmetry_Int_Tables_number   1
_chemical_formula_structural   Cs27Sn13Pb14I81
_chemical_formula_sum   'Cs27 Sn13 Pb14 I81'
_cell_volume   6835.38355423
_cell_formula_units_Z   1
loop_
 _symmetry_equiv_pos_site_id
 _symmetry_equiv_pos_as_xyz
  1  'x, y, z'
loop_
 _atom_site_type_symbol
 _atom_site_label
 _atom_site_symmetry_multiplicity
 _atom_site_fract_x
 _atom_site_fract_y
 _atom_site_fract_z
 _atom_site_occupancy
  Cs  Cs0  1  0.00070638  -0.00227784  0.00039873  1
  Cs  Cs1  1  0.00157555  -0.00051910  0.33180266  1
  Cs  Cs2  1  -0.00062243  0.00252691  0.66776302  1
  Cs  Cs3  1  -0.00021197  0.33608972  -0.00070264  1
  Cs  Cs4  1  0.00045891  0.33441567  0.33353824  1
  Cs  Cs5  1  -0.00108710  0.33273781  0.66750226  1
  Cs  Cs6  1  -0.00056567  0.66708192  0.00036481  1
  Cs  Cs7  1  0.00086067  0.66498259  0.33178059  1
  Cs  Cs8  1  0.00117486  0.66480484  0.66976178  1
  Cs  Cs9  1  0.33425358  0.00108173  -0.00117688  1
  Cs  Cs10  1  0.33026519  0.00194744  0.33274231  1
  Cs  Cs11  1  0.33335480  -0.00003910  0.66691386  1
  Cs  Cs12  1  0.33988896  0.33192076  -0.00047657  1
  Cs  Cs13  1  0.33433972  0.33199882  0.33370089  1
  Cs  Cs14  1  0.33253137  0.33383694  0.66623672  1
  Cs  Cs15  1  0.33253982  0.66704134  -0.00129071  1
  Cs  Cs16  1  0.33167558  0.66489798  0.33525227  1
  Cs  Cs17  1  0.33845805  0.66609374  0.66581553  1
  Cs  Cs18  1  0.66532323  -0.00006801  0.00010327  1
  Cs  Cs19  1  0.66700316  -0.00094815  0.33471519  1
  Cs  Cs20  1  0.66725876  -0.00178193  0.66333343  1
  Cs  Cs21  1  0.66068493  0.33376246  0.00180778  1
  Cs  Cs22  1  0.66488935  0.33393098  0.33102401  1
  Cs  Cs23  1  0.67036488  0.33111446  0.66611142  1
  Cs  Cs24  1  0.66964745  0.66608979  -0.00056319  1
  Cs  Cs25  1  0.66528797  0.66804659  0.33887019  1
  Cs  Cs26  1  0.65848217  0.67035143  0.66176664  1
  Sn  Sn27  1  0.16717867  0.16584594  0.49929763  1
  Sn  Sn28  1  0.83398171  0.50119340  0.83416515  1
  Sn  Sn29  1  0.16581045  0.16783271  0.16692831  1
  Sn  Sn30  1  0.16586228  0.83261579  0.83224991  1
  Sn  Sn31  1  0.16607339  0.50077695  0.83453195  1
  Sn  Sn32  1  0.16597482  0.83384211  0.50132155  1
  Sn  Sn33  1  0.83229397  0.83309282  0.16613501  1
  Sn  Sn34  1  0.49925679  0.16665141  0.49994094  1
  Sn  Sn35  1  0.50099257  0.83304065  0.16640958  1
  Sn  Sn36  1  0.83423632  0.16678522  0.16644957  1
  Sn  Sn37  1  0.83417787  0.83248238  0.83389361  1
  Sn  Sn38  1  0.83419850  0.50008511  0.16603876  1
  Sn  Sn39  1  0.16613327  0.49881735  0.16556130  1
  Pb  Pb40  1  0.83340311  0.50029530  0.50037707  1
  Pb  Pb41  1  0.49977197  0.16468412  0.16794900  1
  Pb  Pb42  1  0.50053296  0.50007416  0.83340794  1
  Pb  Pb43  1  0.50023032  0.83332143  0.83524983  1
  Pb  Pb44  1  0.83418404  0.16664432  0.49737559  1
  Pb  Pb45  1  0.83339368  0.16668269  0.83619595  1
  Pb  Pb46  1  0.16650663  0.49963989  0.50031804  1
  Pb  Pb47  1  0.49998074  0.49698072  0.49987648  1
  Pb  Pb48  1  0.49700936  0.83511812  0.49753703  1
  Pb  Pb49  1  0.50020960  0.16643608  0.83007717  1
  Pb  Pb50  1  0.16664626  0.16700544  0.83369739  1
  Pb  Pb51  1  0.16607744  0.83310183  0.16619133  1
  Pb  Pb52  1  0.50002120  0.50253921  0.16668621  1
  Pb  Pb53  1  0.83590921  0.83317409  0.50037328  1
  I  I54  1  0.16407407  0.00198547  0.16830529  1
  I  I55  1  0.16970537  0.00052301  0.49827879  1
  I  I56  1  0.16274873  -0.00296717  0.83313729  1
  I  I57  1  0.15944249  0.33326534  0.16791974  1
  I  I58  1  0.17087677  0.33025356  0.49789933  1
  I  I59  1  0.16149445  0.33655675  0.83369342  1
  I  I60  1  0.16426177  0.66433565  0.16684344  1
  I  I61  1  0.16532349  0.66924446  0.49910634  1
  I  I62  1  0.16239378  0.66688491  0.83439690  1
  I  I63  1  0.50330985  -0.00295543  0.16726050  1
  I  I64  1  0.49726536  0.00279813  0.49817596  1
  I  I65  1  0.49916902  -0.00046293  0.83549159  1
  I  I66  1  0.50217002  0.33320807  0.16867779  1
  I  I67  1  0.49179438  0.32901297  0.49740139  1
  I  I68  1  0.49943866  0.33342609  0.83416544  1
  I  I69  1  0.50253497  0.67031055  0.16677578  1
  I  I70  1  0.49926924  0.66714341  0.49948833  1
  I  I71  1  0.49837779  0.66683918  0.83287236  1
  I  I72  1  0.83412335  -0.00045934  0.16403453  1
  I  I73  1  0.83236025  -0.00004082  0.49966234  1
  I  I74  1  0.83793590  -0.00344708  0.83773501  1
  I  I75  1  0.83871870  0.33378311  0.16423839  1
  I  I76  1  0.83466908  0.33320995  0.50100210  1
  I  I77  1  0.83874028  0.33689274  0.83597043  1
  I  I78  1  0.83456451  0.66661750  0.16246158  1
  I  I79  1  0.83537528  0.66692831  0.49333324  1
  I  I80  1  0.83966501  0.66708779  0.84357027  1
  I  I81  1  0.16165488  0.16611865  0.00335323  1
  I  I82  1  0.16652626  0.16537896  0.33254490  1
  I  I83  1  0.17186532  0.16536100  0.66390844  1
  I  I84  1  0.16207196  0.50116387  0.00049747  1
  I  I85  1  0.16238309  0.50017778  0.33015972  1
  I  I86  1  0.16186713  0.50057327  0.66999936  1
  I  I87  1  0.16573293  0.83291316  -0.00242942  1
  I  I88  1  0.16741902  0.83495746  0.33474046  1
  I  I89  1  0.16151160  0.83395852  0.66766485  1
  I  I90  1  0.49925923  0.16594776  0.00045822  1
  I  I91  1  0.49702252  0.16469154  0.33567131  1
  I  I92  1  0.49178279  0.16576709  0.66202052  1
  I  I93  1  0.49812057  0.49831252  0.00027390  1
  I  I94  1  0.49967303  0.50173804  0.33286587  1
  I  I95  1  0.49943530  0.50033039  0.66676114  1
  I  I96  1  0.49869444  0.83514410  0.00322371  1
  I  I97  1  0.50580251  0.83364316  0.32988239  1
  I  I98  1  0.50245519  0.83491026  0.66641627  1
  I  I99  1  0.84046772  0.16533697  0.00453869  1
  I  I100  1  0.83506193  0.16628673  0.32884884  1
  I  I101  1  0.83228452  0.16689962  0.66670934  1
  I  I102  1  0.83886415  0.50126569  0.00113290  1
  I  I103  1  0.83809121  0.50023981  0.32919370  1
  I  I104  1  0.83901890  0.50406581  0.67086358  1
  I  I105  1  0.83621812  0.83314659  0.00082156  1
  I  I106  1  0.83114996  0.83332644  0.32985620  1
  I  I107  1  0.83595611  0.82869091  0.67028424  1
  I  I108  1  0.00063210  0.16487275  0.17261047  1
  I  I109  1  0.00358158  0.16317583  0.49750881  1
  I  I110  1  0.00011449  0.16563542  0.82777842  1
  I  I111  1  0.00000830  0.50105990  0.16360116  1
  I  I112  1  0.00031288  0.49704649  0.49856227  1
  I  I113  1  0.00042160  0.50457494  0.83804146  1
  I  I114  1  -0.00271917  0.83413696  0.16619768  1
  I  I115  1  0.00388375  0.84047300  0.49787014  1
  I  I116  1  0.00014323  0.82997727  0.83617152  1
  I  I117  1  0.33005733  0.16874018  0.16884033  1
  I  I118  1  0.33129091  0.16251339  0.49301537  1
  I  I119  1  0.33286112  0.16613425  0.83942026  1
  I  I120  1  0.32974342  0.49700488  0.16342427  1
  I  I121  1  0.33273528  0.50300669  0.49909244  1
  I  I122  1  0.32960668  0.50385223  0.83720044  1
  I  I123  1  0.33443300  0.83440510  0.16768024  1
  I  I124  1  0.32911194  0.83494931  0.50334172  1
  I  I125  1  0.32988005  0.82968473  0.83151005  1
  I  I126  1  0.66965859  0.16894377  0.16760518  1
  I  I127  1  0.66434843  0.16723579  0.49867373  1
  I  I128  1  0.66708756  0.16700814  0.83363324  1
  I  I129  1  0.67043488  0.49630564  0.16195429  1
  I  I130  1  0.66673035  0.49814997  0.49941498  1
  I  I131  1  0.67088238  0.50385524  0.83936977  1
  I  I132  1  0.66907904  0.83454670  0.16136106  1
  I  I133  1  0.66655087  0.83541926  0.50193112  1
  I  I134  1  0.67035114  0.82909288  0.83669941  1
