# generated using pymatgen
data_Cs27Sn13Pb14I81
_symmetry_space_group_name_H-M   'P 1'
_cell_length_a   18.97621682
_cell_length_b   18.97635494
_cell_length_c   18.97606629
_cell_angle_alpha   90.00254530
_cell_angle_beta   90.00139331
_cell_angle_gamma   89.99959347
_symmetry_Int_Tables_number   1
_chemical_formula_structural   Cs27Sn13Pb14I81
_chemical_formula_sum   'Cs27 Sn13 Pb14 I81'
_cell_volume   6833.27056784
_cell_formula_units_Z   1
loop_
 _symmetry_equiv_pos_site_id
 _symmetry_equiv_pos_as_xyz
  1  'x, y, z'
loop_
 _atom_site_type_symbol
 _atom_site_label
 _atom_site_symmetry_multiplicity
 _atom_site_fract_x
 _atom_site_fract_y
 _atom_site_fract_z
 _atom_site_occupancy
  Cs  Cs0  1  0.00009682  -0.00002271  0.00254110  1
  Cs  Cs1  1  -0.00304541  -0.00129925  0.33045133  1
  Cs  Cs2  1  -0.00019919  0.00138536  0.66618612  1
  Cs  Cs3  1  -0.00123045  0.33451939  -0.00187179  1
  Cs  Cs4  1  0.00065552  0.33505457  0.34045818  1
  Cs  Cs5  1  0.00813677  0.34217161  0.65993992  1
  Cs  Cs6  1  -0.00037477  0.66497732  0.00288647  1
  Cs  Cs7  1  -0.00204215  0.66818722  0.33143083  1
  Cs  Cs8  1  0.00070524  0.65930287  0.66484973  1
  Cs  Cs9  1  0.32999067  -0.00029389  -0.00063621  1
  Cs  Cs10  1  0.33158147  0.00522143  0.33244363  1
  Cs  Cs11  1  0.33498900  -0.00319257  0.66803878  1
  Cs  Cs12  1  0.33149575  0.33086286  0.00326145  1
  Cs  Cs13  1  0.33439909  0.32578649  0.33132856  1
  Cs  Cs14  1  0.32558145  0.33324933  0.66507367  1
  Cs  Cs15  1  0.33615289  0.66729966  0.00035650  1
  Cs  Cs16  1  0.33455565  0.66625673  0.33429836  1
  Cs  Cs17  1  0.33470476  0.66869620  0.66599736  1
  Cs  Cs18  1  0.66879539  0.00036809  -0.00402110  1
  Cs  Cs19  1  0.66994622  0.00160318  0.33746740  1
  Cs  Cs20  1  0.66546076  -0.00000872  0.66879917  1
  Cs  Cs21  1  0.66788360  0.33345750  0.00174754  1
  Cs  Cs22  1  0.66447789  0.32843061  0.33058031  1
  Cs  Cs23  1  0.66867437  0.33277034  0.66645687  1
  Cs  Cs24  1  0.66524917  0.66572352  -0.00089936  1
  Cs  Cs25  1  0.66658040  0.66807377  0.33350347  1
  Cs  Cs26  1  0.66511568  0.66691960  0.66765284  1
  Sn  Sn27  1  0.50015384  0.83389746  0.16688298  1
  Sn  Sn28  1  0.49923861  0.83276935  0.49981642  1
  Sn  Sn29  1  0.16617394  0.83296635  0.83267324  1
  Sn  Sn30  1  0.50007055  0.83335807  0.83339086  1
  Sn  Sn31  1  0.83337769  0.16763175  0.16578563  1
  Sn  Sn32  1  0.50017239  0.50029784  0.50066800  1
  Sn  Sn33  1  0.16620117  0.50015774  0.16661942  1
  Sn  Sn34  1  0.83315903  0.16660193  0.83351241  1
  Sn  Sn35  1  0.49987948  0.49939588  0.83254720  1
  Sn  Sn36  1  0.83381795  0.83347311  0.83328322  1
  Sn  Sn37  1  0.16727773  0.83332199  0.50048738  1
  Sn  Sn38  1  0.83395495  0.49916083  0.16650170  1
  Sn  Sn39  1  0.50032026  0.16704148  0.83334293  1
  Pb  Pb40  1  0.16954335  0.50246889  0.49740646  1
  Pb  Pb41  1  0.49996084  0.16640310  0.50298064  1
  Pb  Pb42  1  0.16953722  0.50257033  0.83504682  1
  Pb  Pb43  1  0.16879069  0.83201806  0.16685148  1
  Pb  Pb44  1  0.16585893  0.16454178  0.83326457  1
  Pb  Pb45  1  0.83338142  0.16675924  0.50126848  1
  Pb  Pb46  1  0.83116612  0.83341407  0.16453278  1
  Pb  Pb47  1  0.83027735  0.50013789  0.49702284  1
  Pb  Pb48  1  0.83323563  0.83319267  0.50322265  1
  Pb  Pb49  1  0.16674283  0.16329670  0.50007807  1
  Pb  Pb50  1  0.50023234  0.50116292  0.16689908  1
  Pb  Pb51  1  0.16349664  0.16929435  0.16643441  1
  Pb  Pb52  1  0.83152693  0.49958922  0.83456901  1
  Pb  Pb53  1  0.50202751  0.16355150  0.16412528  1
  I  I54  1  0.16668309  -0.00018147  0.16695560  1
  I  I55  1  0.17475098  -0.00502948  0.50363937  1
  I  I56  1  0.17243910  -0.00412507  0.83123601  1
  I  I57  1  0.16918552  0.33721553  0.16556414  1
  I  I58  1  0.16752744  0.33388745  0.49907513  1
  I  I59  1  0.16767050  0.33371787  0.83500346  1
  I  I60  1  0.16059479  0.66433634  0.16558392  1
  I  I61  1  0.17001502  0.67027896  0.50487981  1
  I  I62  1  0.16705028  0.67089425  0.83062644  1
  I  I63  1  0.50035705  -0.00442516  0.16691719  1
  I  I64  1  0.49665875  -0.00365601  0.50082620  1
  I  I65  1  0.50106571  -0.00171957  0.83362017  1
  I  I66  1  0.49847191  0.33306847  0.16657022  1
  I  I67  1  0.50168389  0.33624642  0.50316803  1
  I  I68  1  0.50658919  0.33338014  0.83018252  1
  I  I69  1  0.50199459  0.66918489  0.16137956  1
  I  I70  1  0.49722392  0.66819751  0.50480226  1
  I  I71  1  0.50032025  0.66829539  0.83332545  1
  I  I72  1  0.83016646  0.00225842  0.16370485  1
  I  I73  1  0.83176494  -0.00027536  0.49477486  1
  I  I74  1  0.82721992  -0.00048181  0.83921535  1
  I  I75  1  0.83517169  0.33321600  0.15929850  1
  I  I76  1  0.83160901  0.33355722  0.50399318  1
  I  I77  1  0.82553384  0.33047609  0.83765692  1
  I  I78  1  0.83496527  0.66453939  0.16504061  1
  I  I79  1  0.83391147  0.66681135  0.49923839  1
  I  I80  1  0.83070482  0.66930823  0.83513349  1
  I  I81  1  0.17009386  0.16340032  -0.00015185  1
  I  I82  1  0.16617511  0.16417462  0.33305520  1
  I  I83  1  0.16461443  0.16967400  0.66696528  1
  I  I84  1  0.16557101  0.50337937  0.00264154  1
  I  I85  1  0.16391722  0.50381490  0.33005638  1
  I  I86  1  0.16549044  0.49892138  0.66652086  1
  I  I87  1  0.16927056  0.83224463  -0.00288318  1
  I  I88  1  0.17281188  0.83096873  0.33598839  1
  I  I89  1  0.17297926  0.83367843  0.66764838  1
  I  I90  1  0.50205418  0.16673641  -0.00401807  1
  I  I91  1  0.50163763  0.16658388  0.33321356  1
  I  I92  1  0.50706637  0.16093903  0.67114369  1
  I  I93  1  0.50062415  0.50327608  -0.00260334  1
  I  I94  1  0.50049209  0.50772482  0.33561373  1
  I  I95  1  0.50092708  0.50651237  0.66766748  1
  I  I96  1  0.50010570  0.83185287  -0.00199172  1
  I  I97  1  0.49602988  0.82638930  0.33433052  1
  I  I98  1  0.49947069  0.83280557  0.66807576  1
  I  I99  1  0.82829035  0.16596333  -0.00102193  1
  I  I100  1  0.83306524  0.17026725  0.33036418  1
  I  I101  1  0.82678586  0.15924370  0.67103104  1
  I  I102  1  0.83301805  0.50005657  0.00263497  1
  I  I103  1  0.83507528  0.49564201  0.32888677  1
  I  I104  1  0.83361345  0.50012240  0.66673830  1
  I  I105  1  0.83178521  0.83415926  -0.00365347  1
  I  I106  1  0.83236323  0.83399624  0.33321563  1
  I  I107  1  0.82766528  0.83929429  0.67142635  1
  I  I108  1  -0.00446759  0.16479782  0.15854712  1
  I  I109  1  -0.00002774  0.16494694  0.50164136  1
  I  I110  1  -0.00373468  0.15960855  0.83885869  1
  I  I111  1  -0.00077370  0.49862504  0.16433888  1
  I  I112  1  0.00031242  0.50102293  0.50064419  1
  I  I113  1  0.00013795  0.50106358  0.83396354  1
  I  I114  1  -0.00019438  0.83409551  0.16629770  1
  I  I115  1  0.00301524  0.83419199  0.50397986  1
  I  I116  1  -0.00019449  0.83898943  0.83043609  1
  I  I117  1  0.33350516  0.16777683  0.16579188  1
  I  I118  1  0.33374549  0.16896046  0.50044361  1
  I  I119  1  0.33632661  0.16483573  0.83255673  1
  I  I120  1  0.33192004  0.50520342  0.16576227  1
  I  I121  1  0.33726973  0.50396052  0.50280418  1
  I  I122  1  0.33783164  0.50104343  0.83281509  1
  I  I123  1  0.33677212  0.82960117  0.16126823  1
  I  I124  1  0.33498381  0.82913038  0.50569487  1
  I  I125  1  0.33507421  0.83301210  0.83289340  1
  I  I126  1  0.66977008  0.17361563  0.16426553  1
  I  I127  1  0.66644385  0.16401584  0.49768778  1
  I  I128  1  0.66624915  0.16046327  0.83704076  1
  I  I129  1  0.66887992  0.49789679  0.16577933  1
  I  I130  1  0.66237148  0.50820570  0.50280165  1
  I  I131  1  0.66319124  0.50604659  0.83327818  1
  I  I132  1  0.66319828  0.83002130  0.16606508  1
  I  I133  1  0.66308101  0.83012446  0.50045452  1
  I  I134  1  0.66507827  0.83397184  0.83404837  1
