# generated using pymatgen
data_Cs27Sn13Pb14I81
_symmetry_space_group_name_H-M   'P 1'
_cell_length_a   18.98221094
_cell_length_b   18.97880622
_cell_length_c   18.97009346
_cell_angle_alpha   90.00113111
_cell_angle_beta   90.00082638
_cell_angle_gamma   90.00121367
_symmetry_Int_Tables_number   1
_chemical_formula_structural   Cs27Sn13Pb14I81
_chemical_formula_sum   'Cs27 Sn13 Pb14 I81'
_cell_volume   6834.16023408
_cell_formula_units_Z   1
loop_
 _symmetry_equiv_pos_site_id
 _symmetry_equiv_pos_as_xyz
  1  'x, y, z'
loop_
 _atom_site_type_symbol
 _atom_site_label
 _atom_site_symmetry_multiplicity
 _atom_site_fract_x
 _atom_site_fract_y
 _atom_site_fract_z
 _atom_site_occupancy
  Cs  Cs0  1  0.00236822  0.00002441  -0.00286272  1
  Cs  Cs1  1  0.00698892  -0.00482177  0.33325255  1
  Cs  Cs2  1  0.00053597  -0.00092481  0.66987464  1
  Cs  Cs3  1  0.00203519  0.33421827  0.00270886  1
  Cs  Cs4  1  -0.00025042  0.33353169  0.33257803  1
  Cs  Cs5  1  -0.00360946  0.33437147  0.66590766  1
  Cs  Cs6  1  0.00075378  0.66574619  0.00450307  1
  Cs  Cs7  1  -0.00187425  0.67173734  0.32699042  1
  Cs  Cs8  1  -0.00145674  0.66582309  0.66654535  1
  Cs  Cs9  1  0.33213411  -0.00213154  0.00091484  1
  Cs  Cs10  1  0.32752906  0.00267806  0.33989597  1
  Cs  Cs11  1  0.33240816  0.00126872  0.66036112  1
  Cs  Cs12  1  0.33238405  0.33693689  -0.00121600  1
  Cs  Cs13  1  0.33226472  0.33046574  0.33400172  1
  Cs  Cs14  1  0.33538235  0.33502234  0.66713430  1
  Cs  Cs15  1  0.33372426  0.66595514  -0.00252493  1
  Cs  Cs16  1  0.33593998  0.66804384  0.33462330  1
  Cs  Cs17  1  0.33280915  0.66431496  0.66901412  1
  Cs  Cs18  1  0.66657847  0.00255170  -0.00080932  1
  Cs  Cs19  1  0.66586204  -0.00105998  0.33390709  1
  Cs  Cs20  1  0.66571719  0.00241725  0.66593884  1
  Cs  Cs21  1  0.66610102  0.32962792  0.00004456  1
  Cs  Cs22  1  0.66755966  0.33509350  0.33271344  1
  Cs  Cs23  1  0.66882734  0.33199287  0.66770689  1
  Cs  Cs24  1  0.66520068  0.66759295  0.00174626  1
  Cs  Cs25  1  0.66765374  0.66655552  0.33292829  1
  Cs  Cs26  1  0.66836624  0.66656394  0.66504906  1
  Sn  Sn27  1  0.50020268  0.49973115  0.16731726  1
  Sn  Sn28  1  0.50017347  0.83352828  0.83350432  1
  Sn  Sn29  1  0.16689756  0.83388311  0.83319737  1
  Sn  Sn30  1  0.50007295  0.83395882  0.16634026  1
  Sn  Sn31  1  0.16700402  0.16668098  0.83318180  1
  Sn  Sn32  1  0.83315277  0.16638001  0.16796771  1
  Sn  Sn33  1  0.16603933  0.50019196  0.49969144  1
  Sn  Sn34  1  0.83341499  0.16684263  0.49866169  1
  Sn  Sn35  1  0.83301758  0.50073374  0.83337127  1
  Sn  Sn36  1  0.50039144  0.16637166  0.16674951  1
  Sn  Sn37  1  0.83374261  0.49955894  0.50020276  1
  Sn  Sn38  1  0.83294224  0.83233648  0.83340670  1
  Sn  Sn39  1  0.50020354  0.49988363  0.49939152  1
  Pb  Pb40  1  0.16956596  0.50005203  0.16958085  1
  Pb  Pb41  1  0.16394566  0.16879001  0.50228607  1
  Pb  Pb42  1  0.50233193  0.50170056  0.83332596  1
  Pb  Pb43  1  0.16672676  0.16669511  0.16487226  1
  Pb  Pb44  1  0.16654940  0.83073318  0.50255771  1
  Pb  Pb45  1  0.50005999  0.83125201  0.49992145  1
  Pb  Pb46  1  0.49757524  0.16422189  0.83528136  1
  Pb  Pb47  1  0.83334068  0.83337712  0.50179481  1
  Pb  Pb48  1  0.16954568  0.83321010  0.16440173  1
  Pb  Pb49  1  0.83128156  0.83615810  0.16415379  1
  Pb  Pb50  1  0.16420779  0.50033249  0.83180429  1
  Pb  Pb51  1  0.50206429  0.16907378  0.49776433  1
  Pb  Pb52  1  0.83459207  0.16671422  0.83351981  1
  Pb  Pb53  1  0.83146498  0.49842485  0.16683977  1
  I  I54  1  0.16830970  -0.00002175  0.16802743  1
  I  I55  1  0.16584825  0.00016605  0.49957620  1
  I  I56  1  0.16339753  -0.00112330  0.83449160  1
  I  I57  1  0.16940960  0.33337169  0.16158983  1
  I  I58  1  0.16929780  0.33663652  0.50360827  1
  I  I59  1  0.16390891  0.33146323  0.83251271  1
  I  I60  1  0.16707257  0.66658282  0.16425299  1
  I  I61  1  0.16489354  0.66262850  0.50283204  1
  I  I62  1  0.16880103  0.66953933  0.83132741  1
  I  I63  1  0.50516535  0.00002019  0.15887711  1
  I  I64  1  0.50174998  0.00024819  0.50003991  1
  I  I65  1  0.50581224  -0.00403749  0.83875757  1
  I  I66  1  0.50413721  0.33335809  0.17159067  1
  I  I67  1  0.49844677  0.33736874  0.49589373  1
  I  I68  1  0.49960289  0.33341405  0.83442110  1
  I  I69  1  0.49915734  0.66662932  0.16622100  1
  I  I70  1  0.50324441  0.66274857  0.49524846  1
  I  I71  1  0.49581832  0.66979199  0.83835949  1
  I  I72  1  0.82692475  0.00397279  0.17035882  1
  I  I73  1  0.83222912  0.00306122  0.49839797  1
  I  I74  1  0.83217484  -0.00255804  0.83395292  1
  I  I75  1  0.82699175  0.33056984  0.16447054  1
  I  I76  1  0.83248671  0.33471758  0.50338047  1
  I  I77  1  0.83510694  0.33557168  0.83131479  1
  I  I78  1  0.83161483  0.66682533  0.16818068  1
  I  I79  1  0.83251871  0.66311662  0.50377867  1
  I  I80  1  0.83446016  0.66660685  0.82717400  1
  I  I81  1  0.16378268  0.16317330  -0.00313318  1
  I  I82  1  0.16831653  0.16817655  0.33361730  1
  I  I83  1  0.16459207  0.16158424  0.66999481  1
  I  I84  1  0.16663234  0.49991043  -0.00019485  1
  I  I85  1  0.16086734  0.49812459  0.33762734  1
  I  I86  1  0.17137809  0.50034021  0.66387654  1
  I  I87  1  0.16401590  0.83581507  -0.00410777  1
  I  I88  1  0.16799905  0.83275144  0.33340268  1
  I  I89  1  0.16947676  0.83731069  0.67100893  1
  I  I90  1  0.50721913  0.17215069  0.00353593  1
  I  I91  1  0.50102485  0.16187774  0.32944520  1
  I  I92  1  0.50094288  0.16664530  0.66658546  1
  I  I93  1  0.50236620  0.49885049  0.00264914  1
  I  I94  1  0.50213415  0.50219204  0.33332060  1
  I  I95  1  0.49901966  0.50238023  0.66398987  1
  I  I96  1  0.50015620  0.83059557  -0.00010299  1
  I  I97  1  0.50138303  0.83360741  0.33012851  1
  I  I98  1  0.49992091  0.83075165  0.66991311  1
  I  I99  1  0.82983965  0.16653080  0.00222515  1
  I  I100  1  0.82845426  0.17458738  0.33360813  1
  I  I101  1  0.83577370  0.16903405  0.66462310  1
  I  I102  1  0.83185040  0.50235914  -0.00243749  1
  I  I103  1  0.83388609  0.49650103  0.33641495  1
  I  I104  1  0.83095597  0.49788855  0.66574875  1
  I  I105  1  0.83535177  0.82841790  -0.00415852  1
  I  I106  1  0.83097904  0.83052048  0.33296430  1
  I  I107  1  0.83063823  0.83367433  0.67057601  1
  I  I108  1  -0.00301651  0.16857607  0.16839721  1
  I  I109  1  -0.00391181  0.17340668  0.49498968  1
  I  I110  1  0.00213357  0.16123407  0.83454122  1
  I  I111  1  -0.00026721  0.49769189  0.16625525  1
  I  I112  1  -0.00138670  0.49525021  0.50785529  1
  I  I113  1  -0.00367130  0.50393599  0.82768237  1
  I  I114  1  -0.00017808  0.83432775  0.16545569  1
  I  I115  1  -0.00014379  0.83119170  0.50223787  1
  I  I116  1  -0.00024037  0.83421911  0.83043783  1
  I  I117  1  0.33672642  0.16701370  0.16372427  1
  I  I118  1  0.33327998  0.16829983  0.49965714  1
  I  I119  1  0.32998450  0.16293896  0.83487060  1
  I  I120  1  0.33815610  0.49767840  0.16945364  1
  I  I121  1  0.33402943  0.50198124  0.49589696  1
  I  I122  1  0.33348485  0.50075024  0.83213826  1
  I  I123  1  0.33795644  0.83418731  0.16074303  1
  I  I124  1  0.33343651  0.83122772  0.50215743  1
  I  I125  1  0.33365407  0.83673067  0.83845663  1
  I  I126  1  0.66620559  0.16737199  0.16849731  1
  I  I127  1  0.66998705  0.17255655  0.50144551  1
  I  I128  1  0.66664659  0.16587375  0.83224437  1
  I  I129  1  0.66331081  0.50224548  0.17131090  1
  I  I130  1  0.66723700  0.49692646  0.50025055  1
  I  I131  1  0.67010228  0.50394789  0.82801059  1
  I  I132  1  0.66316442  0.83083047  0.16051742  1
  I  I133  1  0.66667957  0.83076963  0.50376352  1
  I  I134  1  0.66666187  0.82800377  0.83723688  1
