# generated using pymatgen
data_Cs27Sn13Pb14I81
_symmetry_space_group_name_H-M   'P 1'
_cell_length_a   18.97127454
_cell_length_b   18.99868216
_cell_length_c   19.00642049
_cell_angle_alpha   89.99996297
_cell_angle_beta   89.99984331
_cell_angle_gamma   89.99958325
_symmetry_Int_Tables_number   1
_chemical_formula_structural   Cs27Sn13Pb14I81
_chemical_formula_sum   'Cs27 Sn13 Pb14 I81'
_cell_volume   6850.46921925
_cell_formula_units_Z   1
loop_
 _symmetry_equiv_pos_site_id
 _symmetry_equiv_pos_as_xyz
  1  'x, y, z'
loop_
 _atom_site_type_symbol
 _atom_site_label
 _atom_site_symmetry_multiplicity
 _atom_site_fract_x
 _atom_site_fract_y
 _atom_site_fract_z
 _atom_site_occupancy
  Cs  Cs0  1  0.00165548  0.00924623  0.00010409  1
  Cs  Cs1  1  0.00454812  0.00204318  0.33164745  1
  Cs  Cs2  1  0.00245683  0.00478663  0.66794487  1
  Cs  Cs3  1  0.00531913  0.32495437  -0.00152520  1
  Cs  Cs4  1  0.00921746  0.33303179  0.33629565  1
  Cs  Cs5  1  0.00909010  0.33357110  0.66517171  1
  Cs  Cs6  1  0.00103655  0.66709556  0.00049313  1
  Cs  Cs7  1  0.00104153  0.66409041  0.33442108  1
  Cs  Cs8  1  -0.00112887  0.66120443  0.66543063  1
  Cs  Cs9  1  0.32968499  -0.00505401  -0.00166407  1
  Cs  Cs10  1  0.32830203  -0.00175456  0.33607977  1
  Cs  Cs11  1  0.32901602  -0.00934676  0.66534106  1
  Cs  Cs12  1  0.33603798  0.33711840  -0.00057090  1
  Cs  Cs13  1  0.33557268  0.33218717  0.33307011  1
  Cs  Cs14  1  0.33296026  0.33264848  0.66743713  1
  Cs  Cs15  1  0.32719554  0.66694226  -0.00106129  1
  Cs  Cs16  1  0.32832465  0.67018634  0.33207093  1
  Cs  Cs17  1  0.32909437  0.67740842  0.66938081  1
  Cs  Cs18  1  0.66842760  0.00060575  0.00082607  1
  Cs  Cs19  1  0.66683866  -0.00030663  0.33331598  1
  Cs  Cs20  1  0.66633341  -0.00179535  0.66554575  1
  Cs  Cs21  1  0.66564132  0.33349291  -0.00008912  1
  Cs  Cs22  1  0.66563803  0.33432495  0.33388663  1
  Cs  Cs23  1  0.66607065  0.33445149  0.66596752  1
  Cs  Cs24  1  0.66737827  0.66521425  0.00078233  1
  Cs  Cs25  1  0.66806653  0.66557393  0.33171649  1
  Cs  Cs26  1  0.66798531  0.66728131  0.66740632  1
  Sn  Sn27  1  0.50091258  0.49986103  0.83299081  1
  Sn  Sn28  1  0.83250204  0.83441938  0.49963774  1
  Sn  Sn29  1  0.50052703  0.50020547  0.50032628  1
  Sn  Sn30  1  0.83288368  0.49991642  0.16563889  1
  Sn  Sn31  1  0.50083964  0.16630736  0.16662562  1
  Sn  Sn32  1  0.50096293  0.83303114  0.16661076  1
  Sn  Sn33  1  0.50096637  0.16693400  0.50041526  1
  Sn  Sn34  1  0.50082974  0.16668605  0.83289870  1
  Sn  Sn35  1  0.50087667  0.50053185  0.16676071  1
  Sn  Sn36  1  0.83254534  0.50006600  0.83459839  1
  Sn  Sn37  1  0.83219411  0.16646953  0.49985066  1
  Sn  Sn38  1  0.83247002  0.83294944  0.16645530  1
  Sn  Sn39  1  0.83254919  0.83295477  0.83388228  1
  Pb  Pb40  1  0.17126829  0.50016851  0.50008682  1
  Pb  Pb41  1  0.83186722  0.49951930  0.49986668  1
  Pb  Pb42  1  0.17071511  0.16681877  0.16661991  1
  Pb  Pb43  1  0.16612201  0.49992988  0.16652390  1
  Pb  Pb44  1  0.16774092  0.16672503  0.50003816  1
  Pb  Pb45  1  0.83169000  0.16751436  0.16885187  1
  Pb  Pb46  1  0.17097494  0.16676649  0.83324941  1
  Pb  Pb47  1  0.16199190  0.83314270  0.83361621  1
  Pb  Pb48  1  0.16218968  0.83319372  0.49990992  1
  Pb  Pb49  1  0.83134543  0.16759560  0.83103741  1
  Pb  Pb50  1  0.16535626  0.83320593  0.16654240  1
  Pb  Pb51  1  0.50174979  0.83318260  0.49767737  1
  Pb  Pb52  1  0.50191939  0.83293326  0.83582536  1
  Pb  Pb53  1  0.16655049  0.50004499  0.83350262  1
  I  I54  1  0.16624281  -0.00006793  0.16674928  1
  I  I55  1  0.17236821  -0.00000624  0.50000541  1
  I  I56  1  0.16741040  -0.00006416  0.83335701  1
  I  I57  1  0.16475921  0.33339316  0.16728726  1
  I  I58  1  0.15961269  0.33328044  0.49981365  1
  I  I59  1  0.16092252  0.33338994  0.83300898  1
  I  I60  1  0.17261383  0.66662432  0.16714511  1
  I  I61  1  0.16696400  0.66676827  0.49973428  1
  I  I62  1  0.17368371  0.66662890  0.83287318  1
  I  I63  1  0.50514005  -0.00015424  0.16684530  1
  I  I64  1  0.50240018  0.00280007  0.49984531  1
  I  I65  1  0.50205581  0.00234974  0.83326084  1
  I  I66  1  0.50343536  0.33397050  0.16695723  1
  I  I67  1  0.50633051  0.33291927  0.49574181  1
  I  I68  1  0.50556453  0.33422576  0.83723615  1
  I  I69  1  0.50476458  0.66592612  0.16740296  1
  I  I70  1  0.50279045  0.66392722  0.50006199  1
  I  I71  1  0.50237958  0.66348234  0.83237163  1
  I  I72  1  0.82831304  -0.00271307  0.16466377  1
  I  I73  1  0.82598846  -0.00014178  0.50008066  1
  I  I74  1  0.83125592  -0.00231524  0.83558400  1
  I  I75  1  0.82723995  0.33663972  0.16290877  1
  I  I76  1  0.82893009  0.33090169  0.49968838  1
  I  I77  1  0.82952027  0.33666600  0.83768934  1
  I  I78  1  0.82478059  0.66681765  0.16839598  1
  I  I79  1  0.83122652  0.66882112  0.49994077  1
  I  I80  1  0.82664324  0.66615970  0.83159978  1
  I  I81  1  0.16422554  0.16588855  -0.00008292  1
  I  I82  1  0.16743121  0.16656280  0.33350341  1
  I  I83  1  0.16676704  0.16714958  0.66652526  1
  I  I84  1  0.17205124  0.50030878  0.00002161  1
  I  I85  1  0.16463094  0.49997253  0.33327286  1
  I  I86  1  0.16378665  0.49930148  0.66678419  1
  I  I87  1  0.16820298  0.83307869  0.00012890  1
  I  I88  1  0.16726426  0.83385688  0.33317764  1
  I  I89  1  0.17015261  0.83385593  0.66673092  1
  I  I90  1  0.50022600  0.17051601  0.00025162  1
  I  I91  1  0.50430091  0.17055590  0.33344033  1
  I  I92  1  0.50502043  0.17577009  0.66629146  1
  I  I93  1  0.50367549  0.49592250  0.00029191  1
  I  I94  1  0.50470371  0.49631109  0.33247382  1
  I  I95  1  0.50569777  0.49079858  0.66723268  1
  I  I96  1  0.50609667  0.83459074  0.00366387  1
  I  I97  1  0.50649170  0.83280164  0.32978559  1
  I  I98  1  0.50132206  0.83343457  0.66676047  1
  I  I99  1  0.83217112  0.16319843  -0.00001002  1
  I  I100  1  0.82566302  0.16267834  0.33646476  1
  I  I101  1  0.82588558  0.16209887  0.66346824  1
  I  I102  1  0.82363021  0.50956329  0.00026253  1
  I  I103  1  0.82724538  0.50415483  0.33070973  1
  I  I104  1  0.82777184  0.50430404  0.66902415  1
  I  I105  1  0.82792970  0.82751545  0.00066535  1
  I  I106  1  0.82785990  0.83255718  0.33251937  1
  I  I107  1  0.83233263  0.83250507  0.66679012  1
  I  I108  1  -0.00022990  0.16621252  0.16882762  1
  I  I109  1  -0.00299728  0.16164543  0.49986785  1
  I  I110  1  -0.00028415  0.16628494  0.83128538  1
  I  I111  1  -0.00416998  0.50694923  0.16313633  1
  I  I112  1  -0.00027650  0.49979733  0.49986287  1
  I  I113  1  -0.00402876  0.50595321  0.83725549  1
  I  I114  1  -0.00469604  0.82709020  0.16775017  1
  I  I115  1  -0.00612358  0.83894350  0.49675579  1
  I  I116  1  -0.00618788  0.82638542  0.83530243  1
  I  I117  1  0.33968200  0.16790676  0.17011558  1
  I  I118  1  0.33784168  0.17280725  0.49853095  1
  I  I119  1  0.33946311  0.17429619  0.83216759  1
  I  I120  1  0.33782952  0.49950605  0.16631989  1
  I  I121  1  0.33970287  0.49158748  0.49818675  1
  I  I122  1  0.33750913  0.49408608  0.83465309  1
  I  I123  1  0.33669972  0.83312605  0.16712409  1
  I  I124  1  0.33348102  0.83333605  0.49832581  1
  I  I125  1  0.33354264  0.83387430  0.83459079  1
  I  I126  1  0.66300002  0.16691890  0.16532836  1
  I  I127  1  0.66516221  0.16620606  0.49952692  1
  I  I128  1  0.66309967  0.16851097  0.83558151  1
  I  I129  1  0.66541716  0.50127412  0.16582530  1
  I  I130  1  0.66354635  0.49793721  0.49926714  1
  I  I131  1  0.66583143  0.50014396  0.83479821  1
  I  I132  1  0.66714636  0.83228508  0.16702072  1
  I  I133  1  0.66985480  0.83513362  0.50153967  1
  I  I134  1  0.66996585  0.83204534  0.83119268  1
