# generated using pymatgen
data_Cs27Sn14Pb13I81
_symmetry_space_group_name_H-M   'P 1'
_cell_length_a   18.97220019
_cell_length_b   18.97220016
_cell_length_c   18.98725834
_cell_angle_alpha   89.99840440
_cell_angle_beta   90.00159542
_cell_angle_gamma   89.99977047
_symmetry_Int_Tables_number   1
_chemical_formula_structural   Cs27Sn14Pb13I81
_chemical_formula_sum   'Cs27 Sn14 Pb13 I81'
_cell_volume   6834.35691474
_cell_formula_units_Z   1
loop_
 _symmetry_equiv_pos_site_id
 _symmetry_equiv_pos_as_xyz
  1  'x, y, z'
loop_
 _atom_site_type_symbol
 _atom_site_label
 _atom_site_symmetry_multiplicity
 _atom_site_fract_x
 _atom_site_fract_y
 _atom_site_fract_z
 _atom_site_occupancy
  Cs  Cs0  1  0.00088166  -0.00366579  0.00212173  1
  Cs  Cs1  1  -0.00125205  0.00087392  0.33262790  1
  Cs  Cs2  1  0.00055200  0.00385132  0.66496740  1
  Cs  Cs3  1  -0.00026960  0.33360291  0.00054864  1
  Cs  Cs4  1  0.00007035  0.33326301  0.33382370  1
  Cs  Cs5  1  0.00075533  0.33257804  0.66567116  1
  Cs  Cs6  1  -0.00089805  0.67169006  -0.00029100  1
  Cs  Cs7  1  0.00028464  0.66416087  0.33107286  1
  Cs  Cs8  1  -0.00166963  0.66405240  0.66943476  1
  Cs  Cs9  1  0.33581257  -0.00247927  -0.00170887  1
  Cs  Cs10  1  0.33214080  0.00119252  0.33229460  1
  Cs  Cs11  1  0.33337261  -0.00003936  0.66835611  1
  Cs  Cs12  1  0.33699920  0.33245172  0.00212159  1
  Cs  Cs13  1  0.33245948  0.33458539  0.33262781  1
  Cs  Cs14  1  0.32948225  0.33278122  0.66496750  1
  Cs  Cs15  1  0.33269507  0.67120095  0.00026468  1
  Cs  Cs16  1  0.33549939  0.66474318  0.33379309  1
  Cs  Cs17  1  0.33865396  0.66960482  0.66508858  1
  Cs  Cs18  1  0.66213275  0.00063821  0.00026473  1
  Cs  Cs19  1  0.66859032  -0.00216596  0.33379294  1
  Cs  Cs20  1  0.66372869  -0.00532071  0.66508866  1
  Cs  Cs21  1  0.66164335  0.33423148  -0.00029099  1
  Cs  Cs22  1  0.66917215  0.33304864  0.33107300  1
  Cs  Cs23  1  0.66928076  0.33500281  0.66943451  1
  Cs  Cs24  1  0.66834434  0.66498890  -0.01059077  1
  Cs  Cs25  1  0.66298798  0.67034534  0.33593300  1
  Cs  Cs26  1  0.65958074  0.67375271  0.67362933  1
  Sn  Sn27  1  0.83434472  0.16679809  0.83354716  1
  Sn  Sn28  1  0.83370238  0.49963098  0.49954324  1
  Sn  Sn29  1  0.16603396  0.16729938  0.16649868  1
  Sn  Sn30  1  0.83320475  0.16751131  0.50008480  1
  Sn  Sn31  1  0.16582208  0.50012858  0.50008481  1
  Sn  Sn32  1  0.83404161  0.49929174  0.16742737  1
  Sn  Sn33  1  0.50015740  0.83317595  0.16704897  1
  Sn  Sn34  1  0.16563647  0.16769691  0.83377865  1
  Sn  Sn35  1  0.16653525  0.49898863  0.83354716  1
  Sn  Sn36  1  0.16656712  0.16676625  0.49973739  1
  Sn  Sn37  1  0.16583709  0.83295919  0.49973197  1
  Sn  Sn38  1  0.83426699  0.16755977  0.16634429  1
  Sn  Sn39  1  0.50037414  0.16749620  0.49973197  1
  Sn  Sn40  1  0.16577362  0.49906633  0.16634428  1
  Pb  Pb41  1  0.83391260  0.83692555  0.83320123  1
  Pb  Pb42  1  0.49640781  0.49942078  0.83320121  1
  Pb  Pb43  1  0.83565341  0.83251519  0.49991688  1
  Pb  Pb44  1  0.50081812  0.49767998  0.49991688  1
  Pb  Pb45  1  0.83129843  0.83271445  0.16684465  1
  Pb  Pb46  1  0.50061884  0.50203491  0.16684462  1
  Pb  Pb47  1  0.49966621  0.83366716  0.83603312  1
  Pb  Pb48  1  0.83536925  0.49796410  0.83320765  1
  Pb  Pb49  1  0.16632834  0.83360715  0.83055676  1
  Pb  Pb50  1  0.49972621  0.16700500  0.83055679  1
  Pb  Pb51  1  0.16767039  0.83323063  0.16872267  1
  Pb  Pb52  1  0.50010269  0.16566295  0.16872266  1
  Pb  Pb53  1  0.49741179  0.83592165  0.49844681  1
  I  I54  1  0.16389664  0.00349204  0.16762947  1
  I  I55  1  0.16710064  0.00240261  0.49986467  1
  I  I56  1  0.16368470  0.00391149  0.83296977  1
  I  I57  1  0.16432909  0.33268129  0.17104296  1
  I  I58  1  0.16678647  0.33262984  0.50028161  1
  I  I59  1  0.16313100  0.33207432  0.82824730  1
  I  I60  1  0.16401543  0.66312609  0.16700232  1
  I  I61  1  0.16227156  0.66496988  0.49901512  1
  I  I62  1  0.16725036  0.66331844  0.83407860  1
  I  I63  1  0.49849673  -0.00192895  0.16902814  1
  I  I64  1  0.50041455  0.00385197  0.49925761  1
  I  I65  1  0.49784983  0.00055340  0.83268272  1
  I  I66  1  0.49901744  0.33335854  0.16721336  1
  I  I67  1  0.49356638  0.32972592  0.49825412  1
  I  I68  1  0.50184379  0.33280342  0.83548076  1
  I  I69  1  0.49707075  0.66949134  0.16917194  1
  I  I70  1  0.49885051  0.66678125  0.49904622  1
  I  I71  1  0.49936198  0.66668251  0.83244217  1
  I  I72  1  0.83724751  0.00375600  0.16788131  1
  I  I73  1  0.83457156  0.00384156  0.49941514  1
  I  I74  1  0.84093649  0.00571810  0.83270023  1
  I  I75  1  0.83739912  0.33223134  0.16893084  1
  I  I76  1  0.83834307  0.33193495  0.49898325  1
  I  I77  1  0.83604146  0.32965399  0.83185474  1
  I  I78  1  0.83847712  0.66264846  0.17289162  1
  I  I79  1  0.83991751  0.66266543  0.49304296  1
  I  I80  1  0.83409086  0.66612023  0.83388077  1
  I  I81  1  0.16055358  0.17277977  0.00053551  1
  I  I82  1  0.16541259  0.16792055  0.33385811  1
  I  I83  1  0.16502107  0.16831231  0.66560702  1
  I  I84  1  0.16370575  0.49275412  0.00095496  1
  I  I85  1  0.16395809  0.49728793  0.33367239  1
  I  I86  1  0.16325679  0.49622632  0.66537294  1
  I  I87  1  0.16954987  0.83373631  0.00015348  1
  I  I88  1  0.16779507  0.83562652  0.33640837  1
  I  I89  1  0.16753163  0.83535475  0.66261198  1
  I  I90  1  0.49959724  0.16378269  0.00015343  1
  I  I91  1  0.49770701  0.16553846  0.33640839  1
  I  I92  1  0.49797802  0.16580253  0.66261200  1
  I  I93  1  0.50079380  0.50033979  0.00016031  1
  I  I94  1  0.49399296  0.50044562  0.33341432  1
  I  I95  1  0.50054158  0.50035365  0.66641091  1
  I  I96  1  0.49719589  0.83613818  0.00354780  1
  I  I97  1  0.49947605  0.83385663  0.33116526  1
  I  I98  1  0.49935525  0.83397769  0.66644243  1
  I  I99  1  0.84057889  0.16962757  0.00095493  1
  I  I100  1  0.83604543  0.16937510  0.33367238  1
  I  I101  1  0.83710730  0.17007644  0.66537293  1
  I  I102  1  0.83685242  0.49648093  0.00294159  1
  I  I103  1  0.84227794  0.49105547  0.33361370  1
  I  I104  1  0.83907536  0.49425805  0.66365062  1
  I  I105  1  0.83299369  0.83253961  0.00016031  1
  I  I106  1  0.83288777  0.83934058  0.33341432  1
  I  I107  1  0.83297913  0.83279169  0.66641088  1
  I  I108  1  0.00065206  0.16900431  0.17104273  1
  I  I109  1  0.00070348  0.16654655  0.50028159  1
  I  I110  1  0.00125903  0.17020226  0.82824744  1
  I  I111  1  0.00110197  0.49593428  0.16893088  1
  I  I112  1  0.00139837  0.49499018  0.49898323  1
  I  I113  1  0.00367934  0.49729203  0.83185464  1
  I  I114  1  -0.00002519  0.83431570  0.16721364  1
  I  I115  1  0.00360750  0.83976749  0.49825440  1
  I  I116  1  0.00052992  0.83148924  0.83547997  1
  I  I117  1  0.32984130  0.16943655  0.16762950  1
  I  I118  1  0.33093072  0.16623303  0.49986439  1
  I  I119  1  0.32942186  0.16964865  0.83297006  1
  I  I120  1  0.32957733  0.49608587  0.16788149  1
  I  I121  1  0.32949172  0.49876153  0.49941503  1
  I  I122  1  0.32761521  0.49239671  0.83270009  1
  I  I123  1  0.33526228  0.83483658  0.16902729  1
  I  I124  1  0.32948142  0.83291878  0.49925742  1
  I  I125  1  0.33277995  0.83548335  0.83268384  1
  I  I126  1  0.67020726  0.16931795  0.16700246  1
  I  I127  1  0.66836344  0.17106177  0.49901544  1
  I  I128  1  0.67001493  0.16608305  0.83407811  1
  I  I129  1  0.67068481  0.49485596  0.17289163  1
  I  I130  1  0.67066791  0.49341625  0.49304302  1
  I  I131  1  0.66721306  0.49924228  0.83388075  1
  I  I132  1  0.66384203  0.83626281  0.16917243  1
  I  I133  1  0.66655209  0.83448259  0.49904608  1
  I  I134  1  0.66665081  0.83397142  0.83244216  1
