# generated using pymatgen
data_Cs27Sn13Pb14I81
_symmetry_space_group_name_H-M   'P 1'
_cell_length_a   19.00270081
_cell_length_b   18.98990705
_cell_length_c   18.98241377
_cell_angle_alpha   90.00154077
_cell_angle_beta   90.00044401
_cell_angle_gamma   90.00105785
_symmetry_Int_Tables_number   1
_chemical_formula_structural   Cs27Sn13Pb14I81
_chemical_formula_sum   'Cs27 Sn13 Pb14 I81'
_cell_volume   6849.98475743
_cell_formula_units_Z   1
loop_
 _symmetry_equiv_pos_site_id
 _symmetry_equiv_pos_as_xyz
  1  'x, y, z'
loop_
 _atom_site_type_symbol
 _atom_site_label
 _atom_site_symmetry_multiplicity
 _atom_site_fract_x
 _atom_site_fract_y
 _atom_site_fract_z
 _atom_site_occupancy
  Cs  Cs0  1  0.00100885  -0.00197780  0.00122196  1
  Cs  Cs1  1  -0.00403653  -0.00307386  0.33365815  1
  Cs  Cs2  1  -0.00045075  -0.00115555  0.66645767  1
  Cs  Cs3  1  0.00370596  0.33574337  -0.00235375  1
  Cs  Cs4  1  0.00249071  0.33169369  0.34148962  1
  Cs  Cs5  1  -0.00047243  0.33417839  0.66321892  1
  Cs  Cs6  1  0.00160762  0.66604585  0.00265598  1
  Cs  Cs7  1  0.00075362  0.67005369  0.33143936  1
  Cs  Cs8  1  -0.00406326  0.66763270  0.66431527  1
  Cs  Cs9  1  0.33089446  0.00023783  -0.00307014  1
  Cs  Cs10  1  0.33663785  0.00425386  0.33637639  1
  Cs  Cs11  1  0.33619143  -0.00405702  0.66769236  1
  Cs  Cs12  1  0.33295373  0.33463225  -0.00007167  1
  Cs  Cs13  1  0.33189627  0.33255536  0.33761349  1
  Cs  Cs14  1  0.33005422  0.33253019  0.66544302  1
  Cs  Cs15  1  0.33318726  0.66622898  0.00105336  1
  Cs  Cs16  1  0.33551227  0.66459666  0.33250896  1
  Cs  Cs17  1  0.33760819  0.67113801  0.66457653  1
  Cs  Cs18  1  0.66806431  0.00313760  0.00124753  1
  Cs  Cs19  1  0.66757589  0.00992969  0.33097990  1
  Cs  Cs20  1  0.66586827  -0.00456612  0.66716534  1
  Cs  Cs21  1  0.66459374  0.33432427  -0.00057671  1
  Cs  Cs22  1  0.66659232  0.32351473  0.33680958  1
  Cs  Cs23  1  0.67169554  0.33698738  0.66643995  1
  Cs  Cs24  1  0.66540165  0.66282968  0.00167102  1
  Cs  Cs25  1  0.66278097  0.66591781  0.33151378  1
  Cs  Cs26  1  0.66809387  0.66835746  0.66294568  1
  Sn  Sn27  1  0.16657786  0.49896546  0.16608352  1
  Sn  Sn28  1  0.16752680  0.49985779  0.83362273  1
  Sn  Sn29  1  0.16645151  0.83316593  0.49998833  1
  Sn  Sn30  1  0.49894117  0.49933399  0.83367794  1
  Sn  Sn31  1  0.83375275  0.16597530  0.83378070  1
  Sn  Sn32  1  0.83337855  0.49932940  0.16701046  1
  Sn  Sn33  1  0.83354161  0.83357007  0.83366638  1
  Sn  Sn34  1  0.83383071  0.83317795  0.50003338  1
  Sn  Sn35  1  0.16658466  0.16726560  0.83407684  1
  Sn  Sn36  1  0.49991746  0.83350022  0.16609645  1
  Sn  Sn37  1  0.50004119  0.50008761  0.16613423  1
  Sn  Sn38  1  0.49976021  0.16776156  0.83367038  1
  Sn  Sn39  1  0.16644602  0.16734235  0.16595859  1
  Pb  Pb40  1  0.83118008  0.83186224  0.16657882  1
  Pb  Pb41  1  0.16867022  0.83345091  0.16849667  1
  Pb  Pb42  1  0.50086847  0.83336737  0.49696383  1
  Pb  Pb43  1  0.16662816  0.16416576  0.50063777  1
  Pb  Pb44  1  0.50000826  0.49971907  0.50028736  1
  Pb  Pb45  1  0.49761654  0.16772406  0.16457819  1
  Pb  Pb46  1  0.83345885  0.16420067  0.50298233  1
  Pb  Pb47  1  0.49992328  0.16694687  0.50405932  1
  Pb  Pb48  1  0.16481258  0.83272450  0.83196245  1
  Pb  Pb49  1  0.83328781  0.50242135  0.49643995  1
  Pb  Pb50  1  0.16675829  0.50230932  0.50039075  1
  Pb  Pb51  1  0.83352331  0.49998986  0.83460801  1
  Pb  Pb52  1  0.50234167  0.83272102  0.83538173  1
  Pb  Pb53  1  0.83626342  0.16952988  0.16413506  1
  I  I54  1  0.16877929  0.00268250  0.16192975  1
  I  I55  1  0.16217176  -0.00330124  0.49978530  1
  I  I56  1  0.16886716  0.00296801  0.83646169  1
  I  I57  1  0.16861312  0.33455386  0.16152520  1
  I  I58  1  0.16717485  0.33327083  0.49959088  1
  I  I59  1  0.16551981  0.33325013  0.83742449  1
  I  I60  1  0.16545962  0.66330662  0.16297848  1
  I  I61  1  0.16187629  0.66978976  0.49989637  1
  I  I62  1  0.16999062  0.66337564  0.83785972  1
  I  I63  1  0.49888750  -0.00152444  0.16602524  1
  I  I64  1  0.49884842  -0.00018255  0.49863188  1
  I  I65  1  0.49718414  0.00247134  0.83492104  1
  I  I66  1  0.50188702  0.33679297  0.16327733  1
  I  I67  1  0.49970555  0.33328395  0.49348281  1
  I  I68  1  0.50142438  0.33387799  0.84025086  1
  I  I69  1  0.49810650  0.66463748  0.16114099  1
  I  I70  1  0.49981115  0.66686823  0.50476660  1
  I  I71  1  0.49592482  0.66346157  0.83615877  1
  I  I72  1  0.83264047  0.00033505  0.16850313  1
  I  I73  1  0.83810705  -0.00368485  0.49991023  1
  I  I74  1  0.83330253  0.00051911  0.82965661  1
  I  I75  1  0.82662202  0.33727840  0.16281143  1
  I  I76  1  0.83257102  0.33319770  0.50079085  1
  I  I77  1  0.83292250  0.33085977  0.83705678  1
  I  I78  1  0.83812937  0.66389544  0.16339199  1
  I  I79  1  0.83758349  0.67019657  0.50955301  1
  I  I80  1  0.83340558  0.66884740  0.83042825  1
  I  I81  1  0.16679036  0.16986614  -0.00135232  1
  I  I82  1  0.16781661  0.17156919  0.33045531  1
  I  I83  1  0.16646985  0.17098024  0.67073335  1
  I  I84  1  0.16730640  0.49703435  0.00019648  1
  I  I85  1  0.16769934  0.49658716  0.32971221  1
  I  I86  1  0.17080624  0.49557046  0.67041738  1
  I  I87  1  0.16546777  0.83357660  0.00001892  1
  I  I88  1  0.15949530  0.83305138  0.33607695  1
  I  I89  1  0.16524419  0.83352000  0.66416006  1
  I  I90  1  0.50232094  0.16745393  -0.00350077  1
  I  I91  1  0.49862915  0.16560363  0.33291197  1
  I  I92  1  0.49631158  0.17113774  0.67256923  1
  I  I93  1  0.49926571  0.50064379  0.00013895  1
  I  I94  1  0.49865943  0.50671979  0.32946694  1
  I  I95  1  0.49491206  0.49574526  0.67086017  1
  I  I96  1  0.50066366  0.83016114  0.00280951  1
  I  I97  1  0.50009999  0.82492893  0.32932655  1
  I  I98  1  0.49894936  0.83368228  0.66684789  1
  I  I99  1  0.83122043  0.15871082  -0.00386404  1
  I  I100  1  0.83423250  0.16591612  0.33299344  1
  I  I101  1  0.83611766  0.16767088  0.67143773  1
  I  I102  1  0.83338349  0.50329607  0.00246322  1
  I  I103  1  0.83408950  0.50304266  0.32829476  1
  I  I104  1  0.83326341  0.49847769  0.66685584  1
  I  I105  1  0.83187504  0.83673257  -0.00257337  1
  I  I106  1  0.83729589  0.82894510  0.33564142  1
  I  I107  1  0.83674908  0.83698866  0.66736461  1
  I  I108  1  0.00388928  0.17032971  0.16007489  1
  I  I109  1  0.00009411  0.16782990  0.50173349  1
  I  I110  1  0.00080866  0.16660090  0.83726111  1
  I  I111  1  0.00137164  0.49741748  0.16092189  1
  I  I112  1  0.00006953  0.49942057  0.50091753  1
  I  I113  1  0.00274940  0.49745776  0.83849386  1
  I  I114  1  0.00000057  0.83179557  0.16602300  1
  I  I115  1  -0.00067860  0.83291514  0.50360710  1
  I  I116  1  -0.00300240  0.83666542  0.83267832  1
  I  I117  1  0.33003200  0.17007211  0.16092545  1
  I  I118  1  0.33300123  0.16242014  0.50087545  1
  I  I119  1  0.33268269  0.17116469  0.83768494  1
  I  I120  1  0.33315147  0.50152397  0.16179153  1
  I  I121  1  0.33317475  0.50438300  0.49629921  1
  I  I122  1  0.33307511  0.49259353  0.84171071  1
  I  I123  1  0.33604844  0.82684593  0.16725856  1
  I  I124  1  0.33124632  0.83315669  0.49942713  1
  I  I125  1  0.33340038  0.83608826  0.83123136  1
  I  I126  1  0.66663221  0.16639055  0.16592877  1
  I  I127  1  0.66683043  0.16330232  0.49826561  1
  I  I128  1  0.66654326  0.16643555  0.83278959  1
  I  I129  1  0.66556386  0.50781601  0.16100875  1
  I  I130  1  0.66676484  0.50428079  0.50218480  1
  I  I131  1  0.66423650  0.49713571  0.83851009  1
  I  I132  1  0.66360528  0.82629489  0.16688944  1
  I  I133  1  0.66975858  0.83216155  0.50560050  1
  I  I134  1  0.67006203  0.83670683  0.82751112  1
