# generated using pymatgen
data_Cs27Sn13Pb14I81
_symmetry_space_group_name_H-M   'P 1'
_cell_length_a   18.98776706
_cell_length_b   18.98960019
_cell_length_c   18.99782814
_cell_angle_alpha   89.99918868
_cell_angle_beta   90.00008863
_cell_angle_gamma   89.99905502
_symmetry_Int_Tables_number   1
_chemical_formula_structural   Cs27Sn13Pb14I81
_chemical_formula_sum   'Cs27 Sn13 Pb14 I81'
_cell_volume   6850.04888414
_cell_formula_units_Z   1
loop_
 _symmetry_equiv_pos_site_id
 _symmetry_equiv_pos_as_xyz
  1  'x, y, z'
loop_
 _atom_site_type_symbol
 _atom_site_label
 _atom_site_symmetry_multiplicity
 _atom_site_fract_x
 _atom_site_fract_y
 _atom_site_fract_z
 _atom_site_occupancy
  Cs  Cs0  1  0.00226294  0.00183897  -0.00031652  1
  Cs  Cs1  1  0.00151907  0.00043158  0.33244447  1
  Cs  Cs2  1  -0.00049066  0.00088816  0.66791674  1
  Cs  Cs3  1  -0.00020201  0.33072063  0.00194018  1
  Cs  Cs4  1  0.00316554  0.33523465  0.33300100  1
  Cs  Cs5  1  -0.00197109  0.33055106  0.66500801  1
  Cs  Cs6  1  0.00196652  0.66324044  -0.00029002  1
  Cs  Cs7  1  -0.00067482  0.66584806  0.33081944  1
  Cs  Cs8  1  -0.00240122  0.66690619  0.66863685  1
  Cs  Cs9  1  0.33020365  -0.00094260  0.00055448  1
  Cs  Cs10  1  0.33081183  -0.00039305  0.33363023  1
  Cs  Cs11  1  0.33286412  0.00013035  0.66528852  1
  Cs  Cs12  1  0.34136816  0.33989450  -0.00065670  1
  Cs  Cs13  1  0.33752925  0.34110646  0.34213403  1
  Cs  Cs14  1  0.34191280  0.33894727  0.65877733  1
  Cs  Cs15  1  0.32918483  0.66274751  -0.00233061  1
  Cs  Cs16  1  0.33343716  0.66595326  0.33280032  1
  Cs  Cs17  1  0.33152391  0.66391130  0.67025100  1
  Cs  Cs18  1  0.66651072  0.00058844  0.00150804  1
  Cs  Cs19  1  0.66662595  -0.00229281  0.33010221  1
  Cs  Cs20  1  0.66811613  -0.00135058  0.66771282  1
  Cs  Cs21  1  0.65803697  0.33160627  0.00533122  1
  Cs  Cs22  1  0.65968349  0.33308662  0.32427810  1
  Cs  Cs23  1  0.66722379  0.33399965  0.66818481  1
  Cs  Cs24  1  0.66862507  0.66825884  0.00183343  1
  Cs  Cs25  1  0.66793292  0.66968007  0.33300392  1
  Cs  Cs26  1  0.66965644  0.66829017  0.66591961  1
  Sn  Sn27  1  0.83372768  0.83375743  0.50070107  1
  Sn  Sn28  1  0.83382141  0.16684837  0.83295576  1
  Sn  Sn29  1  0.83353787  0.49948505  0.83304484  1
  Sn  Sn30  1  0.83307049  0.16666092  0.50009521  1
  Sn  Sn31  1  0.16718449  0.16655378  0.16603592  1
  Sn  Sn32  1  0.16619222  0.83346373  0.49953834  1
  Sn  Sn33  1  0.83325742  0.49963058  0.50032462  1
  Sn  Sn34  1  0.49862995  0.83383817  0.16626207  1
  Sn  Sn35  1  0.83291429  0.83356887  0.83289235  1
  Sn  Sn36  1  0.16730818  0.83400173  0.16725211  1
  Sn  Sn37  1  0.50057336  0.83382946  0.83339062  1
  Sn  Sn38  1  0.49990821  0.83366602  0.50037469  1
  Sn  Sn39  1  0.16696326  0.16707631  0.83358017  1
  Pb  Pb40  1  0.16401308  0.50298069  0.50029375  1
  Pb  Pb41  1  0.49994652  0.50342723  0.16673350  1
  Pb  Pb42  1  0.16510828  0.16510213  0.50025984  1
  Pb  Pb43  1  0.83408588  0.83342625  0.16633424  1
  Pb  Pb44  1  0.50319432  0.16429757  0.50007489  1
  Pb  Pb45  1  0.50339347  0.50304023  0.50014361  1
  Pb  Pb46  1  0.50005938  0.16454920  0.83319911  1
  Pb  Pb47  1  0.83523495  0.16655299  0.16656231  1
  Pb  Pb48  1  0.49617256  0.16428542  0.16680677  1
  Pb  Pb49  1  0.16428792  0.49572753  0.83313251  1
  Pb  Pb50  1  0.50304422  0.50308738  0.83316143  1
  Pb  Pb51  1  0.16632788  0.83454228  0.83328712  1
  Pb  Pb52  1  0.16666842  0.49956476  0.16658595  1
  Pb  Pb53  1  0.83337163  0.49973343  0.16654429  1
  I  I54  1  0.16934815  -0.00141775  0.16675786  1
  I  I55  1  0.16365155  -0.00364498  0.49867434  1
  I  I56  1  0.15938781  0.00209119  0.83438305  1
  I  I57  1  0.16080906  0.32973869  0.16131839  1
  I  I58  1  0.16399582  0.33325332  0.49837112  1
  I  I59  1  0.15889515  0.32792204  0.84070461  1
  I  I60  1  0.17035611  0.67035524  0.17115770  1
  I  I61  1  0.16512255  0.67186090  0.49386096  1
  I  I62  1  0.16625646  0.66665058  0.83412853  1
  I  I63  1  0.50033663  -0.00429861  0.16726385  1
  I  I64  1  0.50285412  -0.00473527  0.50027134  1
  I  I65  1  0.50729543  -0.00412210  0.83267573  1
  I  I66  1  0.50036379  0.33322230  0.16587687  1
  I  I67  1  0.49957019  0.33359686  0.49920219  1
  I  I68  1  0.50027903  0.33344022  0.83495501  1
  I  I69  1  0.49438204  0.67213529  0.16736480  1
  I  I70  1  0.50226550  0.67174538  0.49941634  1
  I  I71  1  0.50418633  0.67170896  0.83285034  1
  I  I72  1  0.83117785  -0.00032138  0.16713221  1
  I  I73  1  0.83337358  -0.00146790  0.50628830  1
  I  I74  1  0.83329026  -0.00049481  0.82711918  1
  I  I75  1  0.83676003  0.33313689  0.16782626  1
  I  I76  1  0.83614770  0.33294226  0.50834814  1
  I  I77  1  0.84079051  0.33263896  0.82519707  1
  I  I78  1  0.83471943  0.66705593  0.16643659  1
  I  I79  1  0.83298960  0.66840171  0.50587757  1
  I  I80  1  0.82817893  0.66788503  0.82699666  1
  I  I81  1  0.15794186  0.15720214  -0.00028252  1
  I  I82  1  0.16340310  0.16104590  0.33105954  1
  I  I83  1  0.16142898  0.16248614  0.66932957  1
  I  I84  1  0.16231018  0.50707122  -0.00026388  1
  I  I85  1  0.16261242  0.49661175  0.33354584  1
  I  I86  1  0.16814223  0.50255288  0.66675215  1
  I  I87  1  0.16937815  0.83580969  0.00229749  1
  I  I88  1  0.16829846  0.83902662  0.33342137  1
  I  I89  1  0.16748669  0.83503142  0.66414508  1
  I  I90  1  0.50623258  0.16248377  -0.00001495  1
  I  I91  1  0.50236004  0.16292970  0.33336227  1
  I  I92  1  0.49429988  0.16256086  0.66667795  1
  I  I93  1  0.50342304  0.50237529  -0.00021605  1
  I  I94  1  0.50310262  0.50168320  0.33360879  1
  I  I95  1  0.49695529  0.50220807  0.66663136  1
  I  I96  1  0.50146453  0.83417207  -0.00023556  1
  I  I97  1  0.50111481  0.83358698  0.33383285  1
  I  I98  1  0.50246694  0.83400921  0.66643507  1
  I  I99  1  0.83579932  0.16469711  -0.00359150  1
  I  I100  1  0.83465303  0.16375231  0.33658499  1
  I  I101  1  0.83958751  0.16466640  0.66740680  1
  I  I102  1  0.83420962  0.50286137  -0.00369979  1
  I  I103  1  0.83413994  0.50336933  0.33692798  1
  I  I104  1  0.83387878  0.50225984  0.66670018  1
  I  I105  1  0.82989761  0.83341823  -0.00349993  1
  I  I106  1  0.83085960  0.83306531  0.33670719  1
  I  I107  1  0.83096491  0.83336031  0.66620226  1
  I  I108  1  0.00294958  0.15729807  0.16519263  1
  I  I109  1  -0.00344398  0.16239218  0.50177006  1
  I  I110  1  -0.00165577  0.16256918  0.83345953  1
  I  I111  1  0.00006578  0.50524555  0.16721783  1
  I  I112  1  -0.00428612  0.50334127  0.50420245  1
  I  I113  1  -0.00424857  0.50880166  0.82917583  1
  I  I114  1  0.00314497  0.83680251  0.17048524  1
  I  I115  1  -0.00132648  0.83342823  0.50000120  1
  I  I116  1  -0.00326852  0.83199727  0.82971384  1
  I  I117  1  0.32839102  0.16132150  0.15911312  1
  I  I118  1  0.33325417  0.16368145  0.50038127  1
  I  I119  1  0.33030573  0.16052200  0.83918853  1
  I  I120  1  0.33333331  0.49865842  0.16586576  1
  I  I121  1  0.33364017  0.50023180  0.49863278  1
  I  I122  1  0.33354063  0.50113020  0.83535233  1
  I  I123  1  0.33311895  0.83819153  0.17054230  1
  I  I124  1  0.33334033  0.83528681  0.49929428  1
  I  I125  1  0.33557341  0.83671170  0.83051865  1
  I  I126  1  0.66627586  0.16607596  0.16644926  1
  I  I127  1  0.67177575  0.16390212  0.50807627  1
  I  I128  1  0.67044528  0.16732918  0.82787519  1
  I  I129  1  0.66661906  0.50158762  0.16688351  1
  I  I130  1  0.67136119  0.50309428  0.50570977  1
  I  I131  1  0.67131521  0.49579979  0.82784068  1
  I  I132  1  0.66431478  0.83187695  0.16911164  1
  I  I133  1  0.66774772  0.83284809  0.50027507  1
  I  I134  1  0.66810208  0.83471974  0.83034134  1
