# generated using pymatgen
data_Cs27Sn13Pb14I81
_symmetry_space_group_name_H-M   'P 1'
_cell_length_a   18.98903075
_cell_length_b   18.98986527
_cell_length_c   18.99610707
_cell_angle_alpha   90.00132379
_cell_angle_beta   89.99875681
_cell_angle_gamma   89.99963368
_symmetry_Int_Tables_number   1
_chemical_formula_structural   Cs27Sn13Pb14I81
_chemical_formula_sum   'Cs27 Sn13 Pb14 I81'
_cell_volume   6849.97978644
_cell_formula_units_Z   1
loop_
 _symmetry_equiv_pos_site_id
 _symmetry_equiv_pos_as_xyz
  1  'x, y, z'
loop_
 _atom_site_type_symbol
 _atom_site_label
 _atom_site_symmetry_multiplicity
 _atom_site_fract_x
 _atom_site_fract_y
 _atom_site_fract_z
 _atom_site_occupancy
  Cs  Cs0  1  -0.00055060  0.00121318  -0.00071366  1
  Cs  Cs1  1  0.00103200  -0.00169514  0.33270966  1
  Cs  Cs2  1  0.00250142  0.00048403  0.66942855  1
  Cs  Cs3  1  -0.00146982  0.33373686  0.00051515  1
  Cs  Cs4  1  0.00034548  0.33264931  0.33109620  1
  Cs  Cs5  1  -0.00180387  0.33607949  0.66810679  1
  Cs  Cs6  1  -0.00025452  0.66458257  -0.00089501  1
  Cs  Cs7  1  -0.00019483  0.67099806  0.33324235  1
  Cs  Cs8  1  -0.00076666  0.66429876  0.66782576  1
  Cs  Cs9  1  0.33304471  0.00202545  -0.00171965  1
  Cs  Cs10  1  0.32917815  0.00156805  0.33450404  1
  Cs  Cs11  1  0.33096183  -0.00016194  0.66806171  1
  Cs  Cs12  1  0.33310073  0.33408597  0.00169392  1
  Cs  Cs13  1  0.33412512  0.33454208  0.33156127  1
  Cs  Cs14  1  0.33324493  0.33294199  0.66601146  1
  Cs  Cs15  1  0.34130530  0.65837544  0.00098219  1
  Cs  Cs16  1  0.33656044  0.66231533  0.33002122  1
  Cs  Cs17  1  0.33825821  0.66729844  0.66970931  1
  Cs  Cs18  1  0.66823520  0.00054284  0.00044995  1
  Cs  Cs19  1  0.66813009  -0.00705277  0.33944375  1
  Cs  Cs20  1  0.66443524  -0.00043814  0.66243566  1
  Cs  Cs21  1  0.67105072  0.33075093  0.00009042  1
  Cs  Cs22  1  0.66730293  0.33342731  0.33999949  1
  Cs  Cs23  1  0.66938130  0.33964882  0.65729024  1
  Cs  Cs24  1  0.65666386  0.66815663  0.00078238  1
  Cs  Cs25  1  0.66116713  0.67560879  0.33683309  1
  Cs  Cs26  1  0.65856170  0.65743204  0.66183344  1
  Sn  Sn27  1  0.83294843  0.16713932  0.16646512  1
  Sn  Sn28  1  0.16635018  0.83281758  0.50036506  1
  Sn  Sn29  1  0.50059892  0.16662394  0.83388445  1
  Sn  Sn30  1  0.16611880  0.50020775  0.50000138  1
  Sn  Sn31  1  0.83298612  0.16582781  0.83366180  1
  Sn  Sn32  1  0.16649420  0.16631408  0.83361149  1
  Sn  Sn33  1  0.16586195  0.83378204  0.83414747  1
  Sn  Sn34  1  0.83320380  0.50015599  0.16674958  1
  Sn  Sn35  1  0.50062463  0.16632963  0.16624070  1
  Sn  Sn36  1  0.83366085  0.83376756  0.83320274  1
  Sn  Sn37  1  0.16613230  0.16706238  0.50012137  1
  Sn  Sn38  1  0.16667930  0.83373703  0.16551533  1
  Sn  Sn39  1  0.16653642  0.16605346  0.16632420  1
  Pb  Pb40  1  0.16662744  0.50017401  0.83147734  1
  Pb  Pb41  1  0.50024473  0.49598319  0.83356036  1
  Pb  Pb42  1  0.49692293  0.83662408  0.16644701  1
  Pb  Pb43  1  0.49675691  0.83372313  0.50017411  1
  Pb  Pb44  1  0.83557211  0.83332435  0.50368914  1
  Pb  Pb45  1  0.49706570  0.49975202  0.49960566  1
  Pb  Pb46  1  0.83593299  0.16642341  0.50014855  1
  Pb  Pb47  1  0.83513847  0.83378419  0.16445088  1
  Pb  Pb48  1  0.49742226  0.16649576  0.49990930  1
  Pb  Pb49  1  0.50003745  0.83581078  0.83335083  1
  Pb  Pb50  1  0.83561673  0.50030698  0.49674600  1
  Pb  Pb51  1  0.50366464  0.49676126  0.16682119  1
  Pb  Pb52  1  0.16512047  0.49994168  0.16830615  1
  Pb  Pb53  1  0.83335544  0.50035566  0.83535818  1
  I  I54  1  0.16494545  0.00172891  0.17087585  1
  I  I55  1  0.16707915  0.00042220  0.49970771  1
  I  I56  1  0.16641828  0.00147913  0.82963288  1
  I  I57  1  0.16841962  0.32951285  0.16667361  1
  I  I58  1  0.16686520  0.33194113  0.49956429  1
  I  I59  1  0.16600705  0.32935497  0.83378744  1
  I  I60  1  0.16277976  0.66962034  0.16757015  1
  I  I61  1  0.16497715  0.66767532  0.49946042  1
  I  I62  1  0.16054642  0.67037476  0.83279737  1
  I  I63  1  0.50390918  0.00464353  0.16172555  1
  I  I64  1  0.49808070  0.00044179  0.49951432  1
  I  I65  1  0.49753757  0.00404491  0.83790352  1
  I  I66  1  0.49127235  0.32865295  0.16193556  1
  I  I67  1  0.49615256  0.33286201  0.50117803  1
  I  I68  1  0.49693831  0.32766338  0.83817384  1
  I  I69  1  0.49925737  0.66669705  0.16740425  1
  I  I70  1  0.49803294  0.66666531  0.50024170  1
  I  I71  1  0.49898634  0.66680327  0.83244248  1
  I  I72  1  0.83317490  0.00369252  0.16409975  1
  I  I73  1  0.83545548  0.00000452  0.49399264  1
  I  I74  1  0.83646768  0.00188067  0.83983757  1
  I  I75  1  0.83701080  0.33034820  0.16053348  1
  I  I76  1  0.83743612  0.33314370  0.50455664  1
  I  I77  1  0.83560914  0.32953026  0.83589885  1
  I  I78  1  0.84009679  0.66487777  0.16557302  1
  I  I79  1  0.83897417  0.66683083  0.49928747  1
  I  I80  1  0.84352887  0.67001319  0.83466321  1
  I  I81  1  0.16672575  0.16066075  0.00004927  1
  I  I82  1  0.16684428  0.16405407  0.33259020  1
  I  I83  1  0.16725054  0.16413892  0.66744715  1
  I  I84  1  0.16596530  0.49969220  0.00017634  1
  I  I85  1  0.16486712  0.49861523  0.33619611  1
  I  I86  1  0.16580640  0.49781671  0.66343680  1
  I  I87  1  0.16195664  0.84333374  -0.00049504  1
  I  I88  1  0.16705574  0.83804030  0.33309765  1
  I  I89  1  0.16289177  0.83781777  0.66721759  1
  I  I90  1  0.49404595  0.16621938  -0.00000991  1
  I  I91  1  0.49827606  0.16791048  0.33008014  1
  I  I92  1  0.49840002  0.16538615  0.66986501  1
  I  I93  1  0.49683035  0.50309975  0.00042258  1
  I  I94  1  0.49868656  0.49617146  0.33303003  1
  I  I95  1  0.50032127  0.49816896  0.66653993  1
  I  I96  1  0.49643152  0.83097405  -0.00006163  1
  I  I97  1  0.49948166  0.83586816  0.33316345  1
  I  I98  1  0.49743712  0.83682082  0.66692548  1
  I  I99  1  0.83833116  0.16732808  0.00000565  1
  I  I100  1  0.83443535  0.17164657  0.33000524  1
  I  I101  1  0.83422755  0.16238123  0.67027671  1
  I  I102  1  0.83763871  0.49514736  0.00292945  1
  I  I103  1  0.83593398  0.48974995  0.32922785  1
  I  I104  1  0.83412688  0.49865395  0.66653980  1
  I  I105  1  0.84186088  0.83636259  -0.00322155  1
  I  I106  1  0.83553862  0.83376949  0.33323876  1
  I  I107  1  0.84114915  0.84250225  0.67158317  1
  I  I108  1  0.00086587  0.16727328  0.16474095  1
  I  I109  1  0.00469733  0.16562385  0.49943517  1
  I  I110  1  0.00078918  0.16313640  0.83561392  1
  I  I111  1  -0.00226130  0.49158925  0.16676394  1
  I  I112  1  0.00386243  0.49864596  0.50072115  1
  I  I113  1  0.00010930  0.49488126  0.83280440  1
  I  I114  1  0.00373100  0.83957735  0.16969918  1
  I  I115  1  0.00461140  0.83539412  0.49684488  1
  I  I116  1  0.00177109  0.84234552  0.83301371  1
  I  I117  1  0.33174817  0.16180272  0.16458519  1
  I  I118  1  0.32842789  0.16559832  0.50008064  1
  I  I119  1  0.33167823  0.16326856  0.83511295  1
  I  I120  1  0.33351266  0.50019873  0.16855999  1
  I  I121  1  0.32863229  0.49888322  0.49823658  1
  I  I122  1  0.33321246  0.50045180  0.83309285  1
  I  I123  1  0.32813604  0.83842140  0.16542813  1
  I  I124  1  0.32759535  0.83571956  0.50350173  1
  I  I125  1  0.32953258  0.83841577  0.83105443  1
  I  I126  1  0.66732225  0.17302116  0.15650177  1
  I  I127  1  0.66675206  0.16837246  0.50024338  1
  I  I128  1  0.66758966  0.16215160  0.84358792  1
  I  I129  1  0.67118646  0.49371440  0.16422568  1
  I  I130  1  0.66673846  0.49872775  0.50075028  1
  I  I131  1  0.66679261  0.50172222  0.83318190  1
  I  I132  1  0.66670141  0.83295943  0.16497631  1
  I  I133  1  0.66677235  0.83290567  0.50000354  1
  I  I134  1  0.66979673  0.83926900  0.83631650  1
