# generated using pymatgen
data_Cs27Sn13Pb14I81
_symmetry_space_group_name_H-M   'P 1'
_cell_length_a   18.97934664
_cell_length_b   18.97796115
_cell_length_c   18.97366125
_cell_angle_alpha   89.99793284
_cell_angle_beta   90.00072476
_cell_angle_gamma   89.99959699
_symmetry_Int_Tables_number   1
_chemical_formula_structural   Cs27Sn13Pb14I81
_chemical_formula_sum   'Cs27 Sn13 Pb14 I81'
_cell_volume   6834.10981847
_cell_formula_units_Z   1
loop_
 _symmetry_equiv_pos_site_id
 _symmetry_equiv_pos_as_xyz
  1  'x, y, z'
loop_
 _atom_site_type_symbol
 _atom_site_label
 _atom_site_symmetry_multiplicity
 _atom_site_fract_x
 _atom_site_fract_y
 _atom_site_fract_z
 _atom_site_occupancy
  Cs  Cs0  1  -0.00049789  -0.00261009  -0.00225390  1
  Cs  Cs1  1  -0.00024871  -0.00172977  0.33461454  1
  Cs  Cs2  1  0.00045256  0.00020223  0.66657981  1
  Cs  Cs3  1  0.00018929  0.34042633  -0.00846762  1
  Cs  Cs4  1  -0.00009348  0.33429623  0.33580625  1
  Cs  Cs5  1  0.00159481  0.33130909  0.67072636  1
  Cs  Cs6  1  0.00130172  0.66222605  0.00786510  1
  Cs  Cs7  1  0.00001943  0.66703260  0.33020057  1
  Cs  Cs8  1  0.00006248  0.67094239  0.66392674  1
  Cs  Cs9  1  0.33717672  -0.00010920  0.00364237  1
  Cs  Cs10  1  0.33354565  0.00336823  0.33095313  1
  Cs  Cs11  1  0.33048589  -0.00189507  0.66736095  1
  Cs  Cs12  1  0.33180197  0.33501462  0.00086940  1
  Cs  Cs13  1  0.33542840  0.32957015  0.33281576  1
  Cs  Cs14  1  0.32910060  0.33503402  0.66876795  1
  Cs  Cs15  1  0.33094303  0.66413218  -0.00151127  1
  Cs  Cs16  1  0.33300546  0.66563029  0.33397385  1
  Cs  Cs17  1  0.34119369  0.66793324  0.66731139  1
  Cs  Cs18  1  0.66452555  0.00189840  0.00116842  1
  Cs  Cs19  1  0.66693928  0.00295658  0.33244437  1
  Cs  Cs20  1  0.66790208  -0.00207145  0.66725622  1
  Cs  Cs21  1  0.66919902  0.33225291  -0.00145551  1
  Cs  Cs22  1  0.66502961  0.32998919  0.33343045  1
  Cs  Cs23  1  0.66808637  0.33561186  0.66780124  1
  Cs  Cs24  1  0.66822068  0.66385848  -0.00086034  1
  Cs  Cs25  1  0.66748781  0.66541031  0.33486670  1
  Cs  Cs26  1  0.65891019  0.66801743  0.66627190  1
  Sn  Sn27  1  0.16583391  0.83333333  0.83297357  1
  Sn  Sn28  1  0.16444541  0.16674324  0.16636873  1
  Sn  Sn29  1  0.83537633  0.16664967  0.16682201  1
  Sn  Sn30  1  0.83386178  0.83315042  0.50058631  1
  Sn  Sn31  1  0.50053727  0.16636421  0.50182803  1
  Sn  Sn32  1  0.83408872  0.83324063  0.83295102  1
  Sn  Sn33  1  0.16606866  0.50099971  0.49988124  1
  Sn  Sn34  1  0.50023112  0.50130630  0.16697457  1
  Sn  Sn35  1  0.49992932  0.16659996  0.83165967  1
  Sn  Sn36  1  0.50024802  0.83171323  0.16702206  1
  Sn  Sn37  1  0.83408212  0.50010532  0.50000245  1
  Sn  Sn38  1  0.16619290  0.83243655  0.50046068  1
  Sn  Sn39  1  0.83268203  0.16678362  0.49956171  1
  Pb  Pb40  1  0.50007040  0.83470499  0.83545539  1
  Pb  Pb41  1  0.83162287  0.83498625  0.16702829  1
  Pb  Pb42  1  0.16819397  0.49750553  0.16915629  1
  Pb  Pb43  1  0.16601707  0.16632431  0.49907483  1
  Pb  Pb44  1  0.50053251  0.16706410  0.16669196  1
  Pb  Pb45  1  0.83169337  0.49717161  0.16897180  1
  Pb  Pb46  1  0.16824913  0.83466747  0.16708763  1
  Pb  Pb47  1  0.50005315  0.49716216  0.83596051  1
  Pb  Pb48  1  0.83344934  0.50353944  0.83014851  1
  Pb  Pb49  1  0.49992247  0.49747127  0.49875594  1
  Pb  Pb50  1  0.16650671  0.50333074  0.83028429  1
  Pb  Pb51  1  0.83210663  0.16485590  0.83281543  1
  Pb  Pb52  1  0.16863080  0.16437415  0.83608699  1
  Pb  Pb53  1  0.49995867  0.83550312  0.49821842  1
  I  I54  1  0.16813018  0.00254229  0.17019548  1
  I  I55  1  0.16416845  -0.00277699  0.50186783  1
  I  I56  1  0.16363848  -0.00333633  0.82565454  1
  I  I57  1  0.16787419  0.32968305  0.17004980  1
  I  I58  1  0.16514716  0.33518179  0.49579412  1
  I  I59  1  0.16919259  0.33335706  0.83328505  1
  I  I60  1  0.16805183  0.66660550  0.16534042  1
  I  I61  1  0.15947742  0.66774504  0.50175525  1
  I  I62  1  0.16411172  0.67133584  0.83379871  1
  I  I63  1  0.49962985  -0.00125182  0.16665680  1
  I  I64  1  0.50367393  0.00337513  0.49869453  1
  I  I65  1  0.50049418  0.00251141  0.83341851  1
  I  I66  1  0.49962842  0.33492939  0.16820490  1
  I  I67  1  0.50356362  0.32956346  0.49850033  1
  I  I68  1  0.50093278  0.32916780  0.83196392  1
  I  I69  1  0.49959315  0.66701135  0.16818437  1
  I  I70  1  0.50211300  0.66673041  0.49899266  1
  I  I71  1  0.49996165  0.66680962  0.83347998  1
  I  I72  1  0.83214013  0.00297709  0.17313497  1
  I  I73  1  0.83305158  -0.00009903  0.49947165  1
  I  I74  1  0.83572601  -0.00298351  0.82736149  1
  I  I75  1  0.83217256  0.32907949  0.17287455  1
  I  I76  1  0.83211329  0.33255925  0.49329594  1
  I  I77  1  0.83050582  0.33337212  0.83371027  1
  I  I78  1  0.83210435  0.66659002  0.16717101  1
  I  I79  1  0.83766407  0.66747286  0.50381963  1
  I  I80  1  0.83535744  0.67163055  0.82949693  1
  I  I81  1  0.16520751  0.16395422  0.00389616  1
  I  I82  1  0.16980961  0.16420980  0.33128772  1
  I  I83  1  0.16655759  0.16815946  0.66672166  1
  I  I84  1  0.16915758  0.49997739  0.00009306  1
  I  I85  1  0.16299731  0.50662295  0.33700074  1
  I  I86  1  0.16361938  0.49772135  0.66215043  1
  I  I87  1  0.16455038  0.83794609  -0.00238285  1
  I  I88  1  0.16298582  0.83164556  0.33659906  1
  I  I89  1  0.16344262  0.83174581  0.66533441  1
  I  I90  1  0.49967401  0.16505126  -0.00152934  1
  I  I91  1  0.50140866  0.16643601  0.33532553  1
  I  I92  1  0.50574988  0.16508322  0.66541296  1
  I  I93  1  0.49953352  0.50110369  0.00389810  1
  I  I94  1  0.50000975  0.49997487  0.33100011  1
  I  I95  1  0.50003037  0.49998885  0.66644240  1
  I  I96  1  0.49987980  0.83523421  0.00314639  1
  I  I97  1  0.49989320  0.83461762  0.33059665  1
  I  I98  1  0.49986077  0.83423510  0.66649678  1
  I  I99  1  0.83217643  0.16307602  0.00232015  1
  I  I100  1  0.82966318  0.16401076  0.33488455  1
  I  I101  1  0.83012928  0.16760542  0.66311032  1
  I  I102  1  0.83093667  0.49932366  0.00005997  1
  I  I103  1  0.83616859  0.50499782  0.33729930  1
  I  I104  1  0.83616035  0.49250249  0.66173374  1
  I  I105  1  0.83504625  0.83766941  -0.00237803  1
  I  I106  1  0.83637993  0.83299956  0.33690587  1
  I  I107  1  0.83671300  0.83659752  0.66486543  1
  I  I108  1  -0.00092165  0.16369659  0.17534668  1
  I  I109  1  -0.00311854  0.16594616  0.49620961  1
  I  I110  1  0.00004354  0.16639658  0.83206873  1
  I  I111  1  -0.00012056  0.50014607  0.16658095  1
  I  I112  1  -0.00068088  0.49859187  0.49842261  1
  I  I113  1  -0.00005375  0.49466367  0.83712182  1
  I  I114  1  -0.00013246  0.83489184  0.16644243  1
  I  I115  1  -0.00068201  0.83568338  0.50307008  1
  I  I116  1  -0.00016448  0.83682854  0.82804434  1
  I  I117  1  0.33202114  0.16568696  0.16791818  1
  I  I118  1  0.33526344  0.16635182  0.49910617  1
  I  I119  1  0.33653379  0.16358876  0.82963654  1
  I  I120  1  0.33612849  0.49987466  0.16974080  1
  I  I121  1  0.33080429  0.50324975  0.49788247  1
  I  I122  1  0.33328072  0.50166153  0.83091501  1
  I  I123  1  0.33614978  0.83534786  0.16709853  1
  I  I124  1  0.33052599  0.83063050  0.50279005  1
  I  I125  1  0.33076926  0.83558974  0.82945510  1
  I  I126  1  0.66882479  0.16589812  0.16921299  1
  I  I127  1  0.66796842  0.16601571  0.49596167  1
  I  I128  1  0.66417107  0.16297023  0.83550016  1
  I  I129  1  0.66382509  0.50077684  0.16971618  1
  I  I130  1  0.66958349  0.50193729  0.49797693  1
  I  I131  1  0.66676710  0.50244475  0.83129218  1
  I  I132  1  0.66380729  0.83467932  0.16717930  1
  I  I133  1  0.66977432  0.83184317  0.50294951  1
  I  I134  1  0.66932613  0.83555088  0.82896296  1
