# generated using pymatgen
data_Cs27Sn14Pb13I81
_symmetry_space_group_name_H-M   'P 1'
_cell_length_a   18.98062257
_cell_length_b   18.97603883
_cell_length_c   18.97091159
_cell_angle_alpha   89.99713447
_cell_angle_beta   90.00110444
_cell_angle_gamma   89.99901402
_symmetry_Int_Tables_number   1
_chemical_formula_structural   Cs27Sn14Pb13I81
_chemical_formula_sum   'Cs27 Sn14 Pb13 I81'
_cell_volume   6832.88660282
_cell_formula_units_Z   1
loop_
 _symmetry_equiv_pos_site_id
 _symmetry_equiv_pos_as_xyz
  1  'x, y, z'
loop_
 _atom_site_type_symbol
 _atom_site_label
 _atom_site_symmetry_multiplicity
 _atom_site_fract_x
 _atom_site_fract_y
 _atom_site_fract_z
 _atom_site_occupancy
  Cs  Cs0  1  -0.00289098  0.00019301  -0.00414920  1
  Cs  Cs1  1  -0.00372395  -0.00073936  0.33108613  1
  Cs  Cs2  1  -0.00080242  -0.00042837  0.66988082  1
  Cs  Cs3  1  0.00531291  0.33335947  -0.00152340  1
  Cs  Cs4  1  -0.00231161  0.33538312  0.33617782  1
  Cs  Cs5  1  -0.00412926  0.33291315  0.66434913  1
  Cs  Cs6  1  0.00057131  0.66652379  0.00275793  1
  Cs  Cs7  1  0.01251601  0.66493063  0.33162465  1
  Cs  Cs8  1  -0.00174472  0.66714267  0.66412947  1
  Cs  Cs9  1  0.33548570  0.00268549  -0.00123352  1
  Cs  Cs10  1  0.33501338  -0.00041122  0.33398343  1
  Cs  Cs11  1  0.33312426  0.00111525  0.66648171  1
  Cs  Cs12  1  0.33107046  0.33231772  -0.00076970  1
  Cs  Cs13  1  0.33376106  0.33393241  0.33273207  1
  Cs  Cs14  1  0.33573557  0.32792863  0.66820181  1
  Cs  Cs15  1  0.33235883  0.66506373  0.00114552  1
  Cs  Cs16  1  0.32562966  0.66586942  0.33254562  1
  Cs  Cs17  1  0.33604989  0.66867722  0.66566826  1
  Cs  Cs18  1  0.66731040  -0.00081473  0.00518725  1
  Cs  Cs19  1  0.66791870  0.00233497  0.32725179  1
  Cs  Cs20  1  0.66595629  -0.00231975  0.66595814  1
  Cs  Cs21  1  0.66618274  0.33774635  0.00157524  1
  Cs  Cs22  1  0.66854221  0.33094198  0.33314384  1
  Cs  Cs23  1  0.66744959  0.33659366  0.66561615  1
  Cs  Cs24  1  0.66763792  0.66457764  -0.00120017  1
  Cs  Cs25  1  0.66464074  0.66738514  0.33173023  1
  Cs  Cs26  1  0.66572678  0.66770767  0.66900878  1
  Sn  Sn27  1  0.16677150  0.50108493  0.83227305  1
  Sn  Sn28  1  0.16695009  0.83206051  0.83308337  1
  Sn  Sn29  1  0.83303171  0.50028359  0.16702503  1
  Sn  Sn30  1  0.83139328  0.16637769  0.83319639  1
  Sn  Sn31  1  0.50171130  0.16586957  0.83279835  1
  Sn  Sn32  1  0.50094882  0.83351528  0.50038256  1
  Sn  Sn33  1  0.83278605  0.83400153  0.83267812  1
  Sn  Sn34  1  0.16666253  0.16616020  0.16824049  1
  Sn  Sn35  1  0.83256279  0.83309138  0.50019272  1
  Sn  Sn36  1  0.50013167  0.83429050  0.83297066  1
  Sn  Sn37  1  0.16693237  0.16635812  0.49874784  1
  Sn  Sn38  1  0.50056065  0.50002242  0.16767781  1
  Sn  Sn39  1  0.49998383  0.50013492  0.49907539  1
  Sn  Sn40  1  0.49975001  0.16637045  0.50057239  1
  Pb  Pb41  1  0.83107277  0.50315384  0.49779206  1
  Pb  Pb42  1  0.16689870  0.83559521  0.50196075  1
  Pb  Pb43  1  0.16701383  0.49818979  0.16516807  1
  Pb  Pb44  1  0.83559204  0.16875835  0.16386147  1
  Pb  Pb45  1  0.16685802  0.16607377  0.83258756  1
  Pb  Pb46  1  0.83253520  0.16462568  0.50183633  1
  Pb  Pb47  1  0.16681930  0.83645270  0.16376729  1
  Pb  Pb48  1  0.83331152  0.83108593  0.16688293  1
  Pb  Pb49  1  0.83545013  0.50047720  0.83455016  1
  Pb  Pb50  1  0.49986438  0.83095152  0.16688088  1
  Pb  Pb51  1  0.49860165  0.50004098  0.83297337  1
  Pb  Pb52  1  0.49880403  0.16866883  0.16664042  1
  Pb  Pb53  1  0.16922656  0.49752756  0.50266474  1
  I  I54  1  0.16769592  0.00407586  0.16830839  1
  I  I55  1  0.17354088  0.00335064  0.49991110  1
  I  I56  1  0.16651207  -0.00254677  0.83328383  1
  I  I57  1  0.16754605  0.33060321  0.16521411  1
  I  I58  1  0.17189376  0.32965935  0.50013642  1
  I  I59  1  0.16773084  0.33446838  0.83493367  1
  I  I60  1  0.16627086  0.66657629  0.16625799  1
  I  I61  1  0.16702041  0.66681177  0.49948950  1
  I  I62  1  0.16758052  0.66781895  0.83442375  1
  I  I63  1  0.49802086  0.00014769  0.16769496  1
  I  I64  1  0.49837052  0.00004605  0.50666278  1
  I  I65  1  0.49708125  -0.00026164  0.82616328  1
  I  I66  1  0.50234163  0.33650145  0.16917648  1
  I  I67  1  0.49418912  0.33253499  0.50111554  1
  I  I68  1  0.50089609  0.33061232  0.83045865  1
  I  I69  1  0.50271270  0.66291215  0.16856183  1
  I  I70  1  0.50525579  0.66756531  0.50192915  1
  I  I71  1  0.50188038  0.66961091  0.83059880  1
  I  I72  1  0.83528848  0.00003284  0.16699320  1
  I  I73  1  0.82863948  -0.00327698  0.50249871  1
  I  I74  1  0.83660557  -0.00095440  0.83048773  1
  I  I75  1  0.82891687  0.33631353  0.16472523  1
  I  I76  1  0.83350520  0.33335892  0.50137272  1
  I  I77  1  0.83154549  0.33086603  0.83520785  1
  I  I78  1  0.82888849  0.66349045  0.16282694  1
  I  I79  1  0.82794975  0.67086863  0.50864454  1
  I  I80  1  0.83042379  0.67010171  0.83119811  1
  I  I81  1  0.16646489  0.16803840  0.00103495  1
  I  I82  1  0.17369919  0.16818998  0.33440564  1
  I  I83  1  0.16964553  0.16664043  0.66454856  1
  I  I84  1  0.16937498  0.50019515  -0.00273968  1
  I  I85  1  0.16516578  0.50018696  0.33370777  1
  I  I86  1  0.16744432  0.50168218  0.67029580  1
  I  I87  1  0.16653365  0.83177532  -0.00483531  1
  I  I88  1  0.16625658  0.83209737  0.33365535  1
  I  I89  1  0.16715077  0.83292752  0.67030139  1
  I  I90  1  0.50020365  0.16346319  -0.00317178  1
  I  I91  1  0.49682658  0.16413936  0.33653341  1
  I  I92  1  0.49629433  0.16817411  0.66652655  1
  I  I93  1  0.50124038  0.49946046  0.00171950  1
  I  I94  1  0.50357175  0.49926240  0.33419628  1
  I  I95  1  0.49705941  0.49964953  0.66400783  1
  I  I96  1  0.50030095  0.83701951  -0.00366808  1
  I  I97  1  0.50555917  0.83709520  0.33712211  1
  I  I98  1  0.50011846  0.83177152  0.66706610  1
  I  I99  1  0.83023656  0.15969340  -0.00427803  1
  I  I100  1  0.83220192  0.16533553  0.33340240  1
  I  I101  1  0.83593041  0.16620927  0.67004461  1
  I  I102  1  0.82653007  0.50095430  0.00227104  1
  I  I103  1  0.83231033  0.49970270  0.33017359  1
  I  I104  1  0.83362039  0.49810549  0.66650259  1
  I  I105  1  0.83322383  0.83629419  -0.00361700  1
  I  I106  1  0.82650753  0.83353262  0.33651102  1
  I  I107  1  0.83255285  0.83639670  0.66815147  1
  I  I108  1  0.00329651  0.16969411  0.17003009  1
  I  I109  1  0.00203714  0.16512620  0.49931397  1
  I  I110  1  -0.00171686  0.16385286  0.83424470  1
  I  I111  1  -0.00178923  0.49898400  0.16220279  1
  I  I112  1  0.00009663  0.49953476  0.49898385  1
  I  I113  1  0.00316922  0.50150617  0.83723814  1
  I  I114  1  0.00006169  0.82975926  0.16707980  1
  I  I115  1  -0.00227339  0.83570139  0.50536949  1
  I  I116  1  -0.00072049  0.83495571  0.83011053  1
  I  I117  1  0.33103352  0.17020449  0.16355287  1
  I  I118  1  0.33510996  0.16518025  0.50339570  1
  I  I119  1  0.33587920  0.16436032  0.83236817  1
  I  I120  1  0.33588631  0.49882529  0.16910919  1
  I  I121  1  0.33739830  0.50571763  0.49383451  1
  I  I122  1  0.33094466  0.50237604  0.83568539  1
  I  I123  1  0.33336035  0.82968135  0.16591815  1
  I  I124  1  0.33666769  0.83210972  0.50462216  1
  I  I125  1  0.33447072  0.83412697  0.82960106  1
  I  I126  1  0.66676707  0.16685397  0.16775132  1
  I  I127  1  0.66314245  0.16886736  0.50319891  1
  I  I128  1  0.66539306  0.16017657  0.82837208  1
  I  I129  1  0.66563535  0.49921651  0.16786225  1
  I  I130  1  0.66272647  0.49433754  0.50062694  1
  I  I131  1  0.66652555  0.50101913  0.83320466  1
  I  I132  1  0.66653059  0.83485055  0.16219552  1
  I  I133  1  0.66521919  0.83403593  0.50932978  1
  I  I134  1  0.66620510  0.83783335  0.82881465  1
