# generated using pymatgen
data_Cs27Sn13Pb14I81
_symmetry_space_group_name_H-M   'P 1'
_cell_length_a   18.98422789
_cell_length_b   19.00707523
_cell_length_c   18.98511476
_cell_angle_alpha   89.99985579
_cell_angle_beta   90.00221715
_cell_angle_gamma   90.00041042
_symmetry_Int_Tables_number   1
_chemical_formula_structural   Cs27Sn13Pb14I81
_chemical_formula_sum   'Cs27 Sn13 Pb14 I81'
_cell_volume   6850.48718906
_cell_formula_units_Z   1
loop_
 _symmetry_equiv_pos_site_id
 _symmetry_equiv_pos_as_xyz
  1  'x, y, z'
loop_
 _atom_site_type_symbol
 _atom_site_label
 _atom_site_symmetry_multiplicity
 _atom_site_fract_x
 _atom_site_fract_y
 _atom_site_fract_z
 _atom_site_occupancy
  Cs  Cs0  1  -0.00142361  0.00196496  0.00645932  1
  Cs  Cs1  1  0.00611584  -0.00676798  0.32659773  1
  Cs  Cs2  1  0.00188626  0.00028021  0.66486629  1
  Cs  Cs3  1  -0.00192610  0.33344539  0.00674964  1
  Cs  Cs4  1  -0.00016786  0.33143925  0.32717909  1
  Cs  Cs5  1  0.00072253  0.33170859  0.66637958  1
  Cs  Cs6  1  -0.00607673  0.66546237  0.00558407  1
  Cs  Cs7  1  -0.00044095  0.67444313  0.32671816  1
  Cs  Cs8  1  -0.00082496  0.66860521  0.66641461  1
  Cs  Cs9  1  0.33552831  -0.00133011  -0.00398201  1
  Cs  Cs10  1  0.33255484  -0.00043662  0.33388374  1
  Cs  Cs11  1  0.33059743  0.00104216  0.66853531  1
  Cs  Cs12  1  0.33373000  0.33396272  -0.00222797  1
  Cs  Cs13  1  0.33449973  0.33405927  0.33434863  1
  Cs  Cs14  1  0.33178561  0.33375951  0.66687670  1
  Cs  Cs15  1  0.33256391  0.66712141  -0.00036420  1
  Cs  Cs16  1  0.33637736  0.66603012  0.33197665  1
  Cs  Cs17  1  0.33225931  0.66366698  0.66732851  1
  Cs  Cs18  1  0.66658921  -0.00073386  -0.00105513  1
  Cs  Cs19  1  0.66520825  0.00043948  0.33302291  1
  Cs  Cs20  1  0.66839049  0.00125622  0.66810575  1
  Cs  Cs21  1  0.66941223  0.33419482  -0.00212064  1
  Cs  Cs22  1  0.66495035  0.33293357  0.33600619  1
  Cs  Cs23  1  0.66797079  0.33237141  0.66503225  1
  Cs  Cs24  1  0.67430670  0.66621611  -0.00893610  1
  Cs  Cs25  1  0.66177226  0.66755772  0.33539382  1
  Cs  Cs26  1  0.67105145  0.66720825  0.67018586  1
  Sn  Sn27  1  0.49986845  0.16691720  0.16745355  1
  Sn  Sn28  1  0.83464747  0.16693001  0.83233006  1
  Sn  Sn29  1  0.83381601  0.49938008  0.49973949  1
  Sn  Sn30  1  0.16591204  0.49984542  0.50003785  1
  Sn  Sn31  1  0.50002327  0.83300237  0.16686088  1
  Sn  Sn32  1  0.50017480  0.50007292  0.16676157  1
  Sn  Sn33  1  0.16640994  0.50004929  0.83289550  1
  Sn  Sn34  1  0.16634705  0.83294810  0.83322416  1
  Sn  Sn35  1  0.49979629  0.83346710  0.50022783  1
  Sn  Sn36  1  0.50039428  0.16657737  0.49953138  1
  Sn  Sn37  1  0.16523632  0.16702423  0.83315476  1
  Sn  Sn38  1  0.83343766  0.16708655  0.50009662  1
  Sn  Sn39  1  0.50017223  0.50001051  0.49984891  1
  Pb  Pb40  1  0.16636196  0.16841710  0.50107409  1
  Pb  Pb41  1  0.83655096  0.83632807  0.83303494  1
  Pb  Pb42  1  0.83648682  0.49770512  0.83091579  1
  Pb  Pb43  1  0.16945971  0.83324858  0.16410375  1
  Pb  Pb44  1  0.83125741  0.83389877  0.49995645  1
  Pb  Pb45  1  0.82987660  0.83331622  0.16686877  1
  Pb  Pb46  1  0.16977499  0.16674684  0.16387177  1
  Pb  Pb47  1  0.83072098  0.16665820  0.16777263  1
  Pb  Pb48  1  0.16913430  0.83059507  0.50157061  1
  Pb  Pb49  1  0.50034469  0.16683730  0.83278456  1
  Pb  Pb50  1  0.49863883  0.83318057  0.83297901  1
  Pb  Pb51  1  0.83004050  0.49993962  0.17015654  1
  Pb  Pb52  1  0.16877629  0.49994104  0.16714276  1
  Pb  Pb53  1  0.49850667  0.49997137  0.83283514  1
  I  I54  1  0.16953635  0.00004472  0.16541908  1
  I  I55  1  0.16817039  -0.00002484  0.50321088  1
  I  I56  1  0.16509705  0.00067021  0.83362355  1
  I  I57  1  0.17042119  0.33337204  0.16353979  1
  I  I58  1  0.17370009  0.33641747  0.50706559  1
  I  I59  1  0.16527998  0.33345641  0.82828572  1
  I  I60  1  0.17032797  0.66654154  0.16431279  1
  I  I61  1  0.16750040  0.66243747  0.50683520  1
  I  I62  1  0.17239005  0.66587643  0.82803946  1
  I  I63  1  0.49955385  0.00018341  0.17306044  1
  I  I64  1  0.50436894  0.00083614  0.49465976  1
  I  I65  1  0.49630156  0.00020797  0.83338102  1
  I  I66  1  0.49905068  0.33341237  0.17354785  1
  I  I67  1  0.50019716  0.33357529  0.49486535  1
  I  I68  1  0.49597833  0.33321854  0.83467765  1
  I  I69  1  0.49789705  0.66638091  0.17541198  1
  I  I70  1  0.49845260  0.66567815  0.49390418  1
  I  I71  1  0.49663392  0.66655373  0.83335230  1
  I  I72  1  0.83071702  0.00030239  0.16730810  1
  I  I73  1  0.82647156  0.00371428  0.50526121  1
  I  I74  1  0.83656071  0.00418240  0.82593075  1
  I  I75  1  0.83101957  0.33324828  0.16306148  1
  I  I76  1  0.82630160  0.33310231  0.50507359  1
  I  I77  1  0.83712275  0.33005990  0.83125417  1
  I  I78  1  0.83199792  0.66638602  0.16684223  1
  I  I79  1  0.83157393  0.66353857  0.50014914  1
  I  I80  1  0.83302259  0.66649827  0.83262936  1
  I  I81  1  0.16216490  0.16984054  -0.00470710  1
  I  I82  1  0.16468383  0.16861666  0.33334319  1
  I  I83  1  0.16964397  0.16554047  0.66953353  1
  I  I84  1  0.17085853  0.49921033  -0.00308229  1
  I  I85  1  0.16713767  0.49854722  0.33688894  1
  I  I86  1  0.17132493  0.49941337  0.66617570  1
  I  I87  1  0.17085171  0.83169330  -0.00396125  1
  I  I88  1  0.16513196  0.83229391  0.33335464  1
  I  I89  1  0.17095111  0.83581676  0.66953939  1
  I  I90  1  0.49832557  0.16593519  0.00268745  1
  I  I91  1  0.50531639  0.16711624  0.33485367  1
  I  I92  1  0.50031848  0.16772108  0.66319988  1
  I  I93  1  0.49609721  0.49925753  0.00291600  1
  I  I94  1  0.49761596  0.49983907  0.33508344  1
  I  I95  1  0.50076786  0.49915829  0.66263199  1
  I  I96  1  0.49675937  0.83505368  0.00305860  1
  I  I97  1  0.49960559  0.83285130  0.33406209  1
  I  I98  1  0.49853843  0.83317153  0.66327143  1
  I  I99  1  0.83665042  0.16549748  -0.00253930  1
  I  I100  1  0.82843211  0.17242560  0.33713025  1
  I  I101  1  0.82966297  0.17062170  0.66561648  1
  I  I102  1  0.83253160  0.49916270  -0.00001547  1
  I  I103  1  0.83811256  0.49156422  0.33826523  1
  I  I104  1  0.82553107  0.49835291  0.66302145  1
  I  I105  1  0.83021204  0.83465483  -0.00030299  1
  I  I106  1  0.83764121  0.83545882  0.33366268  1
  I  I107  1  0.82854542  0.83124334  0.66654836  1
  I  I108  1  -0.00014021  0.16631568  0.16850757  1
  I  I109  1  -0.00292772  0.17314535  0.50529677  1
  I  I110  1  0.00021034  0.16654645  0.82508254  1
  I  I111  1  -0.00023162  0.49994170  0.16654974  1
  I  I112  1  0.00001369  0.49330348  0.50878751  1
  I  I113  1  0.00445155  0.50251852  0.82675495  1
  I  I114  1  0.00018756  0.83376109  0.16587631  1
  I  I115  1  0.00023401  0.83344475  0.50233398  1
  I  I116  1  0.00444383  0.82931717  0.83056783  1
  I  I117  1  0.33800778  0.16714813  0.17242852  1
  I  I118  1  0.33655631  0.16773090  0.49794614  1
  I  I119  1  0.33063039  0.16667899  0.83391514  1
  I  I120  1  0.33720920  0.49970751  0.17267905  1
  I  I121  1  0.33451999  0.49994995  0.50071615  1
  I  I122  1  0.33024107  0.49626296  0.82751054  1
  I  I123  1  0.33762781  0.83314049  0.17120786  1
  I  I124  1  0.33753538  0.83463430  0.49649073  1
  I  I125  1  0.33058104  0.83694610  0.83324970  1
  I  I126  1  0.66239356  0.16661258  0.16554994  1
  I  I127  1  0.66548531  0.17137956  0.50267608  1
  I  I128  1  0.66914836  0.16691196  0.83212903  1
  I  I129  1  0.66171845  0.49905172  0.17214410  1
  I  I130  1  0.66550255  0.49875913  0.49443538  1
  I  I131  1  0.66720236  0.49856907  0.83392939  1
  I  I132  1  0.66132597  0.83442198  0.17109026  1
  I  I133  1  0.66245896  0.82898819  0.49631796  1
  I  I134  1  0.66697687  0.83488850  0.83470008  1
