# generated using pymatgen
data_Cs27Sn13Pb14I81
_symmetry_space_group_name_H-M   'P 1'
_cell_length_a   18.97842750
_cell_length_b   18.97814466
_cell_length_c   18.97485397
_cell_angle_alpha   89.99708285
_cell_angle_beta   90.00067120
_cell_angle_gamma   90.00149341
_symmetry_Int_Tables_number   1
_chemical_formula_structural   Cs27Sn13Pb14I81
_chemical_formula_sum   'Cs27 Sn13 Pb14 I81'
_cell_volume   6834.27451455
_cell_formula_units_Z   1
loop_
 _symmetry_equiv_pos_site_id
 _symmetry_equiv_pos_as_xyz
  1  'x, y, z'
loop_
 _atom_site_type_symbol
 _atom_site_label
 _atom_site_symmetry_multiplicity
 _atom_site_fract_x
 _atom_site_fract_y
 _atom_site_fract_z
 _atom_site_occupancy
  Cs  Cs0  1  -0.00175851  0.00014141  0.00007141  1
  Cs  Cs1  1  -0.00086414  -0.00068158  0.33273917  1
  Cs  Cs2  1  0.00125436  -0.00097450  0.66743147  1
  Cs  Cs3  1  0.00285616  0.33544846  0.00004914  1
  Cs  Cs4  1  0.00280018  0.33425663  0.33139689  1
  Cs  Cs5  1  -0.00117239  0.33605841  0.66956592  1
  Cs  Cs6  1  -0.00134276  0.66494247  0.00323070  1
  Cs  Cs7  1  0.00189873  0.66666231  0.33636382  1
  Cs  Cs8  1  0.00163246  0.66339656  0.65773979  1
  Cs  Cs9  1  0.33353424  -0.00414576  -0.00153417  1
  Cs  Cs10  1  0.33557789  0.00056103  0.33302566  1
  Cs  Cs11  1  0.33102592  0.00132995  0.66793633  1
  Cs  Cs12  1  0.32758676  0.33596465  -0.00269851  1
  Cs  Cs13  1  0.33408024  0.33415837  0.33351299  1
  Cs  Cs14  1  0.33550760  0.32982718  0.66794364  1
  Cs  Cs15  1  0.33482729  0.66794120  -0.00656876  1
  Cs  Cs16  1  0.33188705  0.66344611  0.33287042  1
  Cs  Cs17  1  0.33007445  0.67044277  0.67354027  1
  Cs  Cs18  1  0.66818322  -0.00095475  0.00328642  1
  Cs  Cs19  1  0.66551458  0.00151748  0.33187001  1
  Cs  Cs20  1  0.66777877  0.00184368  0.66479616  1
  Cs  Cs21  1  0.66812390  0.33294202  0.00076393  1
  Cs  Cs22  1  0.66485870  0.33124930  0.33229627  1
  Cs  Cs23  1  0.66641800  0.33346487  0.66671380  1
  Cs  Cs24  1  0.66595666  0.66753992  -0.00223483  1
  Cs  Cs25  1  0.66690438  0.66673691  0.33381877  1
  Cs  Cs26  1  0.66872241  0.66237544  0.66813563  1
  Sn  Sn27  1  0.50018624  0.16653013  0.50042771  1
  Sn  Sn28  1  0.16654167  0.16655846  0.49899576  1
  Sn  Sn29  1  0.16679581  0.16546392  0.16731887  1
  Sn  Sn30  1  0.50108723  0.16640153  0.83321326  1
  Sn  Sn31  1  0.83379311  0.83253369  0.16630006  1
  Sn  Sn32  1  0.49993580  0.50028937  0.49950556  1
  Sn  Sn33  1  0.83350399  0.83375995  0.83331901  1
  Sn  Sn34  1  0.50010335  0.83315609  0.50011083  1
  Sn  Sn35  1  0.83350769  0.16660714  0.50053237  1
  Sn  Sn36  1  0.83225169  0.50095902  0.16704515  1
  Sn  Sn37  1  0.83229589  0.16575125  0.83267096  1
  Sn  Sn38  1  0.16625652  0.83423105  0.16688071  1
  Sn  Sn39  1  0.50079721  0.49993002  0.16697900  1
  Pb  Pb40  1  0.16903428  0.83553188  0.49784699  1
  Pb  Pb41  1  0.50260917  0.83586715  0.83072947  1
  Pb  Pb42  1  0.49757293  0.16854254  0.16615312  1
  Pb  Pb43  1  0.50008910  0.83110688  0.16820811  1
  Pb  Pb44  1  0.16963684  0.49746673  0.50014051  1
  Pb  Pb45  1  0.83132291  0.49719040  0.49754764  1
  Pb  Pb46  1  0.16608965  0.16650657  0.83317074  1
  Pb  Pb47  1  0.16333897  0.83348768  0.83565468  1
  Pb  Pb48  1  0.83172915  0.83511233  0.49977268  1
  Pb  Pb49  1  0.16637293  0.50043634  0.83288372  1
  Pb  Pb50  1  0.83500759  0.16660707  0.16645742  1
  Pb  Pb51  1  0.16698186  0.50062507  0.16674138  1
  Pb  Pb52  1  0.50014818  0.49756418  0.83312440  1
  Pb  Pb53  1  0.83332516  0.49997220  0.83548805  1
  I  I54  1  0.16108234  0.00024954  0.17068293  1
  I  I55  1  0.16950417  0.00395828  0.49789802  1
  I  I56  1  0.16916879  0.00024212  0.83259354  1
  I  I57  1  0.16651059  0.33072895  0.17023367  1
  I  I58  1  0.16804466  0.32866671  0.49265114  1
  I  I59  1  0.16521454  0.33248885  0.83714772  1
  I  I60  1  0.16465825  0.66967590  0.16609827  1
  I  I61  1  0.16773031  0.66687834  0.49827056  1
  I  I62  1  0.16753806  0.66733945  0.83658120  1
  I  I63  1  0.50196947  0.00009796  0.16837414  1
  I  I64  1  0.49997230  0.00173979  0.50347076  1
  I  I65  1  0.50131008  0.00392179  0.82817560  1
  I  I66  1  0.50529594  0.33622399  0.17240222  1
  I  I67  1  0.49989280  0.33199577  0.49938216  1
  I  I68  1  0.50565333  0.32935059  0.82786943  1
  I  I69  1  0.49979778  0.66326148  0.17318267  1
  I  I70  1  0.50179099  0.66623719  0.49263809  1
  I  I71  1  0.50058606  0.66687995  0.83231398  1
  I  I72  1  0.83588138  -0.00225564  0.16576537  1
  I  I73  1  0.82992696  0.00356300  0.49828013  1
  I  I74  1  0.82933352  0.00109525  0.83638584  1
  I  I75  1  0.83078754  0.33518033  0.16773590  1
  I  I76  1  0.83122760  0.32885230  0.50407796  1
  I  I77  1  0.82964382  0.32985753  0.83022608  1
  I  I78  1  0.83491242  0.66771386  0.16126513  1
  I  I79  1  0.83064961  0.66657846  0.50230205  1
  I  I80  1  0.83300035  0.66968627  0.83748240  1
  I  I81  1  0.16637459  0.16450152  0.00281940  1
  I  I82  1  0.16679643  0.16359388  0.33391038  1
  I  I83  1  0.16849212  0.16772525  0.66347741  1
  I  I84  1  0.16904838  0.49512773  0.00079863  1
  I  I85  1  0.16532392  0.49984604  0.33326651  1
  I  I86  1  0.16763123  0.49765541  0.66605998  1
  I  I87  1  0.16719792  0.84067216  0.00410816  1
  I  I88  1  0.15950142  0.83561548  0.32988094  1
  I  I89  1  0.16694465  0.83452298  0.66643577  1
  I  I90  1  0.50437082  0.16844880  -0.00253176  1
  I  I91  1  0.50247020  0.16587742  0.33646191  1
  I  I92  1  0.49864761  0.16888121  0.66475427  1
  I  I93  1  0.50310667  0.49828328  0.00289348  1
  I  I94  1  0.50389650  0.49648401  0.33384753  1
  I  I95  1  0.49971964  0.49931888  0.66332398  1
  I  I96  1  0.49792937  0.83350231  -0.00008293  1
  I  I97  1  0.50242143  0.83995323  0.33613841  1
  I  I98  1  0.50147950  0.82992322  0.66271056  1
  I  I99  1  0.82975622  0.16593788  -0.00243953  1
  I  I100  1  0.83006400  0.16672000  0.33578502  1
  I  I101  1  0.83334308  0.16132533  0.66648574  1
  I  I102  1  0.82760367  0.49845973  0.00380699  1
  I  I103  1  0.83154421  0.50433556  0.32962943  1
  I  I104  1  0.83208849  0.50187994  0.66636792  1
  I  I105  1  0.83599624  0.83658115  0.00092639  1
  I  I106  1  0.83574862  0.83149603  0.33033971  1
  I  I107  1  0.82951415  0.83800244  0.66893374  1
  I  I108  1  0.00275172  0.16768274  0.17078190  1
  I  I109  1  -0.00031205  0.16522086  0.49930455  1
  I  I110  1  -0.00342335  0.16317380  0.83048766  1
  I  I111  1  -0.00264832  0.50002533  0.16476276  1
  I  I112  1  -0.00016326  0.49849691  0.49867685  1
  I  I113  1  -0.00069245  0.49499247  0.83711577  1
  I  I114  1  -0.00108100  0.83240845  0.16324647  1
  I  I115  1  -0.00007573  0.83593748  0.50128204  1
  I  I116  1  -0.00458643  0.84256111  0.83466904  1
  I  I117  1  0.32988481  0.16297388  0.17100904  1
  I  I118  1  0.33451593  0.16734421  0.49956333  1
  I  I119  1  0.33592779  0.16856790  0.82960632  1
  I  I120  1  0.33618913  0.49773078  0.17192841  1
  I  I121  1  0.33799943  0.49698248  0.49129251  1
  I  I122  1  0.33391411  0.49724363  0.83700650  1
  I  I123  1  0.33104999  0.83716825  0.17037125  1
  I  I124  1  0.33708946  0.83601886  0.49719598  1
  I  I125  1  0.33355142  0.83423210  0.83444410  1
  I  I126  1  0.66664590  0.16521423  0.16905246  1
  I  I127  1  0.66584151  0.16694942  0.50438494  1
  I  I128  1  0.66716044  0.16429427  0.82534447  1
  I  I129  1  0.66685596  0.50387470  0.17044826  1
  I  I130  1  0.66318025  0.49658188  0.49771589  1
  I  I131  1  0.66666067  0.50051807  0.83276072  1
  I  I132  1  0.66956621  0.83166288  0.16436186  1
  I  I133  1  0.66375756  0.83735818  0.49707149  1
  I  I134  1  0.67016454  0.83622702  0.84124000  1
