# generated using pymatgen
data_Cs27Sn13Pb14I81
_symmetry_space_group_name_H-M   'P 1'
_cell_length_a   18.97491069
_cell_length_b   18.97931005
_cell_length_c   18.97460584
_cell_angle_alpha   90.00235541
_cell_angle_beta   90.00088789
_cell_angle_gamma   89.99830971
_symmetry_Int_Tables_number   1
_chemical_formula_structural   Cs27Sn13Pb14I81
_chemical_formula_sum   'Cs27 Sn13 Pb14 I81'
_cell_volume   6833.33832313
_cell_formula_units_Z   1
loop_
 _symmetry_equiv_pos_site_id
 _symmetry_equiv_pos_as_xyz
  1  'x, y, z'
loop_
 _atom_site_type_symbol
 _atom_site_label
 _atom_site_symmetry_multiplicity
 _atom_site_fract_x
 _atom_site_fract_y
 _atom_site_fract_z
 _atom_site_occupancy
  Cs  Cs0  1  0.00045107  -0.00539306  -0.00390997  1
  Cs  Cs1  1  0.00131141  -0.00121686  0.33659146  1
  Cs  Cs2  1  -0.00227732  0.00147690  0.66718670  1
  Cs  Cs3  1  -0.00071602  0.33632671  -0.00256849  1
  Cs  Cs4  1  0.00466765  0.33360477  0.33737634  1
  Cs  Cs5  1  0.00063440  0.33041252  0.66689946  1
  Cs  Cs6  1  0.00164870  0.66749001  0.00042011  1
  Cs  Cs7  1  -0.00106504  0.66667879  0.33292878  1
  Cs  Cs8  1  -0.00042643  0.66773499  0.66623520  1
  Cs  Cs9  1  0.32899354  0.00245093  0.00145943  1
  Cs  Cs10  1  0.33345654  0.00349438  0.33071184  1
  Cs  Cs11  1  0.33659008  -0.00193107  0.66755913  1
  Cs  Cs12  1  0.33375678  0.33005226  -0.00105020  1
  Cs  Cs13  1  0.32446056  0.33063871  0.33451150  1
  Cs  Cs14  1  0.33316783  0.33487477  0.66739245  1
  Cs  Cs15  1  0.33029710  0.66915755  -0.00192376  1
  Cs  Cs16  1  0.33109140  0.66496125  0.33690233  1
  Cs  Cs17  1  0.34432851  0.66705794  0.66525113  1
  Cs  Cs18  1  0.66883930  0.00063302  0.00201101  1
  Cs  Cs19  1  0.66579747  -0.00148001  0.33199846  1
  Cs  Cs20  1  0.66714030  0.00111348  0.66798262  1
  Cs  Cs21  1  0.66629178  0.33450910  0.00189972  1
  Cs  Cs22  1  0.66796445  0.33302466  0.32897787  1
  Cs  Cs23  1  0.66616487  0.33181975  0.66745110  1
  Cs  Cs24  1  0.66751259  0.66443529  0.00174757  1
  Cs  Cs25  1  0.66835329  0.66783397  0.33286997  1
  Cs  Cs26  1  0.65886521  0.66738721  0.66572612  1
  Sn  Sn27  1  0.83372954  0.50028633  0.83293325  1
  Sn  Sn28  1  0.83272109  0.83330348  0.16743527  1
  Sn  Sn29  1  0.50042801  0.83212426  0.16660253  1
  Sn  Sn30  1  0.16623088  0.83310889  0.50028459  1
  Sn  Sn31  1  0.83303447  0.50049508  0.50007808  1
  Sn  Sn32  1  0.83300858  0.49989474  0.16699008  1
  Sn  Sn33  1  0.49993469  0.50075935  0.16689008  1
  Sn  Sn34  1  0.50033575  0.16708731  0.50030427  1
  Sn  Sn35  1  0.83401402  0.16669018  0.16678285  1
  Sn  Sn36  1  0.16713838  0.16716360  0.83316674  1
  Sn  Sn37  1  0.16627975  0.49981878  0.83304414  1
  Sn  Sn38  1  0.83389744  0.83255094  0.49951413  1
  Sn  Sn39  1  0.49965118  0.16680578  0.83271435  1
  Pb  Pb40  1  0.16448613  0.50194130  0.50292736  1
  Pb  Pb41  1  0.50008401  0.49835788  0.83549085  1
  Pb  Pb42  1  0.50121257  0.16688831  0.16648205  1
  Pb  Pb43  1  0.50017150  0.83612348  0.83671149  1
  Pb  Pb44  1  0.16645042  0.50001768  0.16471346  1
  Pb  Pb45  1  0.83186640  0.16649691  0.49806137  1
  Pb  Pb46  1  0.50232098  0.49765643  0.49706153  1
  Pb  Pb47  1  0.16883743  0.16459519  0.50251828  1
  Pb  Pb48  1  0.16670325  0.83287697  0.83050933  1
  Pb  Pb49  1  0.16306837  0.16665094  0.16417233  1
  Pb  Pb50  1  0.83331586  0.16874723  0.83533883  1
  Pb  Pb51  1  0.50080090  0.83502460  0.49767804  1
  Pb  Pb52  1  0.16637769  0.83316324  0.16881418  1
  Pb  Pb53  1  0.83299976  0.83032000  0.83311658  1
  I  I54  1  0.16770282  -0.00005919  0.16406881  1
  I  I55  1  0.15870318  -0.00302650  0.50114465  1
  I  I56  1  0.17110563  0.00273630  0.83336011  1
  I  I57  1  0.16752395  0.33332340  0.16909386  1
  I  I58  1  0.16616489  0.33340067  0.49893598  1
  I  I59  1  0.16580941  0.33348399  0.83381246  1
  I  I60  1  0.16376058  0.66660852  0.16316765  1
  I  I61  1  0.16500806  0.66969839  0.50054651  1
  I  I62  1  0.16024652  0.66362925  0.83464926  1
  I  I63  1  0.50565733  -0.00212737  0.16706648  1
  I  I64  1  0.50210364  0.00269200  0.50155238  1
  I  I65  1  0.49451821  0.00416153  0.83143940  1
  I  I66  1  0.50700529  0.33564148  0.16535527  1
  I  I67  1  0.50221024  0.33018345  0.50204497  1
  I  I68  1  0.49957931  0.33045717  0.83310569  1
  I  I69  1  0.50947347  0.66650845  0.16672298  1
  I  I70  1  0.49813032  0.66658425  0.50099861  1
  I  I71  1  0.49921884  0.66642593  0.83240909  1
  I  I72  1  0.82828007  -0.00124317  0.17066502  1
  I  I73  1  0.83530206  -0.00288734  0.49463682  1
  I  I74  1  0.83417741  0.00008916  0.83460697  1
  I  I75  1  0.82790759  0.33483206  0.16548824  1
  I  I76  1  0.83067806  0.33617618  0.49848607  1
  I  I77  1  0.83419872  0.33689893  0.83408848  1
  I  I78  1  0.82902002  0.66634381  0.16722671  1
  I  I79  1  0.83701996  0.66666985  0.49491902  1
  I  I80  1  0.83953696  0.66218709  0.83858707  1
  I  I81  1  0.17416651  0.16958276  -0.00372540  1
  I  I82  1  0.16879356  0.16583651  0.33361862  1
  I  I83  1  0.16632159  0.17086274  0.67034354  1
  I  I84  1  0.16054172  0.49679245  -0.00329485  1
  I  I85  1  0.16632475  0.50064881  0.33374117  1
  I  I86  1  0.16061772  0.49540125  0.67067182  1
  I  I87  1  0.16639777  0.83417937  -0.00019048  1
  I  I88  1  0.16406448  0.83344039  0.33647209  1
  I  I89  1  0.15859024  0.83431225  0.66296109  1
  I  I90  1  0.49733842  0.16713680  -0.00225617  1
  I  I91  1  0.50392404  0.16539816  0.33488834  1
  I  I92  1  0.49789966  0.16672103  0.66731155  1
  I  I93  1  0.50719960  0.50075610  0.00327995  1
  I  I94  1  0.50715300  0.50165816  0.32924798  1
  I  I95  1  0.50132077  0.50007333  0.66660246  1
  I  I96  1  0.50725666  0.83110380  0.00459597  1
  I  I97  1  0.50303380  0.83291293  0.32992675  1
  I  I98  1  0.50015188  0.83333574  0.66644595  1
  I  I99  1  0.83055507  0.16634883  0.00337472  1
  I  I100  1  0.82885936  0.17041501  0.33008467  1
  I  I101  1  0.83372319  0.16684193  0.66678872  1
  I  I102  1  0.83320020  0.49904900  0.00095370  1
  I  I103  1  0.82792323  0.50114270  0.33248951  1
  I  I104  1  0.83858560  0.50332708  0.66653564  1
  I  I105  1  0.82926632  0.83356127  0.00342750  1
  I  I106  1  0.83329810  0.82900957  0.33257281  1
  I  I107  1  0.83773462  0.83027613  0.66328689  1
  I  I108  1  -0.00491536  0.16758316  0.16668683  1
  I  I109  1  -0.00013507  0.16770490  0.50000388  1
  I  I110  1  0.00222338  0.16941162  0.83606715  1
  I  I111  1  -0.00393232  0.50098326  0.16755251  1
  I  I112  1  -0.00406705  0.50022778  0.49395530  1
  I  I113  1  -0.00104548  0.49414556  0.83570856  1
  I  I114  1  -0.00377352  0.83216122  0.16790548  1
  I  I115  1  -0.00205783  0.83043619  0.49407675  1
  I  I116  1  -0.00022991  0.83770957  0.83765779  1
  I  I117  1  0.33332611  0.16620142  0.16797221  1
  I  I118  1  0.33669168  0.16471832  0.49902696  1
  I  I119  1  0.33332726  0.17282192  0.83059309  1
  I  I120  1  0.33629209  0.50419893  0.16422358  1
  I  I121  1  0.33345212  0.50131018  0.49981907  1
  I  I122  1  0.33101423  0.49720522  0.83587896  1
  I  I123  1  0.33629633  0.82968703  0.16746931  1
  I  I124  1  0.33163192  0.83617110  0.49959951  1
  I  I125  1  0.33340850  0.82876569  0.83250669  1
  I  I126  1  0.66930260  0.16719396  0.16435841  1
  I  I127  1  0.66416106  0.16481237  0.50626889  1
  I  I128  1  0.66438379  0.16779306  0.83164466  1
  I  I129  1  0.66865771  0.50034321  0.16406757  1
  I  I130  1  0.67076657  0.50648810  0.50449024  1
  I  I131  1  0.66953998  0.49853044  0.83352890  1
  I  I132  1  0.66838805  0.83289175  0.17207630  1
  I  I133  1  0.66990073  0.83048695  0.49685694  1
  I  I134  1  0.66670898  0.83440786  0.82869744  1
