# generated using pymatgen
data_Cs27Sn14Pb13I81
_symmetry_space_group_name_H-M   'P 1'
_cell_length_a   18.97501231
_cell_length_b   18.98280478
_cell_length_c   18.96901951
_cell_angle_alpha   89.99742026
_cell_angle_beta   89.99953132
_cell_angle_gamma   90.00076648
_symmetry_Int_Tables_number   1
_chemical_formula_structural   Cs27Sn14Pb13I81
_chemical_formula_sum   'Cs27 Sn14 Pb13 I81'
_cell_volume   6832.62098152
_cell_formula_units_Z   1
loop_
 _symmetry_equiv_pos_site_id
 _symmetry_equiv_pos_as_xyz
  1  'x, y, z'
loop_
 _atom_site_type_symbol
 _atom_site_label
 _atom_site_symmetry_multiplicity
 _atom_site_fract_x
 _atom_site_fract_y
 _atom_site_fract_z
 _atom_site_occupancy
  Cs  Cs0  1  0.00120254  -0.00227292  0.00363355  1
  Cs  Cs1  1  0.00036062  0.00008114  0.33249542  1
  Cs  Cs2  1  0.00006648  0.00074229  0.66634672  1
  Cs  Cs3  1  -0.00025937  0.33629764  -0.00181218  1
  Cs  Cs4  1  0.00191716  0.33222347  0.33374392  1
  Cs  Cs5  1  -0.01048346  0.33507572  0.67181613  1
  Cs  Cs6  1  -0.00027126  0.66620081  0.00096631  1
  Cs  Cs7  1  0.00150934  0.66786605  0.32995021  1
  Cs  Cs8  1  0.00070614  0.66521517  0.67039328  1
  Cs  Cs9  1  0.33489425  0.00129069  -0.00275845  1
  Cs  Cs10  1  0.33147926  0.00068844  0.33564746  1
  Cs  Cs11  1  0.33224908  -0.00050635  0.66506678  1
  Cs  Cs12  1  0.33835336  0.32963296  0.00026614  1
  Cs  Cs13  1  0.33232141  0.33332652  0.33128307  1
  Cs  Cs14  1  0.33068222  0.32813796  0.66846100  1
  Cs  Cs15  1  0.33402907  0.66712534  -0.00228376  1
  Cs  Cs16  1  0.33331322  0.66547159  0.33514688  1
  Cs  Cs17  1  0.33498990  0.66852052  0.66742852  1
  Cs  Cs18  1  0.66450479  -0.00198445  -0.00012859  1
  Cs  Cs19  1  0.66910137  -0.00219562  0.33360216  1
  Cs  Cs20  1  0.66733718  0.00024527  0.66656567  1
  Cs  Cs21  1  0.66083169  0.33046245  -0.00036041  1
  Cs  Cs22  1  0.66534464  0.33684128  0.33400766  1
  Cs  Cs23  1  0.68010629  0.33346653  0.66717914  1
  Cs  Cs24  1  0.66563085  0.66986007  -0.00026674  1
  Cs  Cs25  1  0.66321872  0.66599679  0.33573730  1
  Cs  Cs26  1  0.66395130  0.66583897  0.66578109  1
  Sn  Sn27  1  0.83449557  0.83292831  0.50099247  1
  Sn  Sn28  1  0.49994958  0.16706086  0.49996961  1
  Sn  Sn29  1  0.83396877  0.16811203  0.16686069  1
  Sn  Sn30  1  0.49852260  0.83329124  0.16643706  1
  Sn  Sn31  1  0.16623903  0.49988710  0.16720167  1
  Sn  Sn32  1  0.16709907  0.16711704  0.49949280  1
  Sn  Sn33  1  0.83284827  0.83325871  0.83220380  1
  Sn  Sn34  1  0.16590194  0.16677047  0.16709849  1
  Sn  Sn35  1  0.49977187  0.50022815  0.83284086  1
  Sn  Sn36  1  0.16808582  0.83327900  0.16733999  1
  Sn  Sn37  1  0.83360396  0.49879106  0.16690618  1
  Sn  Sn38  1  0.16567157  0.83300187  0.49930420  1
  Sn  Sn39  1  0.50066318  0.83262882  0.83386689  1
  Sn  Sn40  1  0.16666638  0.49977888  0.49992162  1
  Pb  Pb41  1  0.16864522  0.49989986  0.83367249  1
  Pb  Pb42  1  0.49751411  0.49697451  0.50259745  1
  Pb  Pb43  1  0.49966847  0.16427365  0.16865567  1
  Pb  Pb44  1  0.49953964  0.83452991  0.50022718  1
  Pb  Pb45  1  0.49938842  0.50217618  0.16549282  1
  Pb  Pb46  1  0.83110175  0.50239944  0.83617998  1
  Pb  Pb47  1  0.83589686  0.50271882  0.49765364  1
  Pb  Pb48  1  0.16685684  0.83340094  0.83324333  1
  Pb  Pb49  1  0.16630623  0.16680920  0.83340948  1
  Pb  Pb50  1  0.50015273  0.16625647  0.83019784  1
  Pb  Pb51  1  0.83422905  0.16491012  0.49786216  1
  Pb  Pb52  1  0.83349895  0.16381204  0.83681652  1
  Pb  Pb53  1  0.83362409  0.83310247  0.16684879  1
  I  I54  1  0.16552154  -0.00025589  0.17206156  1
  I  I55  1  0.16707629  -0.00032338  0.49413700  1
  I  I56  1  0.16916433  -0.00024845  0.83409124  1
  I  I57  1  0.16169510  0.33326068  0.17308530  1
  I  I58  1  0.17414960  0.33294237  0.49230051  1
  I  I59  1  0.17069624  0.33346608  0.83339474  1
  I  I60  1  0.16589941  0.66698704  0.17217760  1
  I  I61  1  0.16226010  0.66737029  0.49331240  1
  I  I62  1  0.16533141  0.66687259  0.83363647  1
  I  I63  1  0.49737675  -0.00372343  0.16088664  1
  I  I64  1  0.49352107  0.00204022  0.50046193  1
  I  I65  1  0.50367119  -0.00334125  0.83720794  1
  I  I66  1  0.49868440  0.33328112  0.16443836  1
  I  I67  1  0.49365888  0.32959501  0.49898915  1
  I  I68  1  0.49670003  0.33565025  0.83436106  1
  I  I69  1  0.49737909  0.67031980  0.16588876  1
  I  I70  1  0.49966205  0.66660392  0.49855456  1
  I  I71  1  0.50298916  0.66849410  0.83740182  1
  I  I72  1  0.83677118  0.00157700  0.16696831  1
  I  I73  1  0.83822766  -0.00314317  0.50014350  1
  I  I74  1  0.82633624  -0.00414235  0.83156589  1
  I  I75  1  0.84166311  0.33329254  0.16756169  1
  I  I76  1  0.83266397  0.33350870  0.50121152  1
  I  I77  1  0.83154321  0.33356498  0.83169540  1
  I  I78  1  0.83735685  0.66491656  0.16607060  1
  I  I79  1  0.83708040  0.67070664  0.50050317  1
  I  I80  1  0.83201412  0.67027150  0.83248842  1
  I  I81  1  0.16306866  0.16553399  0.00422122  1
  I  I82  1  0.16692693  0.16521867  0.33298245  1
  I  I83  1  0.17265716  0.16416014  0.66276985  1
  I  I84  1  0.16330195  0.50149334  0.00386692  1
  I  I85  1  0.16389971  0.50101746  0.33247171  1
  I  I86  1  0.17001735  0.50176578  0.66345102  1
  I  I87  1  0.16660432  0.83335002  0.00343302  1
  I  I88  1  0.16632599  0.83381308  0.33296001  1
  I  I89  1  0.16624892  0.83395295  0.66325679  1
  I  I90  1  0.49964540  0.16696677  0.00009457  1
  I  I91  1  0.49695068  0.16350798  0.33611718  1
  I  I92  1  0.49120400  0.16292554  0.66268986  1
  I  I93  1  0.49826386  0.50285576  -0.00242171  1
  I  I94  1  0.50227530  0.50174658  0.33343863  1
  I  I95  1  0.49776591  0.50964689  0.66992878  1
  I  I96  1  0.50094223  0.83092927  0.00004050  1
  I  I97  1  0.49971624  0.83523358  0.33112167  1
  I  I98  1  0.50102065  0.83126253  0.66911820  1
  I  I99  1  0.83946449  0.16768880  0.00481876  1
  I  I100  1  0.83555982  0.16573550  0.32998590  1
  I  I101  1  0.83325411  0.16675198  0.66651177  1
  I  I102  1  0.84170764  0.49963358  0.00394639  1
  I  I103  1  0.83371330  0.49950204  0.32966895  1
  I  I104  1  0.83427102  0.49927034  0.66664313  1
  I  I105  1  0.83154374  0.83349900  -0.00164196  1
  I  I106  1  0.83446942  0.83434857  0.33527691  1
  I  I107  1  0.83312677  0.83409134  0.66623008  1
  I  I108  1  0.00170031  0.16338920  0.17245860  1
  I  I109  1  0.00353649  0.16641358  0.49654638  1
  I  I110  1  -0.00028491  0.16488973  0.82831768  1
  I  I111  1  0.00156995  0.50260328  0.16980300  1
  I  I112  1  0.00418728  0.49503742  0.49886416  1
  I  I113  1  -0.00025717  0.50120818  0.83192408  1
  I  I114  1  0.00289134  0.83375844  0.16753999  1
  I  I115  1  0.00160705  0.83607351  0.49860515  1
  I  I116  1  -0.00240812  0.83435629  0.83314062  1
  I  I117  1  0.32999378  0.16886562  0.16881106  1
  I  I118  1  0.33103227  0.16331580  0.49494704  1
  I  I119  1  0.33352846  0.16431038  0.83750052  1
  I  I120  1  0.32982232  0.49815806  0.16938040  1
  I  I121  1  0.32927706  0.50665142  0.49225079  1
  I  I122  1  0.33627331  0.50881940  0.83527412  1
  I  I123  1  0.33180458  0.83332416  0.16679279  1
  I  I124  1  0.33009908  0.83251743  0.49861445  1
  I  I125  1  0.33611775  0.82983736  0.83499149  1
  I  I126  1  0.66896167  0.16835018  0.16821695  1
  I  I127  1  0.66512693  0.16206728  0.49874030  1
  I  I128  1  0.66671897  0.16790129  0.83296953  1
  I  I129  1  0.66890325  0.49782395  0.16386335  1
  I  I130  1  0.66684756  0.50030376  0.49874728  1
  I  I131  1  0.66345522  0.50312063  0.83478474  1
  I  I132  1  0.66497832  0.83378449  0.16590397  1
  I  I133  1  0.66853067  0.83678400  0.49918349  1
  I  I134  1  0.66595085  0.82984479  0.83504999  1
