# generated using pymatgen
data_Cs27Sn13Pb14I81
_symmetry_space_group_name_H-M   'P 1'
_cell_length_a   19.28062848
_cell_length_b   19.25329397
_cell_length_c   19.25891905
_cell_angle_alpha   90.02232087
_cell_angle_beta   90.00341818
_cell_angle_gamma   89.98803168
_symmetry_Int_Tables_number   1
_chemical_formula_structural   Cs27Sn13Pb14I81
_chemical_formula_sum   'Cs27 Sn13 Pb14 I81'
_cell_volume   7149.21063496
_cell_formula_units_Z   1
loop_
 _symmetry_equiv_pos_site_id
 _symmetry_equiv_pos_as_xyz
  1  'x, y, z'
loop_
 _atom_site_type_symbol
 _atom_site_label
 _atom_site_symmetry_multiplicity
 _atom_site_fract_x
 _atom_site_fract_y
 _atom_site_fract_z
 _atom_site_occupancy
  Cs  Cs0  1  0.00042793  0.00920412  -0.00414010  1
  Cs  Cs1  1  -0.00477289  -0.02985089  0.34505308  1
  Cs  Cs2  1  -0.00901632  0.02068459  0.65342091  1
  Cs  Cs3  1  -0.01245512  0.32350992  0.01415355  1
  Cs  Cs4  1  -0.00258073  0.33481579  0.30927866  1
  Cs  Cs5  1  0.00397277  0.30812728  0.65353658  1
  Cs  Cs6  1  0.00008381  0.67533414  -0.02294017  1
  Cs  Cs7  1  0.00668309  0.68596984  0.33971494  1
  Cs  Cs8  1  0.00913849  0.66067520  0.70576081  1
  Cs  Cs9  1  0.34916291  0.00631465  -0.01477337  1
  Cs  Cs10  1  0.33310031  -0.04265991  0.33960953  1
  Cs  Cs11  1  0.36030984  0.02674295  0.66703857  1
  Cs  Cs12  1  0.33054589  0.33081321  0.02148595  1
  Cs  Cs13  1  0.33588711  0.34034192  0.30133960  1
  Cs  Cs14  1  0.32233756  0.30450879  0.67119536  1
  Cs  Cs15  1  0.32295677  0.67138598  -0.01409863  1
  Cs  Cs16  1  0.31262165  0.66581827  0.34221562  1
  Cs  Cs17  1  0.31783895  0.66013164  0.67417667  1
  Cs  Cs18  1  0.67162125  -0.01291629  -0.00336473  1
  Cs  Cs19  1  0.67576846  -0.01302415  0.36114671  1
  Cs  Cs20  1  0.63861132  0.00004887  0.64823738  1
  Cs  Cs21  1  0.68726528  0.33724198  0.01671916  1
  Cs  Cs22  1  0.66257203  0.33847669  0.30819075  1
  Cs  Cs23  1  0.66973547  0.36373547  0.65025445  1
  Cs  Cs24  1  0.65840522  0.67036820  -0.01082584  1
  Cs  Cs25  1  0.66868093  0.66172533  0.33003486  1
  Cs  Cs26  1  0.66125608  0.64043318  0.68632817  1
  Sn  Sn27  1  0.49790829  0.49983358  0.49702894  1
  Sn  Sn28  1  0.83023576  0.16671237  0.83468880  1
  Sn  Sn29  1  0.16646972  0.83807315  0.83381112  1
  Sn  Sn30  1  0.17060693  0.49581348  0.83518008  1
  Sn  Sn31  1  0.50048372  0.50327648  0.16514274  1
  Sn  Sn32  1  0.83192415  0.16425698  0.16719053  1
  Sn  Sn33  1  0.49547117  0.49591228  0.83470003  1
  Sn  Sn34  1  0.83631946  0.50042427  0.49547932  1
  Sn  Sn35  1  0.83271753  0.83938236  0.83238267  1
  Sn  Sn36  1  0.16478954  0.50167306  0.16595632  1
  Sn  Sn37  1  0.50081540  0.16513313  0.16482590  1
  Sn  Sn38  1  0.16761573  0.16524538  0.16734753  1
  Sn  Sn39  1  0.83500170  0.50427821  0.16891862  1
  Pb  Pb40  1  0.16589283  0.83276776  0.50810624  1
  Pb  Pb41  1  0.50116887  0.83362264  0.16606491  1
  Pb  Pb42  1  0.83347431  0.83245919  0.16423519  1
  Pb  Pb43  1  0.16561731  0.83485157  0.16367555  1
  Pb  Pb44  1  0.50027618  0.83152210  0.83246530  1
  Pb  Pb45  1  0.16559665  0.49822521  0.49970975  1
  Pb  Pb46  1  0.83338711  0.82629015  0.50801091  1
  Pb  Pb47  1  0.16822962  0.17020543  0.49243875  1
  Pb  Pb48  1  0.83154920  0.17009037  0.49785255  1
  Pb  Pb49  1  0.50047540  0.82580023  0.50039401  1
  Pb  Pb50  1  0.83368203  0.49728285  0.83397024  1
  Pb  Pb51  1  0.50098521  0.17421254  0.49357665  1
  Pb  Pb52  1  0.16457345  0.16670773  0.83641502  1
  Pb  Pb53  1  0.50568402  0.17370661  0.83660741  1
  I  I54  1  0.16627151  0.00510273  0.16448544  1
  I  I55  1  0.15787029  0.00023857  0.48618196  1
  I  I56  1  0.15089162  -0.00421528  0.84478754  1
  I  I57  1  0.16739341  0.33795346  0.14873428  1
  I  I58  1  0.16860697  0.33527924  0.53852127  1
  I  I59  1  0.18245141  0.33687050  0.81914642  1
  I  I60  1  0.17323550  0.66396182  0.18251319  1
  I  I61  1  0.16389808  0.66556700  0.47260636  1
  I  I62  1  0.16174270  0.66365873  0.84850936  1
  I  I63  1  0.49500681  0.00589692  0.14840080  1
  I  I64  1  0.48896207  0.00102782  0.49727014  1
  I  I65  1  0.48870242  -0.00005839  0.83625379  1
  I  I66  1  0.49925165  0.33718835  0.16420145  1
  I  I67  1  0.51156038  0.33611715  0.52535593  1
  I  I68  1  0.47579722  0.33675881  0.81246046  1
  I  I69  1  0.50729378  0.66233904  0.17289736  1
  I  I70  1  0.51792006  0.66267263  0.48201214  1
  I  I71  1  0.51840507  0.66546331  0.84024189  1
  I  I72  1  0.83446295  0.00399598  0.15033936  1
  I  I73  1  0.84675686  0.00021463  0.49055442  1
  I  I74  1  0.85182412  -0.00005871  0.85991195  1
  I  I75  1  0.83366648  0.33502890  0.15983318  1
  I  I76  1  0.82552179  0.33432810  0.52307799  1
  I  I77  1  0.82488192  0.33008272  0.83404877  1
  I  I78  1  0.82712856  0.66246529  0.18906274  1
  I  I79  1  0.82302526  0.66462724  0.46809269  1
  I  I80  1  0.83086596  0.66756069  0.82461095  1
  I  I81  1  0.18192850  0.16764894  0.00261099  1
  I  I82  1  0.16271144  0.20488852  0.33042021  1
  I  I83  1  0.15792356  0.15414099  0.66795683  1
  I  I84  1  0.17984186  0.50603680  -0.00009398  1
  I  I85  1  0.17653647  0.47853853  0.33070585  1
  I  I86  1  0.16731770  0.53014999  0.66821252  1
  I  I87  1  0.15548139  0.82270794  -0.00110401  1
  I  I88  1  0.17006291  0.83868508  0.33361708  1
  I  I89  1  0.15918872  0.79630737  0.66945607  1
  I  I90  1  0.47861448  0.17906413  0.00081428  1
  I  I91  1  0.50671610  0.18819952  0.32880792  1
  I  I92  1  0.51127050  0.15883726  0.66847194  1
  I  I93  1  0.50513770  0.49526279  -0.00149049  1
  I  I94  1  0.50364817  0.48046077  0.33352477  1
  I  I95  1  0.50904621  0.51402034  0.66702108  1
  I  I96  1  0.49783963  0.82545917  -0.00070172  1
  I  I97  1  0.50574270  0.84750078  0.33327557  1
  I  I98  1  0.50236789  0.84091212  0.66648966  1
  I  I99  1  0.83612996  0.18037152  0.00277064  1
  I  I100  1  0.83144286  0.18068563  0.32982172  1
  I  I101  1  0.84666723  0.15744119  0.67067570  1
  I  I102  1  0.82135532  0.50343721  0.00261003  1
  I  I103  1  0.82354981  0.47458572  0.33223902  1
  I  I104  1  0.81573637  0.50941111  0.66508405  1
  I  I105  1  0.84324821  0.81629618  -0.00207708  1
  I  I106  1  0.82477745  0.84650129  0.33385404  1
  I  I107  1  0.85739261  0.85510570  0.66979652  1
  I  I108  1  0.00111134  0.18461570  0.15839643  1
  I  I109  1  0.00103665  0.17007702  0.50712361  1
  I  I110  1  -0.00146619  0.17841789  0.84558499  1
  I  I111  1  -0.00032982  0.48021448  0.16465542  1
  I  I112  1  -0.00370707  0.49644847  0.49261107  1
  I  I113  1  0.00088299  0.50950065  0.84001113  1
  I  I114  1  -0.00048260  0.82917203  0.19078941  1
  I  I115  1  -0.00031018  0.82631847  0.48451608  1
  I  I116  1  0.00083894  0.81693591  0.83638224  1
  I  I117  1  0.33236506  0.18651398  0.17011496  1
  I  I118  1  0.33353339  0.16605303  0.52058909  1
  I  I119  1  0.33196396  0.15142145  0.82107602  1
  I  I120  1  0.33447255  0.48748965  0.16294841  1
  I  I121  1  0.33608566  0.51463140  0.49493128  1
  I  I122  1  0.33502214  0.53210250  0.83478332  1
  I  I123  1  0.33302473  0.83889428  0.17112534  1
  I  I124  1  0.33242509  0.82094643  0.49158172  1
  I  I125  1  0.32957909  0.81738361  0.84129533  1
  I  I126  1  0.66580859  0.18657131  0.15640244  1
  I  I127  1  0.66711396  0.13942503  0.50368907  1
  I  I128  1  0.66912965  0.14435919  0.85210022  1
  I  I129  1  0.66669394  0.48654126  0.16720782  1
  I  I130  1  0.66732951  0.50137979  0.49917129  1
  I  I131  1  0.66470994  0.50101829  0.83552641  1
  I  I132  1  0.66744618  0.82931141  0.15235036  1
  I  I133  1  0.66855842  0.85431577  0.50942815  1
  I  I134  1  0.67098414  0.84150130  0.84380380  1
