# generated using pymatgen
data_Cs27Sn14Pb13I81
_symmetry_space_group_name_H-M   'P 1'
_cell_length_a   18.97011516
_cell_length_b   18.98026954
_cell_length_c   18.97618266
_cell_angle_alpha   89.99933915
_cell_angle_beta   89.99883903
_cell_angle_gamma   90.00122037
_symmetry_Int_Tables_number   1
_chemical_formula_structural   Cs27Sn14Pb13I81
_chemical_formula_sum   'Cs27 Sn14 Pb13 I81'
_cell_volume   6832.52445575
_cell_formula_units_Z   1
loop_
 _symmetry_equiv_pos_site_id
 _symmetry_equiv_pos_as_xyz
  1  'x, y, z'
loop_
 _atom_site_type_symbol
 _atom_site_label
 _atom_site_symmetry_multiplicity
 _atom_site_fract_x
 _atom_site_fract_y
 _atom_site_fract_z
 _atom_site_occupancy
  Cs  Cs0  1  0.00107069  0.00232265  -0.00378796  1
  Cs  Cs1  1  -0.00133607  -0.00115270  0.33531959  1
  Cs  Cs2  1  0.00077654  -0.00007764  0.66830548  1
  Cs  Cs3  1  -0.00198355  0.33365858  0.00204300  1
  Cs  Cs4  1  0.00162742  0.33577788  0.33187212  1
  Cs  Cs5  1  0.00000725  0.33431829  0.66706462  1
  Cs  Cs6  1  -0.00295367  0.66441262  0.00063635  1
  Cs  Cs7  1  -0.00201499  0.66517047  0.33236059  1
  Cs  Cs8  1  0.00238348  0.66545631  0.66655755  1
  Cs  Cs9  1  0.33375939  0.00141378  -0.00016960  1
  Cs  Cs10  1  0.33228557  -0.00045169  0.33194710  1
  Cs  Cs11  1  0.33023994  -0.00011497  0.66930111  1
  Cs  Cs12  1  0.33369469  0.32989675  0.00503344  1
  Cs  Cs13  1  0.33429490  0.33331174  0.32995490  1
  Cs  Cs14  1  0.33294178  0.33433758  0.66526403  1
  Cs  Cs15  1  0.33530853  0.66998337  -0.00137723  1
  Cs  Cs16  1  0.33380755  0.66670971  0.33415161  1
  Cs  Cs17  1  0.33395388  0.66532994  0.66676919  1
  Cs  Cs18  1  0.66627423  0.00158692  0.00115199  1
  Cs  Cs19  1  0.66975925  -0.00573308  0.33913652  1
  Cs  Cs20  1  0.66949230  0.00137984  0.65991060  1
  Cs  Cs21  1  0.66772208  0.33360790  -0.00044375  1
  Cs  Cs22  1  0.66201079  0.33042593  0.33575422  1
  Cs  Cs23  1  0.66430046  0.33527447  0.66439920  1
  Cs  Cs24  1  0.66684230  0.66545650  0.00137223  1
  Cs  Cs25  1  0.66759988  0.67770576  0.33124450  1
  Cs  Cs26  1  0.65567245  0.66190288  0.66803351  1
  Sn  Sn27  1  0.16659788  0.49962905  0.83335817  1
  Sn  Sn28  1  0.16618802  0.83323633  0.16617853  1
  Sn  Sn29  1  0.16630977  0.83315028  0.50006631  1
  Sn  Sn30  1  0.16574651  0.49980646  0.50060347  1
  Sn  Sn31  1  0.16573874  0.83302898  0.83347286  1
  Sn  Sn32  1  0.50033120  0.49984094  0.16661898  1
  Sn  Sn33  1  0.83320723  0.16606548  0.83379848  1
  Sn  Sn34  1  0.16652791  0.16699205  0.50061498  1
  Sn  Sn35  1  0.50165063  0.16703138  0.16599313  1
  Sn  Sn36  1  0.83379237  0.83353854  0.83286429  1
  Sn  Sn37  1  0.50020355  0.16649566  0.83365786  1
  Sn  Sn38  1  0.16657390  0.16733960  0.83272197  1
  Sn  Sn39  1  0.83242182  0.16668233  0.16649984  1
  Sn  Sn40  1  0.83359058  0.50010029  0.50001851  1
  Pb  Pb41  1  0.49714622  0.49728949  0.83548012  1
  Pb  Pb42  1  0.16646509  0.16508424  0.16651825  1
  Pb  Pb43  1  0.83497263  0.49980801  0.83180521  1
  Pb  Pb44  1  0.83577081  0.16827495  0.50043178  1
  Pb  Pb45  1  0.50040732  0.83612795  0.83329648  1
  Pb  Pb46  1  0.83556362  0.83067066  0.50334686  1
  Pb  Pb47  1  0.83081712  0.49777789  0.16916324  1
  Pb  Pb48  1  0.16803288  0.50242630  0.16658840  1
  Pb  Pb49  1  0.49732421  0.16649047  0.49989870  1
  Pb  Pb50  1  0.49957261  0.50001453  0.49745166  1
  Pb  Pb51  1  0.83576633  0.83589509  0.16418695  1
  Pb  Pb52  1  0.49733436  0.83349209  0.50041422  1
  Pb  Pb53  1  0.49827554  0.83441119  0.16639756  1
  I  I54  1  0.16860372  -0.00266994  0.16662545  1
  I  I55  1  0.16847231  0.00001551  0.50292538  1
  I  I56  1  0.16680603  0.00053493  0.83101775  1
  I  I57  1  0.16597408  0.33319283  0.16708043  1
  I  I58  1  0.16364355  0.33350170  0.50733209  1
  I  I59  1  0.16691596  0.33222031  0.82617262  1
  I  I60  1  0.16947478  0.67015942  0.16592181  1
  I  I61  1  0.16367289  0.66647348  0.50299087  1
  I  I62  1  0.16229493  0.66735410  0.83098407  1
  I  I63  1  0.50082038  0.00366766  0.16127578  1
  I  I64  1  0.49899836  0.00034753  0.49699728  1
  I  I65  1  0.49286514  0.00425358  0.84105767  1
  I  I66  1  0.50057098  0.33165433  0.16296482  1
  I  I67  1  0.49616235  0.33320446  0.50146803  1
  I  I68  1  0.50008619  0.32919097  0.83477989  1
  I  I69  1  0.49553783  0.66457856  0.16887385  1
  I  I70  1  0.49796169  0.66641535  0.49800183  1
  I  I71  1  0.49937896  0.66646981  0.83455741  1
  I  I72  1  0.82737995  0.00387229  0.16620268  1
  I  I73  1  0.83429711  -0.00010709  0.49767402  1
  I  I74  1  0.83967332  0.00140684  0.83715587  1
  I  I75  1  0.83483558  0.32976909  0.15915315  1
  I  I76  1  0.84161101  0.33576991  0.50184495  1
  I  I77  1  0.83534292  0.32998325  0.83593072  1
  I  I78  1  0.83219908  0.66682787  0.16612575  1
  I  I79  1  0.84115637  0.66337247  0.49999636  1
  I  I80  1  0.84116105  0.66909456  0.83145098  1
  I  I81  1  0.16700439  0.16615163  -0.00319118  1
  I  I82  1  0.16691900  0.16634205  0.33573585  1
  I  I83  1  0.16689894  0.16305378  0.66819165  1
  I  I84  1  0.16848299  0.49889777  -0.00294107  1
  I  I85  1  0.16507995  0.49954763  0.33634253  1
  I  I86  1  0.16402860  0.50286462  0.66661938  1
  I  I87  1  0.16458422  0.83467764  -0.00161737  1
  I  I88  1  0.16935712  0.83432952  0.33415094  1
  I  I89  1  0.16331792  0.83425586  0.66741551  1
  I  I90  1  0.49679288  0.17017264  -0.00041147  1
  I  I91  1  0.50134112  0.17090579  0.33012710  1
  I  I92  1  0.50128968  0.16543552  0.66992246  1
  I  I93  1  0.49765166  0.49766395  0.00296509  1
  I  I94  1  0.49584015  0.49101489  0.33001677  1
  I  I95  1  0.50091223  0.49912323  0.66676012  1
  I  I96  1  0.49444201  0.83101669  -0.00017591  1
  I  I97  1  0.49718487  0.83517077  0.33316012  1
  I  I98  1  0.49760688  0.83410751  0.66713500  1
  I  I99  1  0.83593655  0.16403433  -0.00144225  1
  I  I100  1  0.83072332  0.16942853  0.33110634  1
  I  I101  1  0.83204097  0.16352686  0.67010080  1
  I  I102  1  0.83466573  0.50140416  -0.00007120  1
  I  I103  1  0.84316687  0.49776333  0.33665862  1
  I  I104  1  0.83736150  0.49731785  0.66400601  1
  I  I105  1  0.84118249  0.83412827  -0.00362614  1
  I  I106  1  0.83490520  0.83406671  0.33360280  1
  I  I107  1  0.84123103  0.84307349  0.67083765  1
  I  I108  1  -0.00207664  0.16423838  0.16301555  1
  I  I109  1  0.00409148  0.16430134  0.50381415  1
  I  I110  1  0.00082909  0.16527657  0.83360634  1
  I  I111  1  -0.00003231  0.49911151  0.16571927  1
  I  I112  1  0.00267117  0.49952355  0.50326288  1
  I  I113  1  0.00370147  0.49598429  0.83224884  1
  I  I114  1  0.00385136  0.83440552  0.16888705  1
  I  I115  1  0.00426176  0.83629458  0.49854564  1
  I  I116  1  0.00222219  0.83938981  0.83331221  1
  I  I117  1  0.33534730  0.16854354  0.16390336  1
  I  I118  1  0.32872487  0.16856895  0.50367777  1
  I  I119  1  0.33195665  0.16662756  0.83377006  1
  I  I120  1  0.33559157  0.49189667  0.16769597  1
  I  I121  1  0.32946655  0.50070027  0.50329933  1
  I  I122  1  0.32872680  0.50195768  0.82645165  1
  I  I123  1  0.32977626  0.83602974  0.16461306  1
  I  I124  1  0.32788088  0.83090253  0.50319557  1
  I  I125  1  0.32945055  0.83406353  0.83258358  1
  I  I126  1  0.66634180  0.17132538  0.15723817  1
  I  I127  1  0.66690901  0.17014149  0.50260261  1
  I  I128  1  0.66731739  0.16199163  0.83933825  1
  I  I129  1  0.66314649  0.49765260  0.16684333  1
  I  I130  1  0.66914794  0.49720741  0.50028519  1
  I  I131  1  0.66652050  0.50097411  0.83106176  1
  I  I132  1  0.66703606  0.83095273  0.16509880  1
  I  I133  1  0.66743611  0.83145308  0.50037755  1
  I  I134  1  0.66999290  0.83784672  0.83436067  1
