# generated using pymatgen
data_Cs27Sn13Pb14I81
_symmetry_space_group_name_H-M   'P 1'
_cell_length_a   18.97768522
_cell_length_b   18.97353815
_cell_length_c   18.97743537
_cell_angle_alpha   90.00145130
_cell_angle_beta   89.99802789
_cell_angle_gamma   89.99925243
_symmetry_Int_Tables_number   1
_chemical_formula_structural   Cs27Sn13Pb14I81
_chemical_formula_sum   'Cs27 Sn13 Pb14 I81'
_cell_volume   6833.27791436
_cell_formula_units_Z   1
loop_
 _symmetry_equiv_pos_site_id
 _symmetry_equiv_pos_as_xyz
  1  'x, y, z'
loop_
 _atom_site_type_symbol
 _atom_site_label
 _atom_site_symmetry_multiplicity
 _atom_site_fract_x
 _atom_site_fract_y
 _atom_site_fract_z
 _atom_site_occupancy
  Cs  Cs0  1  0.00294945  -0.00139076  -0.00524927  1
  Cs  Cs1  1  -0.00076232  0.00273922  0.33325192  1
  Cs  Cs2  1  0.00152611  0.00017230  0.67246002  1
  Cs  Cs3  1  -0.00014445  0.33437524  -0.00307884  1
  Cs  Cs4  1  -0.00014007  0.33172818  0.33468282  1
  Cs  Cs5  1  0.00012813  0.33402521  0.66568849  1
  Cs  Cs6  1  -0.00099600  0.66755082  0.00235704  1
  Cs  Cs7  1  0.00046337  0.66628942  0.33184865  1
  Cs  Cs8  1  -0.00274793  0.66289139  0.66648218  1
  Cs  Cs9  1  0.32966194  0.00451003  -0.00911390  1
  Cs  Cs10  1  0.33142647  -0.00348525  0.33585762  1
  Cs  Cs11  1  0.33324440  -0.00434078  0.67090906  1
  Cs  Cs12  1  0.34181745  0.33201631  0.00032195  1
  Cs  Cs13  1  0.33264449  0.33391011  0.33295780  1
  Cs  Cs14  1  0.33129464  0.33241821  0.66641560  1
  Cs  Cs15  1  0.33500900  0.66350280  0.00705237  1
  Cs  Cs16  1  0.33031744  0.66968255  0.33187140  1
  Cs  Cs17  1  0.33824758  0.67128953  0.66351643  1
  Cs  Cs18  1  0.66450634  0.00008673  0.00231841  1
  Cs  Cs19  1  0.66794218  0.00147240  0.33144754  1
  Cs  Cs20  1  0.66623496  -0.00599849  0.66716764  1
  Cs  Cs21  1  0.66009229  0.33144336  0.00159108  1
  Cs  Cs22  1  0.66716868  0.32924630  0.33407799  1
  Cs  Cs23  1  0.66823162  0.33496800  0.66423925  1
  Cs  Cs24  1  0.66734084  0.66704845  -0.00093897  1
  Cs  Cs25  1  0.66790495  0.66802460  0.33346326  1
  Cs  Cs26  1  0.66674818  0.66751152  0.66772108  1
  Sn  Sn27  1  0.83276228  0.16771554  0.83334048  1
  Sn  Sn28  1  0.16766555  0.16725591  0.49932215  1
  Sn  Sn29  1  0.49996901  0.49933621  0.49974209  1
  Sn  Sn30  1  0.83389198  0.83272527  0.49910741  1
  Sn  Sn31  1  0.83332034  0.50060914  0.49962593  1
  Sn  Sn32  1  0.16644630  0.50006703  0.83277439  1
  Sn  Sn33  1  0.83322716  0.49993166  0.16686953  1
  Sn  Sn34  1  0.83385433  0.49862652  0.83347572  1
  Sn  Sn35  1  0.50037367  0.83363985  0.16669551  1
  Sn  Sn36  1  0.49905175  0.16698964  0.50005216  1
  Sn  Sn37  1  0.83264655  0.83280629  0.16770231  1
  Sn  Sn38  1  0.16685642  0.49940214  0.50074675  1
  Sn  Sn39  1  0.16649803  0.16704475  0.16713162  1
  Pb  Pb40  1  0.50280601  0.16684015  0.83010763  1
  Pb  Pb41  1  0.16477535  0.49810883  0.16677757  1
  Pb  Pb42  1  0.83333393  0.83254294  0.83383863  1
  Pb  Pb43  1  0.49739584  0.16426795  0.16908843  1
  Pb  Pb44  1  0.16381308  0.83316425  0.50017166  1
  Pb  Pb45  1  0.16666244  0.82890534  0.83323575  1
  Pb  Pb46  1  0.83488771  0.16647519  0.16436420  1
  Pb  Pb47  1  0.16606341  0.83596306  0.16667237  1
  Pb  Pb48  1  0.50269203  0.50145295  0.16961057  1
  Pb  Pb49  1  0.16530426  0.16907309  0.83257584  1
  Pb  Pb50  1  0.50005374  0.50009136  0.83093530  1
  Pb  Pb51  1  0.83367892  0.16647163  0.50162206  1
  Pb  Pb52  1  0.50225275  0.83338463  0.49852349  1
  Pb  Pb53  1  0.50000677  0.83300647  0.83678648  1
  I  I54  1  0.16398715  0.00373530  0.17387745  1
  I  I55  1  0.16919112  0.00317124  0.49538710  1
  I  I56  1  0.16409383  0.00038924  0.83367400  1
  I  I57  1  0.16343217  0.33056391  0.16978199  1
  I  I58  1  0.16433213  0.33438158  0.49975925  1
  I  I59  1  0.16158567  0.33683880  0.83051020  1
  I  I60  1  0.16770121  0.66643446  0.16634264  1
  I  I61  1  0.16842504  0.66288953  0.50389641  1
  I  I62  1  0.15748487  0.66100518  0.82726803  1
  I  I63  1  0.50971517  -0.00314974  0.17035624  1
  I  I64  1  0.49751475  0.00252778  0.49827306  1
  I  I65  1  0.50256213  0.00017878  0.83002293  1
  I  I66  1  0.50085465  0.33323750  0.16576266  1
  I  I67  1  0.50246269  0.33428659  0.49954501  1
  I  I68  1  0.49988172  0.33347285  0.83716182  1
  I  I69  1  0.50133764  0.66932983  0.16919876  1
  I  I70  1  0.49828795  0.66369669  0.49951084  1
  I  I71  1  0.50215070  0.66627539  0.82921534  1
  I  I72  1  0.83090350  -0.00286098  0.17093619  1
  I  I73  1  0.83237214  -0.00230988  0.49679265  1
  I  I74  1  0.83383847  0.00219360  0.83184511  1
  I  I75  1  0.83630085  0.33624992  0.17034907  1
  I  I76  1  0.83340291  0.33653011  0.49815798  1
  I  I77  1  0.83778435  0.33554965  0.83157985  1
  I  I78  1  0.83125251  0.66602613  0.16621177  1
  I  I79  1  0.83309936  0.66455070  0.50147358  1
  I  I80  1  0.83727246  0.66293016  0.83245276  1
  I  I81  1  0.16264022  0.16591589  0.00169725  1
  I  I82  1  0.16790174  0.17229971  0.33514479  1
  I  I83  1  0.16825355  0.16954639  0.66341056  1
  I  I84  1  0.15952994  0.49930853  -0.00240781  1
  I  I85  1  0.16507746  0.49798563  0.33666172  1
  I  I86  1  0.16007443  0.49373862  0.66494066  1
  I  I87  1  0.16408336  0.83533658  0.00015391  1
  I  I88  1  0.16702737  0.82933755  0.33346014  1
  I  I89  1  0.16459158  0.83937397  0.66639198  1
  I  I90  1  0.49873675  0.16483202  0.00013146  1
  I  I91  1  0.50115008  0.17131135  0.33697983  1
  I  I92  1  0.49386880  0.17058823  0.66210758  1
  I  I93  1  0.49965345  0.50214072  0.00041914  1
  I  I94  1  0.49943804  0.49666091  0.33775005  1
  I  I95  1  0.50498811  0.49726466  0.66240934  1
  I  I96  1  0.50904770  0.83255959  0.00465973  1
  I  I97  1  0.50410335  0.83276888  0.33090321  1
  I  I98  1  0.50189556  0.83354509  0.66620828  1
  I  I99  1  0.83696215  0.17094979  -0.00316649  1
  I  I100  1  0.83257127  0.16835511  0.33351620  1
  I  I101  1  0.83524439  0.17130319  0.66917508  1
  I  I102  1  0.83952193  0.50093866  -0.00022466  1
  I  I103  1  0.83382364  0.50512457  0.33437254  1
  I  I104  1  0.83417913  0.50005437  0.66556776  1
  I  I105  1  0.82988122  0.82994737  0.00324637  1
  I  I106  1  0.83045241  0.82556382  0.33326737  1
  I  I107  1  0.83354019  0.83020617  0.66401805  1
  I  I108  1  0.00244589  0.16604695  0.17446807  1
  I  I109  1  0.00260573  0.17004577  0.49775448  1
  I  I110  1  -0.00268875  0.16870626  0.83078696  1
  I  I111  1  -0.00363947  0.50543615  0.17057012  1
  I  I112  1  -0.00060439  0.49974744  0.50089723  1
  I  I113  1  -0.00152511  0.49622569  0.82777510  1
  I  I114  1  -0.00361476  0.82940917  0.17006669  1
  I  I115  1  -0.00429913  0.82914811  0.49381167  1
  I  I116  1  -0.00044485  0.83690843  0.83525994  1
  I  I117  1  0.32972602  0.16682072  0.16788581  1
  I  I118  1  0.33257198  0.17520599  0.49569479  1
  I  I119  1  0.33322266  0.16764660  0.83588035  1
  I  I120  1  0.33340054  0.50177353  0.16583851  1
  I  I121  1  0.33256367  0.49481500  0.50478791  1
  I  I122  1  0.33018677  0.49969496  0.82876388  1
  I  I123  1  0.33576639  0.83363761  0.16827189  1
  I  I124  1  0.33346498  0.83056435  0.49750605  1
  I  I125  1  0.33328770  0.83436790  0.83351534  1
  I  I126  1  0.66667525  0.16793626  0.16704723  1
  I  I127  1  0.66492394  0.17032368  0.50209031  1
  I  I128  1  0.67072730  0.17378882  0.83305896  1
  I  I129  1  0.67112313  0.50072927  0.16585918  1
  I  I130  1  0.66782825  0.49973509  0.50005424  1
  I  I131  1  0.67031626  0.49761972  0.83212834  1
  I  I132  1  0.66862238  0.82981671  0.17123576  1
  I  I133  1  0.67029007  0.82957440  0.49878322  1
  I  I134  1  0.66720327  0.83160855  0.82985655  1
