# generated using pymatgen
data_Cs27Sn14Pb13I81
_symmetry_space_group_name_H-M   'P 1'
_cell_length_a   18.97278999
_cell_length_b   18.98244421
_cell_length_c   18.97232835
_cell_angle_alpha   89.99924034
_cell_angle_beta   90.00156425
_cell_angle_gamma   90.00061285
_symmetry_Int_Tables_number   1
_chemical_formula_structural   Cs27Sn14Pb13I81
_chemical_formula_sum   'Cs27 Sn14 Pb13 I81'
_cell_volume   6832.88267329
_cell_formula_units_Z   1
loop_
 _symmetry_equiv_pos_site_id
 _symmetry_equiv_pos_as_xyz
  1  'x, y, z'
loop_
 _atom_site_type_symbol
 _atom_site_label
 _atom_site_symmetry_multiplicity
 _atom_site_fract_x
 _atom_site_fract_y
 _atom_site_fract_z
 _atom_site_occupancy
  Cs  Cs0  1  -0.00141936  -0.00241377  -0.00248159  1
  Cs  Cs1  1  0.00478148  -0.00782196  0.33504026  1
  Cs  Cs2  1  0.00110223  -0.00063872  0.66455384  1
  Cs  Cs3  1  -0.00501904  0.33919052  -0.00185188  1
  Cs  Cs4  1  0.00203438  0.33325514  0.33272161  1
  Cs  Cs5  1  -0.00105556  0.33244660  0.66859808  1
  Cs  Cs6  1  -0.00186542  0.66402574  0.00752849  1
  Cs  Cs7  1  -0.00167588  0.67469008  0.32492788  1
  Cs  Cs8  1  0.00098677  0.66740127  0.66616610  1
  Cs  Cs9  1  0.33644489  0.00199469  -0.00083703  1
  Cs  Cs10  1  0.32739336  0.00399352  0.33134743  1
  Cs  Cs11  1  0.33204621  -0.00061817  0.66862005  1
  Cs  Cs12  1  0.33355564  0.33268173  0.00190758  1
  Cs  Cs13  1  0.33300999  0.33048770  0.33077505  1
  Cs  Cs14  1  0.33294110  0.33602314  0.66594176  1
  Cs  Cs15  1  0.33412325  0.66677435  -0.00302677  1
  Cs  Cs16  1  0.33507857  0.66465704  0.33207452  1
  Cs  Cs17  1  0.33508820  0.66280023  0.66946661  1
  Cs  Cs18  1  0.66343544  0.00191733  -0.00094881  1
  Cs  Cs19  1  0.66749094  0.00153730  0.33312404  1
  Cs  Cs20  1  0.66652651  0.00010063  0.66699611  1
  Cs  Cs21  1  0.67065897  0.33153080  0.00041830  1
  Cs  Cs22  1  0.66412629  0.33069230  0.33774740  1
  Cs  Cs23  1  0.66900872  0.33278298  0.66394173  1
  Cs  Cs24  1  0.66648722  0.66727089  0.00121323  1
  Cs  Cs25  1  0.66684302  0.66790508  0.33453976  1
  Cs  Cs26  1  0.66314107  0.66739493  0.66440316  1
  Sn  Sn27  1  0.83419557  0.83290456  0.83305559  1
  Sn  Sn28  1  0.49988419  0.49856562  0.83432652  1
  Sn  Sn29  1  0.49933228  0.16817641  0.83220687  1
  Sn  Sn30  1  0.49959141  0.83490471  0.49874326  1
  Sn  Sn31  1  0.50022057  0.50041197  0.16548599  1
  Sn  Sn32  1  0.50014753  0.16547142  0.50097521  1
  Sn  Sn33  1  0.83376166  0.16655342  0.16812853  1
  Sn  Sn34  1  0.16735278  0.16725922  0.83319293  1
  Sn  Sn35  1  0.16492860  0.50021588  0.50028848  1
  Sn  Sn36  1  0.49989494  0.83288280  0.16809037  1
  Sn  Sn37  1  0.83514957  0.49982876  0.49989436  1
  Sn  Sn38  1  0.16531260  0.83277012  0.83320658  1
  Sn  Sn39  1  0.83330831  0.16705305  0.49879323  1
  Sn  Sn40  1  0.16714774  0.49988920  0.83267913  1
  Pb  Pb41  1  0.16956946  0.83054873  0.50200985  1
  Pb  Pb42  1  0.83093186  0.83558341  0.16444118  1
  Pb  Pb43  1  0.49954313  0.83332591  0.83317100  1
  Pb  Pb44  1  0.83170080  0.83365926  0.50147400  1
  Pb  Pb45  1  0.83061683  0.49817804  0.16987753  1
  Pb  Pb46  1  0.16317714  0.16678679  0.16344871  1
  Pb  Pb47  1  0.49975453  0.49940627  0.50018531  1
  Pb  Pb48  1  0.50104533  0.16678890  0.16672678  1
  Pb  Pb49  1  0.83327894  0.16522331  0.83247659  1
  Pb  Pb50  1  0.16958953  0.83343788  0.16379217  1
  Pb  Pb51  1  0.16875379  0.49992275  0.16649467  1
  Pb  Pb52  1  0.16655557  0.16849353  0.50185396  1
  Pb  Pb53  1  0.83313754  0.50224391  0.83146553  1
  I  I54  1  0.16995705  0.00008467  0.16496050  1
  I  I55  1  0.16492623  -0.00007425  0.50244960  1
  I  I56  1  0.16797809  0.00025018  0.83421714  1
  I  I57  1  0.17086625  0.33335253  0.16474583  1
  I  I58  1  0.16864039  0.33634311  0.50709093  1
  I  I59  1  0.17255354  0.33391724  0.82919731  1
  I  I60  1  0.16480820  0.66664717  0.16476794  1
  I  I61  1  0.16385823  0.66276840  0.50760409  1
  I  I62  1  0.16945958  0.66569007  0.82832580  1
  I  I63  1  0.50254246  -0.00193422  0.16550543  1
  I  I64  1  0.50675543  0.00129164  0.50227326  1
  I  I65  1  0.49795208  0.00229911  0.83290104  1
  I  I66  1  0.50105505  0.33555547  0.16541342  1
  I  I67  1  0.50161247  0.33084041  0.50147423  1
  I  I68  1  0.49294004  0.33324539  0.83295354  1
  I  I69  1  0.50009121  0.66642236  0.16586216  1
  I  I70  1  0.50026147  0.66816823  0.50073547  1
  I  I71  1  0.49730872  0.66442171  0.83307404  1
  I  I72  1  0.82950668  0.00315218  0.17195229  1
  I  I73  1  0.82893247  0.00300739  0.49883298  1
  I  I74  1  0.83530201  -0.00246116  0.83193921  1
  I  I75  1  0.82977337  0.33045193  0.16479507  1
  I  I76  1  0.82879881  0.33254932  0.49866390  1
  I  I77  1  0.83477064  0.33339265  0.83501236  1
  I  I78  1  0.83341188  0.66666984  0.16662976  1
  I  I79  1  0.83356272  0.66432520  0.50456754  1
  I  I80  1  0.83468910  0.66978357  0.83093485  1
  I  I81  1  0.17377589  0.16840637  -0.00505194  1
  I  I82  1  0.17059224  0.16950755  0.33355765  1
  I  I83  1  0.16658379  0.16505213  0.67028192  1
  I  I84  1  0.16977448  0.50016597  -0.00376800  1
  I  I85  1  0.16583950  0.49850590  0.33632136  1
  I  I86  1  0.17052618  0.49986507  0.66821452  1
  I  I87  1  0.16510901  0.83048829  -0.00475809  1
  I  I88  1  0.16591028  0.83193550  0.33349777  1
  I  I89  1  0.16633800  0.83568888  0.67034335  1
  I  I90  1  0.49818402  0.16624665  -0.00285340  1
  I  I91  1  0.50349612  0.16681638  0.33607579  1
  I  I92  1  0.50279153  0.16642684  0.66688370  1
  I  I93  1  0.49417278  0.50093961  -0.00161863  1
  I  I94  1  0.50074829  0.50129839  0.33164072  1
  I  I95  1  0.49851746  0.50013106  0.66917655  1
  I  I96  1  0.50008479  0.83247496  0.00152110  1
  I  I97  1  0.50262439  0.83132385  0.33375056  1
  I  I98  1  0.50066243  0.83368225  0.66484171  1
  I  I99  1  0.83186547  0.16354826  0.00119324  1
  I  I100  1  0.82387661  0.17122894  0.33506923  1
  I  I101  1  0.83084533  0.16943467  0.66390250  1
  I  I102  1  0.83493569  0.49900180  0.00009885  1
  I  I103  1  0.83661472  0.49913777  0.33781677  1
  I  I104  1  0.83087943  0.49306358  0.66376942  1
  I  I105  1  0.83479139  0.83519094  -0.00346269  1
  I  I106  1  0.83250231  0.83159457  0.33336193  1
  I  I107  1  0.83324495  0.83598659  0.66935330  1
  I  I108  1  -0.00446257  0.16699767  0.17224209  1
  I  I109  1  -0.00277961  0.17009800  0.49899312  1
  I  I110  1  0.00258792  0.16872346  0.83391856  1
  I  I111  1  -0.00031655  0.49820392  0.16352390  1
  I  I112  1  0.00001925  0.49296768  0.50857386  1
  I  I113  1  0.00290454  0.49661840  0.83009028  1
  I  I114  1  -0.00011002  0.83439610  0.16666276  1
  I  I115  1  0.00027899  0.83552043  0.50107401  1
  I  I116  1  0.00095132  0.83540102  0.83157880  1
  I  I117  1  0.33340284  0.16657282  0.16844457  1
  I  I118  1  0.33629720  0.16477007  0.50289223  1
  I  I119  1  0.33450466  0.16473665  0.82812025  1
  I  I120  1  0.33706826  0.50243288  0.16737757  1
  I  I121  1  0.33147978  0.50108667  0.50298323  1
  I  I122  1  0.33346759  0.50208144  0.83033060  1
  I  I123  1  0.33766034  0.83052601  0.16819235  1
  I  I124  1  0.33769794  0.83804060  0.49927701  1
  I  I125  1  0.33108290  0.83298442  0.83316603  1
  I  I126  1  0.66874069  0.16668378  0.16501771  1
  I  I127  1  0.66602330  0.16967542  0.50283135  1
  I  I128  1  0.66380207  0.16853905  0.83268645  1
  I  I129  1  0.66275346  0.50383404  0.16059253  1
  I  I130  1  0.66822568  0.49862364  0.50039153  1
  I  I131  1  0.66354518  0.49731214  0.83479968  1
  I  I132  1  0.66310638  0.82947253  0.16644137  1
  I  I133  1  0.66348654  0.83135305  0.50128499  1
  I  I134  1  0.66782955  0.83449809  0.83308304  1
