# generated using pymatgen
data_Cs27Sn14Pb13I81
_symmetry_space_group_name_H-M   'P 1'
_cell_length_a   18.97035622
_cell_length_b   18.97594955
_cell_length_c   18.98066057
_cell_angle_alpha   89.99922277
_cell_angle_beta   89.99722150
_cell_angle_gamma   90.00126695
_symmetry_Int_Tables_number   1
_chemical_formula_structural   Cs27Sn14Pb13I81
_chemical_formula_sum   'Cs27 Sn14 Pb13 I81'
_cell_volume   6832.66810001
_cell_formula_units_Z   1
loop_
 _symmetry_equiv_pos_site_id
 _symmetry_equiv_pos_as_xyz
  1  'x, y, z'
loop_
 _atom_site_type_symbol
 _atom_site_label
 _atom_site_symmetry_multiplicity
 _atom_site_fract_x
 _atom_site_fract_y
 _atom_site_fract_z
 _atom_site_occupancy
  Cs  Cs0  1  0.00316779  -0.00067930  0.00065070  1
  Cs  Cs1  1  0.00097103  0.00080715  0.33182564  1
  Cs  Cs2  1  0.00300586  -0.00365180  0.66788179  1
  Cs  Cs3  1  -0.00263847  0.33285232  -0.00036439  1
  Cs  Cs4  1  -0.00070143  0.33386458  0.33321129  1
  Cs  Cs5  1  -0.00025958  0.33333738  0.66673573  1
  Cs  Cs6  1  -0.00025810  0.66753133  -0.00057593  1
  Cs  Cs7  1  0.00221708  0.66601003  0.33344245  1
  Cs  Cs8  1  -0.00274109  0.66921216  0.66750992  1
  Cs  Cs9  1  0.33178444  0.00042542  -0.00116359  1
  Cs  Cs10  1  0.33336132  0.00000329  0.33291674  1
  Cs  Cs11  1  0.33007029  0.00242094  0.66854788  1
  Cs  Cs12  1  0.33402230  0.33403666  -0.00125189  1
  Cs  Cs13  1  0.33122353  0.33822370  0.33736216  1
  Cs  Cs14  1  0.33659043  0.33411613  0.66466765  1
  Cs  Cs15  1  0.33992432  0.66380469  0.00402900  1
  Cs  Cs16  1  0.33526993  0.66167402  0.33065968  1
  Cs  Cs17  1  0.33497023  0.65822548  0.66623806  1
  Cs  Cs18  1  0.66492773  0.00259344  0.00101662  1
  Cs  Cs19  1  0.66258874  -0.00124642  0.33441408  1
  Cs  Cs20  1  0.66612069  -0.00221222  0.66427253  1
  Cs  Cs21  1  0.66918170  0.33176538  -0.00198774  1
  Cs  Cs22  1  0.67226311  0.32844397  0.33669156  1
  Cs  Cs23  1  0.66615874  0.33285809  0.66871920  1
  Cs  Cs24  1  0.66315604  0.66599381  0.00001197  1
  Cs  Cs25  1  0.66176301  0.67422500  0.33169582  1
  Cs  Cs26  1  0.66889309  0.66967723  0.66623782  1
  Sn  Sn27  1  0.83395378  0.83262203  0.16640061  1
  Sn  Sn28  1  0.83354453  0.49974964  0.50009143  1
  Sn  Sn29  1  0.83344435  0.50145892  0.16678865  1
  Sn  Sn30  1  0.16611927  0.83378455  0.16752501  1
  Sn  Sn31  1  0.16568604  0.49982818  0.83370121  1
  Sn  Sn32  1  0.16774610  0.16647211  0.16736006  1
  Sn  Sn33  1  0.83442120  0.49941013  0.83322554  1
  Sn  Sn34  1  0.49989260  0.83438897  0.83304495  1
  Sn  Sn35  1  0.16677909  0.83371725  0.49932407  1
  Sn  Sn36  1  0.83451499  0.16676842  0.50141365  1
  Sn  Sn37  1  0.83299108  0.16657456  0.83226675  1
  Sn  Sn38  1  0.16559223  0.16593266  0.49913385  1
  Sn  Sn39  1  0.49853863  0.16704311  0.16621393  1
  Sn  Sn40  1  0.50091918  0.16551581  0.83409615  1
  Pb  Pb41  1  0.16481795  0.49979165  0.16483848  1
  Pb  Pb42  1  0.49978448  0.16661391  0.50022250  1
  Pb  Pb43  1  0.16453564  0.49979250  0.50192734  1
  Pb  Pb44  1  0.16652280  0.16821595  0.83325643  1
  Pb  Pb45  1  0.50346986  0.49632181  0.16693793  1
  Pb  Pb46  1  0.50395157  0.49998348  0.49971675  1
  Pb  Pb47  1  0.16901303  0.83064593  0.83380598  1
  Pb  Pb48  1  0.83375236  0.16641662  0.16674578  1
  Pb  Pb49  1  0.50101251  0.49927332  0.83334221  1
  Pb  Pb50  1  0.49930136  0.83546226  0.16521666  1
  Pb  Pb51  1  0.83514253  0.83389607  0.49762132  1
  Pb  Pb52  1  0.49618144  0.83355867  0.50263627  1
  Pb  Pb53  1  0.83183591  0.83366597  0.83555694  1
  I  I54  1  0.16338048  0.00034172  0.16917500  1
  I  I55  1  0.16024962  0.00127730  0.49722382  1
  I  I56  1  0.16479588  0.00001799  0.83322171  1
  I  I57  1  0.16864589  0.33021509  0.16969605  1
  I  I58  1  0.16466992  0.33028477  0.49633917  1
  I  I59  1  0.16579861  0.33589913  0.83377909  1
  I  I60  1  0.16347629  0.66937375  0.16937977  1
  I  I61  1  0.16544479  0.66904546  0.49718474  1
  I  I62  1  0.16045106  0.66325661  0.83241443  1
  I  I63  1  0.50256543  0.00333180  0.16381665  1
  I  I64  1  0.50695976  0.00019106  0.49875241  1
  I  I65  1  0.50516970  0.00192156  0.83758035  1
  I  I66  1  0.49498918  0.32853605  0.15866345  1
  I  I67  1  0.49435089  0.33294698  0.50228296  1
  I  I68  1  0.50190075  0.33010658  0.83709926  1
  I  I69  1  0.49850490  0.66669321  0.16426882  1
  I  I70  1  0.49977124  0.66694838  0.50291859  1
  I  I71  1  0.49899926  0.66862561  0.83365685  1
  I  I72  1  0.83435534  -0.00191575  0.16601628  1
  I  I73  1  0.83509760  0.00321358  0.50347838  1
  I  I74  1  0.83075944  0.00314784  0.83059735  1
  I  I75  1  0.83283798  0.33522738  0.16590575  1
  I  I76  1  0.83877948  0.33247039  0.49806322  1
  I  I77  1  0.83136148  0.33310574  0.83537513  1
  I  I78  1  0.83966807  0.66636654  0.16582520  1
  I  I79  1  0.83515191  0.66414389  0.50385669  1
  I  I80  1  0.83550321  0.66384670  0.83081921  1
  I  I81  1  0.16656165  0.16336931  0.00247890  1
  I  I82  1  0.16551972  0.16323895  0.33318991  1
  I  I83  1  0.16521908  0.16383440  0.66420070  1
  I  I84  1  0.15980355  0.49915825  -0.00285195  1
  I  I85  1  0.16490182  0.49970712  0.33335806  1
  I  I86  1  0.16137877  0.49968905  0.66966640  1
  I  I87  1  0.16341695  0.83781842  0.00307006  1
  I  I88  1  0.16154657  0.83789615  0.33243523  1
  I  I89  1  0.16776072  0.83789621  0.66438857  1
  I  I90  1  0.50121892  0.16303351  -0.00082718  1
  I  I91  1  0.50114471  0.16640953  0.33071163  1
  I  I92  1  0.50135881  0.16435466  0.66975673  1
  I  I93  1  0.50152530  0.50198683  0.00002729  1
  I  I94  1  0.49852379  0.49955138  0.33303261  1
  I  I95  1  0.49927665  0.49803567  0.66700087  1
  I  I96  1  0.49865108  0.83565359  -0.00260925  1
  I  I97  1  0.50332057  0.83516726  0.33314324  1
  I  I98  1  0.50137410  0.83995471  0.67047216  1
  I  I99  1  0.83216553  0.17027138  -0.00219477  1
  I  I100  1  0.83430799  0.17029121  0.33546257  1
  I  I101  1  0.83278148  0.17492646  0.66695825  1
  I  I102  1  0.83720689  0.49825650  -0.00071466  1
  I  I103  1  0.83354701  0.49694468  0.33345170  1
  I  I104  1  0.83725184  0.49419293  0.66725918  1
  I  I105  1  0.83941439  0.83061764  0.00338849  1
  I  I106  1  0.83425035  0.83029767  0.32970035  1
  I  I107  1  0.83353104  0.83083232  0.66663906  1
  I  I108  1  0.00239850  0.16582148  0.16722059  1
  I  I109  1  -0.00021951  0.16746840  0.49941419  1
  I  I110  1  -0.00274111  0.17045207  0.83326043  1
  I  I111  1  -0.00351251  0.49785416  0.16752747  1
  I  I112  1  -0.00357525  0.49745444  0.49846986  1
  I  I113  1  -0.00225422  0.49420915  0.83372133  1
  I  I114  1  0.00074389  0.83621730  0.16849489  1
  I  I115  1  0.00303797  0.83516657  0.49969909  1
  I  I116  1  0.00019045  0.83497119  0.83274941  1
  I  I117  1  0.33214674  0.15975090  0.16520377  1
  I  I118  1  0.33005114  0.16192025  0.49974311  1
  I  I119  1  0.33550281  0.16498429  0.83457518  1
  I  I120  1  0.33326339  0.50271750  0.16327686  1
  I  I121  1  0.33280920  0.49929532  0.50367347  1
  I  I122  1  0.33126890  0.50030330  0.83326095  1
  I  I123  1  0.33010597  0.83645846  0.16866002  1
  I  I124  1  0.32831196  0.84099714  0.49330654  1
  I  I125  1  0.33637922  0.83994551  0.83474692  1
  I  I126  1  0.66525154  0.16754136  0.16473254  1
  I  I127  1  0.66986553  0.17240844  0.50027838  1
  I  I128  1  0.66750869  0.16956198  0.83480916  1
  I  I129  1  0.67178403  0.50508140  0.16249174  1
  I  I130  1  0.67242226  0.49210141  0.50404418  1
  I  I131  1  0.67039590  0.49807416  0.83337703  1
  I  I132  1  0.66893866  0.83023422  0.16467500  1
  I  I133  1  0.66681398  0.83258150  0.49871363  1
  I  I134  1  0.66401713  0.83320601  0.83608454  1
