# generated using pymatgen
data_Cs27Sn13Pb14I81
_symmetry_space_group_name_H-M   'P 1'
_cell_length_a   18.97889916
_cell_length_b   18.97889906
_cell_length_c   18.97426321
_cell_angle_alpha   90.00070498
_cell_angle_beta   89.99929500
_cell_angle_gamma   89.99942482
_symmetry_Int_Tables_number   1
_chemical_formula_structural   Cs27Sn13Pb14I81
_chemical_formula_sum   'Cs27 Sn13 Pb14 I81'
_cell_volume   6834.50326090
_cell_formula_units_Z   1
loop_
 _symmetry_equiv_pos_site_id
 _symmetry_equiv_pos_as_xyz
  1  'x, y, z'
loop_
 _atom_site_type_symbol
 _atom_site_label
 _atom_site_symmetry_multiplicity
 _atom_site_fract_x
 _atom_site_fract_y
 _atom_site_fract_z
 _atom_site_occupancy
  Cs  Cs0  1  -0.00105566  -0.00231431  -0.00052364  1
  Cs  Cs1  1  0.00018777  0.00165636  0.33502949  1
  Cs  Cs2  1  0.00607775  0.00138289  0.66379836  1
  Cs  Cs3  1  -0.00408858  0.33742189  -0.00793567  1
  Cs  Cs4  1  0.00035276  0.33298057  0.33427557  1
  Cs  Cs5  1  0.00057936  0.33275394  0.67007610  1
  Cs  Cs6  1  0.00579595  0.66579671  -0.00035016  1
  Cs  Cs7  1  -0.00076229  0.66621199  0.33192009  1
  Cs  Cs8  1  -0.00171966  0.66568670  0.66884126  1
  Cs  Cs9  1  0.33575512  -0.00242195  -0.00246864  1
  Cs  Cs10  1  0.33023530  0.00309803  0.33343697  1
  Cs  Cs11  1  0.32826229  0.00507101  0.66738597  1
  Cs  Cs12  1  0.33564769  0.33438917  -0.00052354  1
  Cs  Cs13  1  0.33167706  0.33314552  0.33502941  1
  Cs  Cs14  1  0.33195038  0.32725580  0.66379848  1
  Cs  Cs15  1  0.32996722  0.66790408  0.00162422  1
  Cs  Cs16  1  0.33494005  0.66490936  0.33168791  1
  Cs  Cs17  1  0.33849749  0.66691922  0.66639887  1
  Cs  Cs18  1  0.66542912  0.00336625  0.00162433  1
  Cs  Cs19  1  0.66842394  -0.00160682  0.33168777  1
  Cs  Cs20  1  0.66641398  -0.00516413  0.66639901  1
  Cs  Cs21  1  0.66753665  0.32753752  -0.00035028  1
  Cs  Cs22  1  0.66712135  0.33409547  0.33192017  1
  Cs  Cs23  1  0.66764655  0.33505289  0.66884132  1
  Cs  Cs24  1  0.66622199  0.66711132  -0.00000633  1
  Cs  Cs25  1  0.66666171  0.66667167  0.33447265  1
  Cs  Cs26  1  0.66492263  0.66841081  0.66630941  1
  Sn  Sn27  1  0.50091419  0.50060677  0.16585059  1
  Sn  Sn28  1  0.83272657  0.83241917  0.16585054  1
  Sn  Sn29  1  0.50015916  0.50061114  0.83443555  1
  Sn  Sn30  1  0.16679803  0.83160848  0.49963635  1
  Sn  Sn31  1  0.50172481  0.16653527  0.49963632  1
  Sn  Sn32  1  0.16627538  0.16705795  0.16597250  1
  Sn  Sn33  1  0.83405048  0.49928286  0.49947818  1
  Sn  Sn34  1  0.50069563  0.83263765  0.16626650  1
  Sn  Sn35  1  0.16574258  0.50133793  0.49982721  1
  Sn  Sn36  1  0.83272222  0.83317419  0.83443559  1
  Sn  Sn37  1  0.50094669  0.83238664  0.83433482  1
  Sn  Sn38  1  0.83199537  0.16759075  0.49982724  1
  Sn  Sn39  1  0.83256748  0.50076586  0.16717608  1
  Pb  Pb40  1  0.16999395  0.50013578  0.83033778  1
  Pb  Pb41  1  0.49867971  0.16670080  0.16834428  1
  Pb  Pb42  1  0.16706592  0.83310189  0.83098904  1
  Pb  Pb43  1  0.16592392  0.16740942  0.49908725  1
  Pb  Pb44  1  0.16655212  0.16678126  0.83734714  1
  Pb  Pb45  1  0.16645175  0.49820870  0.16812979  1
  Pb  Pb46  1  0.83128375  0.50204960  0.83356550  1
  Pb  Pb47  1  0.50023142  0.16626746  0.83098903  1
  Pb  Pb48  1  0.49787198  0.83546134  0.49971831  1
  Pb  Pb49  1  0.16663256  0.83465362  0.16834431  1
  Pb  Pb50  1  0.83483386  0.83279871  0.49972393  1
  Pb  Pb51  1  0.50053464  0.49849948  0.49972396  1
  Pb  Pb52  1  0.83512464  0.16688156  0.16812978  1
  Pb  Pb53  1  0.83319755  0.16333935  0.83033769  1
  I  I54  1  0.16696628  0.00210065  0.17295947  1
  I  I55  1  0.16674646  -0.00142384  0.49877336  1
  I  I56  1  0.16870519  -0.00035299  0.82780262  1
  I  I57  1  0.16825266  0.33094638  0.17311540  1
  I  I58  1  0.16653198  0.33584809  0.49767736  1
  I  I59  1  0.16828718  0.33364430  0.82941098  1
  I  I60  1  0.16702142  0.66649708  0.16806184  1
  I  I61  1  0.16168516  0.66584445  0.49827159  1
  I  I62  1  0.16498005  0.66665980  0.83476707  1
  I  I63  1  0.50278599  -0.00315918  0.16424437  1
  I  I64  1  0.50344875  0.00300323  0.49922624  1
  I  I65  1  0.50331610  -0.00361386  0.83692781  1
  I  I66  1  0.50287508  0.33655209  0.16438749  1
  I  I67  1  0.49803122  0.33085856  0.49934156  1
  I  I68  1  0.49931119  0.33628745  0.83663224  1
  I  I69  1  0.50264735  0.66673345  0.16470858  1
  I  I70  1  0.50059206  0.66671793  0.50040612  1
  I  I71  1  0.50361785  0.66746615  0.83499115  1
  I  I72  1  0.83027385  -0.00307300  0.16531199  1
  I  I73  1  0.83225348  0.00174232  0.49997021  1
  I  I74  1  0.82646996  -0.00467206  0.83854326  1
  I  I75  1  0.82994016  0.33659020  0.17075501  1
  I  I76  1  0.83523974  0.33462460  0.49375276  1
  I  I77  1  0.83218669  0.33357915  0.83516099  1
  I  I78  1  0.82962658  0.66653529  0.17066113  1
  I  I79  1  0.83608389  0.66389849  0.49843572  1
  I  I80  1  0.83056859  0.66990712  0.83084828  1
  I  I81  1  0.16822850  0.16510491  0.00475170  1
  I  I82  1  0.16758343  0.16575003  0.33186918  1
  I  I83  1  0.16766984  0.16566315  0.66648021  1
  I  I84  1  0.16430655  0.49748364  0.00007458  1
  I  I85  1  0.16785114  0.50219963  0.33632254  1
  I  I86  1  0.16112426  0.50220363  0.66205174  1
  I  I87  1  0.16653929  0.83647562  0.00011856  1
  I  I88  1  0.16632673  0.83148898  0.33615286  1
  I  I89  1  0.16603291  0.83210483  0.66296114  1
  I  I90  1  0.49685743  0.16679376  0.00011857  1
  I  I91  1  0.50184418  0.16700670  0.33615289  1
  I  I92  1  0.50122901  0.16730041  0.66296119  1
  I  I93  1  0.50453498  0.50307123  0.00130653  1
  I  I94  1  0.50062427  0.50341607  0.33056539  1
  I  I95  1  0.49962981  0.50372242  0.66863989  1
  I  I96  1  0.50287644  0.83045720  0.00066480  1
  I  I97  1  0.50362868  0.82970474  0.33023389  1
  I  I98  1  0.50367051  0.82966254  0.66931911  1
  I  I99  1  0.83584992  0.16902701  0.00007457  1
  I  I100  1  0.83113371  0.16548219  0.33632250  1
  I  I101  1  0.83112963  0.17220909  0.66205175  1
  I  I102  1  0.83167400  0.50165923  0.00318800  1
  I  I103  1  0.83102575  0.50230783  0.33303457  1
  I  I104  1  0.83576117  0.49757204  0.66388805  1
  I  I105  1  0.83026202  0.82879818  0.00130651  1
  I  I106  1  0.82991715  0.83270892  0.33056537  1
  I  I107  1  0.82961114  0.83370376  0.66863990  1
  I  I108  1  0.00238698  0.16508053  0.17311555  1
  I  I109  1  -0.00251475  0.16680094  0.49767725  1
  I  I110  1  -0.00031097  0.16504631  0.82941109  1
  I  I111  1  -0.00325690  0.50339307  0.17075477  1
  I  I112  1  -0.00129125  0.49809408  0.49375284  1
  I  I113  1  -0.00024582  0.50114638  0.83516107  1
  I  I114  1  -0.00321876  0.83045834  0.16438763  1
  I  I115  1  0.00247479  0.83530189  0.49934149  1
  I  I116  1  -0.00295411  0.83402241  0.83663222  1
  I  I117  1  0.33123271  0.16636726  0.17295963  1
  I  I118  1  0.33475720  0.16658668  0.49877369  1
  I  I119  1  0.33368633  0.16462808  0.82780211  1
  I  I120  1  0.33640631  0.50305947  0.16531202  1
  I  I121  1  0.33159102  0.50107956  0.49997031  1
  I  I122  1  0.33800537  0.50686309  0.83854305  1
  I  I123  1  0.33649253  0.83054725  0.16424421  1
  I  I124  1  0.33033012  0.82988509  0.49922623  1
  I  I125  1  0.33694719  0.83001744  0.83692828  1
  I  I126  1  0.66683627  0.16631174  0.16806175  1
  I  I127  1  0.66748892  0.17164884  0.49827139  1
  I  I128  1  0.66667354  0.16835320  0.83476744  1
  I  I129  1  0.66679803  0.50370687  0.17066118  1
  I  I130  1  0.66943489  0.49724935  0.49843547  1
  I  I131  1  0.66342618  0.50276507  0.83084855  1
  I  I132  1  0.66659992  0.83068598  0.16470869  1
  I  I133  1  0.66661545  0.83274088  0.50040635  1
  I  I134  1  0.66586718  0.82971507  0.83499079  1
