# generated using pymatgen
data_Cs27Sn13Pb14I81
_symmetry_space_group_name_H-M   'P 1'
_cell_length_a   19.02331534
_cell_length_b   19.04384176
_cell_length_c   19.03483823
_cell_angle_alpha   89.99918060
_cell_angle_beta   89.99585980
_cell_angle_gamma   89.99810962
_symmetry_Int_Tables_number   1
_chemical_formula_structural   Cs27Sn13Pb14I81
_chemical_formula_sum   'Cs27 Sn13 Pb14 I81'
_cell_volume   6895.88420276
_cell_formula_units_Z   1
loop_
 _symmetry_equiv_pos_site_id
 _symmetry_equiv_pos_as_xyz
  1  'x, y, z'
loop_
 _atom_site_type_symbol
 _atom_site_label
 _atom_site_symmetry_multiplicity
 _atom_site_fract_x
 _atom_site_fract_y
 _atom_site_fract_z
 _atom_site_occupancy
  Cs  Cs0  1  -0.00321451  0.00284731  0.00042498  1
  Cs  Cs1  1  0.00359428  -0.00107945  0.33355671  1
  Cs  Cs2  1  0.00222536  0.00494834  0.66442205  1
  Cs  Cs3  1  0.00269803  0.33388666  -0.00020545  1
  Cs  Cs4  1  -0.00358816  0.33556915  0.35179650  1
  Cs  Cs5  1  -0.00002277  0.33043087  0.65189357  1
  Cs  Cs6  1  -0.00370360  0.66236425  -0.00491725  1
  Cs  Cs7  1  0.00567980  0.66628377  0.33761367  1
  Cs  Cs8  1  0.00009731  0.66432204  0.66917304  1
  Cs  Cs9  1  0.32881762  0.00177401  0.00643123  1
  Cs  Cs10  1  0.32438048  -0.00426998  0.31942253  1
  Cs  Cs11  1  0.33791890  -0.00089137  0.66874237  1
  Cs  Cs12  1  0.32994159  0.33360794  -0.00048194  1
  Cs  Cs13  1  0.33434447  0.33275345  0.32714118  1
  Cs  Cs14  1  0.33713238  0.33536562  0.67021223  1
  Cs  Cs15  1  0.33206499  0.66478477  -0.00014499  1
  Cs  Cs16  1  0.32866213  0.67101222  0.33142935  1
  Cs  Cs17  1  0.33561413  0.66614416  0.66761330  1
  Cs  Cs18  1  0.67033787  0.00084123  0.00108734  1
  Cs  Cs19  1  0.66800341  -0.00086436  0.33312695  1
  Cs  Cs20  1  0.66503790  -0.00127132  0.66581812  1
  Cs  Cs21  1  0.66831949  0.33354333  0.00472439  1
  Cs  Cs22  1  0.66895812  0.33502135  0.33036353  1
  Cs  Cs23  1  0.66254603  0.32999962  0.66511637  1
  Cs  Cs24  1  0.67147951  0.66398420  0.00093498  1
  Cs  Cs25  1  0.66611491  0.66855773  0.32842602  1
  Cs  Cs26  1  0.66380506  0.67150404  0.66999025  1
  Sn  Sn27  1  0.50045859  0.83377218  0.50007020  1
  Sn  Sn28  1  0.83248945  0.83320858  0.49938138  1
  Sn  Sn29  1  0.83250910  0.16713908  0.83366248  1
  Sn  Sn30  1  0.49956726  0.16579105  0.50005485  1
  Sn  Sn31  1  0.50096803  0.16630449  0.83334018  1
  Sn  Sn32  1  0.16762142  0.83281445  0.83314543  1
  Sn  Sn33  1  0.50015634  0.50055546  0.50049228  1
  Sn  Sn34  1  0.49989940  0.50020740  0.83298460  1
  Sn  Sn35  1  0.16604614  0.49972768  0.16575123  1
  Sn  Sn36  1  0.83335673  0.83364192  0.16774230  1
  Sn  Sn37  1  0.49924285  0.83354518  0.83359810  1
  Sn  Sn38  1  0.16722978  0.50066188  0.83365446  1
  Sn  Sn39  1  0.83366807  0.16642145  0.16617300  1
  Pb  Pb40  1  0.17012983  0.50011675  0.50118188  1
  Pb  Pb41  1  0.16326129  0.83128474  0.16327417  1
  Pb  Pb42  1  0.83310094  0.49670424  0.83295195  1
  Pb  Pb43  1  0.50190953  0.16660197  0.16636155  1
  Pb  Pb44  1  0.16747766  0.83337569  0.50301908  1
  Pb  Pb45  1  0.50192307  0.83326571  0.16604001  1
  Pb  Pb46  1  0.49817826  0.50017964  0.16625911  1
  Pb  Pb47  1  0.16280107  0.16964424  0.16672077  1
  Pb  Pb48  1  0.83330211  0.83525030  0.83285476  1
  Pb  Pb49  1  0.83064163  0.16416883  0.50005016  1
  Pb  Pb50  1  0.16719083  0.16709627  0.83304100  1
  Pb  Pb51  1  0.17141463  0.16624768  0.50027870  1
  Pb  Pb52  1  0.83631052  0.49981885  0.16682517  1
  Pb  Pb53  1  0.82945906  0.50347733  0.50044350  1
  I  I54  1  0.16946020  0.00000303  0.16656144  1
  I  I55  1  0.16711537  -0.00037521  0.50230677  1
  I  I56  1  0.17038684  -0.00241011  0.83112193  1
  I  I57  1  0.16880073  0.33686718  0.15536376  1
  I  I58  1  0.16373891  0.33354295  0.50169483  1
  I  I59  1  0.17146498  0.33634657  0.83921759  1
  I  I60  1  0.16583548  0.66401437  0.16508629  1
  I  I61  1  0.16686327  0.66669706  0.49581549  1
  I  I62  1  0.17564194  0.66633347  0.83710414  1
  I  I63  1  0.49641278  -0.00006681  0.16659119  1
  I  I64  1  0.50696534  -0.00053976  0.51088505  1
  I  I65  1  0.50092521  -0.00025988  0.82532233  1
  I  I66  1  0.50316027  0.33336460  0.16847741  1
  I  I67  1  0.49789474  0.33321199  0.50880864  1
  I  I68  1  0.49985990  0.33348662  0.82610324  1
  I  I69  1  0.50470607  0.66674019  0.16725467  1
  I  I70  1  0.50461124  0.66727231  0.50830502  1
  I  I71  1  0.49428618  0.66684443  0.82583583  1
  I  I72  1  0.83130405  -0.00014838  0.16543372  1
  I  I73  1  0.82510479  -0.00296070  0.50013614  1
  I  I74  1  0.82835322  0.00263075  0.83455633  1
  I  I75  1  0.83222972  0.33031618  0.15957406  1
  I  I76  1  0.83467391  0.33327604  0.49869255  1
  I  I77  1  0.82788922  0.32913845  0.84198687  1
  I  I78  1  0.83268899  0.66954946  0.17131467  1
  I  I79  1  0.82760176  0.67106046  0.49267171  1
  I  I80  1  0.83107857  0.66643125  0.83476009  1
  I  I81  1  0.17266611  0.16397331  -0.00029244  1
  I  I82  1  0.16706178  0.16925530  0.33318175  1
  I  I83  1  0.15536906  0.16961464  0.66710145  1
  I  I84  1  0.17402400  0.50441062  -0.00194573  1
  I  I85  1  0.16622691  0.49853455  0.33139170  1
  I  I86  1  0.16895496  0.50473184  0.67025968  1
  I  I87  1  0.17460419  0.83216363  -0.00386224  1
  I  I88  1  0.16978314  0.83171196  0.33319336  1
  I  I89  1  0.16487415  0.82467654  0.67041098  1
  I  I90  1  0.50186731  0.16719880  -0.00361260  1
  I  I91  1  0.50178167  0.16857857  0.33653719  1
  I  I92  1  0.50727486  0.16711091  0.66803638  1
  I  I93  1  0.49836890  0.50004580  -0.00379830  1
  I  I94  1  0.49982597  0.49902978  0.33649449  1
  I  I95  1  0.49324569  0.49950445  0.66795445  1
  I  I96  1  0.49679058  0.83296090  -0.00384201  1
  I  I97  1  0.50374839  0.83265866  0.33650963  1
  I  I98  1  0.50320330  0.83283285  0.66712628  1
  I  I99  1  0.82589137  0.15885033  -0.00053357  1
  I  I100  1  0.83237355  0.16494710  0.33110982  1
  I  I101  1  0.83194695  0.16579188  0.66914867  1
  I  I102  1  0.82685452  0.50608486  -0.00020618  1
  I  I103  1  0.83411275  0.49283866  0.33348704  1
  I  I104  1  0.84259717  0.49976895  0.66677923  1
  I  I105  1  0.83408597  0.83648913  0.00167183  1
  I  I106  1  0.82497166  0.83994615  0.33358338  1
  I  I107  1  0.83080018  0.83419579  0.66448950  1
  I  I108  1  -0.00464146  0.15947071  0.15602436  1
  I  I109  1  -0.00039258  0.16626824  0.50056426  1
  I  I110  1  -0.00259089  0.16402855  0.84037108  1
  I  I111  1  0.00356924  0.50127480  0.15448580  1
  I  I112  1  0.00015021  0.49977823  0.49942306  1
  I  I113  1  0.00299015  0.50673448  0.84061059  1
  I  I114  1  -0.00393277  0.83941688  0.17377673  1
  I  I115  1  -0.00266825  0.83488948  0.49584708  1
  I  I116  1  0.00221691  0.82817456  0.83460251  1
  I  I117  1  0.33282196  0.16724062  0.16802842  1
  I  I118  1  0.33933547  0.16477869  0.51156174  1
  I  I119  1  0.33688578  0.16707549  0.82615279  1
  I  I120  1  0.33053831  0.50072463  0.16469141  1
  I  I121  1  0.33763413  0.50354896  0.50240702  1
  I  I122  1  0.33469807  0.49820464  0.83305723  1
  I  I123  1  0.33285110  0.83257923  0.17110334  1
  I  I124  1  0.33736242  0.83212117  0.50375673  1
  I  I125  1  0.33521330  0.83453252  0.82551245  1
  I  I126  1  0.66959980  0.16343560  0.16442561  1
  I  I127  1  0.66310541  0.17003181  0.50288599  1
  I  I128  1  0.66516156  0.16583215  0.83307216  1
  I  I129  1  0.66716056  0.49962532  0.16670970  1
  I  I130  1  0.66185031  0.49548793  0.50824201  1
  I  I131  1  0.66308968  0.50474458  0.82782279  1
  I  I132  1  0.66961714  0.83644675  0.16495518  1
  I  I133  1  0.66499746  0.83308744  0.50347878  1
  I  I134  1  0.66345990  0.83000143  0.83201234  1
