# generated using pymatgen
data_Cs27Sn14Pb13I81
_symmetry_space_group_name_H-M   'P 1'
_cell_length_a   18.97898684
_cell_length_b   18.97391878
_cell_length_c   18.97341006
_cell_angle_alpha   90.00184859
_cell_angle_beta   90.00020524
_cell_angle_gamma   90.00150191
_symmetry_Int_Tables_number   1
_chemical_formula_structural   Cs27Sn14Pb13I81
_chemical_formula_sum   'Cs27 Sn14 Pb13 I81'
_cell_volume   6832.43414281
_cell_formula_units_Z   1
loop_
 _symmetry_equiv_pos_site_id
 _symmetry_equiv_pos_as_xyz
  1  'x, y, z'
loop_
 _atom_site_type_symbol
 _atom_site_label
 _atom_site_symmetry_multiplicity
 _atom_site_fract_x
 _atom_site_fract_y
 _atom_site_fract_z
 _atom_site_occupancy
  Cs  Cs0  1  0.00221765  -0.00116988  0.00158996  1
  Cs  Cs1  1  0.00064024  -0.00100093  0.33588433  1
  Cs  Cs2  1  -0.00718309  -0.00301540  0.66200201  1
  Cs  Cs3  1  0.00485691  0.33209159  0.00040941  1
  Cs  Cs4  1  -0.00284827  0.33032372  0.32720716  1
  Cs  Cs5  1  -0.00067607  0.33226813  0.67185053  1
  Cs  Cs6  1  -0.00200405  0.66643875  -0.00006057  1
  Cs  Cs7  1  -0.00036994  0.66966728  0.33245025  1
  Cs  Cs8  1  0.00341646  0.66899409  0.66717010  1
  Cs  Cs9  1  0.33479994  -0.00104686  -0.00145450  1
  Cs  Cs10  1  0.33400653  0.00248475  0.33225064  1
  Cs  Cs11  1  0.33813666  0.00072161  0.66549302  1
  Cs  Cs12  1  0.32863082  0.33128841  -0.00026661  1
  Cs  Cs13  1  0.33565942  0.33066713  0.33444149  1
  Cs  Cs14  1  0.33056786  0.33791214  0.66616137  1
  Cs  Cs15  1  0.33384579  0.66995519  0.00010625  1
  Cs  Cs16  1  0.33398943  0.66647685  0.33625885  1
  Cs  Cs17  1  0.32887605  0.66130964  0.66236281  1
  Cs  Cs18  1  0.66290211  -0.00287005  -0.00273331  1
  Cs  Cs19  1  0.66562044  0.00083949  0.33462707  1
  Cs  Cs20  1  0.66821210  0.00419848  0.66699486  1
  Cs  Cs21  1  0.66763594  0.33615355  0.00107444  1
  Cs  Cs22  1  0.66483687  0.33470695  0.33211542  1
  Cs  Cs23  1  0.66792960  0.33215646  0.66707429  1
  Cs  Cs24  1  0.66789392  0.66719689  0.00012322  1
  Cs  Cs25  1  0.66611210  0.66341771  0.33114768  1
  Cs  Cs26  1  0.66706172  0.66407758  0.66841148  1
  Sn  Sn27  1  0.16619746  0.83253017  0.16610690  1
  Sn  Sn28  1  0.50031697  0.83381445  0.49998086  1
  Sn  Sn29  1  0.16611255  0.83358280  0.83372290  1
  Sn  Sn30  1  0.49863892  0.49929914  0.16563308  1
  Sn  Sn31  1  0.16806152  0.50106245  0.16695353  1
  Sn  Sn32  1  0.83383015  0.50011653  0.50104848  1
  Sn  Sn33  1  0.49919228  0.16598025  0.49938972  1
  Sn  Sn34  1  0.16701876  0.16673755  0.50030195  1
  Sn  Sn35  1  0.50095112  0.16732526  0.16675257  1
  Sn  Sn36  1  0.83280377  0.50073036  0.83244707  1
  Sn  Sn37  1  0.50031599  0.50001797  0.83444862  1
  Sn  Sn38  1  0.83396346  0.83264468  0.83417353  1
  Sn  Sn39  1  0.83371331  0.83452779  0.16614229  1
  Sn  Sn40  1  0.83208563  0.16505849  0.16627032  1
  Pb  Pb41  1  0.16364727  0.49765008  0.49713952  1
  Pb  Pb42  1  0.83327805  0.50031600  0.16580516  1
  Pb  Pb43  1  0.16864114  0.83504351  0.49979624  1
  Pb  Pb44  1  0.16629530  0.50186682  0.83550376  1
  Pb  Pb45  1  0.49987958  0.16956538  0.83347445  1
  Pb  Pb46  1  0.16653970  0.16305815  0.83014040  1
  Pb  Pb47  1  0.83119909  0.83152159  0.49995001  1
  Pb  Pb48  1  0.83277809  0.16887871  0.49782599  1
  Pb  Pb49  1  0.16716903  0.16593342  0.16770309  1
  Pb  Pb50  1  0.83328929  0.16642762  0.83641258  1
  Pb  Pb51  1  0.49999459  0.83330665  0.16793883  1
  Pb  Pb52  1  0.50013026  0.83088983  0.83071535  1
  Pb  Pb53  1  0.50126644  0.49918834  0.49987017  1
  I  I54  1  0.16527451  -0.00294736  0.16454195  1
  I  I55  1  0.16805387  0.00275204  0.49679362  1
  I  I56  1  0.16114104  -0.00479154  0.84230906  1
  I  I57  1  0.16618000  0.33521192  0.16874744  1
  I  I58  1  0.17482504  0.33025055  0.49726587  1
  I  I59  1  0.16627721  0.33354952  0.83453916  1
  I  I60  1  0.16572663  0.66740416  0.16399792  1
  I  I61  1  0.16859851  0.66667806  0.50075042  1
  I  I62  1  0.16542870  0.66976854  0.83445004  1
  I  I63  1  0.50094965  0.00238812  0.17071813  1
  I  I64  1  0.49706473  0.00124827  0.49375568  1
  I  I65  1  0.50026249  -0.00025650  0.83476998  1
  I  I66  1  0.50145535  0.33338721  0.16983506  1
  I  I67  1  0.49792528  0.33059428  0.49742831  1
  I  I68  1  0.50698433  0.33762829  0.83275190  1
  I  I69  1  0.50030851  0.66409724  0.16552192  1
  I  I70  1  0.50216905  0.66799489  0.49920630  1
  I  I71  1  0.50270077  0.66325017  0.83889446  1
  I  I72  1  0.83386963  -0.00107164  0.16292523  1
  I  I73  1  0.83402346  0.00008842  0.50178910  1
  I  I74  1  0.83776069  -0.00349009  0.83506362  1
  I  I75  1  0.83255630  0.33170141  0.16878878  1
  I  I76  1  0.83086307  0.33656344  0.50321076  1
  I  I77  1  0.82817052  0.33648699  0.83024998  1
  I  I78  1  0.83399530  0.66910549  0.16605815  1
  I  I79  1  0.82996102  0.66384905  0.49779376  1
  I  I80  1  0.83251873  0.66683090  0.83627313  1
  I  I81  1  0.16634877  0.16893743  0.00016490  1
  I  I82  1  0.16830542  0.16524505  0.33537107  1
  I  I83  1  0.17399643  0.16720197  0.66241806  1
  I  I84  1  0.16542518  0.49980334  0.00360219  1
  I  I85  1  0.17124646  0.50647713  0.32924647  1
  I  I86  1  0.16938212  0.50078083  0.66669490  1
  I  I87  1  0.16290452  0.82946363  0.00117590  1
  I  I88  1  0.16259725  0.83074663  0.33025480  1
  I  I89  1  0.16256944  0.83469029  0.66916328  1
  I  I90  1  0.50434769  0.16872263  0.00343575  1
  I  I91  1  0.50018339  0.16913009  0.33266641  1
  I  I92  1  0.49629518  0.16340343  0.66351530  1
  I  I93  1  0.50347511  0.49575138  0.00119158  1
  I  I94  1  0.49922265  0.49914843  0.33058536  1
  I  I95  1  0.50353122  0.50158079  0.66878174  1
  I  I96  1  0.49981231  0.83530252  -0.00011061  1
  I  I97  1  0.50011180  0.83234178  0.33566259  1
  I  I98  1  0.50036178  0.83834590  0.66326074  1
  I  I99  1  0.82787287  0.16847790  0.00455901  1
  I  I100  1  0.83249341  0.16369368  0.32981705  1
  I  I101  1  0.83323910  0.16510845  0.66663830  1
  I  I102  1  0.83133013  0.50178146  -0.00249694  1
  I  I103  1  0.83235277  0.49937837  0.33428803  1
  I  I104  1  0.82656177  0.50454335  0.66819638  1
  I  I105  1  0.83631214  0.83038533  0.00033108  1
  I  I106  1  0.83690662  0.83472031  0.33032631  1
  I  I107  1  0.83709529  0.82996909  0.66946835  1
  I  I108  1  -0.00197039  0.16736122  0.16875666  1
  I  I109  1  0.00171869  0.16810737  0.49706348  1
  I  I110  1  -0.00015715  0.17340872  0.83389423  1
  I  I111  1  0.00175192  0.50005587  0.16777229  1
  I  I112  1  -0.00378059  0.49980347  0.50438822  1
  I  I113  1  -0.00295248  0.50221104  0.83093318  1
  I  I114  1  -0.00030019  0.83252275  0.16390890  1
  I  I115  1  -0.00009747  0.83448215  0.49969464  1
  I  I116  1  -0.00107117  0.82691649  0.83705567  1
  I  I117  1  0.33615275  0.16844529  0.17007753  1
  I  I118  1  0.33499127  0.16306269  0.49246569  1
  I  I119  1  0.33333459  0.16615307  0.83847639  1
  I  I120  1  0.33445156  0.49953713  0.16200715  1
  I  I121  1  0.33322196  0.50165572  0.50228024  1
  I  I122  1  0.33563540  0.50114428  0.83525869  1
  I  I123  1  0.33086491  0.83235947  0.16376820  1
  I  I124  1  0.33641464  0.83376665  0.49925541  1
  I  I125  1  0.33095209  0.83271003  0.83792020  1
  I  I126  1  0.66572051  0.16829840  0.17313039  1
  I  I127  1  0.66373482  0.16431893  0.49685710  1
  I  I128  1  0.66661019  0.16219482  0.82890465  1
  I  I129  1  0.66448260  0.49901476  0.16685573  1
  I  I130  1  0.66899752  0.49892755  0.49816573  1
  I  I131  1  0.66736266  0.50582099  0.83569666  1
  I  I132  1  0.66924630  0.83334284  0.16381363  1
  I  I133  1  0.66366249  0.83937175  0.49872352  1
  I  I134  1  0.66962046  0.83028625  0.83789905  1
