# generated using pymatgen
data_Cs27Sn13Pb14I81
_symmetry_space_group_name_H-M   'P 1'
_cell_length_a   18.97404661
_cell_length_b   18.98092965
_cell_length_c   18.97539345
_cell_angle_alpha   90.00188373
_cell_angle_beta   89.99962132
_cell_angle_gamma   89.99974831
_symmetry_Int_Tables_number   1
_chemical_formula_structural   Cs27Sn13Pb14I81
_chemical_formula_sum   'Cs27 Sn13 Pb14 I81'
_cell_volume   6833.89390263
_cell_formula_units_Z   1
loop_
 _symmetry_equiv_pos_site_id
 _symmetry_equiv_pos_as_xyz
  1  'x, y, z'
loop_
 _atom_site_type_symbol
 _atom_site_label
 _atom_site_symmetry_multiplicity
 _atom_site_fract_x
 _atom_site_fract_y
 _atom_site_fract_z
 _atom_site_occupancy
  Cs  Cs0  1  -0.00552170  0.00148029  -0.00914662  1
  Cs  Cs1  1  0.00099982  -0.00151816  0.33651055  1
  Cs  Cs2  1  0.00103402  0.00327208  0.66890617  1
  Cs  Cs3  1  -0.00629445  0.33221944  -0.00094352  1
  Cs  Cs4  1  0.00327087  0.33427383  0.33198942  1
  Cs  Cs5  1  -0.00110283  0.32862890  0.67000173  1
  Cs  Cs6  1  -0.00353349  0.66696272  -0.00051644  1
  Cs  Cs7  1  0.00299129  0.66683619  0.33324355  1
  Cs  Cs8  1  -0.00152279  0.66701723  0.66706836  1
  Cs  Cs9  1  0.33654908  -0.00337574  -0.00111767  1
  Cs  Cs10  1  0.33379917  0.00089132  0.33335133  1
  Cs  Cs11  1  0.33301175  0.00140362  0.66800071  1
  Cs  Cs12  1  0.33454289  0.33710603  0.00118361  1
  Cs  Cs13  1  0.33172822  0.33441105  0.33171232  1
  Cs  Cs14  1  0.33484708  0.33254812  0.66745489  1
  Cs  Cs15  1  0.33299347  0.66428246  -0.00062989  1
  Cs  Cs16  1  0.33086774  0.66487847  0.33322725  1
  Cs  Cs17  1  0.33462511  0.66615898  0.66789728  1
  Cs  Cs18  1  0.66993234  -0.00492030  0.00730462  1
  Cs  Cs19  1  0.66605759  0.00074167  0.33104101  1
  Cs  Cs20  1  0.66494920  -0.00033520  0.66479592  1
  Cs  Cs21  1  0.67072186  0.33007455  0.00041310  1
  Cs  Cs22  1  0.66842245  0.33334741  0.33356635  1
  Cs  Cs23  1  0.66415131  0.33561129  0.66594043  1
  Cs  Cs24  1  0.67259752  0.67467848  -0.00009931  1
  Cs  Cs25  1  0.67128042  0.66592362  0.33695509  1
  Cs  Cs26  1  0.66776008  0.66470297  0.66411728  1
  Sn  Sn27  1  0.16729919  0.50004340  0.16608816  1
  Sn  Sn28  1  0.16681122  0.16615715  0.16601920  1
  Sn  Sn29  1  0.49995720  0.50021716  0.16556829  1
  Sn  Sn30  1  0.83246632  0.16618669  0.49972911  1
  Sn  Sn31  1  0.49955982  0.49932398  0.83489901  1
  Sn  Sn32  1  0.83366993  0.83443555  0.49984477  1
  Sn  Sn33  1  0.49953166  0.83400600  0.49982732  1
  Sn  Sn34  1  0.16697564  0.83269960  0.49965291  1
  Sn  Sn35  1  0.49985253  0.16701791  0.83345409  1
  Sn  Sn36  1  0.50053018  0.16611090  0.50030704  1
  Sn  Sn37  1  0.16684448  0.83381454  0.16682477  1
  Sn  Sn38  1  0.16716990  0.49986523  0.83346533  1
  Sn  Sn39  1  0.16695092  0.50041647  0.50063034  1
  Pb  Pb40  1  0.83653573  0.83341963  0.16923423  1
  Pb  Pb41  1  0.49794259  0.83045656  0.16931032  1
  Pb  Pb42  1  0.16717230  0.16645110  0.49901575  1
  Pb  Pb43  1  0.82970198  0.16667771  0.83084786  1
  Pb  Pb44  1  0.83323290  0.50004801  0.16674736  1
  Pb  Pb45  1  0.83242830  0.49995023  0.83329042  1
  Pb  Pb46  1  0.49812487  0.49972902  0.49987648  1
  Pb  Pb47  1  0.83666543  0.49949515  0.50004677  1
  Pb  Pb48  1  0.83619062  0.16655226  0.16933791  1
  Pb  Pb49  1  0.16676887  0.83112476  0.83326874  1
  Pb  Pb50  1  0.83324833  0.83347115  0.83023569  1
  Pb  Pb51  1  0.49994152  0.83291944  0.83137296  1
  Pb  Pb52  1  0.49845378  0.16833835  0.16673900  1
  Pb  Pb53  1  0.16907792  0.16902088  0.83646171  1
  I  I54  1  0.16697463  -0.00074962  0.17617124  1
  I  I55  1  0.16679536  -0.00285211  0.49434333  1
  I  I56  1  0.16753308  0.00027088  0.83296992  1
  I  I57  1  0.17062122  0.33483920  0.16930825  1
  I  I58  1  0.16753310  0.33581051  0.49781848  1
  I  I59  1  0.16915544  0.33732674  0.83049000  1
  I  I60  1  0.17049580  0.66588306  0.16947513  1
  I  I61  1  0.16717510  0.66709597  0.49543332  1
  I  I62  1  0.17369469  0.66265885  0.83553522  1
  I  I63  1  0.49683551  -0.00021614  0.16492317  1
  I  I64  1  0.49795561  0.00027627  0.50501308  1
  I  I65  1  0.49935633  0.00280658  0.82875126  1
  I  I66  1  0.49181006  0.33637369  0.16901142  1
  I  I67  1  0.50250464  0.33084330  0.50094975  1
  I  I68  1  0.49497476  0.33402582  0.82924321  1
  I  I69  1  0.49248608  0.66257477  0.16269825  1
  I  I70  1  0.50133808  0.66899152  0.49964283  1
  I  I71  1  0.49431763  0.66310006  0.83498568  1
  I  I72  1  0.83390103  -0.00007224  0.16610174  1
  I  I73  1  0.83522711  -0.00060319  0.49956052  1
  I  I74  1  0.83393838  0.00030348  0.83425831  1
  I  I75  1  0.83695719  0.33327105  0.17058031  1
  I  I76  1  0.82902780  0.33030758  0.50025479  1
  I  I77  1  0.83657287  0.33322360  0.82947504  1
  I  I78  1  0.83470204  0.66680825  0.16999840  1
  I  I79  1  0.83065785  0.66969841  0.49963511  1
  I  I80  1  0.83203831  0.66658223  0.83066802  1
  I  I81  1  0.16926195  0.16614928  0.00432761  1
  I  I82  1  0.16853902  0.17210352  0.33119866  1
  I  I83  1  0.16471925  0.16759057  0.66687695  1
  I  I84  1  0.17216876  0.50020197  0.00076006  1
  I  I85  1  0.17010862  0.50078947  0.33283113  1
  I  I86  1  0.17077996  0.50499307  0.66635594  1
  I  I87  1  0.16850159  0.83174943  0.00317687  1
  I  I88  1  0.16665787  0.82780063  0.33454593  1
  I  I89  1  0.16622361  0.82868251  0.66291377  1
  I  I90  1  0.49509877  0.17123164  -0.00244030  1
  I  I91  1  0.50191099  0.16428709  0.33637601  1
  I  I92  1  0.50237150  0.16943737  0.66544802  1
  I  I93  1  0.48855290  0.49339314  -0.00041667  1
  I  I94  1  0.49373884  0.50006857  0.33134676  1
  I  I95  1  0.49478225  0.49911489  0.66873748  1
  I  I96  1  0.49767180  0.83554423  0.00036829  1
  I  I97  1  0.50085002  0.83822100  0.33766215  1
  I  I98  1  0.49711362  0.83211813  0.66241584  1
  I  I99  1  0.83382501  0.16792735  -0.00006334  1
  I  I100  1  0.82630847  0.16299448  0.33749672  1
  I  I101  1  0.83545928  0.16235416  0.66263028  1
  I  I102  1  0.83841580  0.49947633  -0.00000629  1
  I  I103  1  0.83261927  0.49974031  0.33370933  1
  I  I104  1  0.83400512  0.50134048  0.66636593  1
  I  I105  1  0.83461337  0.83245537  0.00028903  1
  I  I106  1  0.83144114  0.83653210  0.33762103  1
  I  I107  1  0.83691512  0.83613586  0.66148765  1
  I  I108  1  0.00455699  0.17117605  0.16977097  1
  I  I109  1  -0.00166567  0.16433907  0.49669234  1
  I  I110  1  0.00007516  0.16817165  0.83270808  1
  I  I111  1  0.00433971  0.50047996  0.16762332  1
  I  I112  1  0.00503182  0.50367321  0.49797461  1
  I  I113  1  0.00340400  0.50139959  0.83372001  1
  I  I114  1  0.00492485  0.82856505  0.17360918  1
  I  I115  1  0.00093371  0.83255977  0.49524479  1
  I  I116  1  0.00032897  0.83108345  0.83165746  1
  I  I117  1  0.33033012  0.16665208  0.17143281  1
  I  I118  1  0.33604050  0.16415766  0.50216875  1
  I  I119  1  0.33664773  0.16864766  0.82422073  1
  I  I120  1  0.33159084  0.49987822  0.16691070  1
  I  I121  1  0.32995893  0.50339138  0.49882647  1
  I  I122  1  0.33304544  0.49688690  0.83364220  1
  I  I123  1  0.32964837  0.83405349  0.17406907  1
  I  I124  1  0.33265015  0.83304771  0.49663357  1
  I  I125  1  0.33329705  0.83523187  0.82892271  1
  I  I126  1  0.66650901  0.16963970  0.16572494  1
  I  I127  1  0.66555760  0.15971526  0.50323787  1
  I  I128  1  0.66187031  0.17543536  0.83103689  1
  I  I129  1  0.66320183  0.49831377  0.16328412  1
  I  I130  1  0.66647871  0.50299929  0.50013859  1
  I  I131  1  0.66248026  0.49570294  0.83592903  1
  I  I132  1  0.66658522  0.83136686  0.16766824  1
  I  I133  1  0.66631788  0.83744779  0.50195966  1
  I  I134  1  0.66636472  0.82972254  0.83155916  1
