# generated using pymatgen
data_Cs27Sn13Pb14I81
_symmetry_space_group_name_H-M   'P 1'
_cell_length_a   18.98200369
_cell_length_b   18.97596508
_cell_length_c   18.97591639
_cell_angle_alpha   89.99865958
_cell_angle_beta   89.99792825
_cell_angle_gamma   90.00012889
_symmetry_Int_Tables_number   1
_chemical_formula_structural   Cs27Sn13Pb14I81
_chemical_formula_sum   'Cs27 Sn13 Pb14 I81'
_cell_volume   6835.15997720
_cell_formula_units_Z   1
loop_
 _symmetry_equiv_pos_site_id
 _symmetry_equiv_pos_as_xyz
  1  'x, y, z'
loop_
 _atom_site_type_symbol
 _atom_site_label
 _atom_site_symmetry_multiplicity
 _atom_site_fract_x
 _atom_site_fract_y
 _atom_site_fract_z
 _atom_site_occupancy
  Cs  Cs0  1  0.00134779  0.00165849  -0.00067288  1
  Cs  Cs1  1  0.00374995  0.00081769  0.33287011  1
  Cs  Cs2  1  -0.00026004  -0.00192394  0.66879688  1
  Cs  Cs3  1  0.00098953  0.33106876  -0.00002798  1
  Cs  Cs4  1  -0.00121300  0.33474558  0.33379281  1
  Cs  Cs5  1  -0.00025526  0.33526225  0.66627441  1
  Cs  Cs6  1  0.00110678  0.67086484  0.00086975  1
  Cs  Cs7  1  -0.00668271  0.66357012  0.34063878  1
  Cs  Cs8  1  -0.00244387  0.66472979  0.65836653  1
  Cs  Cs9  1  0.33118023  0.00075395  -0.00043539  1
  Cs  Cs10  1  0.33477515  -0.00135346  0.33953044  1
  Cs  Cs11  1  0.33501295  0.00026548  0.66341140  1
  Cs  Cs12  1  0.33305062  0.33480671  -0.00085941  1
  Cs  Cs13  1  0.33291527  0.33096935  0.33515139  1
  Cs  Cs14  1  0.33369831  0.33732089  0.66493959  1
  Cs  Cs15  1  0.33399176  0.66453442  -0.00041643  1
  Cs  Cs16  1  0.33657201  0.67266220  0.33305204  1
  Cs  Cs17  1  0.33112028  0.66181589  0.66737567  1
  Cs  Cs18  1  0.66724585  0.00069893  -0.00213775  1
  Cs  Cs19  1  0.66143662  -0.00419075  0.33465886  1
  Cs  Cs20  1  0.66529284  -0.00081555  0.66799330  1
  Cs  Cs21  1  0.66549586  0.33281568  -0.00075490  1
  Cs  Cs22  1  0.66825338  0.33513785  0.33425953  1
  Cs  Cs23  1  0.66603000  0.33255388  0.66730530  1
  Cs  Cs24  1  0.66595789  0.66777326  0.00792109  1
  Cs  Cs25  1  0.66989932  0.66920068  0.32833262  1
  Cs  Cs26  1  0.67062711  0.66744767  0.66540267  1
  Sn  Sn27  1  0.16772211  0.83402525  0.83380931  1
  Sn  Sn28  1  0.16709396  0.16659202  0.16586647  1
  Sn  Sn29  1  0.83312864  0.16665021  0.16683896  1
  Sn  Sn30  1  0.16650722  0.83348267  0.16594028  1
  Sn  Sn31  1  0.83337024  0.49962641  0.83416948  1
  Sn  Sn32  1  0.83338332  0.16632285  0.50009925  1
  Sn  Sn33  1  0.16663964  0.50014897  0.16669799  1
  Sn  Sn34  1  0.83350347  0.16767099  0.83329136  1
  Sn  Sn35  1  0.49943734  0.16623356  0.83391570  1
  Sn  Sn36  1  0.49908607  0.83370437  0.83361765  1
  Sn  Sn37  1  0.49967430  0.16674252  0.16595903  1
  Sn  Sn38  1  0.50017335  0.50001734  0.49976500  1
  Sn  Sn39  1  0.16707538  0.16630876  0.83365856  1
  Pb  Pb40  1  0.16464682  0.50031473  0.83481619  1
  Pb  Pb41  1  0.83535238  0.49787719  0.16448965  1
  Pb  Pb42  1  0.83317344  0.83639430  0.49983510  1
  Pb  Pb43  1  0.16871385  0.49985348  0.49681194  1
  Pb  Pb44  1  0.50201338  0.50021679  0.83252336  1
  Pb  Pb45  1  0.83131042  0.49785147  0.50189107  1
  Pb  Pb46  1  0.83369672  0.83357302  0.83346006  1
  Pb  Pb47  1  0.83603671  0.83621025  0.16659117  1
  Pb  Pb48  1  0.16670840  0.83348325  0.50055878  1
  Pb  Pb49  1  0.16447979  0.16678612  0.50048901  1
  Pb  Pb50  1  0.50207454  0.16776250  0.50036722  1
  Pb  Pb51  1  0.49800810  0.49770366  0.16847966  1
  Pb  Pb52  1  0.49998722  0.83050176  0.50311766  1
  Pb  Pb53  1  0.49772684  0.83591668  0.16429167  1
  I  I54  1  0.16494295  0.00154183  0.16162720  1
  I  I55  1  0.16633226  0.00033764  0.49582956  1
  I  I56  1  0.16460537  0.00160911  0.84072285  1
  I  I57  1  0.16620465  0.33114537  0.16280569  1
  I  I58  1  0.16692660  0.33313996  0.50021747  1
  I  I59  1  0.16836532  0.32997457  0.83775569  1
  I  I60  1  0.16818462  0.66734850  0.16051654  1
  I  I61  1  0.16631633  0.66662913  0.50148945  1
  I  I62  1  0.17042769  0.66964219  0.83859803  1
  I  I63  1  0.49977061  0.00444309  0.16622747  1
  I  I64  1  0.50145666  0.00001500  0.49839530  1
  I  I65  1  0.50169409  0.00206478  0.83639877  1
  I  I66  1  0.49789317  0.32903672  0.16000537  1
  I  I67  1  0.50072462  0.33516233  0.50235849  1
  I  I68  1  0.49824415  0.32983082  0.83561130  1
  I  I69  1  0.49787999  0.66694222  0.16610670  1
  I  I70  1  0.49919511  0.66315280  0.50155880  1
  I  I71  1  0.49565450  0.66941267  0.83010266  1
  I  I72  1  0.83526901  0.00514744  0.16200111  1
  I  I73  1  0.83272577  0.00484759  0.50392099  1
  I  I74  1  0.83354115  0.00394023  0.83388510  1
  I  I75  1  0.83625152  0.32894910  0.16751390  1
  I  I76  1  0.83296386  0.32980786  0.49853065  1
  I  I77  1  0.83338703  0.33022630  0.83338899  1
  I  I78  1  0.83480109  0.66659495  0.16485891  1
  I  I79  1  0.83326560  0.66625125  0.50305962  1
  I  I80  1  0.83352385  0.66416429  0.83188404  1
  I  I81  1  0.16289096  0.16611896  0.00012808  1
  I  I82  1  0.16662572  0.16576465  0.32954662  1
  I  I83  1  0.16670516  0.16211423  0.67061481  1
  I  I84  1  0.16710896  0.49740669  0.00276239  1
  I  I85  1  0.16572241  0.49666710  0.32865700  1
  I  I86  1  0.16581393  0.49964914  0.66680317  1
  I  I87  1  0.16964356  0.83585515  -0.00057563  1
  I  I88  1  0.16623966  0.83653399  0.32981031  1
  I  I89  1  0.16972713  0.83976477  0.67077145  1
  I  I90  1  0.50353028  0.16450586  -0.00088844  1
  I  I91  1  0.49917405  0.16931929  0.33042510  1
  I  I92  1  0.50052114  0.16451748  0.67021458  1
  I  I93  1  0.50045182  0.50057747  0.00008500  1
  I  I94  1  0.49919075  0.49586938  0.33601398  1
  I  I95  1  0.50065941  0.49667809  0.66487861  1
  I  I96  1  0.49887892  0.83460661  -0.00375040  1
  I  I97  1  0.49815944  0.83491709  0.33302829  1
  I  I98  1  0.49412885  0.84213383  0.67120181  1
  I  I99  1  0.83408928  0.17015790  -0.00058470  1
  I  I100  1  0.83463972  0.16627549  0.33222916  1
  I  I101  1  0.83293277  0.17046925  0.66840254  1
  I  I102  1  0.83193951  0.49246218  -0.00326616  1
  I  I103  1  0.83434843  0.49764549  0.33313730  1
  I  I104  1  0.83443724  0.49345712  0.66986167  1
  I  I105  1  0.83134597  0.83434746  -0.00016495  1
  I  I106  1  0.83512343  0.83413492  0.33300384  1
  I  I107  1  0.83576186  0.83526443  0.66717534  1
  I  I108  1  0.00067458  0.16648332  0.16371509  1
  I  I109  1  -0.00347219  0.16819214  0.50043223  1
  I  I110  1  0.00017634  0.16650837  0.83602624  1
  I  I111  1  0.00336583  0.49668979  0.16527950  1
  I  I112  1  -0.00030108  0.49980300  0.50020314  1
  I  I113  1  -0.00291089  0.49305719  0.83411338  1
  I  I114  1  0.00439088  0.83660734  0.15841930  1
  I  I115  1  0.00005961  0.83230987  0.50258451  1
  I  I116  1  0.00337172  0.83816822  0.83819166  1
  I  I117  1  0.33243169  0.16764199  0.15958652  1
  I  I118  1  0.33357243  0.16783469  0.49942398  1
  I  I119  1  0.33316109  0.16243165  0.84061324  1
  I  I120  1  0.32996247  0.49617766  0.16495701  1
  I  I121  1  0.33612654  0.49681469  0.50353300  1
  I  I122  1  0.33324591  0.49736893  0.83227026  1
  I  I123  1  0.32961457  0.83572619  0.16458357  1
  I  I124  1  0.33344327  0.83487063  0.49791008  1
  I  I125  1  0.33256912  0.84154509  0.83701329  1
  I  I126  1  0.66679226  0.16803944  0.16276577  1
  I  I127  1  0.66980264  0.16883361  0.50096898  1
  I  I128  1  0.66669423  0.16671597  0.83585898  1
  I  I129  1  0.66672940  0.49801781  0.16697642  1
  I  I130  1  0.66405906  0.49695884  0.50143928  1
  I  I131  1  0.66957717  0.49325034  0.83179452  1
  I  I132  1  0.66641146  0.83424885  0.16561827  1
  I  I133  1  0.66638896  0.83384111  0.50263761  1
  I  I134  1  0.66410672  0.83812970  0.83120273  1
