# generated using pymatgen
data_Cs27Sn13Pb14I81
_symmetry_space_group_name_H-M   'P 1'
_cell_length_a   18.97352729
_cell_length_b   18.97831964
_cell_length_c   18.97826975
_cell_angle_alpha   89.99856898
_cell_angle_beta   89.99859018
_cell_angle_gamma   90.00186672
_symmetry_Int_Tables_number   1
_chemical_formula_structural   Cs27Sn13Pb14I81
_chemical_formula_sum   'Cs27 Sn13 Pb14 I81'
_cell_volume   6833.80288710
_cell_formula_units_Z   1
loop_
 _symmetry_equiv_pos_site_id
 _symmetry_equiv_pos_as_xyz
  1  'x, y, z'
loop_
 _atom_site_type_symbol
 _atom_site_label
 _atom_site_symmetry_multiplicity
 _atom_site_fract_x
 _atom_site_fract_y
 _atom_site_fract_z
 _atom_site_occupancy
  Cs  Cs0  1  0.00870928  0.00062393  -0.00420190  1
  Cs  Cs1  1  -0.00169280  -0.00752555  0.33460387  1
  Cs  Cs2  1  0.00106394  -0.00265013  0.66783325  1
  Cs  Cs3  1  0.00084617  0.33531197  -0.00242564  1
  Cs  Cs4  1  0.00090822  0.33450709  0.33471466  1
  Cs  Cs5  1  -0.00034569  0.33316276  0.66763606  1
  Cs  Cs6  1  -0.00337213  0.66394154  0.01121902  1
  Cs  Cs7  1  -0.00221018  0.67316266  0.32832049  1
  Cs  Cs8  1  0.00227389  0.66855675  0.66378912  1
  Cs  Cs9  1  0.32994456  -0.00085846  -0.00279503  1
  Cs  Cs10  1  0.33621711  0.00208676  0.33328952  1
  Cs  Cs11  1  0.33283103  -0.00248205  0.66827575  1
  Cs  Cs12  1  0.33015496  0.33073033  0.00438565  1
  Cs  Cs13  1  0.33414220  0.33352084  0.33456971  1
  Cs  Cs14  1  0.33256023  0.33683636  0.66315388  1
  Cs  Cs15  1  0.33287384  0.66952925  -0.00348187  1
  Cs  Cs16  1  0.33414247  0.66582474  0.33291359  1
  Cs  Cs17  1  0.33376830  0.66518464  0.67040367  1
  Cs  Cs18  1  0.66475267  0.00090121  -0.00014503  1
  Cs  Cs19  1  0.66582837  0.00122592  0.33329965  1
  Cs  Cs20  1  0.66767177  0.00070938  0.66691904  1
  Cs  Cs21  1  0.66979291  0.33314423  -0.00121340  1
  Cs  Cs22  1  0.66431669  0.33047765  0.33516506  1
  Cs  Cs23  1  0.66821315  0.33469489  0.66656771  1
  Cs  Cs24  1  0.66908400  0.66509554  -0.00336127  1
  Cs  Cs25  1  0.66731319  0.66871914  0.33227072  1
  Cs  Cs26  1  0.66466014  0.66432051  0.67111302  1
  Sn  Sn27  1  0.50001981  0.16719444  0.83304901  1
  Sn  Sn28  1  0.83346955  0.83350769  0.83339231  1
  Sn  Sn29  1  0.49999926  0.16593850  0.50050098  1
  Sn  Sn30  1  0.50024519  0.83355944  0.16720393  1
  Sn  Sn31  1  0.16639748  0.49992820  0.83296708  1
  Sn  Sn32  1  0.16643602  0.16698192  0.49970191  1
  Sn  Sn33  1  0.50026914  0.49984643  0.16644404  1
  Sn  Sn34  1  0.50017880  0.83386580  0.49977973  1
  Sn  Sn35  1  0.83362548  0.16723183  0.49921044  1
  Sn  Sn36  1  0.83413879  0.49965085  0.49972984  1
  Sn  Sn37  1  0.83315766  0.16643789  0.16714729  1
  Sn  Sn38  1  0.50078584  0.16656483  0.16636904  1
  Sn  Sn39  1  0.16538741  0.49940598  0.50046580  1
  Pb  Pb40  1  0.50116450  0.83524628  0.83340057  1
  Pb  Pb41  1  0.16624223  0.16655280  0.16943322  1
  Pb  Pb42  1  0.16370678  0.83037087  0.83326946  1
  Pb  Pb43  1  0.49822429  0.49725050  0.83620248  1
  Pb  Pb44  1  0.83198643  0.16553130  0.83311402  1
  Pb  Pb45  1  0.16955550  0.83360295  0.16683791  1
  Pb  Pb46  1  0.83084459  0.83354305  0.50121795  1
  Pb  Pb47  1  0.83107977  0.49752482  0.16931297  1
  Pb  Pb48  1  0.83098987  0.83651531  0.16441244  1
  Pb  Pb49  1  0.16947845  0.83297731  0.49992144  1
  Pb  Pb50  1  0.16911981  0.16848973  0.83049470  1
  Pb  Pb51  1  0.16860091  0.49987070  0.16768698  1
  Pb  Pb52  1  0.50002911  0.50007194  0.49874150  1
  Pb  Pb53  1  0.83559145  0.50187859  0.83102655  1
  I  I54  1  0.16873178  0.00041155  0.16749029  1
  I  I55  1  0.16525412  0.00321259  0.49874148  1
  I  I56  1  0.16716274  0.00011061  0.83282528  1
  I  I57  1  0.17131613  0.33315539  0.16516303  1
  I  I58  1  0.16921371  0.33280645  0.50303370  1
  I  I59  1  0.16703743  0.33613252  0.83102634  1
  I  I60  1  0.16863966  0.66649256  0.16866001  1
  I  I61  1  0.16458005  0.66323702  0.50367197  1
  I  I62  1  0.16993413  0.66284367  0.82437963  1
  I  I63  1  0.50405684  0.00131683  0.16884954  1
  I  I64  1  0.50017232  0.00213259  0.49567505  1
  I  I65  1  0.50063099  0.00325531  0.83593151  1
  I  I66  1  0.50224674  0.33161649  0.16803429  1
  I  I67  1  0.49978201  0.33014881  0.49845962  1
  I  I68  1  0.50132760  0.32932031  0.83065746  1
  I  I69  1  0.49800446  0.66721659  0.17341612  1
  I  I70  1  0.50037912  0.66888110  0.49468312  1
  I  I71  1  0.49994914  0.66654733  0.83314778  1
  I  I72  1  0.82558922  0.00422042  0.17502752  1
  I  I73  1  0.83432721  0.00345851  0.49751601  1
  I  I74  1  0.83034138  -0.00200500  0.83080153  1
  I  I75  1  0.82569523  0.32962570  0.16753698  1
  I  I76  1  0.83082872  0.33182506  0.49762588  1
  I  I77  1  0.83269903  0.33332862  0.83471786  1
  I  I78  1  0.83145406  0.66677151  0.16684991  1
  I  I79  1  0.83598002  0.66422654  0.50268332  1
  I  I80  1  0.83018709  0.66940514  0.83104759  1
  I  I81  1  0.16757687  0.16812836  -0.00012412  1
  I  I82  1  0.17284358  0.17403607  0.33767028  1
  I  I83  1  0.16669059  0.16860800  0.66229445  1
  I  I84  1  0.17022450  0.50091117  -0.00221169  1
  I  I85  1  0.16571478  0.49464893  0.33704093  1
  I  I86  1  0.16487728  0.49521241  0.66486476  1
  I  I87  1  0.16928442  0.83226732  -0.00021884  1
  I  I88  1  0.16383849  0.83078065  0.33375332  1
  I  I89  1  0.17006655  0.83548436  0.66648001  1
  I  I90  1  0.50522225  0.16690901  0.00147117  1
  I  I91  1  0.50025294  0.16605484  0.33371446  1
  I  I92  1  0.50032290  0.16175525  0.66486709  1
  I  I93  1  0.49832521  0.50050666  0.00400657  1
  I  I94  1  0.49826214  0.49550602  0.33092781  1
  I  I95  1  0.50133722  0.50002261  0.66662951  1
  I  I96  1  0.50157772  0.83484452  0.00287718  1
  I  I97  1  0.50050113  0.83848186  0.33335452  1
  I  I98  1  0.50142641  0.83884311  0.66408780  1
  I  I99  1  0.82541323  0.16443883  0.00260350  1
  I  I100  1  0.82708265  0.17019774  0.33473779  1
  I  I101  1  0.83094609  0.16891835  0.66312357  1
  I  I102  1  0.83427054  0.49968646  0.00024219  1
  I  I103  1  0.83920668  0.49906471  0.33731687  1
  I  I104  1  0.83207754  0.49304693  0.66291193  1
  I  I105  1  0.82977522  0.83380665  -0.00272355  1
  I  I106  1  0.83370626  0.83152368  0.33320490  1
  I  I107  1  0.82923889  0.83580096  0.66853298  1
  I  I108  1  -0.00333051  0.16746961  0.17097297  1
  I  I109  1  -0.00071270  0.17234949  0.49583452  1
  I  I110  1  0.00018235  0.16564911  0.83431022  1
  I  I111  1  -0.00030127  0.49812423  0.16449286  1
  I  I112  1  0.00017034  0.49070076  0.50427433  1
  I  I113  1  0.00332334  0.49846920  0.83101215  1
  I  I114  1  -0.00066755  0.83398123  0.16540552  1
  I  I115  1  -0.00024692  0.83590323  0.50231329  1
  I  I116  1  -0.00360770  0.83719716  0.83032158  1
  I  I117  1  0.33712008  0.16665818  0.16765847  1
  I  I118  1  0.33452420  0.16747091  0.49965182  1
  I  I119  1  0.33728849  0.16550542  0.83539556  1
  I  I120  1  0.33699387  0.49641806  0.16989129  1
  I  I121  1  0.33107016  0.49647142  0.50156549  1
  I  I122  1  0.33070954  0.49979842  0.82476247  1
  I  I123  1  0.33849263  0.83678007  0.17001697  1
  I  I124  1  0.33762972  0.83799905  0.49657024  1
  I  I125  1  0.33336322  0.83354119  0.83376188  1
  I  I126  1  0.66473329  0.16693871  0.17203196  1
  I  I127  1  0.66600955  0.16699115  0.49880310  1
  I  I128  1  0.66366866  0.16609238  0.82960369  1
  I  I129  1  0.66299142  0.50088811  0.16864423  1
  I  I130  1  0.66879678  0.49622646  0.49756786  1
  I  I131  1  0.66672608  0.50064255  0.83240370  1
  I  I132  1  0.66274318  0.83265526  0.17110883  1
  I  I133  1  0.66296935  0.83798124  0.49648318  1
  I  I134  1  0.66860496  0.83362591  0.83220066  1
