# generated using pymatgen
data_Cs27Sn14Pb13I81
_symmetry_space_group_name_H-M   'P 1'
_cell_length_a   19.31103187
_cell_length_b   19.29604113
_cell_length_c   19.29209773
_cell_angle_alpha   90.00806816
_cell_angle_beta   89.97762025
_cell_angle_gamma   90.04209014
_symmetry_Int_Tables_number   1
_chemical_formula_structural   Cs27Sn14Pb13I81
_chemical_formula_sum   'Cs27 Sn14 Pb13 I81'
_cell_volume   7188.74362530
_cell_formula_units_Z   1
loop_
 _symmetry_equiv_pos_site_id
 _symmetry_equiv_pos_as_xyz
  1  'x, y, z'
loop_
 _atom_site_type_symbol
 _atom_site_label
 _atom_site_symmetry_multiplicity
 _atom_site_fract_x
 _atom_site_fract_y
 _atom_site_fract_z
 _atom_site_occupancy
  Cs  Cs0  1  0.02024773  -0.03355855  0.00092161  1
  Cs  Cs1  1  0.00185378  -0.00105138  0.31764075  1
  Cs  Cs2  1  0.00711123  0.02248151  0.67241701  1
  Cs  Cs3  1  -0.01449138  0.33433497  0.02017539  1
  Cs  Cs4  1  0.00221115  0.32715972  0.30821161  1
  Cs  Cs5  1  0.04622602  0.32904306  0.66051784  1
  Cs  Cs6  1  0.00024624  0.67498867  -0.02885047  1
  Cs  Cs7  1  -0.02620916  0.66681320  0.34959822  1
  Cs  Cs8  1  -0.00355980  0.67723929  0.64512635  1
  Cs  Cs9  1  0.36559690  -0.01255462  0.01189331  1
  Cs  Cs10  1  0.34194199  -0.00187648  0.30830423  1
  Cs  Cs11  1  0.32265782  0.02717356  0.66159841  1
  Cs  Cs12  1  0.33537187  0.34740107  -0.03231835  1
  Cs  Cs13  1  0.34245500  0.35889752  0.33767268  1
  Cs  Cs14  1  0.32193847  0.33720599  0.66600671  1
  Cs  Cs15  1  0.33819730  0.66945359  0.00616106  1
  Cs  Cs16  1  0.34397062  0.64565641  0.34416150  1
  Cs  Cs17  1  0.33313264  0.64383929  0.65073457  1
  Cs  Cs18  1  0.63283184  0.00223342  -0.01862374  1
  Cs  Cs19  1  0.68336479  -0.03486666  0.34058520  1
  Cs  Cs20  1  0.66143672  0.00973283  0.69734766  1
  Cs  Cs21  1  0.69541080  0.31260541  0.00458444  1
  Cs  Cs22  1  0.69641654  0.32790674  0.32997832  1
  Cs  Cs23  1  0.66308041  0.30305271  0.66761796  1
  Cs  Cs24  1  0.70238156  0.66034738  -0.00915626  1
  Cs  Cs25  1  0.68828905  0.66701494  0.33993342  1
  Cs  Cs26  1  0.66028626  0.66578976  0.63549008  1
  Sn  Sn27  1  0.50327006  0.49641994  0.50127750  1
  Sn  Sn28  1  0.83520691  0.83645480  0.50397344  1
  Sn  Sn29  1  0.49297111  0.83609297  0.50113660  1
  Sn  Sn30  1  0.16373964  0.16838516  0.84068972  1
  Sn  Sn31  1  0.83366995  0.83344668  0.16740943  1
  Sn  Sn32  1  0.17160984  0.50079375  0.16434303  1
  Sn  Sn33  1  0.16327051  0.50248121  0.49632113  1
  Sn  Sn34  1  0.49723403  0.16564459  0.49246833  1
  Sn  Sn35  1  0.49703744  0.49892080  0.16250522  1
  Sn  Sn36  1  0.16895721  0.16299725  0.49579678  1
  Sn  Sn37  1  0.50035828  0.50689827  0.83404170  1
  Sn  Sn38  1  0.17272330  0.83491014  0.50118262  1
  Sn  Sn39  1  0.16642716  0.50311123  0.83731296  1
  Sn  Sn40  1  0.83297100  0.49598325  0.50785929  1
  Pb  Pb41  1  0.83808995  0.16911359  0.83054829  1
  Pb  Pb42  1  0.16795734  0.82828145  0.17343981  1
  Pb  Pb43  1  0.83153881  0.16145323  0.16809734  1
  Pb  Pb44  1  0.50196635  0.82831993  0.17201274  1
  Pb  Pb45  1  0.16910954  0.16858016  0.16378897  1
  Pb  Pb46  1  0.83330224  0.16595223  0.49932792  1
  Pb  Pb47  1  0.83319843  0.49756458  0.82757769  1
  Pb  Pb48  1  0.49527701  0.82805284  0.82740929  1
  Pb  Pb49  1  0.17107905  0.83242013  0.82897270  1
  Pb  Pb50  1  0.49630523  0.17081553  0.17078999  1
  Pb  Pb51  1  0.83231409  0.50255414  0.16825464  1
  Pb  Pb52  1  0.83246473  0.83466122  0.83039019  1
  Pb  Pb53  1  0.49452891  0.17243219  0.83074504  1
  I  I54  1  0.14172962  0.00182527  0.15860033  1
  I  I55  1  0.16436715  -0.00315588  0.53424289  1
  I  I56  1  0.14542587  0.00327097  0.82030920  1
  I  I57  1  0.17395602  0.33173477  0.19755626  1
  I  I58  1  0.17351941  0.33348251  0.50246534  1
  I  I59  1  0.17825680  0.33456647  0.81820330  1
  I  I60  1  0.19018546  0.66327847  0.15690566  1
  I  I61  1  0.17295293  0.66525152  0.49744928  1
  I  I62  1  0.17217624  0.66131090  0.84678430  1
  I  I63  1  0.52027299  0.00085490  0.16470719  1
  I  I64  1  0.48908673  -0.00215254  0.50126838  1
  I  I65  1  0.50193380  0.00058412  0.82238273  1
  I  I66  1  0.48248025  0.33719356  0.17559283  1
  I  I67  1  0.49147897  0.33411748  0.50565346  1
  I  I68  1  0.50413101  0.33773109  0.82034135  1
  I  I69  1  0.47330251  0.66377263  0.16816112  1
  I  I70  1  0.49242275  0.66566024  0.50392666  1
  I  I71  1  0.46628767  0.66461668  0.83399716  1
  I  I72  1  0.83286733  -0.00053209  0.20156522  1
  I  I73  1  0.83742037  -0.00044075  0.46978640  1
  I  I74  1  0.83519635  0.00124827  0.81888065  1
  I  I75  1  0.83196543  0.33480615  0.16084458  1
  I  I76  1  0.81682327  0.33891497  0.50707938  1
  I  I77  1  0.80145174  0.33399970  0.83032266  1
  I  I78  1  0.83386570  0.66868135  0.16783215  1
  I  I79  1  0.83011425  0.66733907  0.49163459  1
  I  I80  1  0.84290672  0.66625426  0.84654174  1
  I  I81  1  0.14331525  0.19521512  -0.00515931  1
  I  I82  1  0.16634556  0.14902858  0.33796210  1
  I  I83  1  0.17608391  0.17489967  0.66323271  1
  I  I84  1  0.19293618  0.48577087  0.00211285  1
  I  I85  1  0.17418489  0.50714745  0.33866298  1
  I  I86  1  0.16602713  0.50244374  0.66472981  1
  I  I87  1  0.15281885  0.82165639  0.00126500  1
  I  I88  1  0.18312361  0.85645721  0.33815824  1
  I  I89  1  0.15258202  0.81006720  0.66564258  1
  I  I90  1  0.50137951  0.15800296  -0.00090707  1
  I  I91  1  0.46600538  0.16708909  0.33508277  1
  I  I92  1  0.52148566  0.15858127  0.66545157  1
  I  I93  1  0.46247798  0.50222736  0.00082755  1
  I  I94  1  0.49193599  0.50155973  0.33917414  1
  I  I95  1  0.49919527  0.51112483  0.66450543  1
  I  I96  1  0.50968328  0.84536024  0.00146208  1
  I  I97  1  0.47468645  0.83569743  0.33750855  1
  I  I98  1  0.52694916  0.82795986  0.66351531  1
  I  I99  1  0.84558706  0.17251019  -0.00076495  1
  I  I100  1  0.84662214  0.19268734  0.33445544  1
  I  I101  1  0.80306334  0.15632324  0.66371768  1
  I  I102  1  0.83065846  0.49656765  0.00015949  1
  I  I103  1  0.83324325  0.49736222  0.33532981  1
  I  I104  1  0.83067102  0.53530591  0.66527950  1
  I  I105  1  0.84964220  0.82968597  0.00551832  1
  I  I106  1  0.83720774  0.81841149  0.33610773  1
  I  I107  1  0.83338246  0.81221737  0.66240743  1
  I  I108  1  -0.00060926  0.17978200  0.17033545  1
  I  I109  1  0.00023227  0.17092987  0.52487497  1
  I  I110  1  0.00052242  0.18452049  0.79867559  1
  I  I111  1  0.00430509  0.48200620  0.16359940  1
  I  I112  1  -0.00233811  0.51921815  0.49979691  1
  I  I113  1  0.00205960  0.48654684  0.85049208  1
  I  I114  1  -0.00039691  0.83656143  0.18271209  1
  I  I115  1  0.00068132  0.81493892  0.49009655  1
  I  I116  1  0.00039715  0.82961357  0.83692383  1
  I  I117  1  0.33110564  0.13056943  0.15080823  1
  I  I118  1  0.33565834  0.17084638  0.52078795  1
  I  I119  1  0.32871082  0.16898127  0.82120981  1
  I  I120  1  0.32970471  0.49694413  0.18847968  1
  I  I121  1  0.33249413  0.50414200  0.50023825  1
  I  I122  1  0.33185789  0.48579637  0.81041280  1
  I  I123  1  0.33333607  0.85167090  0.15713122  1
  I  I124  1  0.33180898  0.81722082  0.52092632  1
  I  I125  1  0.33257675  0.85692573  0.85422948  1
  I  I126  1  0.66540428  0.19147397  0.17211922  1
  I  I127  1  0.66193438  0.18136288  0.48478087  1
  I  I128  1  0.66507736  0.16091838  0.84756119  1
  I  I129  1  0.66110596  0.50504530  0.16866631  1
  I  I130  1  0.66649664  0.51814385  0.49461395  1
  I  I131  1  0.66097986  0.52494768  0.84324733  1
  I  I132  1  0.66687672  0.82246077  0.19627282  1
  I  I133  1  0.66668639  0.81889513  0.48098192  1
  I  I134  1  0.66648592  0.83475840  0.84615138  1
