# generated using pymatgen
data_Cs27Sn14Pb13I81
_symmetry_space_group_name_H-M   'P 1'
_cell_length_a   18.98111015
_cell_length_b   18.96548846
_cell_length_c   18.98111029
_cell_angle_alpha   90.00034430
_cell_angle_beta   89.99802327
_cell_angle_gamma   89.99965546
_symmetry_Int_Tables_number   1
_chemical_formula_structural   Cs27Sn14Pb13I81
_chemical_formula_sum   'Cs27 Sn14 Pb13 I81'
_cell_volume   6832.93444997
_cell_formula_units_Z   1
loop_
 _symmetry_equiv_pos_site_id
 _symmetry_equiv_pos_as_xyz
  1  'x, y, z'
loop_
 _atom_site_type_symbol
 _atom_site_label
 _atom_site_symmetry_multiplicity
 _atom_site_fract_x
 _atom_site_fract_y
 _atom_site_fract_z
 _atom_site_occupancy
  Cs  Cs0  1  -0.00097867  0.00278977  0.00097858  1
  Cs  Cs1  1  -0.00275367  -0.00145212  0.32995639  1
  Cs  Cs2  1  0.00108568  -0.00281972  0.66758577  1
  Cs  Cs3  1  0.00034109  0.33398883  -0.00034111  1
  Cs  Cs4  1  0.00163069  0.33421837  0.33185845  1
  Cs  Cs5  1  -0.00138189  0.33356951  0.66755154  1
  Cs  Cs6  1  0.00206021  0.66347552  -0.00206021  1
  Cs  Cs7  1  -0.00010998  0.66618642  0.33525966  1
  Cs  Cs8  1  0.00171347  0.66929897  0.66756803  1
  Cs  Cs9  1  0.33241411  -0.00281945  -0.00108584  1
  Cs  Cs10  1  0.33604571  0.00437724  0.33146147  1
  Cs  Cs11  1  0.33032048  -0.00135698  0.66967956  1
  Cs  Cs12  1  0.33244843  0.33356938  0.00138187  1
  Cs  Cs13  1  0.33286334  0.33233287  0.33392962  1
  Cs  Cs14  1  0.33493244  0.33327169  0.66506756  1
  Cs  Cs15  1  0.33243211  0.66929893  -0.00171338  1
  Cs  Cs16  1  0.33236879  0.66699245  0.33840091  1
  Cs  Cs17  1  0.33733012  0.67386089  0.66266998  1
  Cs  Cs18  1  0.67004373  -0.00145212  0.00275350  1
  Cs  Cs19  1  0.66711490  -0.00912886  0.33288517  1
  Cs  Cs20  1  0.66853893  0.00437712  0.66395444  1
  Cs  Cs21  1  0.66814128  0.33421841  -0.00163064  1
  Cs  Cs22  1  0.66499118  0.33380825  0.33500890  1
  Cs  Cs23  1  0.66607039  0.33233289  0.66713667  1
  Cs  Cs24  1  0.66474018  0.66618655  0.00011010  1
  Cs  Cs25  1  0.66771082  0.67613821  0.33228918  1
  Cs  Cs26  1  0.66159872  0.66699232  0.66763093  1
  Sn  Sn27  1  0.83314612  0.49957213  0.16685387  1
  Sn  Sn28  1  0.16676763  0.49946534  0.83323238  1
  Sn  Sn29  1  0.83368258  0.16749628  0.49960020  1
  Sn  Sn30  1  0.49915617  0.16715849  0.83373976  1
  Sn  Sn31  1  0.16701187  0.50100678  0.16609955  1
  Sn  Sn32  1  0.50039982  0.16749625  0.16631745  1
  Sn  Sn33  1  0.83390043  0.50100684  0.83298812  1
  Sn  Sn34  1  0.16659669  0.83209518  0.16671508  1
  Sn  Sn35  1  0.83328498  0.83209506  0.83340334  1
  Sn  Sn36  1  0.83328543  0.49941801  0.50009163  1
  Sn  Sn37  1  0.49990837  0.49941801  0.16671462  1
  Sn  Sn38  1  0.16739906  0.16785831  0.83260092  1
  Sn  Sn39  1  0.16626018  0.16715848  0.50084381  1
  Sn  Sn40  1  0.50004458  0.16719616  0.49995546  1
  Pb  Pb41  1  0.16500557  0.49830389  0.50052526  1
  Pb  Pb42  1  0.16516496  0.83313043  0.83483505  1
  Pb  Pb43  1  0.83353004  0.83277118  0.50236271  1
  Pb  Pb44  1  0.16820260  0.16744391  0.16630784  1
  Pb  Pb45  1  0.50256179  0.49833044  0.49743819  1
  Pb  Pb46  1  0.50275165  0.83651272  0.83351863  1
  Pb  Pb47  1  0.83369219  0.16744394  0.83179741  1
  Pb  Pb48  1  0.83059443  0.16882947  0.16940553  1
  Pb  Pb49  1  0.49763730  0.83277123  0.16646997  1
  Pb  Pb50  1  0.83567579  0.83027646  0.16432424  1
  Pb  Pb51  1  0.49981707  0.83640548  0.50018297  1
  Pb  Pb52  1  0.16648133  0.83651274  0.49724838  1
  Pb  Pb53  1  0.49947474  0.49830384  0.83499438  1
  I  I54  1  0.16914574  -0.00126777  0.16714090  1
  I  I55  1  0.16484717  0.00519833  0.50537731  1
  I  I56  1  0.16871810  0.00309952  0.83128215  1
  I  I57  1  0.16453304  0.33641729  0.16567318  1
  I  I58  1  0.16869390  0.32982454  0.49848723  1
  I  I59  1  0.16343573  0.33349502  0.83656456  1
  I  I60  1  0.16765789  0.66401442  0.15999151  1
  I  I61  1  0.16404467  0.66647075  0.50192179  1
  I  I62  1  0.16252099  0.66335510  0.83747853  1
  I  I63  1  0.49730834  0.00323721  0.16814828  1
  I  I64  1  0.50387655  0.00565065  0.49612298  1
  I  I65  1  0.49462241  0.00519835  0.83515324  1
  I  I66  1  0.49774192  0.33322544  0.16690891  1
  I  I67  1  0.49837754  0.32960861  0.50162284  1
  I  I68  1  0.50151274  0.32982455  0.83130599  1
  I  I69  1  0.50334064  0.66299806  0.16537285  1
  I  I70  1  0.50172420  0.66628600  0.49827583  1
  I  I71  1  0.49807861  0.66647075  0.83595512  1
  I  I72  1  0.83375816  -0.00005657  0.16624187  1
  I  I73  1  0.83185174  0.00323721  0.50269133  1
  I  I74  1  0.83285907  -0.00126776  0.83085460  1
  I  I75  1  0.83922463  0.33711270  0.16077557  1
  I  I76  1  0.83309084  0.33322544  0.50225826  1
  I  I77  1  0.83432677  0.33641729  0.83546666  1
  I  I78  1  0.82779023  0.66185113  0.17220956  1
  I  I79  1  0.83462736  0.66299803  0.49665954  1
  I  I80  1  0.84000877  0.66401446  0.83234213  1
  I  I81  1  0.17072907  0.16745140  -0.00269684  1
  I  I82  1  0.16752015  0.16665303  0.33550792  1
  I  I83  1  0.17107066  0.17198364  0.66744862  1
  I  I84  1  0.16139697  0.49684893  0.00010311  1
  I  I85  1  0.16557587  0.50129690  0.33043731  1
  I  I86  1  0.16034698  0.49559283  0.66978661  1
  I  I87  1  0.16578753  0.83408176  0.00266654  1
  I  I88  1  0.16591111  0.82691460  0.32947448  1
  I  I89  1  0.16538823  0.83220217  0.66680980  1
  I  I90  1  0.49461544  0.17086868  0.00002300  1
  I  I91  1  0.49865092  0.17172776  0.33335072  1
  I  I92  1  0.50032835  0.16590901  0.66649452  1
  I  I93  1  0.50431248  0.49270971  0.00317679  1
  I  I94  1  0.49779384  0.49272879  0.32917899  1
  I  I95  1  0.50109561  0.49753510  0.66658052  1
  I  I96  1  0.50076066  0.83796040  0.00009687  1
  I  I97  1  0.50117309  0.83599059  0.33302918  1
  I  I98  1  0.49935314  0.83324225  0.66697911  1
  I  I99  1  0.83306888  0.16644127  0.00010359  1
  I  I100  1  0.83585594  0.17213464  0.33748213  1
  I  I101  1  0.82873536  0.17188766  0.66386550  1
  I  I102  1  0.83412868  0.50410416  -0.00012525  1
  I  I103  1  0.83403837  0.49269203  0.33296344  1
  I  I104  1  0.83867798  0.49854263  0.66736303  1
  I  I105  1  0.83366746  0.83056932  -0.00320504  1
  I  I106  1  0.83364010  0.83409721  0.33311558  1
  I  I107  1  0.83547008  0.82864817  0.66994643  1
  I  I108  1  -0.00010355  0.16644109  0.16693077  1
  I  I109  1  -0.00002304  0.17086847  0.50538537  1
  I  I110  1  0.00269689  0.16745145  0.82927054  1
  I  I111  1  0.00012527  0.50410442  0.16587154  1
  I  I112  1  -0.00317680  0.49270951  0.49568681  1
  I  I113  1  -0.00010308  0.49684872  0.83860344  1
  I  I114  1  0.00320504  0.83056918  0.16633220  1
  I  I115  1  -0.00009689  0.83796081  0.49923944  1
  I  I116  1  -0.00266656  0.83408205  0.83421271  1
  I  I117  1  0.33613445  0.17188798  0.17126395  1
  I  I118  1  0.33350550  0.16590944  0.49967143  1
  I  I119  1  0.33255137  0.17198375  0.82893001  1
  I  I120  1  0.33263697  0.49854251  0.16132245  1
  I  I121  1  0.33341951  0.49753500  0.49890481  1
  I  I122  1  0.33021338  0.49559327  0.83965221  1
  I  I123  1  0.33005351  0.82864755  0.16453031  1
  I  I124  1  0.33302091  0.83324198  0.50064632  1
  I  I125  1  0.33319019  0.83220176  0.83461185  1
  I  I126  1  0.66251788  0.17213445  0.16414503  1
  I  I127  1  0.66664928  0.17172743  0.50134832  1
  I  I128  1  0.66449208  0.16665293  0.83247959  1
  I  I129  1  0.66703659  0.49269190  0.16596105  1
  I  I130  1  0.67082099  0.49272907  0.50220649  1
  I  I131  1  0.66956269  0.50129683  0.83442443  1
  I  I132  1  0.66688443  0.83409734  0.16635986  1
  I  I133  1  0.66697086  0.83599055  0.49882741  1
  I  I134  1  0.67052548  0.82691473  0.83408848  1
