# generated using pymatgen
data_Cs27Sn13Pb14I81
_symmetry_space_group_name_H-M   'P 1'
_cell_length_a   18.96781423
_cell_length_b   18.98409269
_cell_length_c   18.97841735
_cell_angle_alpha   90.00107415
_cell_angle_beta   89.99713129
_cell_angle_gamma   90.00120782
_symmetry_Int_Tables_number   1
_chemical_formula_structural   Cs27Sn13Pb14I81
_chemical_formula_sum   'Cs27 Sn13 Pb14 I81'
_cell_volume   6833.87648697
_cell_formula_units_Z   1
loop_
 _symmetry_equiv_pos_site_id
 _symmetry_equiv_pos_as_xyz
  1  'x, y, z'
loop_
 _atom_site_type_symbol
 _atom_site_label
 _atom_site_symmetry_multiplicity
 _atom_site_fract_x
 _atom_site_fract_y
 _atom_site_fract_z
 _atom_site_occupancy
  Cs  Cs0  1  -0.00074631  -0.00129402  0.00211933  1
  Cs  Cs1  1  0.00405998  -0.00028094  0.33068128  1
  Cs  Cs2  1  -0.00096665  0.00040700  0.66741306  1
  Cs  Cs3  1  0.00021487  0.33268771  -0.00170928  1
  Cs  Cs4  1  0.00025654  0.33146844  0.33523472  1
  Cs  Cs5  1  -0.00218282  0.33558284  0.66729392  1
  Cs  Cs6  1  0.00489539  0.66871345  -0.00038612  1
  Cs  Cs7  1  -0.00063837  0.66983924  0.33173202  1
  Cs  Cs8  1  0.00117577  0.66427528  0.66844156  1
  Cs  Cs9  1  0.33727849  0.00049692  -0.00046237  1
  Cs  Cs10  1  0.32641770  0.00093389  0.34260198  1
  Cs  Cs11  1  0.33413448  0.00061266  0.65766343  1
  Cs  Cs12  1  0.33245557  0.33674163  0.00295553  1
  Cs  Cs13  1  0.33052863  0.33515529  0.33166329  1
  Cs  Cs14  1  0.33434831  0.32778209  0.66593768  1
  Cs  Cs15  1  0.32926919  0.66268128  -0.00046744  1
  Cs  Cs16  1  0.33698137  0.66360768  0.33559362  1
  Cs  Cs17  1  0.32844047  0.67125665  0.66705975  1
  Cs  Cs18  1  0.66693167  -0.00049869  -0.00005452  1
  Cs  Cs19  1  0.66838948  -0.00207595  0.32912702  1
  Cs  Cs20  1  0.66575798  0.00029448  0.66868945  1
  Cs  Cs21  1  0.66662646  0.33194388  -0.00075327  1
  Cs  Cs22  1  0.66716138  0.33823514  0.33228221  1
  Cs  Cs23  1  0.66716667  0.33317022  0.66694593  1
  Cs  Cs24  1  0.66665918  0.66881002  -0.00010274  1
  Cs  Cs25  1  0.66435263  0.66354767  0.33435337  1
  Cs  Cs26  1  0.66817191  0.66667577  0.66597778  1
  Sn  Sn27  1  0.50073744  0.83244957  0.83416265  1
  Sn  Sn28  1  0.83256807  0.16752879  0.16662078  1
  Sn  Sn29  1  0.83279532  0.83327794  0.83264488  1
  Sn  Sn30  1  0.50007044  0.83426785  0.16603107  1
  Sn  Sn31  1  0.83291335  0.16569099  0.49986728  1
  Sn  Sn32  1  0.83297836  0.83418121  0.50081659  1
  Sn  Sn33  1  0.16615635  0.16627667  0.83372817  1
  Sn  Sn34  1  0.50072422  0.50093493  0.83309461  1
  Sn  Sn35  1  0.16649124  0.49991000  0.50018378  1
  Sn  Sn36  1  0.50063549  0.16572100  0.16687461  1
  Sn  Sn37  1  0.83262600  0.50022555  0.83447901  1
  Sn  Sn38  1  0.83404299  0.16653062  0.83344743  1
  Sn  Sn39  1  0.83343061  0.49945027  0.16547625  1
  Pb  Pb40  1  0.49736100  0.50000406  0.50340256  1
  Pb  Pb41  1  0.16706211  0.83600668  0.83349416  1
  Pb  Pb42  1  0.83426481  0.50012897  0.50017153  1
  Pb  Pb43  1  0.16345761  0.49989442  0.16894851  1
  Pb  Pb44  1  0.50239557  0.83340947  0.50028672  1
  Pb  Pb45  1  0.50034233  0.16635286  0.83471185  1
  Pb  Pb46  1  0.17101613  0.83343841  0.16649001  1
  Pb  Pb47  1  0.16648462  0.16650714  0.16453642  1
  Pb  Pb48  1  0.16343746  0.83116150  0.50016694  1
  Pb  Pb49  1  0.83223514  0.83334081  0.16629940  1
  Pb  Pb50  1  0.16668261  0.49802914  0.83204917  1
  Pb  Pb51  1  0.50288225  0.16683259  0.49641749  1
  Pb  Pb52  1  0.16386930  0.16828070  0.50226820  1
  Pb  Pb53  1  0.50197456  0.50004610  0.16457233  1
  I  I54  1  0.16049482  0.00023589  0.16644652  1
  I  I55  1  0.16800062  0.00015135  0.50097796  1
  I  I56  1  0.16041701  0.00364450  0.83343065  1
  I  I57  1  0.17125043  0.33319720  0.16644829  1
  I  I58  1  0.16279012  0.33565948  0.50152146  1
  I  I59  1  0.16119856  0.33048038  0.83215429  1
  I  I60  1  0.16429663  0.66647278  0.16582981  1
  I  I61  1  0.16365143  0.66371366  0.50259032  1
  I  I62  1  0.16434161  0.66661364  0.83169381  1
  I  I63  1  0.50843950  0.00025262  0.15882603  1
  I  I64  1  0.49766519  0.00012924  0.50528629  1
  I  I65  1  0.50420969  -0.00268620  0.83640891  1
  I  I66  1  0.50333272  0.33086554  0.16453188  1
  I  I67  1  0.50294286  0.33332449  0.50138716  1
  I  I68  1  0.50347586  0.33533647  0.83439711  1
  I  I69  1  0.50273218  0.66912857  0.16454053  1
  I  I70  1  0.50327049  0.66674620  0.49454788  1
  I  I71  1  0.50869108  0.66729388  0.83857993  1
  I  I72  1  0.83091513  0.00281192  0.16449481  1
  I  I73  1  0.83271761  0.00055812  0.50390313  1
  I  I74  1  0.83327267  0.00028809  0.83248752  1
  I  I75  1  0.82795736  0.33208110  0.16415330  1
  I  I76  1  0.83543085  0.33076024  0.50220882  1
  I  I77  1  0.83331833  0.33307134  0.83340990  1
  I  I78  1  0.83181502  0.66441937  0.16477416  1
  I  I79  1  0.83496084  0.66901251  0.50324317  1
  I  I80  1  0.82847506  0.66665253  0.83243718  1
  I  I81  1  0.15927504  0.16854661  -0.00325395  1
  I  I82  1  0.16626157  0.16774796  0.33350100  1
  I  I83  1  0.16174733  0.16784072  0.67007907  1
  I  I84  1  0.16792387  0.49851660  -0.00019582  1
  I  I85  1  0.16427132  0.49886052  0.33652261  1
  I  I86  1  0.16248263  0.49865314  0.66467936  1
  I  I87  1  0.16003808  0.83261768  -0.00037999  1
  I  I88  1  0.16434224  0.83388829  0.33351110  1
  I  I89  1  0.17077045  0.83375136  0.66692069  1
  I  I90  1  0.50668278  0.16558712  0.00251371  1
  I  I91  1  0.50539612  0.16131007  0.32830377  1
  I  I92  1  0.49973845  0.16667662  0.66680806  1
  I  I93  1  0.50204937  0.50057201  -0.00344768  1
  I  I94  1  0.50116122  0.50062988  0.33301896  1
  I  I95  1  0.50850581  0.50454981  0.67157413  1
  I  I96  1  0.50785292  0.83429085  -0.00123140  1
  I  I97  1  0.50264231  0.83732745  0.33039173  1
  I  I98  1  0.50258800  0.82926266  0.67023772  1
  I  I99  1  0.83328917  0.16765477  -0.00060348  1
  I  I100  1  0.82814765  0.16751003  0.33272961  1
  I  I101  1  0.83819232  0.16690484  0.66786304  1
  I  I102  1  0.82981702  0.49610244  -0.00137351  1
  I  I103  1  0.83518279  0.49674787  0.33100986  1
  I  I104  1  0.83169204  0.49756849  0.66986373  1
  I  I105  1  0.83078187  0.83551290  -0.00315673  1
  I  I106  1  0.83230806  0.83550714  0.33525679  1
  I  I107  1  0.82831508  0.83596390  0.66844712  1
  I  I108  1  -0.00394707  0.17078469  0.16814569  1
  I  I109  1  -0.00451920  0.16368571  0.49576577  1
  I  I110  1  -0.00322009  0.16782672  0.83456191  1
  I  I111  1  -0.00497343  0.49407968  0.16002937  1
  I  I112  1  0.00152654  0.49920446  0.50265235  1
  I  I113  1  -0.00359041  0.50141937  0.83491776  1
  I  I114  1  -0.00037111  0.83322909  0.16697714  1
  I  I115  1  -0.00479204  0.83706716  0.50576088  1
  I  I116  1  -0.00365303  0.83072008  0.82927818  1
  I  I117  1  0.33646720  0.16286984  0.16240444  1
  I  I118  1  0.33311509  0.16784854  0.50143553  1
  I  I119  1  0.33166139  0.16836997  0.83601829  1
  I  I120  1  0.33363954  0.49946575  0.16584765  1
  I  I121  1  0.32986028  0.49938142  0.50098858  1
  I  I122  1  0.33617049  0.50298066  0.83187254  1
  I  I123  1  0.33918824  0.83873615  0.15882614  1
  I  I124  1  0.33335782  0.83222307  0.50011290  1
  I  I125  1  0.33695665  0.82895896  0.83882243  1
  I  I126  1  0.66844906  0.16660575  0.16374120  1
  I  I127  1  0.67135951  0.16501170  0.50753366  1
  I  I128  1  0.67018859  0.16703470  0.83204600  1
  I  I129  1  0.67020639  0.49759184  0.16628687  1
  I  I130  1  0.66698309  0.50011664  0.49844177  1
  I  I131  1  0.66857527  0.49824462  0.83606404  1
  I  I132  1  0.66443720  0.83516443  0.16441057  1
  I  I133  1  0.67060406  0.83573254  0.50248422  1
  I  I134  1  0.66802546  0.83468192  0.83320023  1
