# generated using pymatgen
data_Cs27Sn13Pb14I81
_symmetry_space_group_name_H-M   'P 1'
_cell_length_a   18.97910086
_cell_length_b   18.97589487
_cell_length_c   18.97475062
_cell_angle_alpha   90.00092420
_cell_angle_beta   90.00249348
_cell_angle_gamma   90.00079036
_symmetry_Int_Tables_number   1
_chemical_formula_structural   Cs27Sn13Pb14I81
_chemical_formula_sum   'Cs27 Sn13 Pb14 I81'
_cell_volume   6833.66957250
_cell_formula_units_Z   1
loop_
 _symmetry_equiv_pos_site_id
 _symmetry_equiv_pos_as_xyz
  1  'x, y, z'
loop_
 _atom_site_type_symbol
 _atom_site_label
 _atom_site_symmetry_multiplicity
 _atom_site_fract_x
 _atom_site_fract_y
 _atom_site_fract_z
 _atom_site_occupancy
  Cs  Cs0  1  -0.00047145  -0.00087864  0.00245573  1
  Cs  Cs1  1  -0.00000389  0.00340084  0.33298292  1
  Cs  Cs2  1  -0.00469969  -0.00208211  0.66398358  1
  Cs  Cs3  1  -0.00206857  0.33328881  -0.00008880  1
  Cs  Cs4  1  -0.00417740  0.32715412  0.33111927  1
  Cs  Cs5  1  -0.00012111  0.33182194  0.66861424  1
  Cs  Cs6  1  0.00428437  0.66783582  -0.00025237  1
  Cs  Cs7  1  0.00138790  0.66768764  0.33210552  1
  Cs  Cs8  1  0.00189953  0.67034069  0.66730033  1
  Cs  Cs9  1  0.33685379  -0.00017189  0.00000177  1
  Cs  Cs10  1  0.33156897  -0.00063620  0.33474776  1
  Cs  Cs11  1  0.33455362  0.00119685  0.66476506  1
  Cs  Cs12  1  0.33322700  0.33119044  -0.00341512  1
  Cs  Cs13  1  0.33216390  0.33384439  0.33508281  1
  Cs  Cs14  1  0.33480415  0.33273859  0.66795336  1
  Cs  Cs15  1  0.33064849  0.67014923  0.00167331  1
  Cs  Cs16  1  0.33321970  0.66689928  0.33336252  1
  Cs  Cs17  1  0.32922074  0.66606948  0.66538443  1
  Cs  Cs18  1  0.66227499  -0.00114772  -0.00158384  1
  Cs  Cs19  1  0.66742791  -0.00024538  0.33480186  1
  Cs  Cs20  1  0.66747747  -0.00165032  0.66706536  1
  Cs  Cs21  1  0.66829675  0.33298877  -0.00170527  1
  Cs  Cs22  1  0.67226793  0.34275684  0.33190832  1
  Cs  Cs23  1  0.66456694  0.33404836  0.66878628  1
  Cs  Cs24  1  0.66395621  0.66906680  0.00337922  1
  Cs  Cs25  1  0.66722219  0.65724040  0.33247228  1
  Cs  Cs26  1  0.67115446  0.66668602  0.66453378  1
  Sn  Sn27  1  0.50051325  0.50006645  0.83342812  1
  Sn  Sn28  1  0.50005113  0.16723130  0.83316389  1
  Sn  Sn29  1  0.16747487  0.83279513  0.49899435  1
  Sn  Sn30  1  0.83361238  0.83331098  0.16694267  1
  Sn  Sn31  1  0.83306705  0.16698475  0.83334635  1
  Sn  Sn32  1  0.50016221  0.16651526  0.49945955  1
  Sn  Sn33  1  0.49959192  0.83350102  0.49990893  1
  Sn  Sn34  1  0.16652633  0.49998843  0.49903878  1
  Sn  Sn35  1  0.16657933  0.16603480  0.83325228  1
  Sn  Sn36  1  0.50012521  0.16728568  0.16733688  1
  Sn  Sn37  1  0.16683651  0.49983512  0.16756130  1
  Sn  Sn38  1  0.16610625  0.83296703  0.16764091  1
  Sn  Sn39  1  0.83248506  0.49999434  0.83337376  1
  Pb  Pb40  1  0.49957841  0.83486936  0.16934574  1
  Pb  Pb41  1  0.16810021  0.16647633  0.50190198  1
  Pb  Pb42  1  0.49992077  0.83296872  0.83066612  1
  Pb  Pb43  1  0.16677979  0.83628346  0.83310065  1
  Pb  Pb44  1  0.49758620  0.49774665  0.16419948  1
  Pb  Pb45  1  0.16667947  0.49837837  0.83335768  1
  Pb  Pb46  1  0.83059859  0.16485606  0.16451440  1
  Pb  Pb47  1  0.83321822  0.83305840  0.83555503  1
  Pb  Pb48  1  0.83590864  0.50190444  0.16416780  1
  Pb  Pb49  1  0.83345734  0.83318913  0.49730043  1
  Pb  Pb50  1  0.49827496  0.50001256  0.50203727  1
  Pb  Pb51  1  0.16827215  0.16637265  0.16488133  1
  Pb  Pb52  1  0.83682335  0.49999821  0.50253010  1
  Pb  Pb53  1  0.82995368  0.16687750  0.50224884  1
  I  I54  1  0.16427051  -0.00292072  0.16973470  1
  I  I55  1  0.16957732  -0.00288877  0.49707378  1
  I  I56  1  0.16868317  0.00430246  0.83378317  1
  I  I57  1  0.16980924  0.33564960  0.16872494  1
  I  I58  1  0.16892606  0.33567839  0.49838405  1
  I  I59  1  0.16835679  0.33047447  0.83320160  1
  I  I60  1  0.16384753  0.66730731  0.16859201  1
  I  I61  1  0.17308176  0.66755114  0.49782166  1
  I  I62  1  0.16667194  0.66666497  0.83333491  1
  I  I63  1  0.49797953  0.00296527  0.16014792  1
  I  I64  1  0.49379305  0.00060171  0.50248053  1
  I  I65  1  0.50042832  0.00352546  0.83501941  1
  I  I66  1  0.49771081  0.32960486  0.16953816  1
  I  I67  1  0.49716200  0.33058345  0.50142068  1
  I  I68  1  0.49986887  0.33149327  0.83118328  1
  I  I69  1  0.50148147  0.66657936  0.16552923  1
  I  I70  1  0.49682638  0.66912662  0.50186300  1
  I  I71  1  0.50429510  0.66357164  0.83208247  1
  I  I72  1  0.84093739  -0.00283886  0.16493141  1
  I  I73  1  0.83702349  0.00000517  0.50294218  1
  I  I74  1  0.83184503  0.00314166  0.83423635  1
  I  I75  1  0.83428557  0.33341310  0.16698137  1
  I  I76  1  0.83441734  0.33339345  0.49725751  1
  I  I77  1  0.83227226  0.33245615  0.83393559  1
  I  I78  1  0.83386562  0.66974394  0.16422581  1
  I  I79  1  0.82786703  0.66669064  0.50378588  1
  I  I80  1  0.82885476  0.66359592  0.83397054  1
  I  I81  1  0.17015925  0.16775712  -0.00323493  1
  I  I82  1  0.16991249  0.16724333  0.33339046  1
  I  I83  1  0.16975961  0.16806647  0.66997422  1
  I  I84  1  0.16687884  0.50371209  0.00214976  1
  I  I85  1  0.16915256  0.50440024  0.33334632  1
  I  I86  1  0.16734812  0.50360732  0.66454469  1
  I  I87  1  0.16319162  0.82957712  0.00303792  1
  I  I88  1  0.16740296  0.82972699  0.33338717  1
  I  I89  1  0.17103007  0.82959266  0.66340507  1
  I  I90  1  0.49938332  0.17014262  -0.00150975  1
  I  I91  1  0.49633485  0.15965011  0.33397792  1
  I  I92  1  0.49919053  0.16639325  0.66769969  1
  I  I93  1  0.50107343  0.49363073  -0.00380723  1
  I  I94  1  0.50027601  0.49823933  0.33335473  1
  I  I95  1  0.50021560  0.49343973  0.66998699  1
  I  I96  1  0.49922110  0.83514819  0.00025313  1
  I  I97  1  0.49744718  0.84006053  0.33700428  1
  I  I98  1  0.49335985  0.83947856  0.66290392  1
  I  I99  1  0.83141912  0.17002222  -0.00383213  1
  I  I100  1  0.83260350  0.16517747  0.33306856  1
  I  I101  1  0.83269833  0.16900025  0.67095684  1
  I  I102  1  0.83171334  0.49488012  -0.00365575  1
  I  I103  1  0.83146324  0.50152672  0.33301050  1
  I  I104  1  0.83079603  0.49587888  0.67065832  1
  I  I105  1  0.84017524  0.83397106  0.00318542  1
  I  I106  1  0.83541703  0.83434917  0.32970374  1
  I  I107  1  0.83411488  0.83407868  0.66659070  1
  I  I108  1  0.00001082  0.16770486  0.16340839  1
  I  I109  1  0.00001269  0.16567041  0.50316526  1
  I  I110  1  -0.00037649  0.17142087  0.83393374  1
  I  I111  1  0.00386377  0.50077312  0.16738562  1
  I  I112  1  0.00483851  0.50712888  0.49942825  1
  I  I113  1  -0.00201520  0.49426876  0.83360550  1
  I  I114  1  0.00186014  0.83044931  0.17034621  1
  I  I115  1  0.00347316  0.82911121  0.49961685  1
  I  I116  1  0.00014467  0.83396019  0.82945720  1
  I  I117  1  0.33624115  0.16455792  0.16216512  1
  I  I118  1  0.33635434  0.16529793  0.50423034  1
  I  I119  1  0.33495582  0.17069454  0.83327693  1
  I  I120  1  0.32982386  0.50679414  0.16712844  1
  I  I121  1  0.33035450  0.50129246  0.50006334  1
  I  I122  1  0.33547169  0.49371282  0.83268321  1
  I  I123  1  0.33033060  0.83093466  0.16827403  1
  I  I124  1  0.33238404  0.83420822  0.49516773  1
  I  I125  1  0.33328009  0.83352862  0.83792818  1
  I  I126  1  0.66268496  0.16364362  0.16386198  1
  I  I127  1  0.66158017  0.15955936  0.50278486  1
  I  I128  1  0.66558825  0.17091331  0.83329121  1
  I  I129  1  0.66663459  0.50133994  0.16700720  1
  I  I130  1  0.66655728  0.50041151  0.49996293  1
  I  I131  1  0.66616063  0.49094029  0.83294943  1
  I  I132  1  0.66841978  0.83718314  0.16504707  1
  I  I133  1  0.66376955  0.83973949  0.50119125  1
  I  I134  1  0.66650202  0.83744269  0.83421805  1
