# generated using pymatgen
data_Cs27Sn14Pb13I81
_symmetry_space_group_name_H-M   'P 1'
_cell_length_a   18.97927328
_cell_length_b   18.97672925
_cell_length_c   18.97258212
_cell_angle_alpha   89.99956126
_cell_angle_beta   90.00134599
_cell_angle_gamma   90.00055884
_symmetry_Int_Tables_number   1
_chemical_formula_structural   Cs27Sn14Pb13I81
_chemical_formula_sum   'Cs27 Sn14 Pb13 I81'
_cell_volume   6833.25112362
_cell_formula_units_Z   1
loop_
 _symmetry_equiv_pos_site_id
 _symmetry_equiv_pos_as_xyz
  1  'x, y, z'
loop_
 _atom_site_type_symbol
 _atom_site_label
 _atom_site_symmetry_multiplicity
 _atom_site_fract_x
 _atom_site_fract_y
 _atom_site_fract_z
 _atom_site_occupancy
  Cs  Cs0  1  -0.00234858  0.00012715  -0.00152398  1
  Cs  Cs1  1  0.00229893  0.00528728  0.33072182  1
  Cs  Cs2  1  -0.00125123  -0.00800259  0.67360624  1
  Cs  Cs3  1  0.00069852  0.33303823  0.00179461  1
  Cs  Cs4  1  0.00022977  0.33244466  0.33319055  1
  Cs  Cs5  1  0.00183933  0.33186351  0.66317559  1
  Cs  Cs6  1  0.00074178  0.66680908  0.00169373  1
  Cs  Cs7  1  -0.00053881  0.66640258  0.33306162  1
  Cs  Cs8  1  -0.00115388  0.67664904  0.66667525  1
  Cs  Cs9  1  0.33751062  0.00389584  0.00061734  1
  Cs  Cs10  1  0.33842045  -0.00075481  0.33541298  1
  Cs  Cs11  1  0.33399499  -0.00131789  0.66389055  1
  Cs  Cs12  1  0.33229246  0.33536795  -0.00209519  1
  Cs  Cs13  1  0.33006387  0.33371769  0.33392613  1
  Cs  Cs14  1  0.33256895  0.33272891  0.66696086  1
  Cs  Cs15  1  0.33530774  0.66385177  -0.00036175  1
  Cs  Cs16  1  0.33290013  0.66720521  0.33268678  1
  Cs  Cs17  1  0.33146946  0.66704417  0.66907473  1
  Cs  Cs18  1  0.66639213  0.00178497  -0.00168993  1
  Cs  Cs19  1  0.65782111  0.00077327  0.33354035  1
  Cs  Cs20  1  0.66624190  -0.00014615  0.66941273  1
  Cs  Cs21  1  0.66683096  0.33507210  -0.00045657  1
  Cs  Cs22  1  0.66966844  0.33433299  0.33432600  1
  Cs  Cs23  1  0.66594015  0.33343754  0.66672506  1
  Cs  Cs24  1  0.66420115  0.66440455  0.00012196  1
  Cs  Cs25  1  0.66808240  0.66621205  0.33520076  1
  Cs  Cs26  1  0.66915017  0.66598843  0.66707303  1
  Sn  Sn27  1  0.83422495  0.16644213  0.49933052  1
  Sn  Sn28  1  0.50089198  0.50058537  0.83304452  1
  Sn  Sn29  1  0.16698106  0.49978285  0.49930181  1
  Sn  Sn30  1  0.83365585  0.83343489  0.16719066  1
  Sn  Sn31  1  0.83379722  0.16654712  0.16759454  1
  Sn  Sn32  1  0.16538429  0.16718581  0.49921959  1
  Sn  Sn33  1  0.83349957  0.49965095  0.83372780  1
  Sn  Sn34  1  0.83346290  0.50009224  0.16600614  1
  Sn  Sn35  1  0.16654750  0.49998857  0.16743551  1
  Sn  Sn36  1  0.49916534  0.49990187  0.50000422  1
  Sn  Sn37  1  0.16627008  0.83353417  0.16672698  1
  Sn  Sn38  1  0.49985914  0.83241198  0.83351722  1
  Sn  Sn39  1  0.50000642  0.49980326  0.16714629  1
  Sn  Sn40  1  0.16603497  0.16660712  0.16726921  1
  Pb  Pb41  1  0.83146818  0.83065092  0.83617104  1
  Pb  Pb42  1  0.49991045  0.16950426  0.16665865  1
  Pb  Pb43  1  0.50008609  0.83097022  0.16530904  1
  Pb  Pb44  1  0.49996646  0.16733858  0.83322493  1
  Pb  Pb45  1  0.83357506  0.16916728  0.83357776  1
  Pb  Pb46  1  0.83422002  0.49890765  0.50003378  1
  Pb  Pb47  1  0.49968939  0.16899882  0.49988894  1
  Pb  Pb48  1  0.16920917  0.83335027  0.83671236  1
  Pb  Pb49  1  0.83344199  0.83712703  0.49690607  1
  Pb  Pb50  1  0.16643789  0.16660331  0.83311580  1
  Pb  Pb51  1  0.16647245  0.83361907  0.49746081  1
  Pb  Pb52  1  0.50008442  0.83014038  0.50257362  1
  Pb  Pb53  1  0.16609848  0.49998247  0.83281153  1
  I  I54  1  0.15902132  0.00082174  0.16933210  1
  I  I55  1  0.16282988  0.00358665  0.49551397  1
  I  I56  1  0.16945377  -0.00015468  0.83313881  1
  I  I57  1  0.16465655  0.33411224  0.16998693  1
  I  I58  1  0.16731829  0.33402782  0.49195329  1
  I  I59  1  0.16994190  0.33371697  0.83844797  1
  I  I60  1  0.16443547  0.66515418  0.16953640  1
  I  I61  1  0.17172946  0.66344336  0.49577483  1
  I  I62  1  0.16477131  0.66636526  0.83307759  1
  I  I63  1  0.49994839  -0.00005790  0.16317888  1
  I  I64  1  0.49961359  0.00006762  0.50243316  1
  I  I65  1  0.49900593  -0.00288053  0.83581421  1
  I  I66  1  0.50044552  0.33811780  0.16358298  1
  I  I67  1  0.49889212  0.33747056  0.50176131  1
  I  I68  1  0.50364027  0.33768242  0.83416686  1
  I  I69  1  0.49973248  0.66238482  0.16779928  1
  I  I70  1  0.49459541  0.66159368  0.49622007  1
  I  I71  1  0.50376979  0.66403837  0.83461679  1
  I  I72  1  0.84122385  0.00067284  0.17077073  1
  I  I73  1  0.84021776  0.00520727  0.49566596  1
  I  I74  1  0.83071644  -0.00018138  0.83368449  1
  I  I75  1  0.83494773  0.33404978  0.16624531  1
  I  I76  1  0.83388662  0.33107254  0.49382394  1
  I  I77  1  0.82548861  0.33716834  0.84049498  1
  I  I78  1  0.83569173  0.66533558  0.16133394  1
  I  I79  1  0.83267603  0.66661204  0.50000125  1
  I  I80  1  0.83132049  0.66259366  0.83808865  1
  I  I81  1  0.16269675  0.16864492  0.00422236  1
  I  I82  1  0.16196833  0.16934325  0.33205236  1
  I  I83  1  0.16399229  0.17458057  0.66266133  1
  I  I84  1  0.16901192  0.49911959  0.00355126  1
  I  I85  1  0.17001419  0.49924276  0.33181234  1
  I  I86  1  0.17065835  0.49345201  0.66327105  1
  I  I87  1  0.16202779  0.83133415  0.00503198  1
  I  I88  1  0.16389413  0.83129498  0.32910999  1
  I  I89  1  0.16806850  0.83310733  0.66665534  1
  I  I90  1  0.49936016  0.16968640  0.00027255  1
  I  I91  1  0.50128774  0.16702952  0.33316955  1
  I  I92  1  0.50000273  0.16989377  0.66640977  1
  I  I93  1  0.50055511  0.50347327  0.00051161  1
  I  I94  1  0.49977391  0.49843987  0.33262483  1
  I  I95  1  0.50052192  0.50296258  0.66684984  1
  I  I96  1  0.49952060  0.82471204  -0.00235009  1
  I  I97  1  0.49989020  0.83242089  0.33308881  1
  I  I98  1  0.50041121  0.82716646  0.67046724  1
  I  I99  1  0.83763043  0.16545725  0.00386414  1
  I  I100  1  0.83776338  0.17066635  0.33159523  1
  I  I101  1  0.83679997  0.17115979  0.66362859  1
  I  I102  1  0.82984480  0.49821099  0.00228070  1
  I  I103  1  0.83038682  0.50149919  0.32994043  1
  I  I104  1  0.82829679  0.49669348  0.66878873  1
  I  I105  1  0.83749738  0.83799122  0.00425774  1
  I  I106  1  0.83607879  0.82444271  0.32864125  1
  I  I107  1  0.83207295  0.83280003  0.66692648  1
  I  I108  1  -0.00003150  0.17149149  0.17018736  1
  I  I109  1  0.00084373  0.17596620  0.49368581  1
  I  I110  1  -0.00022054  0.16943529  0.83379923  1
  I  I111  1  -0.00001352  0.49985444  0.16608768  1
  I  I112  1  0.00296437  0.49687788  0.49567435  1
  I  I113  1  -0.00286978  0.49772382  0.83912224  1
  I  I114  1  -0.00001047  0.82791295  0.16656142  1
  I  I115  1  -0.00002586  0.82555898  0.50417945  1
  I  I116  1  -0.00020985  0.83219353  0.83159377  1
  I  I117  1  0.32975788  0.16598335  0.17060939  1
  I  I118  1  0.32982392  0.16908839  0.49470489  1
  I  I119  1  0.33328326  0.16939848  0.83500300  1
  I  I120  1  0.33275416  0.50021941  0.16633880  1
  I  I121  1  0.33281362  0.49459267  0.49666634  1
  I  I122  1  0.33629119  0.50335692  0.83649297  1
  I  I123  1  0.33054700  0.83285199  0.16525888  1
  I  I124  1  0.33327672  0.83796097  0.49726620  1
  I  I125  1  0.33683058  0.82375092  0.83519490  1
  I  I126  1  0.67011627  0.16668525  0.17010413  1
  I  I127  1  0.66954773  0.16876912  0.49484954  1
  I  I128  1  0.66692693  0.16583643  0.83380977  1
  I  I129  1  0.66713464  0.50007645  0.16561995  1
  I  I130  1  0.66464000  0.49843209  0.49772875  1
  I  I131  1  0.66600606  0.50294905  0.83742253  1
  I  I132  1  0.66948904  0.83315067  0.16485560  1
  I  I133  1  0.66677392  0.83293586  0.49639742  1
  I  I134  1  0.66374839  0.82955488  0.83628494  1
