# generated using pymatgen
data_Cs27Sn13Pb14I81
_symmetry_space_group_name_H-M   'P 1'
_cell_length_a   18.97378703
_cell_length_b   18.97283076
_cell_length_c   18.98559641
_cell_angle_alpha   90.00076986
_cell_angle_beta   90.00173441
_cell_angle_gamma   90.00171925
_symmetry_Int_Tables_number   1
_chemical_formula_structural   Cs27Sn13Pb14I81
_chemical_formula_sum   'Cs27 Sn13 Pb14 I81'
_cell_volume   6834.55745264
_cell_formula_units_Z   1
loop_
 _symmetry_equiv_pos_site_id
 _symmetry_equiv_pos_as_xyz
  1  'x, y, z'
loop_
 _atom_site_type_symbol
 _atom_site_label
 _atom_site_symmetry_multiplicity
 _atom_site_fract_x
 _atom_site_fract_y
 _atom_site_fract_z
 _atom_site_occupancy
  Cs  Cs0  1  0.00107413  0.00036677  0.00147832  1
  Cs  Cs1  1  0.00154381  -0.00061796  0.33414286  1
  Cs  Cs2  1  -0.00016387  -0.00142169  0.66383686  1
  Cs  Cs3  1  -0.00090101  0.33392860  0.00011719  1
  Cs  Cs4  1  -0.00399576  0.33465850  0.33197527  1
  Cs  Cs5  1  -0.00198854  0.33826011  0.66762320  1
  Cs  Cs6  1  -0.00153347  0.66555811  0.00143665  1
  Cs  Cs7  1  -0.00019382  0.66607013  0.33184162  1
  Cs  Cs8  1  0.00243196  0.66342790  0.66470104  1
  Cs  Cs9  1  0.33159252  0.00276522  -0.00061839  1
  Cs  Cs10  1  0.33006443  0.00207142  0.33516672  1
  Cs  Cs11  1  0.33343490  -0.00004090  0.66551159  1
  Cs  Cs12  1  0.33366338  0.33120768  -0.00145226  1
  Cs  Cs13  1  0.33617709  0.33297097  0.33249175  1
  Cs  Cs14  1  0.33252496  0.33469257  0.66921116  1
  Cs  Cs15  1  0.33523562  0.66680528  0.00174476  1
  Cs  Cs16  1  0.33851605  0.66416790  0.33318609  1
  Cs  Cs17  1  0.33119892  0.66607750  0.66376916  1
  Cs  Cs18  1  0.66746326  -0.00266539  -0.00136653  1
  Cs  Cs19  1  0.66944153  -0.00203185  0.33409959  1
  Cs  Cs20  1  0.66734149  -0.00209836  0.66764996  1
  Cs  Cs21  1  0.66743456  0.33367385  -0.00082538  1
  Cs  Cs22  1  0.66702089  0.33346755  0.33337521  1
  Cs  Cs23  1  0.66857334  0.33121392  0.66988636  1
  Cs  Cs24  1  0.66687778  0.66985971  0.00066800  1
  Cs  Cs25  1  0.65717548  0.67154121  0.33733823  1
  Cs  Cs26  1  0.66555521  0.67436446  0.66382422  1
  Sn  Sn27  1  0.83238863  0.16724126  0.16572444  1
  Sn  Sn28  1  0.50105045  0.49964770  0.83339251  1
  Sn  Sn29  1  0.16667736  0.83225149  0.16661934  1
  Sn  Sn30  1  0.16640436  0.50047439  0.16644187  1
  Sn  Sn31  1  0.16652838  0.83336324  0.83353666  1
  Sn  Sn32  1  0.83209923  0.49956521  0.83418954  1
  Sn  Sn33  1  0.49933776  0.16694543  0.50028289  1
  Sn  Sn34  1  0.16670391  0.83386951  0.49975274  1
  Sn  Sn35  1  0.50118216  0.16664903  0.16642466  1
  Sn  Sn36  1  0.83290262  0.16713810  0.83428415  1
  Sn  Sn37  1  0.16695369  0.16699550  0.50017950  1
  Sn  Sn38  1  0.83329864  0.49968093  0.16620609  1
  Sn  Sn39  1  0.50068509  0.16727576  0.83340426  1
  Pb  Pb40  1  0.49758426  0.83605585  0.50002517  1
  Pb  Pb41  1  0.16612225  0.16702742  0.16832787  1
  Pb  Pb42  1  0.16672451  0.49970023  0.49699410  1
  Pb  Pb43  1  0.83499845  0.83310159  0.16670565  1
  Pb  Pb44  1  0.50023574  0.49724078  0.50325429  1
  Pb  Pb45  1  0.49732232  0.83655240  0.16651055  1
  Pb  Pb46  1  0.16604123  0.16530861  0.83113700  1
  Pb  Pb47  1  0.50081486  0.49804860  0.16475239  1
  Pb  Pb48  1  0.83584403  0.83315099  0.49985104  1
  Pb  Pb49  1  0.83287143  0.50006576  0.49981535  1
  Pb  Pb50  1  0.16656886  0.50200033  0.83550556  1
  Pb  Pb51  1  0.83566657  0.83306915  0.83339738  1
  Pb  Pb52  1  0.49774030  0.83353693  0.83345530  1
  Pb  Pb53  1  0.83316811  0.16674450  0.50012662  1
  I  I54  1  0.16741326  -0.00205237  0.16622504  1
  I  I55  1  0.17059830  -0.00000506  0.49773217  1
  I  I56  1  0.16707162  -0.00269343  0.83788543  1
  I  I57  1  0.16540413  0.33550687  0.16770530  1
  I  I58  1  0.17065406  0.33032313  0.49882863  1
  I  I59  1  0.16716420  0.33340329  0.83322243  1
  I  I60  1  0.16045159  0.66668263  0.16753902  1
  I  I61  1  0.16473745  0.66970204  0.50261656  1
  I  I62  1  0.16666094  0.66994506  0.82863263  1
  I  I63  1  0.50402209  0.00508436  0.16371900  1
  I  I64  1  0.49775855  0.00446111  0.50287855  1
  I  I65  1  0.50291821  0.00386355  0.83281401  1
  I  I66  1  0.49699397  0.32965711  0.16864386  1
  I  I67  1  0.49215680  0.32880699  0.49723539  1
  I  I68  1  0.50217939  0.33180133  0.83303222  1
  I  I69  1  0.50103968  0.66652245  0.16472005  1
  I  I70  1  0.49857448  0.66666251  0.50092030  1
  I  I71  1  0.50321931  0.66363824  0.83524090  1
  I  I72  1  0.83112889  0.00345052  0.16272277  1
  I  I73  1  0.83250211  0.00051709  0.50015019  1
  I  I74  1  0.82987664  0.00340385  0.83688874  1
  I  I75  1  0.83729268  0.33284949  0.16286707  1
  I  I76  1  0.83812202  0.33297762  0.49967420  1
  I  I77  1  0.83067013  0.33263867  0.83706015  1
  I  I78  1  0.83858676  0.66315669  0.16055610  1
  I  I79  1  0.83680499  0.66652727  0.50129420  1
  I  I80  1  0.83042804  0.66303763  0.83859267  1
  I  I81  1  0.16956336  0.16426710  0.00005015  1
  I  I82  1  0.17067115  0.16117575  0.33605110  1
  I  I83  1  0.17031581  0.16072481  0.66339244  1
  I  I84  1  0.16516513  0.50425567  0.00326101  1
  I  I85  1  0.16095900  0.50398114  0.32903240  1
  I  I86  1  0.16615249  0.50153391  0.66687166  1
  I  I87  1  0.16643613  0.82990497  0.00063374  1
  I  I88  1  0.16576237  0.83529910  0.33330466  1
  I  I89  1  0.16675058  0.83920481  0.66620741  1
  I  I90  1  0.50288855  0.17016471  -0.00056006  1
  I  I91  1  0.49836982  0.16542781  0.33307389  1
  I  I92  1  0.49901202  0.17013608  0.66751376  1
  I  I93  1  0.49917938  0.49306491  -0.00308497  1
  I  I94  1  0.49893768  0.49864306  0.33312004  1
  I  I95  1  0.50399065  0.49437430  0.67140968  1
  I  I96  1  0.49469901  0.83672134  -0.00006947  1
  I  I97  1  0.49780792  0.83362087  0.33324364  1
  I  I98  1  0.49669519  0.83471365  0.66682316  1
  I  I99  1  0.82724485  0.17003339  -0.00000261  1
  I  I100  1  0.83155666  0.17048869  0.33014265  1
  I  I101  1  0.83143965  0.17056136  0.66999817  1
  I  I102  1  0.83523209  0.49459091  -0.00001159  1
  I  I103  1  0.84063798  0.49388383  0.32930263  1
  I  I104  1  0.83136122  0.49398374  0.67060570  1
  I  I105  1  0.83846039  0.83510655  -0.00000709  1
  I  I106  1  0.83703074  0.83522026  0.33297587  1
  I  I107  1  0.83664923  0.83443170  0.66698693  1
  I  I108  1  -0.00269284  0.16714634  0.16313819  1
  I  I109  1  0.00267532  0.16094289  0.49904730  1
  I  I110  1  -0.00306806  0.16960120  0.83747051  1
  I  I111  1  -0.00060612  0.49757910  0.16134608  1
  I  I112  1  0.00017592  0.49776477  0.50473526  1
  I  I113  1  -0.00291741  0.49595165  0.83538407  1
  I  I114  1  0.00373351  0.83530251  0.16697253  1
  I  I115  1  0.00483125  0.84188221  0.49998423  1
  I  I116  1  0.00374230  0.83454201  0.83307034  1
  I  I117  1  0.33548417  0.16596786  0.16451734  1
  I  I118  1  0.33365861  0.16199676  0.49945225  1
  I  I119  1  0.33614151  0.16920104  0.83567218  1
  I  I120  1  0.33125890  0.50276841  0.16568047  1
  I  I121  1  0.33330423  0.50106035  0.50034009  1
  I  I122  1  0.33567901  0.49551235  0.83456072  1
  I  I123  1  0.32877419  0.82857167  0.16688429  1
  I  I124  1  0.32924090  0.83599762  0.50014674  1
  I  I125  1  0.32961854  0.83433212  0.83336053  1
  I  I126  1  0.66710364  0.17281485  0.16818816  1
  I  I127  1  0.66356927  0.16868634  0.50009107  1
  I  I128  1  0.66632334  0.17016032  0.83194981  1
  I  I129  1  0.66987785  0.49532951  0.16377129  1
  I  I130  1  0.66645697  0.49754816  0.49426179  1
  I  I131  1  0.66736707  0.49383613  0.83941815  1
  I  I132  1  0.66653725  0.83136706  0.16640552  1
  I  I133  1  0.66616485  0.83397956  0.50016956  1
  I  I134  1  0.66668651  0.83380031  0.83320888  1
