# generated using pymatgen
data_Cs27Sn13Pb14I81
_symmetry_space_group_name_H-M   'P 1'
_cell_length_a   18.97172408
_cell_length_b   18.98125948
_cell_length_c   18.97661053
_cell_angle_alpha   90.00038527
_cell_angle_beta   90.00363500
_cell_angle_gamma   90.00022361
_symmetry_Int_Tables_number   1
_chemical_formula_structural   Cs27Sn13Pb14I81
_chemical_formula_sum   'Cs27 Sn13 Pb14 I81'
_cell_volume   6833.61440269
_cell_formula_units_Z   1
loop_
 _symmetry_equiv_pos_site_id
 _symmetry_equiv_pos_as_xyz
  1  'x, y, z'
loop_
 _atom_site_type_symbol
 _atom_site_label
 _atom_site_symmetry_multiplicity
 _atom_site_fract_x
 _atom_site_fract_y
 _atom_site_fract_z
 _atom_site_occupancy
  Cs  Cs0  1  0.00529906  0.00173803  0.00060200  1
  Cs  Cs1  1  -0.00253080  0.00405611  0.33241530  1
  Cs  Cs2  1  0.00242434  -0.00149379  0.66677674  1
  Cs  Cs3  1  -0.00324927  0.32789048  0.00129877  1
  Cs  Cs4  1  0.00239098  0.33059996  0.33383372  1
  Cs  Cs5  1  -0.00176227  0.34355928  0.66523820  1
  Cs  Cs6  1  -0.00203195  0.66958018  -0.00189286  1
  Cs  Cs7  1  0.00271407  0.66449638  0.33751012  1
  Cs  Cs8  1  -0.00250663  0.66166338  0.66515199  1
  Cs  Cs9  1  0.32669557  0.00023727  -0.00296991  1
  Cs  Cs10  1  0.33417948  -0.00134249  0.33605147  1
  Cs  Cs11  1  0.33299781  0.00280090  0.66710424  1
  Cs  Cs12  1  0.33182063  0.33303862  0.00051112  1
  Cs  Cs13  1  0.33163085  0.34055075  0.33292174  1
  Cs  Cs14  1  0.33469059  0.33022699  0.66715965  1
  Cs  Cs15  1  0.33347372  0.66732228  0.00163806  1
  Cs  Cs16  1  0.33367027  0.66402917  0.33304066  1
  Cs  Cs17  1  0.33376738  0.66775349  0.66626485  1
  Cs  Cs18  1  0.66633640  -0.00106093  0.00064416  1
  Cs  Cs19  1  0.66817769  0.00049637  0.33314278  1
  Cs  Cs20  1  0.66497931  0.00045304  0.66492447  1
  Cs  Cs21  1  0.66783338  0.33489068  0.00011165  1
  Cs  Cs22  1  0.66678554  0.32549290  0.33020787  1
  Cs  Cs23  1  0.66669642  0.33138415  0.66704688  1
  Cs  Cs24  1  0.66589075  0.66618330  -0.00033587  1
  Cs  Cs25  1  0.66388873  0.66982771  0.33004748  1
  Cs  Cs26  1  0.66786904  0.66798580  0.66921641  1
  Sn  Sn27  1  0.49931752  0.83266185  0.50024812  1
  Sn  Sn28  1  0.83339278  0.50107185  0.16710374  1
  Sn  Sn29  1  0.83262317  0.83461606  0.83411983  1
  Sn  Sn30  1  0.49934973  0.16533259  0.16628683  1
  Sn  Sn31  1  0.16683812  0.16604551  0.50018363  1
  Sn  Sn32  1  0.50038276  0.83291633  0.83344119  1
  Sn  Sn33  1  0.50069763  0.50070840  0.50089550  1
  Sn  Sn34  1  0.83288659  0.83234599  0.16582287  1
  Sn  Sn35  1  0.50025580  0.83467770  0.16622187  1
  Sn  Sn36  1  0.49905277  0.50071467  0.83252895  1
  Sn  Sn37  1  0.83303160  0.16523217  0.83277129  1
  Sn  Sn38  1  0.16783105  0.50042689  0.83396658  1
  Sn  Sn39  1  0.16733849  0.83409665  0.50004860  1
  Pb  Pb40  1  0.50124330  0.50054787  0.16631049  1
  Pb  Pb41  1  0.83290677  0.83327939  0.49991676  1
  Pb  Pb42  1  0.83252410  0.50075254  0.83475767  1
  Pb  Pb43  1  0.50117000  0.16640919  0.83517331  1
  Pb  Pb44  1  0.16897111  0.50041594  0.50167589  1
  Pb  Pb45  1  0.83185337  0.16561430  0.16496737  1
  Pb  Pb46  1  0.16404285  0.16917715  0.83117335  1
  Pb  Pb47  1  0.16351583  0.50030057  0.16382353  1
  Pb  Pb48  1  0.49860519  0.16650375  0.49805636  1
  Pb  Pb49  1  0.83585903  0.16661161  0.50280544  1
  Pb  Pb50  1  0.16646744  0.83320747  0.16917696  1
  Pb  Pb51  1  0.16964728  0.16650986  0.16894094  1
  Pb  Pb52  1  0.16656159  0.83176069  0.83117619  1
  Pb  Pb53  1  0.82966407  0.50015479  0.49676720  1
  I  I54  1  0.16279338  -0.00021633  0.16431573  1
  I  I55  1  0.17321324  -0.00126854  0.50102112  1
  I  I56  1  0.16808114  -0.00012052  0.83308022  1
  I  I57  1  0.16709313  0.33341020  0.16964630  1
  I  I58  1  0.16780887  0.33155357  0.50159459  1
  I  I59  1  0.17167319  0.33683289  0.83054682  1
  I  I60  1  0.17111701  0.66679438  0.17002396  1
  I  I61  1  0.16902427  0.66931582  0.50078122  1
  I  I62  1  0.16619824  0.66405017  0.83027081  1
  I  I63  1  0.50668800  -0.00247534  0.16813737  1
  I  I64  1  0.49805934  -0.00339768  0.50215407  1
  I  I65  1  0.50311506  -0.00349436  0.83072891  1
  I  I66  1  0.50270708  0.33188226  0.16733467  1
  I  I67  1  0.49844388  0.33594609  0.50297205  1
  I  I68  1  0.49889018  0.33616561  0.83038111  1
  I  I69  1  0.50279568  0.66993113  0.16701255  1
  I  I70  1  0.49427702  0.66824565  0.49836998  1
  I  I71  1  0.50237018  0.66777281  0.83419902  1
  I  I72  1  0.82989999  -0.00349861  0.16499481  1
  I  I73  1  0.82934530  -0.00023883  0.49609276  1
  I  I74  1  0.82787278  -0.00211400  0.83843385  1
  I  I75  1  0.83035260  0.33490020  0.16389935  1
  I  I76  1  0.83379418  0.33349482  0.50058212  1
  I  I77  1  0.83382624  0.33198521  0.83540581  1
  I  I78  1  0.82632937  0.66854500  0.16023073  1
  I  I79  1  0.83904578  0.66682370  0.50473276  1
  I  I80  1  0.83169199  0.66968563  0.83564327  1
  I  I81  1  0.16607227  0.16840662  -0.00030764  1
  I  I82  1  0.16597327  0.16324141  0.33684096  1
  I  I83  1  0.16892032  0.16163091  0.66364190  1
  I  I84  1  0.17523986  0.50062000  -0.00397153  1
  I  I85  1  0.16727667  0.49935827  0.33362016  1
  I  I86  1  0.16635305  0.50042813  0.66952826  1
  I  I87  1  0.16887275  0.83175100  -0.00027883  1
  I  I88  1  0.17106941  0.83530656  0.33722419  1
  I  I89  1  0.17136567  0.83613705  0.66342359  1
  I  I90  1  0.50217783  0.16362005  0.00298496  1
  I  I91  1  0.50141993  0.16320465  0.33024355  1
  I  I92  1  0.50048387  0.16545456  0.66671284  1
  I  I93  1  0.49866335  0.50308733  -0.00289087  1
  I  I94  1  0.50121382  0.50325695  0.33546793  1
  I  I95  1  0.49700492  0.50730501  0.66746088  1
  I  I96  1  0.50582349  0.83199815  -0.00041138  1
  I  I97  1  0.50036822  0.83282779  0.33328849  1
  I  I98  1  0.50068292  0.82818738  0.66706653  1
  I  I99  1  0.83261813  0.16643157  -0.00284557  1
  I  I100  1  0.83328674  0.16721592  0.33312007  1
  I  I101  1  0.83069813  0.16128048  0.67079988  1
  I  I102  1  0.83026880  0.50174114  0.00236787  1
  I  I103  1  0.83180755  0.50682764  0.32906663  1
  I  I104  1  0.83548789  0.49986920  0.66682625  1
  I  I105  1  0.82492852  0.83206806  -0.00030395  1
  I  I106  1  0.82941286  0.82942917  0.33019286  1
  I  I107  1  0.82979163  0.83661624  0.66982811  1
  I  I108  1  -0.00008372  0.16755170  0.16678166  1
  I  I109  1  0.00379705  0.16008322  0.49918108  1
  I  I110  1  -0.00370833  0.16152726  0.83511873  1
  I  I111  1  -0.00440447  0.50601421  0.16444273  1
  I  I112  1  0.00011867  0.50038578  0.50177011  1
  I  I113  1  0.00145383  0.49958695  0.83416638  1
  I  I114  1  -0.00348594  0.82930453  0.16240113  1
  I  I115  1  0.00258265  0.83725741  0.50034880  1
  I  I116  1  -0.00295194  0.83488777  0.83686267  1
  I  I117  1  0.33768102  0.16101950  0.16492189  1
  I  I118  1  0.33092025  0.16446635  0.50037511  1
  I  I119  1  0.33326738  0.16544618  0.83401458  1
  I  I120  1  0.33358778  0.49946629  0.16835835  1
  I  I121  1  0.33693145  0.50192713  0.49995049  1
  I  I122  1  0.33536048  0.50510153  0.82990156  1
  I  I123  1  0.33701437  0.83666175  0.16401968  1
  I  I124  1  0.33523589  0.83323055  0.49997497  1
  I  I125  1  0.33669325  0.83049626  0.83576999  1
  I  I126  1  0.66389516  0.16563220  0.16803620  1
  I  I127  1  0.66641529  0.16707619  0.49909077  1
  I  I128  1  0.66913447  0.16763952  0.83420778  1
  I  I129  1  0.66893361  0.50210812  0.16392361  1
  I  I130  1  0.66185170  0.50677434  0.50786845  1
  I  I131  1  0.66361259  0.50167066  0.83115057  1
  I  I132  1  0.66562360  0.83276271  0.16792746  1
  I  I133  1  0.66303890  0.82896557  0.49998417  1
  I  I134  1  0.66553499  0.83069233  0.83214682  1
