# generated using pymatgen
data_Cs27Sn14Pb13I81
_symmetry_space_group_name_H-M   'P 1'
_cell_length_a   18.96226536
_cell_length_b   18.96227399
_cell_length_c   18.95833119
_cell_angle_alpha   89.99963020
_cell_angle_beta   89.99973063
_cell_angle_gamma   89.99981811
_symmetry_Int_Tables_number   1
_chemical_formula_structural   Cs27Sn14Pb13I81
_chemical_formula_sum   'Cs27 Sn14 Pb13 I81'
_cell_volume   6816.80299851
_cell_formula_units_Z   1
loop_
 _symmetry_equiv_pos_site_id
 _symmetry_equiv_pos_as_xyz
  1  'x, y, z'
loop_
 _atom_site_type_symbol
 _atom_site_label
 _atom_site_symmetry_multiplicity
 _atom_site_fract_x
 _atom_site_fract_y
 _atom_site_fract_z
 _atom_site_occupancy
  Cs  Cs0  1  0.00249409  -0.00304880  -0.00054870  1
  Cs  Cs1  1  -0.00346994  -0.00031152  0.34303088  1
  Cs  Cs2  1  -0.00006212  0.00284285  0.66003499  1
  Cs  Cs3  1  0.00203600  0.33523829  0.00058623  1
  Cs  Cs4  1  -0.00073620  0.33418399  0.33431717  1
  Cs  Cs5  1  0.00000685  0.33430986  0.66621618  1
  Cs  Cs6  1  0.00068276  0.66640471  -0.00071769  1
  Cs  Cs7  1  -0.00291810  0.66654084  0.33136247  1
  Cs  Cs8  1  -0.00024012  0.66441268  0.67023463  1
  Cs  Cs9  1  0.33439027  -0.00091220  0.00059312  1
  Cs  Cs10  1  0.33107879  0.00026449  0.33344840  1
  Cs  Cs11  1  0.33177426  -0.00095615  0.66424807  1
  Cs  Cs12  1  0.33225439  0.33265184  0.00073617  1
  Cs  Cs13  1  0.33376791  0.33390921  0.33320193  1
  Cs  Cs14  1  0.33365019  0.33544662  0.66543433  1
  Cs  Cs15  1  0.33212219  0.66735824  -0.00081756  1
  Cs  Cs16  1  0.33552536  0.66624367  0.33306154  1
  Cs  Cs17  1  0.33663585  0.66616784  0.66749662  1
  Cs  Cs18  1  0.66482584  0.00641666  -0.00109883  1
  Cs  Cs19  1  0.67600464  0.00140932  0.33423353  1
  Cs  Cs20  1  0.66978652  0.00276477  0.66836113  1
  Cs  Cs21  1  0.66619191  0.32635928  0.00134750  1
  Cs  Cs22  1  0.66594110  0.33360642  0.32948750  1
  Cs  Cs23  1  0.66613334  0.33295561  0.66770445  1
  Cs  Cs24  1  0.66634773  0.66706986  -0.00066271  1
  Cs  Cs25  1  0.66699401  0.66703239  0.33460843  1
  Cs  Cs26  1  0.66397604  0.66575016  0.66654142  1
  Sn  Sn27  1  0.83396317  0.50023937  0.50073220  1
  Sn  Sn28  1  0.16614526  0.50057923  0.49885117  1
  Sn  Sn29  1  0.16667888  0.16616820  0.16618717  1
  Sn  Sn30  1  0.49953059  0.83270583  0.16601507  1
  Sn  Sn31  1  0.83199839  0.50057141  0.83296513  1
  Sn  Sn32  1  0.16748982  0.50029226  0.16771842  1
  Sn  Sn33  1  0.49987235  0.16635698  0.49989536  1
  Sn  Sn34  1  0.49922977  0.50080133  0.16536328  1
  Sn  Sn35  1  0.16668823  0.83445723  0.83374554  1
  Sn  Sn36  1  0.83321946  0.83272984  0.83367826  1
  Sn  Sn37  1  0.50017409  0.83268516  0.83423712  1
  Sn  Sn38  1  0.16685058  0.16552172  0.83383105  1
  Sn  Sn39  1  0.50101641  0.50032520  0.83458114  1
  Sn  Sn40  1  0.16722153  0.83357231  0.16621064  1
  Pb  Pb41  1  0.83710768  0.16639363  0.16649952  1
  Pb  Pb42  1  0.49812328  0.16597700  0.16853797  1
  Pb  Pb43  1  0.83282905  0.50004570  0.16582534  1
  Pb  Pb44  1  0.16682746  0.83045080  0.49981596  1
  Pb  Pb45  1  0.16790537  0.16896133  0.49983570  1
  Pb  Pb46  1  0.83312712  0.83334597  0.16420005  1
  Pb  Pb47  1  0.50024316  0.49895507  0.49971460  1
  Pb  Pb48  1  0.49761916  0.16645230  0.83192021  1
  Pb  Pb49  1  0.16698665  0.50046355  0.83386153  1
  Pb  Pb50  1  0.83321327  0.83054456  0.50304589  1
  Pb  Pb51  1  0.83641334  0.16688297  0.83354527  1
  Pb  Pb52  1  0.50005188  0.83590920  0.49955745  1
  Pb  Pb53  1  0.83053908  0.16978588  0.50021227  1
  I  I54  1  0.17172738  -0.00101854  0.15994829  1
  I  I55  1  0.16785946  -0.00000163  0.49849997  1
  I  I56  1  0.16751585  -0.00139408  0.84063237  1
  I  I57  1  0.17032599  0.33420158  0.16584872  1
  I  I58  1  0.16451702  0.33698478  0.49760982  1
  I  I59  1  0.16705112  0.33194792  0.83583296  1
  I  I60  1  0.17023438  0.66667052  0.16568693  1
  I  I61  1  0.16489473  0.66234466  0.49751340  1
  I  I62  1  0.16631533  0.66934096  0.83571518  1
  I  I63  1  0.49510529  -0.00335369  0.16209591  1
  I  I64  1  0.49671734  0.00319642  0.50106886  1
  I  I65  1  0.50202883  -0.00340353  0.83657890  1
  I  I66  1  0.49612596  0.33618565  0.16447817  1
  I  I67  1  0.49857465  0.33157971  0.50061623  1
  I  I68  1  0.50231978  0.33634204  0.83540761  1
  I  I69  1  0.49165252  0.66617703  0.16323799  1
  I  I70  1  0.49990417  0.66658570  0.50056432  1
  I  I71  1  0.49805033  0.66662659  0.83540224  1
  I  I72  1  0.83092656  -0.00034472  0.16443586  1
  I  I73  1  0.83287209  0.00004618  0.50058209  1
  I  I74  1  0.83022107  -0.00330344  0.83557887  1
  I  I75  1  0.83262329  0.33372431  0.16478455  1
  I  I76  1  0.83804930  0.33761539  0.50703345  1
  I  I77  1  0.83055976  0.33683463  0.82938953  1
  I  I78  1  0.83862047  0.66651064  0.16889023  1
  I  I79  1  0.83604766  0.66257393  0.50114662  1
  I  I80  1  0.83525138  0.66626905  0.82962943  1
  I  I81  1  0.16799362  0.16906640  0.00037329  1
  I  I82  1  0.16939987  0.16534739  0.33033986  1
  I  I83  1  0.16816625  0.16367173  0.66918329  1
  I  I84  1  0.16722344  0.49958952  0.00270227  1
  I  I85  1  0.16737150  0.49894655  0.33176627  1
  I  I86  1  0.16626545  0.49905141  0.66528588  1
  I  I87  1  0.16711401  0.83171078  -0.00026768  1
  I  I88  1  0.17240179  0.83534055  0.32961011  1
  I  I89  1  0.16733586  0.83632058  0.67030393  1
  I  I90  1  0.50032660  0.16796646  0.00014427  1
  I  I91  1  0.49626415  0.16984703  0.33568262  1
  I  I92  1  0.49635005  0.16897352  0.66457362  1
  I  I93  1  0.49858257  0.50307631  -0.00012266  1
  I  I94  1  0.49823890  0.50232929  0.33038638  1
  I  I95  1  0.49957291  0.50278818  0.66939733  1
  I  I96  1  0.49805447  0.82892441  -0.00075946  1
  I  I97  1  0.49272022  0.82845694  0.32949136  1
  I  I98  1  0.49868451  0.82898798  0.67040250  1
  I  I99  1  0.82930688  0.17047943  -0.00040053  1
  I  I100  1  0.83435115  0.16810628  0.33357369  1
  I  I101  1  0.83617224  0.16507423  0.66694884  1
  I  I102  1  0.83406954  0.50470137  -0.00340676  1
  I  I103  1  0.83490170  0.49782057  0.33552799  1
  I  I104  1  0.83435749  0.50378687  0.66779718  1
  I  I105  1  0.83528338  0.82479546  -0.00411589  1
  I  I106  1  0.83351662  0.83315718  0.33330722  1
  I  I107  1  0.83354755  0.83161558  0.67151457  1
  I  I108  1  0.00570136  0.16875123  0.16264848  1
  I  I109  1  0.00001877  0.16673161  0.49975525  1
  I  I110  1  0.00451106  0.16452012  0.83664648  1
  I  I111  1  0.00328221  0.49993638  0.16708087  1
  I  I112  1  0.00042834  0.49923865  0.50110551  1
  I  I113  1  -0.00171258  0.50240551  0.83209373  1
  I  I114  1  0.00365203  0.83180196  0.16180397  1
  I  I115  1  0.00016014  0.83551178  0.49948757  1
  I  I116  1  0.00085155  0.83153218  0.83745700  1
  I  I117  1  0.32988066  0.16803468  0.16330427  1
  I  I118  1  0.33524807  0.17066267  0.50072190  1
  I  I119  1  0.32973943  0.16456210  0.83653934  1
  I  I120  1  0.33274092  0.50034724  0.16670831  1
  I  I121  1  0.33123550  0.49771490  0.49940120  1
  I  I122  1  0.33575704  0.50232959  0.83323849  1
  I  I123  1  0.33260137  0.83180231  0.15885087  1
  I  I124  1  0.33332672  0.83055987  0.50568671  1
  I  I125  1  0.33335597  0.83234723  0.83704716  1
  I  I126  1  0.66627596  0.16775417  0.16899282  1
  I  I127  1  0.66318234  0.16813501  0.50086547  1
  I  I128  1  0.66644840  0.16508053  0.83069406  1
  I  I129  1  0.66313608  0.50497520  0.16710514  1
  I  I130  1  0.66891494  0.49811932  0.50223597  1
  I  I131  1  0.66606677  0.50727936  0.83157773  1
  I  I132  1  0.66299363  0.82678260  0.16377857  1
  I  I133  1  0.66657335  0.83162208  0.49872196  1
  I  I134  1  0.66570699  0.82730674  0.83597870  1
