# generated using pymatgen
data_Cs27Sn14Pb13I81
_symmetry_space_group_name_H-M   'P 1'
_cell_length_a   18.98055232
_cell_length_b   18.97705028
_cell_length_c   18.96948461
_cell_angle_alpha   89.99864130
_cell_angle_beta   89.99985918
_cell_angle_gamma   90.00093344
_symmetry_Int_Tables_number   1
_chemical_formula_structural   Cs27Sn14Pb13I81
_chemical_formula_sum   'Cs27 Sn14 Pb13 I81'
_cell_volume   6832.71152398
_cell_formula_units_Z   1
loop_
 _symmetry_equiv_pos_site_id
 _symmetry_equiv_pos_as_xyz
  1  'x, y, z'
loop_
 _atom_site_type_symbol
 _atom_site_label
 _atom_site_symmetry_multiplicity
 _atom_site_fract_x
 _atom_site_fract_y
 _atom_site_fract_z
 _atom_site_occupancy
  Cs  Cs0  1  0.00137705  0.00189975  -0.00097437  1
  Cs  Cs1  1  -0.00204497  -0.00242969  0.33141779  1
  Cs  Cs2  1  -0.00173839  -0.00108416  0.67756539  1
  Cs  Cs3  1  -0.00323196  0.33313431  0.00040132  1
  Cs  Cs4  1  0.00013851  0.33422872  0.33215146  1
  Cs  Cs5  1  0.00113006  0.33183300  0.66901122  1
  Cs  Cs6  1  0.00090772  0.66435439  0.00016592  1
  Cs  Cs7  1  0.00123729  0.66766285  0.33460911  1
  Cs  Cs8  1  -0.00043619  0.67039075  0.66400351  1
  Cs  Cs9  1  0.33484628  -0.00284700  -0.00026031  1
  Cs  Cs10  1  0.33421050  0.00098252  0.33318449  1
  Cs  Cs11  1  0.33112039  0.00394448  0.66758066  1
  Cs  Cs12  1  0.33460859  0.33371747  0.00056372  1
  Cs  Cs13  1  0.33224588  0.33212675  0.33645634  1
  Cs  Cs14  1  0.33251264  0.33161857  0.66234082  1
  Cs  Cs15  1  0.33920015  0.66923028  -0.00245234  1
  Cs  Cs16  1  0.33192050  0.66727290  0.33372380  1
  Cs  Cs17  1  0.33281195  0.66528115  0.66570699  1
  Cs  Cs18  1  0.66312302  0.00074768  0.00031281  1
  Cs  Cs19  1  0.66918692  0.00097421  0.33314890  1
  Cs  Cs20  1  0.67228911  -0.00233343  0.66683054  1
  Cs  Cs21  1  0.66757027  0.33818708  -0.00274649  1
  Cs  Cs22  1  0.66859026  0.33248786  0.33323372  1
  Cs  Cs23  1  0.66616706  0.33301431  0.66728842  1
  Cs  Cs24  1  0.65569845  0.65761219  -0.00615302  1
  Cs  Cs25  1  0.66598500  0.66709469  0.33365413  1
  Cs  Cs26  1  0.66824396  0.66957422  0.66897510  1
  Sn  Sn27  1  0.83336824  0.16600382  0.16742868  1
  Sn  Sn28  1  0.16641485  0.50050932  0.49993174  1
  Sn  Sn29  1  0.49989263  0.16662608  0.83396154  1
  Sn  Sn30  1  0.16746318  0.83333128  0.49937293  1
  Sn  Sn31  1  0.49897709  0.83299123  0.49958167  1
  Sn  Sn32  1  0.16654164  0.50003485  0.83320299  1
  Sn  Sn33  1  0.16687278  0.50032591  0.16648017  1
  Sn  Sn34  1  0.83369049  0.49907689  0.49958270  1
  Sn  Sn35  1  0.50006306  0.50085185  0.49954529  1
  Sn  Sn36  1  0.50020943  0.16702115  0.16603807  1
  Sn  Sn37  1  0.16591668  0.83329354  0.16748802  1
  Sn  Sn38  1  0.83408088  0.16718981  0.49947355  1
  Sn  Sn39  1  0.83333173  0.83314567  0.16640675  1
  Sn  Sn40  1  0.16661280  0.16646773  0.16719189  1
  Pb  Pb41  1  0.49747221  0.49759914  0.16902866  1
  Pb  Pb42  1  0.16855695  0.16887335  0.83648696  1
  Pb  Pb43  1  0.83328095  0.83306200  0.83827157  1
  Pb  Pb44  1  0.83395261  0.83335109  0.49866113  1
  Pb  Pb45  1  0.16664956  0.83106502  0.83364984  1
  Pb  Pb46  1  0.83576611  0.50008464  0.83022824  1
  Pb  Pb47  1  0.50000084  0.83509561  0.16848760  1
  Pb  Pb48  1  0.83125252  0.16668460  0.83426551  1
  Pb  Pb49  1  0.49767013  0.49803081  0.83029199  1
  Pb  Pb50  1  0.49974479  0.83569865  0.82988171  1
  Pb  Pb51  1  0.16398241  0.16581111  0.49840191  1
  Pb  Pb52  1  0.83498285  0.50040042  0.16823616  1
  Pb  Pb53  1  0.50200540  0.16632605  0.49958627  1
  I  I54  1  0.16625766  -0.00017976  0.17237075  1
  I  I55  1  0.17164498  -0.00301353  0.49404062  1
  I  I56  1  0.16734671  0.00012582  0.83188540  1
  I  I57  1  0.16715748  0.33349519  0.16769097  1
  I  I58  1  0.16953363  0.33621801  0.49874876  1
  I  I59  1  0.16762585  0.33667234  0.83015166  1
  I  I60  1  0.16060533  0.66682811  0.16903819  1
  I  I61  1  0.16561929  0.66551661  0.49551850  1
  I  I62  1  0.16764180  0.66308950  0.83649787  1
  I  I63  1  0.49546962  0.00333490  0.16666350  1
  I  I64  1  0.49589952  -0.00229431  0.49909326  1
  I  I65  1  0.49901827  0.00350485  0.83671913  1
  I  I66  1  0.50063015  0.32940571  0.16609221  1
  I  I67  1  0.49653201  0.33567668  0.49972270  1
  I  I68  1  0.49944732  0.33042379  0.83651469  1
  I  I69  1  0.50085633  0.66650842  0.16623303  1
  I  I70  1  0.50042143  0.66599494  0.49887971  1
  I  I71  1  0.49943429  0.66640048  0.83503851  1
  I  I72  1  0.83836560  0.00135415  0.17416455  1
  I  I73  1  0.83099119  0.00223279  0.49641652  1
  I  I74  1  0.83392041  0.00018133  0.82552696  1
  I  I75  1  0.83460757  0.33051678  0.16937092  1
  I  I76  1  0.83281668  0.33355937  0.49372180  1
  I  I77  1  0.83370612  0.33335601  0.83691480  1
  I  I78  1  0.84057032  0.66932738  0.17060269  1
  I  I79  1  0.83419598  0.66411503  0.49832301  1
  I  I80  1  0.83312142  0.66646718  0.83176553  1
  I  I81  1  0.16129543  0.16618183  0.00505173  1
  I  I82  1  0.17178345  0.17129133  0.32992230  1
  I  I83  1  0.16748896  0.16710598  0.66662146  1
  I  I84  1  0.16583926  0.49836388  0.00131424  1
  I  I85  1  0.16662085  0.50018691  0.33390495  1
  I  I86  1  0.16716296  0.50419663  0.66463481  1
  I  I87  1  0.16191700  0.83369638  0.00391889  1
  I  I88  1  0.16692765  0.82839697  0.33297180  1
  I  I89  1  0.17039692  0.82836455  0.66324190  1
  I  I90  1  0.50059761  0.16622718  0.00181688  1
  I  I91  1  0.49815894  0.16694026  0.33068486  1
  I  I92  1  0.50137461  0.16787504  0.66810035  1
  I  I93  1  0.49848627  0.50034016  0.00012481  1
  I  I94  1  0.49727280  0.50054726  0.33713930  1
  I  I95  1  0.49740524  0.50018406  0.66222346  1
  I  I96  1  0.50015245  0.83332766  0.00018072  1
  I  I97  1  0.49782877  0.83178191  0.33646499  1
  I  I98  1  0.49404597  0.83092069  0.66170833  1
  I  I99  1  0.83655412  0.16213377  0.00406729  1
  I  I100  1  0.83066572  0.16739503  0.33216815  1
  I  I101  1  0.83092462  0.17100985  0.66395142  1
  I  I102  1  0.83574311  0.49925095  0.00018934  1
  I  I103  1  0.83599340  0.49782704  0.33664378  1
  I  I104  1  0.83489494  0.49366551  0.66149833  1
  I  I105  1  0.84207797  0.84235285  0.00608791  1
  I  I106  1  0.83560937  0.83591317  0.33069862  1
  I  I107  1  0.83358035  0.83446006  0.66639579  1
  I  I108  1  0.00014830  0.16664535  0.17262073  1
  I  I109  1  -0.00363977  0.17134577  0.49353528  1
  I  I110  1  0.00012158  0.16754235  0.83273913  1
  I  I111  1  0.00371822  0.49555518  0.16952668  1
  I  I112  1  0.00136511  0.50008790  0.49908849  1
  I  I113  1  0.00394910  0.49848872  0.83279304  1
  I  I114  1  0.00153516  0.83823570  0.17389080  1
  I  I115  1  0.00294559  0.82871850  0.49637082  1
  I  I116  1  0.00021304  0.83415319  0.82654911  1
  I  I117  1  0.33272791  0.16745141  0.16281829  1
  I  I118  1  0.33316272  0.16913254  0.49906019  1
  I  I119  1  0.33623678  0.16747385  0.83667241  1
  I  I120  1  0.32888948  0.50039850  0.16950780  1
  I  I121  1  0.33213374  0.50382053  0.49973108  1
  I  I122  1  0.32992699  0.49887124  0.83229880  1
  I  I123  1  0.33015390  0.83391636  0.16907919  1
  I  I124  1  0.33203195  0.82547887  0.49399646  1
  I  I125  1  0.33319413  0.83399795  0.83810001  1
  I  I126  1  0.66740667  0.16076033  0.16818615  1
  I  I127  1  0.66962409  0.17035838  0.49428402  1
  I  I128  1  0.66356165  0.16793584  0.83803358  1
  I  I129  1  0.66649217  0.49957411  0.16913654  1
  I  I130  1  0.66667923  0.49909887  0.49866192  1
  I  I131  1  0.66629207  0.49896857  0.83274379  1
  I  I132  1  0.66911706  0.84107351  0.17094442  1
  I  I133  1  0.66492127  0.83096106  0.49832538  1
  I  I134  1  0.66643325  0.83357323  0.83097006  1
