# generated using pymatgen
data_Cs27Sn14Pb13I81
_symmetry_space_group_name_H-M   'P 1'
_cell_length_a   18.96289646
_cell_length_b   18.96000056
_cell_length_c   18.96189581
_cell_angle_alpha   90.00086428
_cell_angle_beta   90.00036152
_cell_angle_gamma   90.00067030
_symmetry_Int_Tables_number   1
_chemical_formula_structural   Cs27Sn14Pb13I81
_chemical_formula_sum   'Cs27 Sn14 Pb13 I81'
_cell_volume   6817.49417182
_cell_formula_units_Z   1
loop_
 _symmetry_equiv_pos_site_id
 _symmetry_equiv_pos_as_xyz
  1  'x, y, z'
loop_
 _atom_site_type_symbol
 _atom_site_label
 _atom_site_symmetry_multiplicity
 _atom_site_fract_x
 _atom_site_fract_y
 _atom_site_fract_z
 _atom_site_occupancy
  Cs  Cs0  1  0.00588977  0.00048326  -0.00094180  1
  Cs  Cs1  1  -0.00014922  0.00044128  0.33433368  1
  Cs  Cs2  1  0.00080076  -0.00054391  0.66668680  1
  Cs  Cs3  1  -0.00062465  0.33486031  0.00670757  1
  Cs  Cs4  1  -0.00645904  0.33368175  0.32668724  1
  Cs  Cs5  1  0.00006457  0.33455585  0.66618600  1
  Cs  Cs6  1  0.00153578  0.66598883  0.00075469  1
  Cs  Cs7  1  0.00062027  0.66529084  0.33088770  1
  Cs  Cs8  1  -0.00008097  0.66734158  0.66747903  1
  Cs  Cs9  1  0.32737733  0.00736840  -0.00051076  1
  Cs  Cs10  1  0.33326408  0.00000155  0.33263294  1
  Cs  Cs11  1  0.33086908  0.00216439  0.66757285  1
  Cs  Cs12  1  0.33333184  0.32797212  0.00052702  1
  Cs  Cs13  1  0.33489043  0.33073917  0.33404147  1
  Cs  Cs14  1  0.33389573  0.33368174  0.66578979  1
  Cs  Cs15  1  0.33548085  0.66698972  0.00101910  1
  Cs  Cs16  1  0.33425128  0.66697568  0.33253578  1
  Cs  Cs17  1  0.33346951  0.66580963  0.66651091  1
  Cs  Cs18  1  0.66568036  -0.00141626  -0.00022877  1
  Cs  Cs19  1  0.66712460  0.00054715  0.33181322  1
  Cs  Cs20  1  0.66784212  -0.00184078  0.66765413  1
  Cs  Cs21  1  0.66623952  0.33161463  -0.00008710  1
  Cs  Cs22  1  0.67282718  0.32661971  0.33854890  1
  Cs  Cs23  1  0.66594795  0.33285894  0.66270453  1
  Cs  Cs24  1  0.66448177  0.66825024  -0.00145454  1
  Cs  Cs25  1  0.66502385  0.66737953  0.33263645  1
  Cs  Cs26  1  0.66622495  0.66695247  0.66804041  1
  Sn  Sn27  1  0.83306382  0.49992420  0.83321936  1
  Sn  Sn28  1  0.83282469  0.83291625  0.16610318  1
  Sn  Sn29  1  0.16654781  0.49982492  0.50027012  1
  Sn  Sn30  1  0.83303277  0.83319964  0.83373133  1
  Sn  Sn31  1  0.50045122  0.50027238  0.16630944  1
  Sn  Sn32  1  0.49986180  0.50070391  0.83411929  1
  Sn  Sn33  1  0.16689434  0.50041715  0.83302141  1
  Sn  Sn34  1  0.50051169  0.83285826  0.16599550  1
  Sn  Sn35  1  0.50005684  0.83299397  0.83371899  1
  Sn  Sn36  1  0.49994156  0.83301396  0.50029670  1
  Sn  Sn37  1  0.16674020  0.83291541  0.50027791  1
  Sn  Sn38  1  0.83328243  0.83287601  0.49985355  1
  Sn  Sn39  1  0.16640165  0.16719149  0.49998444  1
  Sn  Sn40  1  0.83321905  0.16659790  0.83328378  1
  Pb  Pb41  1  0.83532309  0.16422884  0.50200116  1
  Pb  Pb42  1  0.16648104  0.16690114  0.16965149  1
  Pb  Pb43  1  0.83042613  0.50220330  0.16431399  1
  Pb  Pb44  1  0.49811293  0.16359527  0.50028120  1
  Pb  Pb45  1  0.50196667  0.16675286  0.83315643  1
  Pb  Pb46  1  0.16701696  0.83170531  0.83163401  1
  Pb  Pb47  1  0.16413262  0.16997338  0.83158704  1
  Pb  Pb48  1  0.83539462  0.50214490  0.50175907  1
  Pb  Pb49  1  0.16936100  0.50012204  0.16663621  1
  Pb  Pb50  1  0.50030755  0.16650709  0.16661418  1
  Pb  Pb51  1  0.16711789  0.83326950  0.16922970  1
  Pb  Pb52  1  0.49846124  0.50160771  0.50002949  1
  Pb  Pb53  1  0.83315392  0.16359163  0.16393728  1
  I  I54  1  0.16858913  -0.00033749  0.16719288  1
  I  I55  1  0.16649191  -0.00141991  0.49940640  1
  I  I56  1  0.16655498  0.00006515  0.83145402  1
  I  I57  1  0.16842061  0.33379006  0.16798710  1
  I  I58  1  0.16830467  0.33428793  0.50652120  1
  I  I59  1  0.16859884  0.33805835  0.82703742  1
  I  I60  1  0.16445850  0.66676517  0.16967387  1
  I  I61  1  0.16682278  0.66734133  0.50422898  1
  I  I62  1  0.16309996  0.66354271  0.82712925  1
  I  I63  1  0.50401599  -0.00434862  0.16713084  1
  I  I64  1  0.49876150  -0.00545452  0.50034341  1
  I  I65  1  0.50465358  -0.00379193  0.83306471  1
  I  I66  1  0.49690220  0.33671729  0.15990717  1
  I  I67  1  0.49714482  0.33351764  0.50017440  1
  I  I68  1  0.50006892  0.33710577  0.83772651  1
  I  I69  1  0.50283509  0.66826956  0.16545544  1
  I  I70  1  0.49812165  0.67051508  0.50076373  1
  I  I71  1  0.50398878  0.66733711  0.83303173  1
  I  I72  1  0.82663384  -0.00493929  0.16644407  1
  I  I73  1  0.83499366  -0.00457118  0.50262914  1
  I  I74  1  0.82859085  -0.00218946  0.83227906  1
  I  I75  1  0.83275231  0.33355800  0.16566816  1
  I  I76  1  0.83520105  0.33343720  0.50201125  1
  I  I77  1  0.83396750  0.33446899  0.83221374  1
  I  I78  1  0.83222801  0.67065482  0.16582276  1
  I  I79  1  0.83501385  0.67094068  0.50293762  1
  I  I80  1  0.83258446  0.66763274  0.83227374  1
  I  I81  1  0.16624271  0.16697277  -0.00036398  1
  I  I82  1  0.16677632  0.16650629  0.33798070  1
  I  I83  1  0.16608896  0.16252337  0.66372680  1
  I  I84  1  0.16396795  0.50142654  -0.00336021  1
  I  I85  1  0.16892298  0.50171790  0.33659339  1
  I  I86  1  0.16839615  0.50152397  0.66698283  1
  I  I87  1  0.16585301  0.83157199  -0.00014754  1
  I  I88  1  0.16654789  0.83099858  0.33801511  1
  I  I89  1  0.16643082  0.83424524  0.66308870  1
  I  I90  1  0.49921306  0.16218502  -0.00026103  1
  I  I91  1  0.49879840  0.16704037  0.33346181  1
  I  I92  1  0.50010698  0.16648810  0.66681228  1
  I  I93  1  0.49882143  0.50883692  -0.00166366  1
  I  I94  1  0.49584809  0.50679685  0.33103600  1
  I  I95  1  0.50120593  0.50455920  0.66992996  1
  I  I96  1  0.50893341  0.82786532  -0.00077847  1
  I  I97  1  0.50176779  0.82971169  0.33329443  1
  I  I98  1  0.50272776  0.82965188  0.66722654  1
  I  I99  1  0.83353050  0.16569474  -0.00416776  1
  I  I100  1  0.83503593  0.16538013  0.33344880  1
  I  I101  1  0.83367034  0.16424393  0.66997064  1
  I  I102  1  0.83916292  0.50233914  -0.00441851  1
  I  I103  1  0.83457597  0.50182853  0.33318976  1
  I  I104  1  0.82885204  0.50314086  0.67065259  1
  I  I105  1  0.82603221  0.83294916  -0.00129935  1
  I  I106  1  0.83125624  0.83350352  0.33386458  1
  I  I107  1  0.83135363  0.83318034  0.66742248  1
  I  I108  1  -0.00036905  0.16519326  0.16603990  1
  I  I109  1  0.00328315  0.16347868  0.50265151  1
  I  I110  1  -0.00360763  0.16232877  0.83126475  1
  I  I111  1  -0.00034681  0.50106064  0.16593593  1
  I  I112  1  0.00376934  0.50340666  0.50613848  1
  I  I113  1  -0.00042854  0.50126022  0.82704498  1
  I  I114  1  -0.00309757  0.83423448  0.16586434  1
  I  I115  1  -0.00015767  0.83352382  0.50140274  1
  I  I116  1  -0.00308886  0.83246635  0.83265550  1
  I  I117  1  0.33346609  0.16380491  0.16580197  1
  I  I118  1  0.32978941  0.16453499  0.50161386  1
  I  I119  1  0.33297006  0.16568273  0.83246181  1
  I  I120  1  0.33715479  0.50872836  0.16137349  1
  I  I121  1  0.33011900  0.50347277  0.50573731  1
  I  I122  1  0.33416090  0.50601663  0.83225149  1
  I  I123  1  0.33703958  0.82921728  0.16719810  1
  I  I124  1  0.33348062  0.83286971  0.50017897  1
  I  I125  1  0.33645624  0.82827561  0.83269632  1
  I  I126  1  0.66683505  0.16801207  0.16781133  1
  I  I127  1  0.66705603  0.16595644  0.50032577  1
  I  I128  1  0.67003865  0.16848963  0.83242261  1
  I  I129  1  0.66254339  0.50442194  0.16138831  1
  I  I130  1  0.66666943  0.50176012  0.50113078  1
  I  I131  1  0.66647594  0.50231794  0.83777655  1
  I  I132  1  0.66620925  0.82985169  0.17020650  1
  I  I133  1  0.66668139  0.83288386  0.50103972  1
  I  I134  1  0.66707372  0.82983870  0.82929797  1
