# generated using pymatgen
data_Cs27Sn13Pb14I81
_symmetry_space_group_name_H-M   'P 1'
_cell_length_a   19.00361791
_cell_length_b   18.97888464
_cell_length_c   18.99481892
_cell_angle_alpha   90.00003945
_cell_angle_beta   89.99930124
_cell_angle_gamma   89.99994148
_symmetry_Int_Tables_number   1
_chemical_formula_structural   Cs27Sn13Pb14I81
_chemical_formula_sum   'Cs27 Sn13 Pb14 I81'
_cell_volume   6850.81332299
_cell_formula_units_Z   1
loop_
 _symmetry_equiv_pos_site_id
 _symmetry_equiv_pos_as_xyz
  1  'x, y, z'
loop_
 _atom_site_type_symbol
 _atom_site_label
 _atom_site_symmetry_multiplicity
 _atom_site_fract_x
 _atom_site_fract_y
 _atom_site_fract_z
 _atom_site_occupancy
  Cs  Cs0  1  -0.00122879  0.00200120  0.00036222  1
  Cs  Cs1  1  0.00026925  -0.00005340  0.33177801  1
  Cs  Cs2  1  -0.00200769  -0.00011771  0.66770986  1
  Cs  Cs3  1  -0.00179823  0.33106524  -0.00146853  1
  Cs  Cs4  1  -0.00176161  0.33370130  0.33669855  1
  Cs  Cs5  1  -0.00119150  0.33173279  0.66479550  1
  Cs  Cs6  1  0.01000673  0.66593844  0.00282438  1
  Cs  Cs7  1  0.00328274  0.66738602  0.33139078  1
  Cs  Cs8  1  -0.00129728  0.67327729  0.66610676  1
  Cs  Cs9  1  0.33236917  0.00106370  0.00200274  1
  Cs  Cs10  1  0.33729682  -0.00170330  0.33337964  1
  Cs  Cs11  1  0.33734505  -0.00434491  0.66492315  1
  Cs  Cs12  1  0.33668912  0.33822016  -0.00183392  1
  Cs  Cs13  1  0.33784064  0.33216087  0.33611830  1
  Cs  Cs14  1  0.33251982  0.33392329  0.66548424  1
  Cs  Cs15  1  0.32639019  0.66041460  -0.00723445  1
  Cs  Cs16  1  0.32617419  0.66956720  0.33255155  1
  Cs  Cs17  1  0.33568667  0.67009969  0.67506236  1
  Cs  Cs18  1  0.66715805  -0.00024006  0.00215751  1
  Cs  Cs19  1  0.66297398  -0.00113206  0.33107589  1
  Cs  Cs20  1  0.66568651  -0.00659650  0.66673906  1
  Cs  Cs21  1  0.66672829  0.33474996  0.00105751  1
  Cs  Cs22  1  0.66526618  0.33458915  0.33362849  1
  Cs  Cs23  1  0.66926498  0.33255606  0.66496300  1
  Cs  Cs24  1  0.66302787  0.66647828  0.00077204  1
  Cs  Cs25  1  0.66800057  0.66559060  0.33199055  1
  Cs  Cs26  1  0.66604321  0.67301985  0.66797042  1
  Sn  Sn27  1  0.83350810  0.16683750  0.49988473  1
  Sn  Sn28  1  0.83345851  0.49944132  0.50124114  1
  Sn  Sn29  1  0.83260161  0.83379525  0.16650362  1
  Sn  Sn30  1  0.50031636  0.83268665  0.16626274  1
  Sn  Sn31  1  0.83294363  0.16716791  0.83297259  1
  Sn  Sn32  1  0.16605092  0.16695672  0.49992906  1
  Sn  Sn33  1  0.83349708  0.49954357  0.83252590  1
  Sn  Sn34  1  0.16691371  0.16702966  0.83288507  1
  Sn  Sn35  1  0.16611836  0.16723241  0.16715139  1
  Sn  Sn36  1  0.50039443  0.16683560  0.83314229  1
  Sn  Sn37  1  0.83375762  0.16615043  0.16710368  1
  Sn  Sn38  1  0.16636602  0.49922295  0.50056762  1
  Sn  Sn39  1  0.50010869  0.50025600  0.49997596  1
  Pb  Pb40  1  0.50014224  0.16593049  0.16466502  1
  Pb  Pb41  1  0.50032173  0.16775675  0.50207306  1
  Pb  Pb42  1  0.83351250  0.83304455  0.83629420  1
  Pb  Pb43  1  0.16657778  0.49633975  0.16908155  1
  Pb  Pb44  1  0.16639194  0.83636178  0.83325918  1
  Pb  Pb45  1  0.83340299  0.49964569  0.16657628  1
  Pb  Pb46  1  0.16379167  0.49743008  0.83049451  1
  Pb  Pb47  1  0.50006147  0.82996659  0.49783398  1
  Pb  Pb48  1  0.49979748  0.50289726  0.16863421  1
  Pb  Pb49  1  0.16650009  0.83402785  0.50022373  1
  Pb  Pb50  1  0.83337710  0.83350171  0.49750587  1
  Pb  Pb51  1  0.50012428  0.83564479  0.83616498  1
  Pb  Pb52  1  0.16652919  0.83583279  0.16661571  1
  Pb  Pb53  1  0.50266917  0.49785496  0.83105229  1
  I  I54  1  0.16476684  0.00432618  0.16907771  1
  I  I55  1  0.16100604  0.00463073  0.49999143  1
  I  I56  1  0.16232365  0.00571715  0.83078388  1
  I  I57  1  0.15880836  0.32829670  0.16375742  1
  I  I58  1  0.16508202  0.33194617  0.49941584  1
  I  I59  1  0.16818270  0.32891328  0.83646034  1
  I  I60  1  0.16573451  0.66659872  0.16907961  1
  I  I61  1  0.16458575  0.66323369  0.49805354  1
  I  I62  1  0.16573223  0.66594153  0.83275166  1
  I  I63  1  0.50210278  -0.00190224  0.16668941  1
  I  I64  1  0.49952520  -0.00002585  0.50098313  1
  I  I65  1  0.50261936  0.00410659  0.83115088  1
  I  I66  1  0.50026192  0.33333630  0.16628155  1
  I  I67  1  0.50057774  0.33575236  0.49939842  1
  I  I68  1  0.49767477  0.32975122  0.83553316  1
  I  I69  1  0.51055047  0.67075669  0.16850916  1
  I  I70  1  0.50195678  0.66184035  0.49986092  1
  I  I71  1  0.50183706  0.66639437  0.83270966  1
  I  I72  1  0.83362147  0.00240412  0.16659107  1
  I  I73  1  0.83882650  0.00382853  0.50324072  1
  I  I74  1  0.83444649  0.00399732  0.83049359  1
  I  I75  1  0.83789173  0.32967391  0.16650318  1
  I  I76  1  0.83419841  0.33231836  0.49830625  1
  I  I77  1  0.83372971  0.33103230  0.83470402  1
  I  I78  1  0.82757939  0.66922873  0.16782144  1
  I  I79  1  0.83405565  0.66304631  0.50376279  1
  I  I80  1  0.83183056  0.66348359  0.82714273  1
  I  I81  1  0.16250736  0.16321972  -0.00009698  1
  I  I82  1  0.15871369  0.16997682  0.33389565  1
  I  I83  1  0.16304054  0.17132957  0.66622756  1
  I  I84  1  0.16581248  0.50031895  -0.00048474  1
  I  I85  1  0.16260775  0.49491592  0.33746909  1
  I  I86  1  0.16858001  0.49217957  0.66268471  1
  I  I87  1  0.16599595  0.83442074  0.00025133  1
  I  I88  1  0.16665281  0.83511321  0.33319557  1
  I  I89  1  0.16742690  0.83575588  0.66661197  1
  I  I90  1  0.50058449  0.16543458  -0.00318355  1
  I  I91  1  0.49963876  0.16636900  0.33344269  1
  I  I92  1  0.50036476  0.16835741  0.66986574  1
  I  I93  1  0.50210875  0.49991204  -0.00048837  1
  I  I94  1  0.50428445  0.49667216  0.33708003  1
  I  I95  1  0.49746818  0.49791820  0.66319331  1
  I  I96  1  0.50712880  0.83557082  0.00358244  1
  I  I97  1  0.50483645  0.83705098  0.33026354  1
  I  I98  1  0.49902295  0.83363232  0.66688590  1
  I  I99  1  0.83621842  0.16643482  -0.00033401  1
  I  I100  1  0.84029376  0.16696860  0.33372595  1
  I  I101  1  0.83654339  0.17232687  0.66656096  1
  I  I102  1  0.83177411  0.49462188  -0.00278020  1
  I  I103  1  0.83340019  0.49637768  0.33680613  1
  I  I104  1  0.83346373  0.48965181  0.66549251  1
  I  I105  1  0.82929887  0.84003510  0.00380941  1
  I  I106  1  0.82993371  0.83865275  0.32990772  1
  I  I107  1  0.83327399  0.83598861  0.66673572  1
  I  I108  1  -0.00120675  0.16106411  0.16346455  1
  I  I109  1  -0.00062994  0.17380632  0.50259506  1
  I  I110  1  -0.00071952  0.17009202  0.83400612  1
  I  I111  1  -0.00020261  0.50629751  0.16832771  1
  I  I112  1  -0.00075599  0.49362908  0.50276716  1
  I  I113  1  -0.00382260  0.49330083  0.82943495  1
  I  I114  1  -0.00287779  0.83631090  0.16719747  1
  I  I115  1  -0.00022752  0.82932153  0.49672548  1
  I  I116  1  -0.00034524  0.83490406  0.83552140  1
  I  I117  1  0.33045337  0.16470480  0.16759999  1
  I  I118  1  0.33038567  0.17096689  0.49930784  1
  I  I119  1  0.33254719  0.16479890  0.83383984  1
  I  I120  1  0.33315273  0.49995294  0.16876755  1
  I  I121  1  0.33250614  0.49351762  0.49633799  1
  I  I122  1  0.33309096  0.49870957  0.83226836  1
  I  I123  1  0.33571269  0.83631225  0.16890308  1
  I  I124  1  0.33335189  0.83567108  0.49534875  1
  I  I125  1  0.33343396  0.83462437  0.83602041  1
  I  I126  1  0.66995328  0.16476611  0.16683065  1
  I  I127  1  0.67006767  0.17137284  0.49905492  1
  I  I128  1  0.66834244  0.17056750  0.83417769  1
  I  I129  1  0.66692444  0.49494737  0.16998872  1
  I  I130  1  0.66827958  0.49491492  0.50254888  1
  I  I131  1  0.67033971  0.49233974  0.82801888  1
  I  I132  1  0.66801060  0.84134824  0.16754192  1
  I  I133  1  0.66685320  0.83440846  0.50047062  1
  I  I134  1  0.66692950  0.83677819  0.83193445  1
