# generated using pymatgen
data_Cs27Sn13Pb14I81
_symmetry_space_group_name_H-M   'P 1'
_cell_length_a   18.97831519
_cell_length_b   18.97446849
_cell_length_c   18.97801361
_cell_angle_alpha   90.00079565
_cell_angle_beta   90.00060391
_cell_angle_gamma   90.00068334
_symmetry_Int_Tables_number   1
_chemical_formula_structural   Cs27Sn13Pb14I81
_chemical_formula_sum   'Cs27 Sn13 Pb14 I81'
_cell_volume   6834.04805248
_cell_formula_units_Z   1
loop_
 _symmetry_equiv_pos_site_id
 _symmetry_equiv_pos_as_xyz
  1  'x, y, z'
loop_
 _atom_site_type_symbol
 _atom_site_label
 _atom_site_symmetry_multiplicity
 _atom_site_fract_x
 _atom_site_fract_y
 _atom_site_fract_z
 _atom_site_occupancy
  Cs  Cs0  1  -0.00246119  0.00440531  0.00006299  1
  Cs  Cs1  1  -0.00044955  0.00013862  0.33503209  1
  Cs  Cs2  1  0.00466039  -0.00248774  0.66517553  1
  Cs  Cs3  1  -0.00224985  0.33131079  0.00009531  1
  Cs  Cs4  1  0.00290676  0.33196746  0.33420751  1
  Cs  Cs5  1  -0.00066181  0.33259391  0.66609002  1
  Cs  Cs6  1  0.00135339  0.66575337  0.00019893  1
  Cs  Cs7  1  -0.00285065  0.66892107  0.33183771  1
  Cs  Cs8  1  0.00457056  0.66971042  0.66868127  1
  Cs  Cs9  1  0.33480549  -0.00038061  0.00021739  1
  Cs  Cs10  1  0.33357161  0.00348050  0.33313481  1
  Cs  Cs11  1  0.32990475  -0.00206929  0.66589316  1
  Cs  Cs12  1  0.33611263  0.33027591  -0.00094638  1
  Cs  Cs13  1  0.32984789  0.33149643  0.33426976  1
  Cs  Cs14  1  0.33250931  0.34223772  0.66662050  1
  Cs  Cs15  1  0.33184850  0.66719005  0.00082682  1
  Cs  Cs16  1  0.33617511  0.66483550  0.32944552  1
  Cs  Cs17  1  0.32805884  0.66133074  0.66883786  1
  Cs  Cs18  1  0.66788594  0.00497803  -0.00124319  1
  Cs  Cs19  1  0.66713241  -0.00211498  0.33461508  1
  Cs  Cs20  1  0.66667305  0.00114105  0.66635954  1
  Cs  Cs21  1  0.66681826  0.32683373  -0.00350025  1
  Cs  Cs22  1  0.66639103  0.33484919  0.33624629  1
  Cs  Cs23  1  0.66625315  0.33264622  0.66673522  1
  Cs  Cs24  1  0.66684952  0.66719222  0.00121520  1
  Cs  Cs25  1  0.66687884  0.66765421  0.33283849  1
  Cs  Cs26  1  0.66595005  0.66613093  0.66682989  1
  Sn  Sn27  1  0.83273166  0.16697964  0.49994331  1
  Sn  Sn28  1  0.83262038  0.83270636  0.83344180  1
  Sn  Sn29  1  0.49954374  0.83288167  0.16642803  1
  Sn  Sn30  1  0.83300351  0.50004718  0.16653637  1
  Sn  Sn31  1  0.50031015  0.50021535  0.16649520  1
  Sn  Sn32  1  0.83295368  0.50086779  0.83342281  1
  Sn  Sn33  1  0.83324643  0.49969981  0.50004775  1
  Sn  Sn34  1  0.16667185  0.50058348  0.16657525  1
  Sn  Sn35  1  0.50060422  0.83301783  0.83326062  1
  Sn  Sn36  1  0.49993788  0.83359303  0.50024563  1
  Sn  Sn37  1  0.16702512  0.16683165  0.83324225  1
  Sn  Sn38  1  0.50045360  0.16624015  0.50013498  1
  Sn  Sn39  1  0.16707901  0.83312009  0.16673322  1
  Pb  Pb40  1  0.16420642  0.49809093  0.83592687  1
  Pb  Pb41  1  0.16698059  0.16674924  0.50215709  1
  Pb  Pb42  1  0.83159180  0.83294246  0.50227405  1
  Pb  Pb43  1  0.50018615  0.16629431  0.16889977  1
  Pb  Pb44  1  0.83455107  0.16647574  0.83081140  1
  Pb  Pb45  1  0.83319361  0.16948322  0.16957997  1
  Pb  Pb46  1  0.16676062  0.83456470  0.83574713  1
  Pb  Pb47  1  0.16986592  0.83307996  0.49690793  1
  Pb  Pb48  1  0.16676936  0.16642794  0.16488642  1
  Pb  Pb49  1  0.50210128  0.50210463  0.83586698  1
  Pb  Pb50  1  0.49789701  0.16424352  0.83039519  1
  Pb  Pb51  1  0.50167010  0.50038234  0.49813848  1
  Pb  Pb52  1  0.16364714  0.50034172  0.49734326  1
  Pb  Pb53  1  0.83292200  0.83184583  0.16459560  1
  I  I54  1  0.17304391  -0.00310214  0.16518222  1
  I  I55  1  0.16142886  -0.00009374  0.49767740  1
  I  I56  1  0.16408902  0.00204631  0.83532222  1
  I  I57  1  0.16612194  0.33667033  0.16600426  1
  I  I58  1  0.17091293  0.33350102  0.49774630  1
  I  I59  1  0.16476061  0.33069885  0.83466260  1
  I  I60  1  0.16775019  0.66621374  0.16562091  1
  I  I61  1  0.16585408  0.66673134  0.50409103  1
  I  I62  1  0.16731272  0.66658016  0.83277866  1
  I  I63  1  0.49448518  -0.00371093  0.16529728  1
  I  I64  1  0.50645815  -0.00069257  0.49765465  1
  I  I65  1  0.50648099  -0.00408179  0.83938330  1
  I  I66  1  0.49982408  0.33653404  0.16876477  1
  I  I67  1  0.50287539  0.33124143  0.49760638  1
  I  I68  1  0.50027974  0.33341220  0.83403218  1
  I  I69  1  0.49966396  0.66733650  0.16926613  1
  I  I70  1  0.50239445  0.66959302  0.49981496  1
  I  I71  1  0.50084274  0.67050994  0.82856301  1
  I  I72  1  0.83416775  -0.00014710  0.16597858  1
  I  I73  1  0.83086013  0.00214468  0.50243662  1
  I  I74  1  0.83068276  -0.00267240  0.83256944  1
  I  I75  1  0.83349630  0.33834865  0.16091005  1
  I  I76  1  0.82717674  0.33395158  0.50083583  1
  I  I77  1  0.83612341  0.33620243  0.83596964  1
  I  I78  1  0.83312997  0.66325855  0.17158214  1
  I  I79  1  0.83152357  0.66372535  0.49704306  1
  I  I80  1  0.82986369  0.66610945  0.83200040  1
  I  I81  1  0.16494572  0.16647078  -0.00261261  1
  I  I82  1  0.16628001  0.16705265  0.33341800  1
  I  I83  1  0.16522296  0.16443479  0.66958341  1
  I  I84  1  0.16474183  0.50410971  0.00395820  1
  I  I85  1  0.16547592  0.50256701  0.32894068  1
  I  I86  1  0.16585374  0.49836925  0.66695936  1
  I  I87  1  0.17217847  0.82925917  0.00341113  1
  I  I88  1  0.16972827  0.82977987  0.32877877  1
  I  I89  1  0.16685557  0.83558687  0.66693465  1
  I  I90  1  0.49885319  0.16642960  -0.00026878  1
  I  I91  1  0.50364520  0.16135616  0.33673111  1
  I  I92  1  0.50466103  0.16195622  0.66271430  1
  I  I93  1  0.50137835  0.50553468  0.00414265  1
  I  I94  1  0.50273821  0.50558174  0.32992197  1
  I  I95  1  0.50206422  0.50052501  0.66673009  1
  I  I96  1  0.49939690  0.82756908  0.00062611  1
  I  I97  1  0.49597122  0.83312956  0.33271441  1
  I  I98  1  0.50672894  0.83924341  0.66676023  1
  I  I99  1  0.83503241  0.16748554  -0.00038089  1
  I  I100  1  0.83052565  0.17029238  0.33757571  1
  I  I101  1  0.82959847  0.17283046  0.66333118  1
  I  I102  1  0.83420535  0.50606528  0.00033276  1
  I  I103  1  0.83314549  0.49530845  0.33282025  1
  I  I104  1  0.83179428  0.49916757  0.66671017  1
  I  I105  1  0.82899541  0.82833294  -0.00329245  1
  I  I106  1  0.83299398  0.83270878  0.33333961  1
  I  I107  1  0.82848752  0.82845193  0.67011097  1
  I  I108  1  -0.00005329  0.16567918  0.16840249  1
  I  I109  1  -0.00287033  0.17214995  0.50090327  1
  I  I110  1  0.00199887  0.16494717  0.83240003  1
  I  I111  1  -0.00042176  0.50396443  0.16667791  1
  I  I112  1  -0.00482104  0.49329312  0.49825706  1
  I  I113  1  -0.00407862  0.50595895  0.83484710  1
  I  I114  1  0.00209809  0.82868959  0.16412162  1
  I  I115  1  -0.00016848  0.83447127  0.50017846  1
  I  I116  1  -0.00258857  0.83052398  0.83455093  1
  I  I117  1  0.33350422  0.17147306  0.16894241  1
  I  I118  1  0.33644478  0.16082196  0.49946971  1
  I  I119  1  0.33062174  0.16461874  0.83364167  1
  I  I120  1  0.33373172  0.50510991  0.16716127  1
  I  I121  1  0.33352879  0.49872510  0.49842516  1
  I  I122  1  0.33338773  0.49992383  0.83404757  1
  I  I123  1  0.33470669  0.82516511  0.16520555  1
  I  I124  1  0.33829960  0.83986140  0.50464824  1
  I  I125  1  0.33632406  0.83668281  0.83250970  1
  I  I126  1  0.66669569  0.16623239  0.16348178  1
  I  I127  1  0.66679333  0.16702016  0.50035328  1
  I  I128  1  0.66657262  0.16784037  0.83393883  1
  I  I129  1  0.66682075  0.50515784  0.16800723  1
  I  I130  1  0.66991523  0.49905269  0.49706562  1
  I  I131  1  0.67040467  0.50050455  0.83551563  1
  I  I132  1  0.66341894  0.82859771  0.16875769  1
  I  I133  1  0.66345421  0.83411030  0.49435214  1
  I  I134  1  0.66617010  0.82968534  0.83553821  1
