# generated using pymatgen
data_Cs27Sn14Pb13I81
_symmetry_space_group_name_H-M   'P 1'
_cell_length_a   18.98302353
_cell_length_b   18.97112866
_cell_length_c   18.97490062
_cell_angle_alpha   90.00031869
_cell_angle_beta   90.00102035
_cell_angle_gamma   90.00196596
_symmetry_Int_Tables_number   1
_chemical_formula_structural   Cs27Sn14Pb13I81
_chemical_formula_sum   'Cs27 Sn14 Pb13 I81'
_cell_volume   6833.41922516
_cell_formula_units_Z   1
loop_
 _symmetry_equiv_pos_site_id
 _symmetry_equiv_pos_as_xyz
  1  'x, y, z'
loop_
 _atom_site_type_symbol
 _atom_site_label
 _atom_site_symmetry_multiplicity
 _atom_site_fract_x
 _atom_site_fract_y
 _atom_site_fract_z
 _atom_site_occupancy
  Cs  Cs0  1  0.00227144  -0.00050635  -0.00085867  1
  Cs  Cs1  1  -0.00253216  0.00121382  0.33424203  1
  Cs  Cs2  1  -0.00081311  0.00182722  0.66723171  1
  Cs  Cs3  1  -0.00263215  0.33277221  0.00457874  1
  Cs  Cs4  1  0.00033116  0.34042138  0.32661847  1
  Cs  Cs5  1  0.00181009  0.33248525  0.66649170  1
  Cs  Cs6  1  0.00360886  0.66776102  -0.00142105  1
  Cs  Cs7  1  0.00213390  0.65905616  0.33422473  1
  Cs  Cs8  1  -0.00006280  0.66315263  0.66764338  1
  Cs  Cs9  1  0.32996625  0.00031362  0.00122139  1
  Cs  Cs10  1  0.33348343  0.00026583  0.33663668  1
  Cs  Cs11  1  0.33288211  0.00120121  0.66622837  1
  Cs  Cs12  1  0.34252345  0.33341079  0.00365724  1
  Cs  Cs13  1  0.33144830  0.33652041  0.32901845  1
  Cs  Cs14  1  0.33173548  0.33118773  0.66769029  1
  Cs  Cs15  1  0.32931575  0.66842363  0.00249418  1
  Cs  Cs16  1  0.33293568  0.66494984  0.33402653  1
  Cs  Cs17  1  0.33244875  0.66789434  0.66569945  1
  Cs  Cs18  1  0.66740440  0.00048738  -0.00031047  1
  Cs  Cs19  1  0.66790377  -0.00283132  0.33537686  1
  Cs  Cs20  1  0.66755473  -0.00042732  0.66521858  1
  Cs  Cs21  1  0.65890219  0.34111791  0.00574901  1
  Cs  Cs22  1  0.66871095  0.33437855  0.32599146  1
  Cs  Cs23  1  0.66660488  0.33361941  0.66991181  1
  Cs  Cs24  1  0.66659419  0.66400020  -0.00159665  1
  Cs  Cs25  1  0.66603399  0.67150902  0.33487529  1
  Cs  Cs26  1  0.66778722  0.66738396  0.66708382  1
  Sn  Sn27  1  0.50071412  0.83385931  0.16652839  1
  Sn  Sn28  1  0.83346182  0.16627795  0.83290126  1
  Sn  Sn29  1  0.16614009  0.83392331  0.50031768  1
  Sn  Sn30  1  0.16607506  0.16606569  0.50023298  1
  Sn  Sn31  1  0.16603059  0.16787723  0.83278497  1
  Sn  Sn32  1  0.50039787  0.16709826  0.50019001  1
  Sn  Sn33  1  0.83283496  0.83369162  0.16664988  1
  Sn  Sn34  1  0.50046495  0.49958635  0.50066158  1
  Sn  Sn35  1  0.83403236  0.83374307  0.50022921  1
  Sn  Sn36  1  0.50059836  0.83368009  0.83327666  1
  Sn  Sn37  1  0.83357133  0.16631499  0.50072524  1
  Sn  Sn38  1  0.49980028  0.83361426  0.50036684  1
  Sn  Sn39  1  0.16680385  0.49818047  0.83307891  1
  Sn  Sn40  1  0.83257132  0.83423430  0.83315544  1
  Pb  Pb41  1  0.16626963  0.83427742  0.83123007  1
  Pb  Pb42  1  0.16694705  0.49993419  0.16291933  1
  Pb  Pb43  1  0.50012479  0.16372484  0.16979407  1
  Pb  Pb44  1  0.16860374  0.49913731  0.50130516  1
  Pb  Pb45  1  0.83095364  0.49921788  0.50030669  1
  Pb  Pb46  1  0.49781920  0.50287899  0.83121917  1
  Pb  Pb47  1  0.16623177  0.83363894  0.17023859  1
  Pb  Pb48  1  0.16657571  0.16641027  0.16667441  1
  Pb  Pb49  1  0.50007276  0.50324920  0.16945699  1
  Pb  Pb50  1  0.83326630  0.16451899  0.16625981  1
  Pb  Pb51  1  0.83501823  0.49931633  0.83309994  1
  Pb  Pb52  1  0.50044765  0.16469253  0.83177782  1
  Pb  Pb53  1  0.83317998  0.50360369  0.16649020  1
  I  I54  1  0.16791333  -0.00037752  0.16125616  1
  I  I55  1  0.17113153  0.00006229  0.50533265  1
  I  I56  1  0.16575814  0.00276821  0.83023292  1
  I  I57  1  0.16601134  0.33326653  0.17362515  1
  I  I58  1  0.16731887  0.32969530  0.50281271  1
  I  I59  1  0.16099213  0.33132323  0.82442120  1
  I  I60  1  0.16639998  0.66712573  0.16655391  1
  I  I61  1  0.16747650  0.66931237  0.50142034  1
  I  I62  1  0.16775519  0.66562157  0.83107797  1
  I  I63  1  0.50396296  -0.00445346  0.16947638  1
  I  I64  1  0.49954714  -0.00129755  0.49963804  1
  I  I65  1  0.49892095  -0.00381723  0.83002864  1
  I  I66  1  0.49911035  0.33341620  0.16758762  1
  I  I67  1  0.49879333  0.33225769  0.50256092  1
  I  I68  1  0.50198399  0.33319959  0.83062981  1
  I  I69  1  0.50441950  0.67138646  0.16938471  1
  I  I70  1  0.49937797  0.66923035  0.49944048  1
  I  I71  1  0.50439286  0.67127435  0.82976887  1
  I  I72  1  0.82851774  -0.00387228  0.16843307  1
  I  I73  1  0.82985654  -0.00128078  0.50040866  1
  I  I74  1  0.83574112  -0.00107281  0.83148834  1
  I  I75  1  0.83463152  0.33315943  0.16766150  1
  I  I76  1  0.83361988  0.32933103  0.50643921  1
  I  I77  1  0.83665357  0.32943184  0.82506337  1
  I  I78  1  0.82850454  0.67222880  0.16809496  1
  I  I79  1  0.83295002  0.67045414  0.50008833  1
  I  I80  1  0.83089015  0.67034951  0.83240259  1
  I  I81  1  0.16087625  0.16924939  -0.00385245  1
  I  I82  1  0.16713065  0.16042423  0.33755748  1
  I  I83  1  0.16630444  0.16583446  0.66555156  1
  I  I84  1  0.16649126  0.49694121  -0.00496739  1
  I  I85  1  0.16780683  0.50116645  0.33344826  1
  I  I86  1  0.16739721  0.49990808  0.66896840  1
  I  I87  1  0.16778309  0.83232222  -0.00013467  1
  I  I88  1  0.16818304  0.83889983  0.33859982  1
  I  I89  1  0.16894764  0.83416396  0.66307869  1
  I  I90  1  0.49877253  0.16470005  -0.00007386  1
  I  I91  1  0.49972103  0.16385155  0.33884190  1
  I  I92  1  0.49919737  0.16241346  0.66292361  1
  I  I93  1  0.49839313  0.50118630  -0.00003327  1
  I  I94  1  0.49811529  0.50179719  0.33753917  1
  I  I95  1  0.49979714  0.50427137  0.66329680  1
  I  I96  1  0.50689251  0.83314173  -0.00047217  1
  I  I97  1  0.50267724  0.83335440  0.33519518  1
  I  I98  1  0.50207554  0.83322869  0.66508079  1
  I  I99  1  0.84074832  0.16047738  -0.00370342  1
  I  I100  1  0.83281136  0.16165480  0.33698532  1
  I  I101  1  0.83431549  0.15760809  0.66578097  1
  I  I102  1  0.83432744  0.50019099  -0.00027695  1
  I  I103  1  0.83427349  0.49939170  0.33361295  1
  I  I104  1  0.83241985  0.50729944  0.66661262  1
  I  I105  1  0.82630634  0.83673481  -0.00105329  1
  I  I106  1  0.82937706  0.83735797  0.33494279  1
  I  I107  1  0.82992495  0.83663293  0.66604312  1
  I  I108  1  -0.00019317  0.16310194  0.17127246  1
  I  I109  1  -0.00017522  0.15667985  0.50518923  1
  I  I110  1  -0.00038396  0.16335027  0.82438014  1
  I  I111  1  0.00013280  0.50283553  0.16929069  1
  I  I112  1  0.00009744  0.50270914  0.50060722  1
  I  I113  1  0.00293481  0.50297722  0.83007902  1
  I  I114  1  -0.00335755  0.83431997  0.16531863  1
  I  I115  1  -0.00089316  0.83990545  0.50063736  1
  I  I116  1  -0.00302692  0.83330229  0.83344494  1
  I  I117  1  0.33346219  0.16340320  0.16630785  1
  I  I118  1  0.33315724  0.16154340  0.50406340  1
  I  I119  1  0.33086370  0.16773478  0.82785814  1
  I  I120  1  0.33366215  0.50359944  0.16780196  1
  I  I121  1  0.33640790  0.50369201  0.50167173  1
  I  I122  1  0.33017906  0.49522060  0.83044127  1
  I  I123  1  0.33634692  0.83262944  0.16666387  1
  I  I124  1  0.33453116  0.83554743  0.50047354  1
  I  I125  1  0.33556051  0.83267941  0.83190864  1
  I  I126  1  0.66667653  0.16798124  0.16650021  1
  I  I127  1  0.66707048  0.16170260  0.50405930  1
  I  I128  1  0.66970169  0.16154142  0.82730501  1
  I  I129  1  0.66636383  0.49710360  0.16565389  1
  I  I130  1  0.66302010  0.50357793  0.50087946  1
  I  I131  1  0.66635576  0.49885884  0.83306179  1
  I  I132  1  0.66656492  0.83400247  0.17250307  1
  I  I133  1  0.66641639  0.83502205  0.49954471  1
  I  I134  1  0.66746859  0.83771678  0.82866734  1
