# generated using pymatgen
data_Cs27Sn14Pb13I81
_symmetry_space_group_name_H-M   'P 1'
_cell_length_a   18.97246974
_cell_length_b   18.97429829
_cell_length_c   18.97801706
_cell_angle_alpha   90.00010956
_cell_angle_beta   90.00056094
_cell_angle_gamma   89.99987954
_symmetry_Int_Tables_number   1
_chemical_formula_structural   Cs27Sn14Pb13I81
_chemical_formula_sum   'Cs27 Sn14 Pb13 I81'
_cell_volume   6831.88308053
_cell_formula_units_Z   1
loop_
 _symmetry_equiv_pos_site_id
 _symmetry_equiv_pos_as_xyz
  1  'x, y, z'
loop_
 _atom_site_type_symbol
 _atom_site_label
 _atom_site_symmetry_multiplicity
 _atom_site_fract_x
 _atom_site_fract_y
 _atom_site_fract_z
 _atom_site_occupancy
  Cs  Cs0  1  -0.00035848  0.00127652  -0.00215667  1
  Cs  Cs1  1  -0.00071727  0.00068286  0.33368380  1
  Cs  Cs2  1  -0.00195627  -0.00281504  0.66969944  1
  Cs  Cs3  1  0.00010362  0.33136317  0.00091466  1
  Cs  Cs4  1  0.00319139  0.33308633  0.33464283  1
  Cs  Cs5  1  -0.00160145  0.33591746  0.66446521  1
  Cs  Cs6  1  0.00291562  0.66818194  0.00042632  1
  Cs  Cs7  1  -0.00004865  0.66664141  0.33506930  1
  Cs  Cs8  1  -0.00021445  0.66686819  0.66454130  1
  Cs  Cs9  1  0.33035172  -0.00284065  -0.00514900  1
  Cs  Cs10  1  0.33406608  0.00322150  0.33801618  1
  Cs  Cs11  1  0.34354134  -0.00193280  0.66697949  1
  Cs  Cs12  1  0.33346728  0.33416869  0.00268319  1
  Cs  Cs13  1  0.33139599  0.33344188  0.33294970  1
  Cs  Cs14  1  0.33602862  0.32976687  0.66352668  1
  Cs  Cs15  1  0.33016271  0.66773884  -0.00255618  1
  Cs  Cs16  1  0.33480173  0.66493259  0.33272467  1
  Cs  Cs17  1  0.33237571  0.67186031  0.67086669  1
  Cs  Cs18  1  0.66966125  0.00024700  0.00298326  1
  Cs  Cs19  1  0.66747206  -0.00388211  0.33425278  1
  Cs  Cs20  1  0.66594584  0.00283918  0.66353133  1
  Cs  Cs21  1  0.66604261  0.33461285  -0.00017371  1
  Cs  Cs22  1  0.66648433  0.33539219  0.33023103  1
  Cs  Cs23  1  0.66713582  0.33432601  0.67174971  1
  Cs  Cs24  1  0.66357884  0.66445686  0.00401410  1
  Cs  Cs25  1  0.66383206  0.66842111  0.32999082  1
  Cs  Cs26  1  0.66707486  0.66092896  0.66823343  1
  Sn  Sn27  1  0.16644246  0.50068311  0.16624707  1
  Sn  Sn28  1  0.16645847  0.83309363  0.16802631  1
  Sn  Sn29  1  0.16624717  0.83357913  0.49905056  1
  Sn  Sn30  1  0.83269989  0.16761985  0.16697586  1
  Sn  Sn31  1  0.49969920  0.49913546  0.16744917  1
  Sn  Sn32  1  0.83419639  0.16608661  0.83318394  1
  Sn  Sn33  1  0.49995315  0.49997352  0.49960814  1
  Sn  Sn34  1  0.16629247  0.49844895  0.83362986  1
  Sn  Sn35  1  0.50057702  0.16680826  0.16648243  1
  Sn  Sn36  1  0.83384210  0.49939491  0.16676633  1
  Sn  Sn37  1  0.16614764  0.16773524  0.83284495  1
  Sn  Sn38  1  0.83328713  0.83359315  0.83264911  1
  Sn  Sn39  1  0.83371450  0.16650392  0.49985495  1
  Sn  Sn40  1  0.83401023  0.83381789  0.50086636  1
  Pb  Pb41  1  0.50293234  0.16893869  0.49740751  1
  Pb  Pb42  1  0.16512491  0.83361666  0.83293397  1
  Pb  Pb43  1  0.50060958  0.16668257  0.83604203  1
  Pb  Pb44  1  0.83536676  0.49992500  0.83580993  1
  Pb  Pb45  1  0.49696330  0.49985601  0.83399498  1
  Pb  Pb46  1  0.50076863  0.83104443  0.49992389  1
  Pb  Pb47  1  0.83165096  0.50026431  0.49754467  1
  Pb  Pb48  1  0.83507731  0.83360804  0.16688622  1
  Pb  Pb49  1  0.49676820  0.83373407  0.16662505  1
  Pb  Pb50  1  0.50443875  0.83348951  0.83345693  1
  Pb  Pb51  1  0.16854829  0.50178838  0.50005233  1
  Pb  Pb52  1  0.16656895  0.16660205  0.16546440  1
  Pb  Pb53  1  0.16466995  0.16406880  0.50326271  1
  I  I54  1  0.16518931  -0.00223536  0.16784011  1
  I  I55  1  0.16484278  -0.00377370  0.49291468  1
  I  I56  1  0.16296839  0.00230976  0.83585286  1
  I  I57  1  0.16675620  0.33610426  0.16360834  1
  I  I58  1  0.16596983  0.33317364  0.49809920  1
  I  I59  1  0.16070581  0.33336484  0.84063330  1
  I  I60  1  0.16593738  0.66516988  0.16372314  1
  I  I61  1  0.15964506  0.66964612  0.50043198  1
  I  I62  1  0.16601824  0.66469650  0.83581657  1
  I  I63  1  0.50593042  0.00307092  0.16531747  1
  I  I64  1  0.49792337  0.00019607  0.49888225  1
  I  I65  1  0.49219036  0.00030170  0.83541785  1
  I  I66  1  0.49936677  0.33446587  0.17006951  1
  I  I67  1  0.49982389  0.33655111  0.49702210  1
  I  I68  1  0.50454471  0.33337805  0.83114888  1
  I  I69  1  0.50377193  0.66325798  0.17010367  1
  I  I70  1  0.50204887  0.66340986  0.49133171  1
  I  I71  1  0.49906571  0.66639579  0.83557006  1
  I  I72  1  0.83050122  0.00298717  0.16602368  1
  I  I73  1  0.83703925  0.00012636  0.49819516  1
  I  I74  1  0.84007457  0.00140685  0.83587156  1
  I  I75  1  0.83429899  0.33271862  0.16626856  1
  I  I76  1  0.83121972  0.33063696  0.50251125  1
  I  I77  1  0.83528303  0.33030843  0.83125556  1
  I  I78  1  0.83120505  0.66416625  0.16646323  1
  I  I79  1  0.83627181  0.66952293  0.50373862  1
  I  I80  1  0.83593629  0.66897306  0.82929818  1
  I  I81  1  0.16082062  0.16549292  -0.00236388  1
  I  I82  1  0.16581548  0.16821946  0.33353353  1
  I  I83  1  0.16047308  0.17272361  0.67107761  1
  I  I84  1  0.16812191  0.50287562  0.00168946  1
  I  I85  1  0.16537315  0.50244992  0.33011828  1
  I  I86  1  0.16730928  0.49822001  0.66922932  1
  I  I87  1  0.16551529  0.83139759  0.00192155  1
  I  I88  1  0.16032185  0.82731539  0.33297372  1
  I  I89  1  0.16324913  0.83204226  0.66443256  1
  I  I90  1  0.50562141  0.17457747  0.00390886  1
  I  I91  1  0.50394066  0.16877558  0.32944639  1
  I  I92  1  0.49987494  0.16817859  0.66649498  1
  I  I93  1  0.50240961  0.49604550  0.00382317  1
  I  I94  1  0.49834164  0.49684537  0.33097776  1
  I  I95  1  0.50007320  0.50202636  0.66434518  1
  I  I96  1  0.49873674  0.83053221  0.00034291  1
  I  I97  1  0.50466296  0.83443713  0.33313050  1
  I  I98  1  0.49286824  0.83049494  0.66649141  1
  I  I99  1  0.83345259  0.16607798  0.00017915  1
  I  I100  1  0.82870725  0.16589451  0.33263941  1
  I  I101  1  0.83866953  0.16127387  0.66708056  1
  I  I102  1  0.82887470  0.49677447  0.00398407  1
  I  I103  1  0.83811147  0.49637409  0.32935580  1
  I  I104  1  0.83239720  0.49828903  0.66667202  1
  I  I105  1  0.83617204  0.83694324  -0.00186735  1
  I  I106  1  0.83583925  0.83632225  0.33573322  1
  I  I107  1  0.84034694  0.84109967  0.66606357  1
  I  I108  1  -0.00308822  0.16945120  0.16732694  1
  I  I109  1  -0.00374933  0.16689081  0.49347522  1
  I  I110  1  -0.00141207  0.16627916  0.83749241  1
  I  I111  1  0.00040212  0.49989288  0.16202091  1
  I  I112  1  -0.00009172  0.49914516  0.49859416  1
  I  I113  1  0.00317136  0.49912461  0.83947313  1
  I  I114  1  0.00287737  0.82865301  0.16720354  1
  I  I115  1  -0.00089569  0.83530809  0.49951291  1
  I  I116  1  -0.00273867  0.83539195  0.83287225  1
  I  I117  1  0.33535566  0.17033107  0.16460791  1
  I  I118  1  0.33344647  0.16543044  0.50010945  1
  I  I119  1  0.33054398  0.17073176  0.83654774  1
  I  I120  1  0.33308044  0.49974619  0.16668161  1
  I  I121  1  0.33612327  0.50111684  0.49328854  1
  I  I122  1  0.32895771  0.49585885  0.83955608  1
  I  I123  1  0.32865396  0.82914192  0.17108795  1
  I  I124  1  0.33067231  0.83069399  0.49561905  1
  I  I125  1  0.33292570  0.83343825  0.83327374  1
  I  I126  1  0.66834824  0.17458195  0.16433543  1
  I  I127  1  0.67112072  0.15983711  0.50481025  1
  I  I128  1  0.67053946  0.16222565  0.83172250  1
  I  I129  1  0.66675036  0.49577548  0.17076730  1
  I  I130  1  0.66398977  0.50162959  0.49330448  1
  I  I131  1  0.66684601  0.50089037  0.83427107  1
  I  I132  1  0.66687996  0.83028589  0.16604961  1
  I  I133  1  0.67038113  0.83730239  0.50401393  1
  I  I134  1  0.67249194  0.83982218  0.82797869  1
