# generated using pymatgen
data_Cs27Sn13Pb14I81
_symmetry_space_group_name_H-M   'P 1'
_cell_length_a   18.97693324
_cell_length_b   18.97821951
_cell_length_c   18.97409323
_cell_angle_alpha   89.99805310
_cell_angle_beta   89.99883066
_cell_angle_gamma   90.00223155
_symmetry_Int_Tables_number   1
_chemical_formula_structural   Cs27Sn13Pb14I81
_chemical_formula_sum   'Cs27 Sn13 Pb14 I81'
_cell_volume   6833.48939770
_cell_formula_units_Z   1
loop_
 _symmetry_equiv_pos_site_id
 _symmetry_equiv_pos_as_xyz
  1  'x, y, z'
loop_
 _atom_site_type_symbol
 _atom_site_label
 _atom_site_symmetry_multiplicity
 _atom_site_fract_x
 _atom_site_fract_y
 _atom_site_fract_z
 _atom_site_occupancy
  Cs  Cs0  1  0.00316563  0.00253328  -0.00171642  1
  Cs  Cs1  1  -0.00789324  -0.00030098  0.33459524  1
  Cs  Cs2  1  -0.00169097  -0.00145881  0.66630799  1
  Cs  Cs3  1  -0.00400878  0.33230381  0.00200238  1
  Cs  Cs4  1  0.00027454  0.33380468  0.32869150  1
  Cs  Cs5  1  0.00102294  0.33163397  0.66705964  1
  Cs  Cs6  1  0.00112621  0.66612207  0.00044687  1
  Cs  Cs7  1  -0.00160719  0.66777589  0.33778507  1
  Cs  Cs8  1  0.00362884  0.67023535  0.66201838  1
  Cs  Cs9  1  0.33193364  -0.00135023  -0.00024933  1
  Cs  Cs10  1  0.33766779  0.00534201  0.32830824  1
  Cs  Cs11  1  0.33361196  -0.00016780  0.66830300  1
  Cs  Cs12  1  0.33190510  0.33397647  -0.00021457  1
  Cs  Cs13  1  0.33388679  0.33232943  0.33295109  1
  Cs  Cs14  1  0.33328691  0.33291078  0.66673738  1
  Cs  Cs15  1  0.33397471  0.66679070  -0.00118250  1
  Cs  Cs16  1  0.33294548  0.66490962  0.33470362  1
  Cs  Cs17  1  0.33377414  0.66635267  0.66604581  1
  Cs  Cs18  1  0.66616040  -0.00275210  0.00530400  1
  Cs  Cs19  1  0.66940673  0.00444475  0.32969656  1
  Cs  Cs20  1  0.66657025  0.00245547  0.66476966  1
  Cs  Cs21  1  0.67972439  0.33913628  -0.00330749  1
  Cs  Cs22  1  0.66626025  0.32923952  0.33610498  1
  Cs  Cs23  1  0.66871477  0.33254670  0.66679054  1
  Cs  Cs24  1  0.66844903  0.66470748  0.00244070  1
  Cs  Cs25  1  0.66714534  0.66734190  0.33096095  1
  Cs  Cs26  1  0.66282756  0.66474146  0.66774870  1
  Sn  Sn27  1  0.83234665  0.50020015  0.50029401  1
  Sn  Sn28  1  0.83305790  0.83309464  0.83323849  1
  Sn  Sn29  1  0.16687623  0.50006034  0.83388410  1
  Sn  Sn30  1  0.16698822  0.83250069  0.16654706  1
  Sn  Sn31  1  0.50074135  0.50059712  0.49924079  1
  Sn  Sn32  1  0.16765105  0.16662739  0.83219164  1
  Sn  Sn33  1  0.16778088  0.50131323  0.16583528  1
  Sn  Sn34  1  0.16689257  0.16630945  0.50040661  1
  Sn  Sn35  1  0.49956486  0.83322107  0.50007605  1
  Sn  Sn36  1  0.49952152  0.16623369  0.83385107  1
  Sn  Sn37  1  0.49931911  0.49968154  0.16720283  1
  Sn  Sn38  1  0.50021803  0.83414007  0.83265508  1
  Sn  Sn39  1  0.16680951  0.83318257  0.83379166  1
  Pb  Pb40  1  0.16896056  0.83572798  0.49946116  1
  Pb  Pb41  1  0.16732681  0.49851305  0.49961191  1
  Pb  Pb42  1  0.49855656  0.49992691  0.83335954  1
  Pb  Pb43  1  0.83308665  0.16653673  0.16649388  1
  Pb  Pb44  1  0.49810858  0.83159165  0.16643988  1
  Pb  Pb45  1  0.83638530  0.83306902  0.16430741  1
  Pb  Pb46  1  0.83014499  0.83169049  0.50208278  1
  Pb  Pb47  1  0.50007491  0.17028258  0.16267349  1
  Pb  Pb48  1  0.83683063  0.50255522  0.83094220  1
  Pb  Pb49  1  0.83605958  0.16895852  0.50035898  1
  Pb  Pb50  1  0.49846388  0.16674874  0.50181518  1
  Pb  Pb51  1  0.83331248  0.16407437  0.83327302  1
  Pb  Pb52  1  0.16667321  0.16661492  0.16613292  1
  Pb  Pb53  1  0.83370123  0.50027502  0.16914225  1
  I  I54  1  0.16715708  -0.00284609  0.16187532  1
  I  I55  1  0.16901418  0.00305735  0.50589697  1
  I  I56  1  0.16729759  -0.00086943  0.83369845  1
  I  I57  1  0.16975473  0.33658987  0.16408739  1
  I  I58  1  0.16827927  0.33095299  0.50570451  1
  I  I59  1  0.17243812  0.33318405  0.83234090  1
  I  I60  1  0.17027231  0.66601392  0.15787003  1
  I  I61  1  0.16557352  0.66673374  0.50266606  1
  I  I62  1  0.16731145  0.66734146  0.83756549  1
  I  I63  1  0.49810852  0.00003033  0.16922338  1
  I  I64  1  0.49602796  -0.00257087  0.50434552  1
  I  I65  1  0.49424691  -0.00150050  0.82715336  1
  I  I66  1  0.49114046  0.33811470  0.17335179  1
  I  I67  1  0.50160137  0.33630471  0.49786860  1
  I  I68  1  0.49261026  0.33123963  0.83291642  1
  I  I69  1  0.49664718  0.66356891  0.16585875  1
  I  I70  1  0.50148793  0.66620576  0.50358413  1
  I  I71  1  0.49776572  0.66943950  0.83183860  1
  I  I72  1  0.83521264  -0.00059196  0.16737974  1
  I  I73  1  0.83379368  -0.00018793  0.50077692  1
  I  I74  1  0.83880786  -0.00373560  0.83199122  1
  I  I75  1  0.83645506  0.33405211  0.16501663  1
  I  I76  1  0.82633331  0.33694977  0.50099856  1
  I  I77  1  0.83313864  0.33367095  0.83303281  1
  I  I78  1  0.83249162  0.66656930  0.16575990  1
  I  I79  1  0.83465631  0.66375130  0.50102500  1
  I  I80  1  0.83191056  0.67015784  0.83286847  1
  I  I81  1  0.17033979  0.16588429  -0.00369836  1
  I  I82  1  0.16701209  0.16869236  0.33559753  1
  I  I83  1  0.17012609  0.16799786  0.66893830  1
  I  I84  1  0.17249297  0.49969428  -0.00039587  1
  I  I85  1  0.16727531  0.50271441  0.33064040  1
  I  I86  1  0.16709254  0.50237604  0.66929271  1
  I  I87  1  0.16862013  0.83415947  -0.00214672  1
  I  I88  1  0.16922776  0.82824423  0.33075769  1
  I  I89  1  0.16578806  0.83056492  0.66997752  1
  I  I90  1  0.49054281  0.15927723  -0.00506431  1
  I  I91  1  0.49766635  0.16458090  0.33318188  1
  I  I92  1  0.49607399  0.16704746  0.66994070  1
  I  I93  1  0.49525139  0.50016219  0.00205108  1
  I  I94  1  0.49699153  0.50587834  0.33412579  1
  I  I95  1  0.50105823  0.50143259  0.66440625  1
  I  I96  1  0.50016960  0.83584120  -0.00350760  1
  I  I97  1  0.49623857  0.82939180  0.33574997  1
  I  I98  1  0.49709808  0.83010332  0.66809649  1
  I  I99  1  0.83597991  0.16891632  -0.00073432  1
  I  I100  1  0.83622957  0.16633787  0.33382609  1
  I  I101  1  0.83323893  0.16783684  0.66690598  1
  I  I102  1  0.83090822  0.50021023  -0.00024917  1
  I  I103  1  0.83512278  0.50098538  0.33678896  1
  I  I104  1  0.82722267  0.50029749  0.66365950  1
  I  I105  1  0.82819781  0.83227211  -0.00409725  1
  I  I106  1  0.83491581  0.83243113  0.33354427  1
  I  I107  1  0.84041760  0.83225936  0.67003554  1
  I  I108  1  0.00077177  0.16930374  0.16515269  1
  I  I109  1  0.00412848  0.16770909  0.50696112  1
  I  I110  1  0.00366089  0.16624574  0.83050383  1
  I  I111  1  0.00359474  0.50239376  0.16364925  1
  I  I112  1  -0.00125140  0.49772719  0.50159804  1
  I  I113  1  0.00504062  0.49855734  0.83757016  1
  I  I114  1  0.00485876  0.82729880  0.16199422  1
  I  I115  1  0.00027268  0.83217606  0.50092362  1
  I  I116  1  0.00184854  0.83276369  0.83775068  1
  I  I117  1  0.33326725  0.16586992  0.16877078  1
  I  I118  1  0.33059497  0.16957411  0.50355140  1
  I  I119  1  0.33193246  0.16229710  0.82952464  1
  I  I120  1  0.33233156  0.50369360  0.16867544  1
  I  I121  1  0.33598331  0.50251075  0.49960917  1
  I  I122  1  0.33024934  0.50381521  0.83199030  1
  I  I123  1  0.33009077  0.83109128  0.15997613  1
  I  I124  1  0.33653919  0.82547718  0.50721881  1
  I  I125  1  0.33276811  0.83396966  0.83334881  1
  I  I126  1  0.66598356  0.16749919  0.16584259  1
  I  I127  1  0.66642743  0.16597936  0.50201272  1
  I  I128  1  0.66344769  0.16323887  0.83298173  1
  I  I129  1  0.66373526  0.49993203  0.16759801  1
  I  I130  1  0.66477135  0.50414729  0.49571030  1
  I  I131  1  0.66670295  0.49960805  0.83581682  1
  I  I132  1  0.66639720  0.83138022  0.16493997  1
  I  I133  1  0.66211753  0.83149194  0.50620384  1
  I  I134  1  0.66518570  0.83770184  0.82739570  1
