# generated using pymatgen
data_Cs27Sn13Pb14I81
_symmetry_space_group_name_H-M   'P 1'
_cell_length_a   18.97605979
_cell_length_b   18.97917666
_cell_length_c   18.97535701
_cell_angle_alpha   90.00063070
_cell_angle_beta   89.99622295
_cell_angle_gamma   90.00050835
_symmetry_Int_Tables_number   1
_chemical_formula_structural   Cs27Sn13Pb14I81
_chemical_formula_sum   'Cs27 Sn13 Pb14 I81'
_cell_volume   6833.97464426
_cell_formula_units_Z   1
loop_
 _symmetry_equiv_pos_site_id
 _symmetry_equiv_pos_as_xyz
  1  'x, y, z'
loop_
 _atom_site_type_symbol
 _atom_site_label
 _atom_site_symmetry_multiplicity
 _atom_site_fract_x
 _atom_site_fract_y
 _atom_site_fract_z
 _atom_site_occupancy
  Cs  Cs0  1  -0.00118715  -0.00116071  -0.00248437  1
  Cs  Cs1  1  0.00386864  0.00428525  0.33771066  1
  Cs  Cs2  1  0.00800394  -0.00330181  0.66438305  1
  Cs  Cs3  1  -0.00178443  0.33429473  0.00181836  1
  Cs  Cs4  1  -0.00134450  0.33331873  0.33415295  1
  Cs  Cs5  1  0.00022167  0.33236926  0.66389660  1
  Cs  Cs6  1  0.00162529  0.66757707  0.00097061  1
  Cs  Cs7  1  0.00381632  0.66422982  0.32996926  1
  Cs  Cs8  1  -0.00433778  0.66968716  0.66934239  1
  Cs  Cs9  1  0.33290730  0.00394237  -0.00315185  1
  Cs  Cs10  1  0.33451833  -0.00200628  0.33658752  1
  Cs  Cs11  1  0.32375556  0.00051617  0.66391577  1
  Cs  Cs12  1  0.33645662  0.33141056  -0.00353718  1
  Cs  Cs13  1  0.33487051  0.33491035  0.33275045  1
  Cs  Cs14  1  0.33324942  0.33370725  0.66966299  1
  Cs  Cs15  1  0.33253482  0.66564512  0.00160918  1
  Cs  Cs16  1  0.33220235  0.66693764  0.33257022  1
  Cs  Cs17  1  0.33665394  0.66437289  0.66457672  1
  Cs  Cs18  1  0.66723873  0.00094565  0.00242394  1
  Cs  Cs19  1  0.66439133  -0.00053302  0.33143973  1
  Cs  Cs20  1  0.66983856  -0.00936125  0.66231163  1
  Cs  Cs21  1  0.66618554  0.33227583  -0.00045360  1
  Cs  Cs22  1  0.66719142  0.33314533  0.33313536  1
  Cs  Cs23  1  0.66642153  0.33533013  0.66725509  1
  Cs  Cs24  1  0.66685961  0.66668996  -0.00061451  1
  Cs  Cs25  1  0.66571686  0.66613666  0.33392678  1
  Cs  Cs26  1  0.66704319  0.66941931  0.66561812  1
  Sn  Sn27  1  0.50053909  0.16750387  0.50043258  1
  Sn  Sn28  1  0.83295344  0.16695554  0.83330993  1
  Sn  Sn29  1  0.16608768  0.16694512  0.16631616  1
  Sn  Sn30  1  0.50061239  0.83247944  0.16526812  1
  Sn  Sn31  1  0.50081326  0.50053930  0.16716582  1
  Sn  Sn32  1  0.16563141  0.49989775  0.83259453  1
  Sn  Sn33  1  0.16718680  0.49976123  0.50109842  1
  Sn  Sn34  1  0.83433853  0.16665338  0.16602167  1
  Sn  Sn35  1  0.83237708  0.50016998  0.16581367  1
  Sn  Sn36  1  0.49944970  0.49873710  0.49913635  1
  Sn  Sn37  1  0.83411238  0.49905996  0.83420267  1
  Sn  Sn38  1  0.49964390  0.83357509  0.83435385  1
  Sn  Sn39  1  0.83289334  0.83320090  0.16670612  1
  Pb  Pb40  1  0.50045479  0.16660585  0.16762763  1
  Pb  Pb41  1  0.83365464  0.83328621  0.49636139  1
  Pb  Pb42  1  0.16657239  0.82989028  0.49983313  1
  Pb  Pb43  1  0.16700232  0.83620899  0.16649527  1
  Pb  Pb44  1  0.83139879  0.16668051  0.50028650  1
  Pb  Pb45  1  0.16691314  0.49835534  0.16634745  1
  Pb  Pb46  1  0.16887508  0.16926417  0.49799589  1
  Pb  Pb47  1  0.83197872  0.83329009  0.83531807  1
  Pb  Pb48  1  0.83315749  0.50004681  0.50006314  1
  Pb  Pb49  1  0.50066224  0.50109873  0.83346842  1
  Pb  Pb50  1  0.16413820  0.16899934  0.83516566  1
  Pb  Pb51  1  0.50276328  0.16375082  0.83029964  1
  Pb  Pb52  1  0.49988430  0.83278157  0.49946409  1
  Pb  Pb53  1  0.16936772  0.83051323  0.83366947  1
  I  I54  1  0.16312666  0.00394888  0.16689759  1
  I  I55  1  0.16881470  0.00049203  0.49853784  1
  I  I56  1  0.16639062  0.00025687  0.83428153  1
  I  I57  1  0.16238823  0.33087325  0.16730616  1
  I  I58  1  0.16913850  0.33703454  0.50267030  1
  I  I59  1  0.16722343  0.33702899  0.83064762  1
  I  I60  1  0.16464671  0.66634020  0.16773104  1
  I  I61  1  0.17459934  0.66164069  0.50061408  1
  I  I62  1  0.15946827  0.66228443  0.83122276  1
  I  I63  1  0.50341765  -0.00245893  0.16565335  1
  I  I64  1  0.50243224  0.00211050  0.49812144  1
  I  I65  1  0.50302560  -0.00352143  0.84073826  1
  I  I66  1  0.50277401  0.33613377  0.16968156  1
  I  I67  1  0.49735668  0.33524491  0.49338959  1
  I  I68  1  0.49857138  0.33334325  0.83537954  1
  I  I69  1  0.50687168  0.66564370  0.16873309  1
  I  I70  1  0.49614768  0.66334685  0.49820520  1
  I  I71  1  0.50205041  0.66881142  0.83368219  1
  I  I72  1  0.83164678  0.00042276  0.16276188  1
  I  I73  1  0.82896865  0.00016541  0.50030561  1
  I  I74  1  0.82897376  0.00249507  0.83895814  1
  I  I75  1  0.83281408  0.33396841  0.16313463  1
  I  I76  1  0.83345975  0.33354686  0.49484242  1
  I  I77  1  0.83542033  0.33440845  0.84211613  1
  I  I78  1  0.82803559  0.66552823  0.16336984  1
  I  I79  1  0.83045924  0.66624027  0.50163273  1
  I  I80  1  0.83577754  0.66355128  0.83693989  1
  I  I81  1  0.16691418  0.16962457  0.00310421  1
  I  I82  1  0.15940695  0.16905053  0.33019389  1
  I  I83  1  0.16634256  0.16583640  0.66664653  1
  I  I84  1  0.16559311  0.49879802  -0.00224254  1
  I  I85  1  0.16831891  0.49825095  0.33509719  1
  I  I86  1  0.16828961  0.49908420  0.66662351  1
  I  I87  1  0.16623572  0.82964721  0.00020887  1
  I  I88  1  0.16846141  0.83118247  0.33288354  1
  I  I89  1  0.16904193  0.83675179  0.66686152  1
  I  I90  1  0.49807664  0.16889031  -0.00007794  1
  I  I91  1  0.50157984  0.16743914  0.33538922  1
  I  I92  1  0.50113131  0.17424000  0.66302426  1
  I  I93  1  0.50078891  0.50236325  0.00284419  1
  I  I94  1  0.49996685  0.50176582  0.33236873  1
  I  I95  1  0.49892507  0.49866361  0.66435323  1
  I  I96  1  0.50421360  0.82700141  0.00194355  1
  I  I97  1  0.50464820  0.83221394  0.32997785  1
  I  I98  1  0.50117288  0.83187043  0.66885749  1
  I  I99  1  0.83577279  0.16833727  0.00152146  1
  I  I100  1  0.83556384  0.16792272  0.32967034  1
  I  I101  1  0.82959228  0.17406024  0.66989087  1
  I  I102  1  0.83310833  0.49922583  0.00112569  1
  I  I103  1  0.83230249  0.49949739  0.32979892  1
  I  I104  1  0.83374864  0.49490388  0.66985911  1
  I  I105  1  0.83004983  0.83291361  0.00362977  1
  I  I106  1  0.82471129  0.83236236  0.32762593  1
  I  I107  1  0.82981053  0.83227544  0.66714726  1
  I  I108  1  -0.00204160  0.16814766  0.16392068  1
  I  I109  1  0.00015512  0.16809013  0.49973203  1
  I  I110  1  -0.00401536  0.16803552  0.83594507  1
  I  I111  1  -0.00293589  0.50207633  0.16636042  1
  I  I112  1  0.00249289  0.50006203  0.49956938  1
  I  I113  1  -0.00115727  0.49670118  0.83425477  1
  I  I114  1  -0.00334896  0.82883249  0.16651905  1
  I  I115  1  0.00009607  0.83288289  0.49944736  1
  I  I116  1  -0.00017787  0.83419545  0.83449385  1
  I  I117  1  0.33180363  0.16812636  0.16980051  1
  I  I118  1  0.33671935  0.16827653  0.49682540  1
  I  I119  1  0.33342125  0.16742371  0.83519895  1
  I  I120  1  0.33616257  0.50273541  0.16788690  1
  I  I121  1  0.33452126  0.49661621  0.49931951  1
  I  I122  1  0.33166721  0.50272710  0.83286146  1
  I  I123  1  0.33689128  0.82861126  0.16479144  1
  I  I124  1  0.33371938  0.83569582  0.49719924  1
  I  I125  1  0.33735880  0.83157164  0.84054663  1
  I  I126  1  0.66969167  0.16714123  0.16479190  1
  I  I127  1  0.66352670  0.17383316  0.49660706  1
  I  I128  1  0.67035097  0.17525874  0.84237019  1
  I  I129  1  0.66704558  0.49872769  0.16688960  1
  I  I130  1  0.66361510  0.49730023  0.49799669  1
  I  I131  1  0.66953473  0.49783942  0.83516575  1
  I  I132  1  0.66639373  0.83409515  0.16319802  1
  I  I133  1  0.66631271  0.83075098  0.50266198  1
  I  I134  1  0.66405003  0.83015747  0.83516354  1
