# generated using pymatgen
data_Cs27Sn14Pb13I81
_symmetry_space_group_name_H-M   'P 1'
_cell_length_a   18.96284508
_cell_length_b   18.99240426
_cell_length_c   18.97455432
_cell_angle_alpha   89.99970473
_cell_angle_beta   89.99861342
_cell_angle_gamma   90.00016833
_symmetry_Int_Tables_number   1
_chemical_formula_structural   Cs27Sn14Pb13I81
_chemical_formula_sum   'Cs27 Sn14 Pb13 I81'
_cell_volume   6833.68611280
_cell_formula_units_Z   1
loop_
 _symmetry_equiv_pos_site_id
 _symmetry_equiv_pos_as_xyz
  1  'x, y, z'
loop_
 _atom_site_type_symbol
 _atom_site_label
 _atom_site_symmetry_multiplicity
 _atom_site_fract_x
 _atom_site_fract_y
 _atom_site_fract_z
 _atom_site_occupancy
  Cs  Cs0  1  -0.00088833  0.00185672  -0.00097002  1
  Cs  Cs1  1  -0.00294161  0.00120537  0.33272386  1
  Cs  Cs2  1  0.00664947  0.00277192  0.66793543  1
  Cs  Cs3  1  -0.00049374  0.33289537  -0.00144140  1
  Cs  Cs4  1  0.00060190  0.33386638  0.33228470  1
  Cs  Cs5  1  0.00764218  0.34009077  0.67405704  1
  Cs  Cs6  1  0.00225594  0.66595134  0.00125195  1
  Cs  Cs7  1  -0.00095664  0.66453997  0.33327814  1
  Cs  Cs8  1  0.00727634  0.65746196  0.66669909  1
  Cs  Cs9  1  0.33310868  -0.00435365  0.00222425  1
  Cs  Cs10  1  0.33078130  -0.00124163  0.33237879  1
  Cs  Cs11  1  0.33208947  0.00132643  0.66531330  1
  Cs  Cs12  1  0.33573259  0.33448847  0.00361880  1
  Cs  Cs13  1  0.33345730  0.33191228  0.33136749  1
  Cs  Cs14  1  0.33244333  0.33213069  0.66586812  1
  Cs  Cs15  1  0.33248044  0.66979217  0.00182585  1
  Cs  Cs16  1  0.33204071  0.67004900  0.33049582  1
  Cs  Cs17  1  0.33372413  0.66647736  0.66772365  1
  Cs  Cs18  1  0.66771619  -0.00042935  -0.00175156  1
  Cs  Cs19  1  0.66900313  0.00058745  0.33664323  1
  Cs  Cs20  1  0.66573959  -0.00145157  0.66500067  1
  Cs  Cs21  1  0.66631933  0.33223887  -0.00050071  1
  Cs  Cs22  1  0.66675833  0.33136798  0.33357805  1
  Cs  Cs23  1  0.66636641  0.33385703  0.66726790  1
  Cs  Cs24  1  0.66583787  0.66870833  -0.00082703  1
  Cs  Cs25  1  0.66813413  0.66744053  0.33573811  1
  Cs  Cs26  1  0.66616183  0.66789184  0.66548951  1
  Sn  Sn27  1  0.50098783  0.83353777  0.83233707  1
  Sn  Sn28  1  0.83297208  0.83351489  0.16668059  1
  Sn  Sn29  1  0.83350737  0.83399894  0.50111851  1
  Sn  Sn30  1  0.50096408  0.16646257  0.50078161  1
  Sn  Sn31  1  0.83354033  0.49969320  0.16659840  1
  Sn  Sn32  1  0.16564575  0.16730522  0.16677945  1
  Sn  Sn33  1  0.50035816  0.50004302  0.50041953  1
  Sn  Sn34  1  0.83381568  0.16682461  0.16716661  1
  Sn  Sn35  1  0.50045050  0.16625371  0.83253361  1
  Sn  Sn36  1  0.50058680  0.83350764  0.50073928  1
  Sn  Sn37  1  0.83325224  0.16658411  0.50038990  1
  Sn  Sn38  1  0.83326392  0.83333177  0.83226657  1
  Sn  Sn39  1  0.50055577  0.50018164  0.83260580  1
  Sn  Sn40  1  0.16586187  0.49904287  0.16687607  1
  Pb  Pb41  1  0.83172886  0.16496623  0.83241007  1
  Pb  Pb42  1  0.16329114  0.83362538  0.16682308  1
  Pb  Pb43  1  0.83172606  0.49954777  0.49853538  1
  Pb  Pb44  1  0.50048466  0.16642564  0.16714510  1
  Pb  Pb45  1  0.16669452  0.83338128  0.83308400  1
  Pb  Pb46  1  0.16994872  0.16661337  0.83630778  1
  Pb  Pb47  1  0.16602932  0.16674518  0.49806116  1
  Pb  Pb48  1  0.83117312  0.50250423  0.83567748  1
  Pb  Pb49  1  0.16595642  0.83339353  0.50011287  1
  Pb  Pb50  1  0.50022323  0.50015296  0.16691337  1
  Pb  Pb51  1  0.50251422  0.83348460  0.16714214  1
  Pb  Pb52  1  0.16994564  0.49989189  0.49738888  1
  Pb  Pb53  1  0.16987851  0.49994744  0.83614201  1
  I  I54  1  0.16436821  0.00288526  0.16691527  1
  I  I55  1  0.17210267  0.00016451  0.49635644  1
  I  I56  1  0.16928861  0.00010295  0.83722604  1
  I  I57  1  0.15869843  0.33312497  0.16700757  1
  I  I58  1  0.16762308  0.33329194  0.49972194  1
  I  I59  1  0.16780079  0.33331450  0.83261223  1
  I  I60  1  0.16409625  0.66404638  0.16633816  1
  I  I61  1  0.16642269  0.66655307  0.49629242  1
  I  I62  1  0.16855715  0.66653552  0.83716646  1
  I  I63  1  0.49766548  0.00009071  0.16479191  1
  I  I64  1  0.50444003  -0.00006462  0.50544406  1
  I  I65  1  0.50395046  -0.00061401  0.82889286  1
  I  I66  1  0.50393007  0.33329507  0.16584261  1
  I  I67  1  0.50359637  0.33257621  0.50479862  1
  I  I68  1  0.49904997  0.33317969  0.82841905  1
  I  I69  1  0.49951207  0.66666607  0.16662138  1
  I  I70  1  0.50415939  0.66749135  0.50477614  1
  I  I71  1  0.50390906  0.66739675  0.82840531  1
  I  I72  1  0.83609522  0.00027885  0.16759184  1
  I  I73  1  0.82391443  -0.00019661  0.49256314  1
  I  I74  1  0.82607521  -0.00318605  0.83993801  1
  I  I75  1  0.83653536  0.33255088  0.17165185  1
  I  I76  1  0.82647901  0.33032939  0.49182270  1
  I  I77  1  0.83018364  0.33339503  0.83532000  1
  I  I78  1  0.83566270  0.66701355  0.16670118  1
  I  I79  1  0.82775384  0.66957010  0.49739731  1
  I  I80  1  0.82621844  0.67072433  0.83340065  1
  I  I81  1  0.16054928  0.17038716  0.00429967  1
  I  I82  1  0.16810441  0.17055094  0.32989149  1
  I  I83  1  0.16445478  0.16610282  0.66671769  1
  I  I84  1  0.16412558  0.49620922  0.00401125  1
  I  I85  1  0.16443576  0.49629676  0.32942265  1
  I  I86  1  0.16470516  0.50060808  0.66678816  1
  I  I87  1  0.16920543  0.83303079  0.00022794  1
  I  I88  1  0.17068415  0.83269544  0.33314747  1
  I  I89  1  0.16242921  0.83333377  0.66664309  1
  I  I90  1  0.49966659  0.16724464  -0.00264034  1
  I  I91  1  0.50076330  0.16705510  0.33667790  1
  I  I92  1  0.50580829  0.16682955  0.66564376  1
  I  I93  1  0.49998341  0.50021939  -0.00270235  1
  I  I94  1  0.50019040  0.49972099  0.33629982  1
  I  I95  1  0.50145588  0.50040419  0.66644195  1
  I  I96  1  0.50341452  0.83278139  -0.00313444  1
  I  I97  1  0.50324913  0.83312201  0.33699529  1
  I  I98  1  0.50797755  0.83283510  0.66644126  1
  I  I99  1  0.83507236  0.16548569  0.00270618  1
  I  I100  1  0.83061442  0.16196055  0.33296869  1
  I  I101  1  0.82823367  0.16091252  0.66327769  1
  I  I102  1  0.83404136  0.49918481  0.00409412  1
  I  I103  1  0.83354147  0.50452586  0.33011474  1
  I  I104  1  0.83376527  0.49955562  0.66674439  1
  I  I105  1  0.82871210  0.83289236  0.00014701  1
  I  I106  1  0.82913164  0.83398934  0.33360500  1
  I  I107  1  0.82547215  0.83953434  0.66571897  1
  I  I108  1  -0.00199074  0.16642568  0.17242065  1
  I  I109  1  -0.00385140  0.15915696  0.49530074  1
  I  I110  1  -0.00010913  0.16424087  0.83133012  1
  I  I111  1  -0.00128353  0.50042471  0.16740953  1
  I  I112  1  -0.00011181  0.50090787  0.49992638  1
  I  I113  1  -0.00009526  0.50174311  0.83242561  1
  I  I114  1  -0.00505724  0.83319836  0.16702466  1
  I  I115  1  -0.00461946  0.83936053  0.49830346  1
  I  I116  1  -0.00373895  0.83474902  0.83508542  1
  I  I117  1  0.33112060  0.17340168  0.16580201  1
  I  I118  1  0.33688629  0.16588401  0.50231668  1
  I  I119  1  0.33849473  0.16389185  0.82796179  1
  I  I120  1  0.33100344  0.49368062  0.16658387  1
  I  I121  1  0.33853439  0.50023177  0.50209620  1
  I  I122  1  0.33822885  0.50310904  0.83154785  1
  I  I123  1  0.33323175  0.83252228  0.16600406  1
  I  I124  1  0.33728015  0.83388513  0.50480156  1
  I  I125  1  0.33755037  0.83293348  0.82925052  1
  I  I126  1  0.67005045  0.16734626  0.16774053  1
  I  I127  1  0.66614571  0.16543377  0.49609294  1
  I  I128  1  0.66318762  0.16842227  0.83594914  1
  I  I129  1  0.66963788  0.49938081  0.16658700  1
  I  I130  1  0.66324057  0.50045146  0.50025238  1
  I  I131  1  0.66285632  0.49834091  0.83287756  1
  I  I132  1  0.67084708  0.83338539  0.16634995  1
  I  I133  1  0.66645931  0.83394111  0.49936220  1
  I  I134  1  0.66582905  0.83317336  0.83432360  1
