# generated using pymatgen
data_Cs27Sn14Pb13I81
_symmetry_space_group_name_H-M   'P 1'
_cell_length_a   18.98450458
_cell_length_b   18.97076147
_cell_length_c   18.97109735
_cell_angle_alpha   89.99787570
_cell_angle_beta   90.00082880
_cell_angle_gamma   90.00037760
_symmetry_Int_Tables_number   1
_chemical_formula_structural   Cs27Sn14Pb13I81
_chemical_formula_sum   'Cs27 Sn14 Pb13 I81'
_cell_volume   6832.45034154
_cell_formula_units_Z   1
loop_
 _symmetry_equiv_pos_site_id
 _symmetry_equiv_pos_as_xyz
  1  'x, y, z'
loop_
 _atom_site_type_symbol
 _atom_site_label
 _atom_site_symmetry_multiplicity
 _atom_site_fract_x
 _atom_site_fract_y
 _atom_site_fract_z
 _atom_site_occupancy
  Cs  Cs0  1  0.00861012  -0.00284564  -0.00173264  1
  Cs  Cs1  1  -0.00080598  -0.00159375  0.33062808  1
  Cs  Cs2  1  0.00473246  0.00355144  0.67076613  1
  Cs  Cs3  1  -0.00279784  0.33428445  -0.00005893  1
  Cs  Cs4  1  -0.00164858  0.33600218  0.33605414  1
  Cs  Cs5  1  -0.00133697  0.33399259  0.66421238  1
  Cs  Cs6  1  -0.00000103  0.66823704  0.00071475  1
  Cs  Cs7  1  -0.00422399  0.66501228  0.33299055  1
  Cs  Cs8  1  -0.00015311  0.66321058  0.66620613  1
  Cs  Cs9  1  0.32473173  0.00468661  0.00179481  1
  Cs  Cs10  1  0.33348266  0.00303468  0.33486391  1
  Cs  Cs11  1  0.32848754  -0.00299023  0.66355216  1
  Cs  Cs12  1  0.33751091  0.33072817  0.00131341  1
  Cs  Cs13  1  0.33335592  0.33247231  0.33305430  1
  Cs  Cs14  1  0.33677577  0.33505719  0.66557823  1
  Cs  Cs15  1  0.33374800  0.66569395  -0.00163772  1
  Cs  Cs16  1  0.33642436  0.66455898  0.33397803  1
  Cs  Cs17  1  0.33437892  0.66770648  0.66778656  1
  Cs  Cs18  1  0.66728787  0.00139597  -0.00103469  1
  Cs  Cs19  1  0.66625788  -0.00281546  0.33454032  1
  Cs  Cs20  1  0.66753380  -0.00183819  0.66568953  1
  Cs  Cs21  1  0.66633298  0.33351762  -0.00122463  1
  Cs  Cs22  1  0.66723114  0.33268918  0.33173523  1
  Cs  Cs23  1  0.66627915  0.33187903  0.67046278  1
  Cs  Cs24  1  0.66697635  0.66537551  -0.00027735  1
  Cs  Cs25  1  0.66657812  0.67034552  0.33307870  1
  Cs  Cs26  1  0.66560151  0.67004342  0.66797293  1
  Sn  Sn27  1  0.16611761  0.83330310  0.49929466  1
  Sn  Sn28  1  0.83282510  0.83271168  0.83352626  1
  Sn  Sn29  1  0.50024304  0.83366316  0.83493397  1
  Sn  Sn30  1  0.16640575  0.16603092  0.49959921  1
  Sn  Sn31  1  0.16669925  0.50000277  0.16583208  1
  Sn  Sn32  1  0.83321600  0.49954467  0.16603793  1
  Sn  Sn33  1  0.83316274  0.16666478  0.49912016  1
  Sn  Sn34  1  0.83335247  0.16694562  0.16720763  1
  Sn  Sn35  1  0.83410000  0.50094097  0.83408418  1
  Sn  Sn36  1  0.49977653  0.83315958  0.16517361  1
  Sn  Sn37  1  0.50045868  0.16755409  0.49996964  1
  Sn  Sn38  1  0.50059847  0.49941886  0.49934248  1
  Sn  Sn39  1  0.16601643  0.49983320  0.83428962  1
  Sn  Sn40  1  0.50016716  0.50058344  0.16743822  1
  Pb  Pb41  1  0.16685112  0.17024767  0.83119086  1
  Pb  Pb42  1  0.16667972  0.83108876  0.83191593  1
  Pb  Pb43  1  0.16928931  0.83080867  0.16896489  1
  Pb  Pb44  1  0.16850640  0.49970959  0.49982671  1
  Pb  Pb45  1  0.83592433  0.83606130  0.50260718  1
  Pb  Pb46  1  0.16397074  0.16935486  0.16887853  1
  Pb  Pb47  1  0.49882648  0.83341285  0.49983019  1
  Pb  Pb48  1  0.83337232  0.16669844  0.83392455  1
  Pb  Pb49  1  0.83058401  0.49853885  0.50023142  1
  Pb  Pb50  1  0.50191231  0.16665871  0.16831676  1
  Pb  Pb51  1  0.83162739  0.83338302  0.16459915  1
  Pb  Pb52  1  0.50038834  0.50121569  0.83380319  1
  Pb  Pb53  1  0.49979705  0.16302847  0.83075174  1
  I  I54  1  0.16665485  0.00008088  0.16634435  1
  I  I55  1  0.17008724  0.00096024  0.50147059  1
  I  I56  1  0.16618716  -0.00009893  0.83258149  1
  I  I57  1  0.17253857  0.33755209  0.16530604  1
  I  I58  1  0.16553362  0.33084108  0.50013209  1
  I  I59  1  0.15997228  0.33818175  0.83484403  1
  I  I60  1  0.16146663  0.66262097  0.16619989  1
  I  I61  1  0.17100062  0.66808957  0.50119760  1
  I  I62  1  0.16558273  0.66330234  0.83336996  1
  I  I63  1  0.50321590  -0.00250671  0.16538280  1
  I  I64  1  0.50116999  0.00262063  0.50049314  1
  I  I65  1  0.50760436  -0.00498881  0.83738206  1
  I  I66  1  0.49823167  0.33660675  0.16965772  1
  I  I67  1  0.49683748  0.33353245  0.49466912  1
  I  I68  1  0.50029714  0.33343037  0.83387329  1
  I  I69  1  0.50212467  0.66495916  0.17014644  1
  I  I70  1  0.49671051  0.66442369  0.49884092  1
  I  I71  1  0.50105563  0.66902700  0.83081044  1
  I  I72  1  0.82964516  0.00244451  0.17112191  1
  I  I73  1  0.82702932  0.00410987  0.49485729  1
  I  I74  1  0.82747604  -0.00265866  0.83123797  1
  I  I75  1  0.83137245  0.33510924  0.16532866  1
  I  I76  1  0.83841986  0.33040675  0.50070492  1
  I  I77  1  0.83742426  0.33649122  0.83382787  1
  I  I78  1  0.83474016  0.66334964  0.16436009  1
  I  I79  1  0.83373330  0.66669612  0.49795595  1
  I  I80  1  0.83316181  0.66534453  0.83859912  1
  I  I81  1  0.16464445  0.16443093  0.00041139  1
  I  I82  1  0.16965216  0.16556385  0.33706870  1
  I  I83  1  0.16397961  0.16457442  0.66261294  1
  I  I84  1  0.16777067  0.50185913  0.00057316  1
  I  I85  1  0.16476040  0.49961171  0.33072660  1
  I  I86  1  0.16328474  0.50015293  0.66867607  1
  I  I87  1  0.16572442  0.83418699  0.00017991  1
  I  I88  1  0.16921274  0.83584243  0.33662822  1
  I  I89  1  0.16972483  0.83530392  0.66403188  1
  I  I90  1  0.50298088  0.16979329  0.00026172  1
  I  I91  1  0.49790542  0.16632070  0.33667686  1
  I  I92  1  0.50298551  0.17338117  0.66209873  1
  I  I93  1  0.49996456  0.50294079  0.00304728  1
  I  I94  1  0.49888390  0.50231832  0.33218751  1
  I  I95  1  0.49861469  0.49760448  0.66456998  1
  I  I96  1  0.50429062  0.82470905  0.00034091  1
  I  I97  1  0.49838506  0.83088265  0.33110927  1
  I  I98  1  0.50235119  0.83270610  0.66865498  1
  I  I99  1  0.83108596  0.16983055  0.00295574  1
  I  I100  1  0.83351320  0.17347809  0.33361063  1
  I  I101  1  0.83325871  0.16684975  0.66380746  1
  I  I102  1  0.83172393  0.49732214  0.00084721  1
  I  I103  1  0.83627867  0.49727418  0.33044321  1
  I  I104  1  0.83706364  0.50192010  0.66939044  1
  I  I105  1  0.83184519  0.83312889  -0.00328160  1
  I  I106  1  0.83235069  0.83101727  0.33328748  1
  I  I107  1  0.82586423  0.82711984  0.67026771  1
  I  I108  1  -0.00385843  0.17182605  0.17242308  1
  I  I109  1  -0.00018073  0.16264210  0.49686488  1
  I  I110  1  -0.00006588  0.16189126  0.83002277  1
  I  I111  1  -0.00068332  0.49509914  0.16276760  1
  I  I112  1  -0.00018987  0.49926968  0.49848046  1
  I  I113  1  -0.00107847  0.50561399  0.83950088  1
  I  I114  1  0.00006655  0.83314784  0.16649527  1
  I  I115  1  0.00342851  0.83650049  0.50150384  1
  I  I116  1  -0.00245437  0.83128377  0.83075691  1
  I  I117  1  0.33326117  0.16734888  0.16859980  1
  I  I118  1  0.33355206  0.16665113  0.50125087  1
  I  I119  1  0.33331444  0.16739412  0.83171809  1
  I  I120  1  0.33398099  0.50527530  0.16761520  1
  I  I121  1  0.33631621  0.49552444  0.49679558  1
  I  I122  1  0.33154489  0.50180952  0.83436518  1
  I  I123  1  0.33727203  0.82762318  0.16134053  1
  I  I124  1  0.33123991  0.83792244  0.50217924  1
  I  I125  1  0.33571807  0.83051913  0.83380706  1
  I  I126  1  0.66969268  0.17295780  0.17302000  1
  I  I127  1  0.66665863  0.17208725  0.49636115  1
  I  I128  1  0.66673330  0.17116802  0.82975349  1
  I  I129  1  0.66681297  0.49944304  0.16672262  1
  I  I130  1  0.66275489  0.49569903  0.49649638  1
  I  I131  1  0.66935125  0.50164211  0.83567171  1
  I  I132  1  0.66368557  0.82711648  0.16725844  1
  I  I133  1  0.66681256  0.83418962  0.49963288  1
  I  I134  1  0.66672242  0.82634716  0.83501812  1
