# generated using pymatgen
data_Cs27Sn14Pb13I81
_symmetry_space_group_name_H-M   'P 1'
_cell_length_a   18.97211806
_cell_length_b   18.98599067
_cell_length_c   18.97192707
_cell_angle_alpha   89.99908264
_cell_angle_beta   90.00338737
_cell_angle_gamma   89.99954539
_symmetry_Int_Tables_number   1
_chemical_formula_structural   Cs27Sn14Pb13I81
_chemical_formula_sum   'Cs27 Sn14 Pb13 I81'
_cell_volume   6833.77266906
_cell_formula_units_Z   1
loop_
 _symmetry_equiv_pos_site_id
 _symmetry_equiv_pos_as_xyz
  1  'x, y, z'
loop_
 _atom_site_type_symbol
 _atom_site_label
 _atom_site_symmetry_multiplicity
 _atom_site_fract_x
 _atom_site_fract_y
 _atom_site_fract_z
 _atom_site_occupancy
  Cs  Cs0  1  0.00373101  0.00137189  0.00277058  1
  Cs  Cs1  1  0.00912802  0.00549406  0.32698524  1
  Cs  Cs2  1  -0.00262841  -0.00089607  0.66746588  1
  Cs  Cs3  1  -0.00006205  0.33525177  0.00067343  1
  Cs  Cs4  1  0.00253146  0.33002701  0.32993475  1
  Cs  Cs5  1  -0.00157706  0.33261529  0.66810159  1
  Cs  Cs6  1  0.00044140  0.66352067  -0.00148487  1
  Cs  Cs7  1  -0.00167613  0.66597155  0.33357533  1
  Cs  Cs8  1  -0.00149063  0.66796901  0.66841710  1
  Cs  Cs9  1  0.33320329  -0.00400282  0.00133171  1
  Cs  Cs10  1  0.33007837  0.00092627  0.33111860  1
  Cs  Cs11  1  0.33253055  -0.00171908  0.66707587  1
  Cs  Cs12  1  0.33558101  0.33497106  -0.00205823  1
  Cs  Cs13  1  0.33188977  0.33462429  0.33474014  1
  Cs  Cs14  1  0.33609650  0.33640974  0.66665549  1
  Cs  Cs15  1  0.33134775  0.66733271  0.00204244  1
  Cs  Cs16  1  0.33250645  0.66443316  0.33447493  1
  Cs  Cs17  1  0.33202788  0.66528042  0.66324721  1
  Cs  Cs18  1  0.66484156  -0.00180012  0.00065295  1
  Cs  Cs19  1  0.66530353  -0.00075551  0.33646103  1
  Cs  Cs20  1  0.66817148  0.00039360  0.66505370  1
  Cs  Cs21  1  0.66497866  0.33288561  -0.00088603  1
  Cs  Cs22  1  0.66709711  0.33175052  0.33264048  1
  Cs  Cs23  1  0.66539398  0.33184657  0.66749463  1
  Cs  Cs24  1  0.66765900  0.66886544  0.00269056  1
  Cs  Cs25  1  0.66713881  0.66973356  0.33240912  1
  Cs  Cs26  1  0.66804522  0.66802507  0.66566636  1
  Sn  Sn27  1  0.49958353  0.49919464  0.16671014  1
  Sn  Sn28  1  0.50053778  0.83428108  0.50114150  1
  Sn  Sn29  1  0.50046356  0.16750298  0.16756836  1
  Sn  Sn30  1  0.83393364  0.16663893  0.83295843  1
  Sn  Sn31  1  0.50049704  0.16607926  0.49938068  1
  Sn  Sn32  1  0.16760591  0.49980584  0.16594029  1
  Sn  Sn33  1  0.50075489  0.83310467  0.83220895  1
  Sn  Sn34  1  0.83322555  0.49962675  0.50073742  1
  Sn  Sn35  1  0.16607149  0.16758461  0.83278907  1
  Sn  Sn36  1  0.83310699  0.83403260  0.50043868  1
  Sn  Sn37  1  0.83356258  0.49973713  0.83250478  1
  Sn  Sn38  1  0.16618222  0.49889316  0.83365128  1
  Sn  Sn39  1  0.83236589  0.83358275  0.83307681  1
  Sn  Sn40  1  0.83282511  0.16636684  0.50047918  1
  Pb  Pb41  1  0.16653696  0.83015400  0.16668001  1
  Pb  Pb42  1  0.16606332  0.83297014  0.83316890  1
  Pb  Pb43  1  0.16356555  0.49982794  0.50055770  1
  Pb  Pb44  1  0.16963712  0.16896959  0.16370561  1
  Pb  Pb45  1  0.50011015  0.83342528  0.16749935  1
  Pb  Pb46  1  0.83355421  0.83373221  0.16705805  1
  Pb  Pb47  1  0.83120441  0.16654361  0.16651951  1
  Pb  Pb48  1  0.50015965  0.16477039  0.83280944  1
  Pb  Pb49  1  0.50035235  0.50267500  0.83495451  1
  Pb  Pb50  1  0.16611271  0.83352739  0.50006072  1
  Pb  Pb51  1  0.16679442  0.16676460  0.50265355  1
  Pb  Pb52  1  0.83330384  0.49984875  0.16648016  1
  Pb  Pb53  1  0.50246132  0.50007271  0.49798484  1
  I  I54  1  0.16749953  0.00064773  0.16553921  1
  I  I55  1  0.16296413  0.00028723  0.50199888  1
  I  I56  1  0.16370474  0.00256970  0.83190295  1
  I  I57  1  0.16766882  0.33664225  0.16449995  1
  I  I58  1  0.16752264  0.33336896  0.49832020  1
  I  I59  1  0.15858253  0.33408063  0.83692667  1
  I  I60  1  0.17345846  0.66193015  0.15891519  1
  I  I61  1  0.16786550  0.66644279  0.50083929  1
  I  I62  1  0.16324844  0.66346573  0.83816566  1
  I  I63  1  0.50203626  0.00260523  0.16706114  1
  I  I64  1  0.50850566  0.00029019  0.49839103  1
  I  I65  1  0.50347987  -0.00292338  0.83488771  1
  I  I66  1  0.49727007  0.33318511  0.17126428  1
  I  I67  1  0.50450304  0.33066258  0.49769276  1
  I  I68  1  0.50184128  0.33336548  0.83233230  1
  I  I69  1  0.49576596  0.66409507  0.16546912  1
  I  I70  1  0.50421383  0.66938686  0.50252632  1
  I  I71  1  0.50415129  0.67034704  0.82894398  1
  I  I72  1  0.83059614  0.00022984  0.16476324  1
  I  I73  1  0.82690138  0.00024524  0.50833507  1
  I  I74  1  0.83304769  0.00024274  0.82745441  1
  I  I75  1  0.83350196  0.33335883  0.16746399  1
  I  I76  1  0.82928808  0.33257635  0.50625034  1
  I  I77  1  0.83825610  0.33334659  0.82775246  1
  I  I78  1  0.83138338  0.66644793  0.16706121  1
  I  I79  1  0.82994038  0.66706354  0.50562334  1
  I  I80  1  0.83364571  0.66640222  0.82825006  1
  I  I81  1  0.16043714  0.16780896  -0.00397405  1
  I  I82  1  0.16363531  0.16760155  0.33312856  1
  I  I83  1  0.16716974  0.17372495  0.67054958  1
  I  I84  1  0.16411813  0.49639871  -0.00129276  1
  I  I85  1  0.16998621  0.50148302  0.33070972  1
  I  I86  1  0.16441417  0.49717269  0.67018859  1
  I  I87  1  0.16790459  0.83623069  -0.00052748  1
  I  I88  1  0.16647668  0.83186957  0.33339041  1
  I  I89  1  0.16924691  0.82968983  0.66695244  1
  I  I90  1  0.49961964  0.16914788  0.00166235  1
  I  I91  1  0.50654181  0.16481591  0.33463305  1
  I  I92  1  0.50170865  0.16426971  0.66391417  1
  I  I93  1  0.50113822  0.49498955  0.00283444  1
  I  I94  1  0.49547853  0.50077625  0.33006353  1
  I  I95  1  0.49668107  0.49753169  0.66664218  1
  I  I96  1  0.50432033  0.83355651  -0.00253603  1
  I  I97  1  0.50628882  0.83367599  0.33679723  1
  I  I98  1  0.50441579  0.83890026  0.66604172  1
  I  I99  1  0.83575719  0.16776346  -0.00371999  1
  I  I100  1  0.83037036  0.16709053  0.33688330  1
  I  I101  1  0.83110878  0.16711535  0.66684097  1
  I  I102  1  0.83435621  0.50026404  -0.00348341  1
  I  I103  1  0.83218422  0.50124172  0.33635271  1
  I  I104  1  0.83839269  0.50063526  0.66779323  1
  I  I105  1  0.82871515  0.83192411  -0.00401985  1
  I  I106  1  0.82705920  0.83093656  0.33759077  1
  I  I107  1  0.82888632  0.83260616  0.66716138  1
  I  I108  1  0.00035573  0.16778395  0.16968309  1
  I  I109  1  -0.00363804  0.16600077  0.50250908  1
  I  I110  1  -0.00182132  0.16543932  0.82778961  1
  I  I111  1  0.00243272  0.50112747  0.16467434  1
  I  I112  1  -0.00474845  0.50093123  0.49922722  1
  I  I113  1  -0.00102723  0.50169102  0.83589702  1
  I  I114  1  0.00000414  0.83174388  0.16679172  1
  I  I115  1  -0.00441819  0.83236852  0.50633640  1
  I  I116  1  -0.00370913  0.83268775  0.82797762  1
  I  I117  1  0.33733720  0.16775266  0.17194239  1
  I  I118  1  0.33677236  0.16143085  0.49704754  1
  I  I119  1  0.33129846  0.17037955  0.83434546  1
  I  I120  1  0.33330935  0.49641041  0.16049129  1
  I  I121  1  0.33345287  0.50061716  0.50165214  1
  I  I122  1  0.33089504  0.49641426  0.83663943  1
  I  I123  1  0.33375196  0.83549184  0.16493886  1
  I  I124  1  0.33702647  0.83775617  0.50403112  1
  I  I125  1  0.33607578  0.83429514  0.83027905  1
  I  I126  1  0.66322830  0.17378649  0.16520101  1
  I  I127  1  0.66745381  0.16614565  0.50207363  1
  I  I128  1  0.66971810  0.16978392  0.83263577  1
  I  I129  1  0.66413961  0.49720837  0.16660689  1
  I  I130  1  0.67045943  0.49993421  0.50550263  1
  I  I131  1  0.66997643  0.49702589  0.83090211  1
  I  I132  1  0.66647830  0.82877042  0.16415840  1
  I  I133  1  0.66718256  0.83383330  0.50446126  1
  I  I134  1  0.66789836  0.83336774  0.83002946  1
