# generated using pymatgen
data_Cs27Sn14Pb13I81
_symmetry_space_group_name_H-M   'P 1'
_cell_length_a   18.97169432
_cell_length_b   18.97481208
_cell_length_c   18.98089754
_cell_angle_alpha   89.99924650
_cell_angle_beta   89.99996049
_cell_angle_gamma   89.99989661
_symmetry_Int_Tables_number   1
_chemical_formula_structural   Cs27Sn14Pb13I81
_chemical_formula_sum   'Cs27 Sn14 Pb13 I81'
_cell_volume   6832.82577206
_cell_formula_units_Z   1
loop_
 _symmetry_equiv_pos_site_id
 _symmetry_equiv_pos_as_xyz
  1  'x, y, z'
loop_
 _atom_site_type_symbol
 _atom_site_label
 _atom_site_symmetry_multiplicity
 _atom_site_fract_x
 _atom_site_fract_y
 _atom_site_fract_z
 _atom_site_occupancy
  Cs  Cs0  1  -0.00345607  0.00464033  0.00079312  1
  Cs  Cs1  1  -0.00085374  0.00024498  0.33737362  1
  Cs  Cs2  1  -0.00088780  0.00156456  0.66226656  1
  Cs  Cs3  1  0.00005076  0.33339551  -0.00004300  1
  Cs  Cs4  1  0.00057532  0.33316682  0.33316968  1
  Cs  Cs5  1  0.00077450  0.33216467  0.66696335  1
  Cs  Cs6  1  0.00097323  0.66483097  0.00120976  1
  Cs  Cs7  1  0.00115727  0.66774502  0.33199904  1
  Cs  Cs8  1  0.00148209  0.66750443  0.66626780  1
  Cs  Cs9  1  0.33824963  -0.00404653  0.00152151  1
  Cs  Cs10  1  0.34070368  -0.00561431  0.32967755  1
  Cs  Cs11  1  0.33183336  -0.00884065  0.66920587  1
  Cs  Cs12  1  0.33211515  0.33282862  -0.00064557  1
  Cs  Cs13  1  0.33560647  0.33304853  0.33553648  1
  Cs  Cs14  1  0.33280788  0.33373879  0.66612723  1
  Cs  Cs15  1  0.32629116  0.67302982  0.00046977  1
  Cs  Cs16  1  0.33272727  0.67451170  0.33321668  1
  Cs  Cs17  1  0.33430020  0.67591187  0.66725437  1
  Cs  Cs18  1  0.66665939  -0.00004696  -0.00004667  1
  Cs  Cs19  1  0.66097775  0.00086129  0.33826118  1
  Cs  Cs20  1  0.66788543  -0.00149762  0.66256821  1
  Cs  Cs21  1  0.66800463  0.33381722  -0.00059951  1
  Cs  Cs22  1  0.66317366  0.33455951  0.33407553  1
  Cs  Cs23  1  0.66586739  0.33495609  0.66736476  1
  Cs  Cs24  1  0.66952224  0.66472961  -0.00068245  1
  Cs  Cs25  1  0.66651958  0.66208102  0.33532612  1
  Cs  Cs26  1  0.66457411  0.66397107  0.66619307  1
  Sn  Sn27  1  0.83298618  0.49971357  0.16667447  1
  Sn  Sn28  1  0.16637253  0.16705720  0.16694921  1
  Sn  Sn29  1  0.50034935  0.16750237  0.83322006  1
  Sn  Sn30  1  0.49998949  0.49977436  0.16509737  1
  Sn  Sn31  1  0.16698304  0.16750188  0.49969862  1
  Sn  Sn32  1  0.83365311  0.16645955  0.16653485  1
  Sn  Sn33  1  0.49999090  0.49927162  0.83481756  1
  Sn  Sn34  1  0.83319624  0.50001895  0.83325531  1
  Sn  Sn35  1  0.83348481  0.83331108  0.83400621  1
  Sn  Sn36  1  0.83324108  0.83372537  0.16619536  1
  Sn  Sn37  1  0.16686373  0.16707344  0.83347922  1
  Sn  Sn38  1  0.16620193  0.49937159  0.50012091  1
  Sn  Sn39  1  0.83458014  0.49934661  0.50007886  1
  Sn  Sn40  1  0.83311598  0.16654477  0.83370689  1
  Pb  Pb41  1  0.50342063  0.82979976  0.16617622  1
  Pb  Pb42  1  0.83331105  0.83029718  0.49976650  1
  Pb  Pb43  1  0.50296212  0.83281684  0.83361540  1
  Pb  Pb44  1  0.16687597  0.49812447  0.16862505  1
  Pb  Pb45  1  0.16320229  0.83673447  0.83370717  1
  Pb  Pb46  1  0.50053198  0.16861804  0.16462251  1
  Pb  Pb47  1  0.16703926  0.49854349  0.83156695  1
  Pb  Pb48  1  0.49653788  0.16681456  0.50336937  1
  Pb  Pb49  1  0.50048884  0.83326876  0.49999717  1
  Pb  Pb50  1  0.49930339  0.49995351  0.50048062  1
  Pb  Pb51  1  0.83446583  0.16883610  0.49978671  1
  Pb  Pb52  1  0.16360540  0.83688877  0.16646489  1
  Pb  Pb53  1  0.16627040  0.83358319  0.49982584  1
  I  I54  1  0.16172495  0.00530361  0.16809668  1
  I  I55  1  0.16513685  0.00377185  0.50196594  1
  I  I56  1  0.16805645  0.00542304  0.83008670  1
  I  I57  1  0.15961945  0.32998645  0.16375779  1
  I  I58  1  0.16150207  0.33269560  0.50076386  1
  I  I59  1  0.16114228  0.32995044  0.83500447  1
  I  I60  1  0.16670062  0.66659769  0.16965925  1
  I  I61  1  0.16225068  0.66343727  0.50006661  1
  I  I62  1  0.16717233  0.66675385  0.83005909  1
  I  I63  1  0.49942927  0.00005703  0.16630809  1
  I  I64  1  0.49946048  0.00054511  0.50085660  1
  I  I65  1  0.49931166  0.00311947  0.83241911  1
  I  I66  1  0.50708854  0.33643641  0.16509898  1
  I  I67  1  0.50185218  0.33348565  0.49826405  1
  I  I68  1  0.50572431  0.33368211  0.83648734  1
  I  I69  1  0.50509073  0.66167328  0.16132674  1
  I  I70  1  0.49848590  0.66584791  0.50233024  1
  I  I71  1  0.50582501  0.66297988  0.83496210  1
  I  I72  1  0.84004656  0.00116654  0.15775626  1
  I  I73  1  0.83537997  0.00021907  0.50070571  1
  I  I74  1  0.83416928  0.00152830  0.84024812  1
  I  I75  1  0.83414677  0.33345054  0.16357978  1
  I  I76  1  0.83535534  0.33700121  0.50056788  1
  I  I77  1  0.83336302  0.33314606  0.83547867  1
  I  I78  1  0.82861660  0.66542073  0.16416533  1
  I  I79  1  0.83860685  0.66188760  0.50030761  1
  I  I80  1  0.82838994  0.66520336  0.83524899  1
  I  I81  1  0.16352088  0.16709936  -0.00035430  1
  I  I82  1  0.15869562  0.17193103  0.33291789  1
  I  I83  1  0.16539714  0.17166884  0.66732371  1
  I  I84  1  0.16436495  0.49816680  -0.00000055  1
  I  I85  1  0.16113563  0.49269953  0.33642621  1
  I  I86  1  0.16102720  0.49261574  0.66374873  1
  I  I87  1  0.16867922  0.83174532  0.00001992  1
  I  I88  1  0.16374311  0.83458578  0.33311450  1
  I  I89  1  0.16474322  0.83505219  0.66687997  1
  I  I90  1  0.49666093  0.16896070  -0.00349787  1
  I  I91  1  0.50028233  0.16795728  0.33317599  1
  I  I92  1  0.50381763  0.17448554  0.67166782  1
  I  I93  1  0.51042545  0.49495518  -0.00088041  1
  I  I94  1  0.50529587  0.49975582  0.33068577  1
  I  I95  1  0.50510531  0.49542842  0.67018862  1
  I  I96  1  0.49747560  0.83608016  -0.00009081  1
  I  I97  1  0.50195709  0.83216036  0.33270022  1
  I  I98  1  0.50181672  0.83118246  0.66734849  1
  I  I99  1  0.83791459  0.17032841  -0.00068170  1
  I  I100  1  0.83875935  0.16680826  0.33013632  1
  I  I101  1  0.83418001  0.16655177  0.67005915  1
  I  I102  1  0.82892597  0.49959344  -0.00019472  1
  I  I103  1  0.83285537  0.50007507  0.33223677  1
  I  I104  1  0.83283462  0.49938371  0.66799903  1
  I  I105  1  0.83346921  0.82986267  -0.00024723  1
  I  I106  1  0.83433854  0.83362775  0.32993983  1
  I  I107  1  0.83324860  0.83493491  0.66990297  1
  I  I108  1  -0.00148318  0.16914514  0.16147090  1
  I  I109  1  0.00267180  0.16917443  0.50471565  1
  I  I110  1  -0.00109786  0.16691815  0.83391894  1
  I  I111  1  -0.00361254  0.50129371  0.16383729  1
  I  I112  1  -0.00115391  0.49600166  0.50038200  1
  I  I113  1  -0.00353919  0.49915411  0.83594418  1
  I  I114  1  -0.00443745  0.82645696  0.16232676  1
  I  I115  1  -0.00038240  0.83459448  0.50094474  1
  I  I116  1  -0.00479761  0.83046203  0.83699031  1
  I  I117  1  0.33088326  0.17050536  0.16591017  1
  I  I118  1  0.32831633  0.17569024  0.49836633  1
  I  I119  1  0.33324533  0.17410864  0.83255992  1
  I  I120  1  0.33587089  0.49558480  0.16338471  1
  I  I121  1  0.33021157  0.49380291  0.49996438  1
  I  I122  1  0.33624348  0.49328023  0.83594379  1
  I  I123  1  0.33347756  0.83305326  0.16870424  1
  I  I124  1  0.33300693  0.83057565  0.50081090  1
  I  I125  1  0.33329329  0.83278568  0.83112747  1
  I  I126  1  0.67034401  0.16551586  0.16155797  1
  I  I127  1  0.66649553  0.16762524  0.49955709  1
  I  I128  1  0.66819828  0.16777563  0.83895017  1
  I  I129  1  0.66910522  0.49808146  0.16830983  1
  I  I130  1  0.66960526  0.50106781  0.49985897  1
  I  I131  1  0.66859988  0.49564868  0.83179698  1
  I  I132  1  0.67144998  0.83918600  0.16141430  1
  I  I133  1  0.66752541  0.83230227  0.50074105  1
  I  I134  1  0.67098378  0.83753521  0.83775133  1
