# generated using pymatgen
data_Cs27Sn14Pb13I81
_symmetry_space_group_name_H-M   'P 1'
_cell_length_a   18.96735786
_cell_length_b   18.95897925
_cell_length_c   18.95851644
_cell_angle_alpha   90.00080043
_cell_angle_beta   90.00032114
_cell_angle_gamma   90.00107274
_symmetry_Int_Tables_number   1
_chemical_formula_structural   Cs27Sn14Pb13I81
_chemical_formula_sum   'Cs27 Sn14 Pb13 I81'
_cell_volume   6817.51557476
_cell_formula_units_Z   1
loop_
 _symmetry_equiv_pos_site_id
 _symmetry_equiv_pos_as_xyz
  1  'x, y, z'
loop_
 _atom_site_type_symbol
 _atom_site_label
 _atom_site_symmetry_multiplicity
 _atom_site_fract_x
 _atom_site_fract_y
 _atom_site_fract_z
 _atom_site_occupancy
  Cs  Cs0  1  0.00037902  0.00136589  0.00021768  1
  Cs  Cs1  1  0.00124091  0.00196733  0.33498157  1
  Cs  Cs2  1  0.00037325  0.00107300  0.66554214  1
  Cs  Cs3  1  -0.00008884  0.33286389  -0.00061295  1
  Cs  Cs4  1  -0.00216864  0.33562181  0.33609983  1
  Cs  Cs5  1  -0.00178278  0.32971627  0.66645517  1
  Cs  Cs6  1  -0.00136201  0.66588632  0.00121333  1
  Cs  Cs7  1  -0.00133811  0.66211785  0.32838581  1
  Cs  Cs8  1  0.00065886  0.67027639  0.67000101  1
  Cs  Cs9  1  0.33595480  0.00217054  0.00180318  1
  Cs  Cs10  1  0.33386755  -0.00038567  0.33263801  1
  Cs  Cs11  1  0.33309289  -0.00064864  0.66601801  1
  Cs  Cs12  1  0.33464238  0.33220023  -0.00045114  1
  Cs  Cs13  1  0.33240738  0.33734499  0.33531802  1
  Cs  Cs14  1  0.33336578  0.33494208  0.66652961  1
  Cs  Cs15  1  0.33216050  0.66477021  -0.00012579  1
  Cs  Cs16  1  0.33244414  0.66455745  0.33537250  1
  Cs  Cs17  1  0.33357334  0.66658739  0.66587469  1
  Cs  Cs18  1  0.66143963  -0.00279719  0.00252488  1
  Cs  Cs19  1  0.66438314  -0.00034753  0.33210882  1
  Cs  Cs20  1  0.66536217  -0.00181209  0.66674110  1
  Cs  Cs21  1  0.66473997  0.33104827  -0.00103750  1
  Cs  Cs22  1  0.66882660  0.33537681  0.33652860  1
  Cs  Cs23  1  0.66809231  0.33475595  0.66600662  1
  Cs  Cs24  1  0.66859404  0.67176486  0.00169662  1
  Cs  Cs25  1  0.66938587  0.66473517  0.33209887  1
  Cs  Cs26  1  0.66579664  0.66724655  0.66666898  1
  Sn  Sn27  1  0.16581389  0.16629174  0.16615622  1
  Sn  Sn28  1  0.50024425  0.50020357  0.83447125  1
  Sn  Sn29  1  0.50007194  0.83418904  0.50004610  1
  Sn  Sn30  1  0.50008201  0.49999214  0.16579201  1
  Sn  Sn31  1  0.83337602  0.49949829  0.83351767  1
  Sn  Sn32  1  0.16641802  0.49959835  0.83341223  1
  Sn  Sn33  1  0.16664657  0.83397340  0.16652688  1
  Sn  Sn34  1  0.49979841  0.16630180  0.50018155  1
  Sn  Sn35  1  0.83364984  0.83335232  0.49981433  1
  Sn  Sn36  1  0.16631906  0.83346914  0.49957148  1
  Sn  Sn37  1  0.83369662  0.16682602  0.83437331  1
  Sn  Sn38  1  0.16686224  0.83383032  0.83394911  1
  Sn  Sn39  1  0.83391017  0.16648170  0.16592206  1
  Sn  Sn40  1  0.16616738  0.16656895  0.83399681  1
  Pb  Pb41  1  0.83370346  0.50260797  0.50268835  1
  Pb  Pb42  1  0.49996531  0.16833786  0.83156549  1
  Pb  Pb43  1  0.83517195  0.83414688  0.83225713  1
  Pb  Pb44  1  0.49959953  0.16845905  0.16880948  1
  Pb  Pb45  1  0.50005124  0.50037135  0.50021645  1
  Pb  Pb46  1  0.16615520  0.50264964  0.50272634  1
  Pb  Pb47  1  0.83575718  0.83578050  0.16876767  1
  Pb  Pb48  1  0.49761038  0.83106862  0.16898754  1
  Pb  Pb49  1  0.16826571  0.16507328  0.49994960  1
  Pb  Pb50  1  0.49753341  0.83098437  0.83169288  1
  Pb  Pb51  1  0.83143430  0.16485401  0.50029294  1
  Pb  Pb52  1  0.83120141  0.49747184  0.16402775  1
  Pb  Pb53  1  0.16781447  0.49929027  0.16456329  1
  I  I54  1  0.16427020  0.00017878  0.16256530  1
  I  I55  1  0.16563973  -0.00346621  0.50508554  1
  I  I56  1  0.16163192  0.00037381  0.83234653  1
  I  I57  1  0.16543175  0.33007920  0.16159617  1
  I  I58  1  0.17023940  0.33313211  0.49997943  1
  I  I59  1  0.16682747  0.33274746  0.83824203  1
  I  I60  1  0.16965606  0.66924906  0.16715927  1
  I  I61  1  0.17087299  0.67151977  0.49966867  1
  I  I62  1  0.16754760  0.66683132  0.83133032  1
  I  I63  1  0.50095160  0.00001255  0.16720543  1
  I  I64  1  0.49915694  -0.00106764  0.50030173  1
  I  I65  1  0.49997895  -0.00008496  0.83249229  1
  I  I66  1  0.49732890  0.33609169  0.16451547  1
  I  I67  1  0.50003444  0.33123394  0.50038072  1
  I  I68  1  0.49511277  0.33649874  0.83338550  1
  I  I69  1  0.49806955  0.66339378  0.16359352  1
  I  I70  1  0.49814333  0.66972798  0.50116015  1
  I  I71  1  0.50009855  0.66271361  0.83399303  1
  I  I72  1  0.83361685  0.00372510  0.15982032  1
  I  I73  1  0.83602632  -0.00307989  0.50304585  1
  I  I74  1  0.83892970  0.00323954  0.83408329  1
  I  I75  1  0.84019273  0.32953181  0.16677502  1
  I  I76  1  0.83004389  0.33302443  0.49891455  1
  I  I77  1  0.83796557  0.33293236  0.83559684  1
  I  I78  1  0.83349397  0.66669815  0.16723175  1
  I  I79  1  0.83113806  0.67083413  0.50167515  1
  I  I80  1  0.83418365  0.66428477  0.82963207  1
  I  I81  1  0.16407815  0.16223515  -0.00093881  1
  I  I82  1  0.16452332  0.16144149  0.33042285  1
  I  I83  1  0.16385922  0.16651532  0.66997922  1
  I  I84  1  0.16537098  0.50497598  -0.00396194  1
  I  I85  1  0.17065654  0.50048956  0.33300384  1
  I  I86  1  0.17048417  0.49898770  0.67158607  1
  I  I87  1  0.16627602  0.83321920  -0.00061795  1
  I  I88  1  0.16786136  0.83917237  0.33338067  1
  I  I89  1  0.16697399  0.83217449  0.66693999  1
  I  I90  1  0.49985264  0.16718637  -0.00002928  1
  I  I91  1  0.49964858  0.16443344  0.33643650  1
  I  I92  1  0.49940321  0.16428084  0.66384444  1
  I  I93  1  0.49814883  0.49821943  -0.00147161  1
  I  I94  1  0.49842045  0.49996786  0.33109955  1
  I  I95  1  0.49897579  0.50046397  0.66980573  1
  I  I96  1  0.49870225  0.83367187  0.00009539  1
  I  I97  1  0.49726619  0.83492060  0.33714853  1
  I  I98  1  0.49722876  0.83459654  0.66338104  1
  I  I99  1  0.83778932  0.17070976  -0.00105027  1
  I  I100  1  0.83663540  0.16392113  0.33085570  1
  I  I101  1  0.83714857  0.16956888  0.66986555  1
  I  I102  1  0.83668142  0.50013339  -0.00422314  1
  I  I103  1  0.83029941  0.49928321  0.33297307  1
  I  I104  1  0.83116109  0.49349013  0.67113380  1
  I  I105  1  0.83509988  0.83102435  0.00011355  1
  I  I106  1  0.83456586  0.83546275  0.33687888  1
  I  I107  1  0.83574363  0.83438952  0.66403606  1
  I  I108  1  0.00106972  0.16268588  0.16288487  1
  I  I109  1  0.00001844  0.16450233  0.50062376  1
  I  I110  1  0.00095276  0.17095770  0.83535418  1
  I  I111  1  -0.00007746  0.50245739  0.16607722  1
  I  I112  1  -0.00003008  0.50059160  0.50000680  1
  I  I113  1  0.00061566  0.50015992  0.83141491  1
  I  I114  1  0.00415700  0.83312303  0.16805140  1
  I  I115  1  0.00122172  0.83309281  0.50226646  1
  I  I116  1  0.00382410  0.82907180  0.83023180  1
  I  I117  1  0.33012935  0.16371342  0.16296603  1
  I  I118  1  0.33599723  0.16130831  0.50055854  1
  I  I119  1  0.33005937  0.16678683  0.83578337  1
  I  I120  1  0.33566493  0.49867865  0.16129543  1
  I  I121  1  0.33332574  0.50168250  0.50259952  1
  I  I122  1  0.33267870  0.50076707  0.83619208  1
  I  I123  1  0.32930389  0.83925409  0.16731576  1
  I  I124  1  0.33266523  0.83676514  0.50105801  1
  I  I125  1  0.32892184  0.83412188  0.83070725  1
  I  I126  1  0.66908408  0.16922419  0.16356833  1
  I  I127  1  0.66373868  0.16102537  0.50030299  1
  I  I128  1  0.66950445  0.17179342  0.83493553  1
  I  I129  1  0.66347208  0.49875483  0.16230737  1
  I  I130  1  0.66660776  0.50246000  0.50253582  1
  I  I131  1  0.66687152  0.49439903  0.83534267  1
  I  I132  1  0.66668102  0.83371040  0.16893425  1
  I  I133  1  0.66614445  0.83711185  0.50175259  1
  I  I134  1  0.66659922  0.83243934  0.82959614  1
