# generated using pymatgen
data_Cs27Sn13Pb14I81
_symmetry_space_group_name_H-M   'P 1'
_cell_length_a   18.97571092
_cell_length_b   18.97959524
_cell_length_c   18.97551121
_cell_angle_alpha   89.99973731
_cell_angle_beta   90.00070688
_cell_angle_gamma   90.00147120
_symmetry_Int_Tables_number   1
_chemical_formula_structural   Cs27Sn13Pb14I81
_chemical_formula_sum   'Cs27 Sn13 Pb14 I81'
_cell_volume   6834.05526728
_cell_formula_units_Z   1
loop_
 _symmetry_equiv_pos_site_id
 _symmetry_equiv_pos_as_xyz
  1  'x, y, z'
loop_
 _atom_site_type_symbol
 _atom_site_label
 _atom_site_symmetry_multiplicity
 _atom_site_fract_x
 _atom_site_fract_y
 _atom_site_fract_z
 _atom_site_occupancy
  Cs  Cs0  1  0.00210200  -0.00051145  0.00104621  1
  Cs  Cs1  1  0.00022118  -0.00053025  0.33444169  1
  Cs  Cs2  1  0.00027044  0.00302348  0.66570719  1
  Cs  Cs3  1  0.00094580  0.33354617  -0.00239239  1
  Cs  Cs4  1  -0.00078494  0.33592100  0.33175981  1
  Cs  Cs5  1  -0.00244662  0.33096607  0.66956438  1
  Cs  Cs6  1  -0.00184746  0.66639384  0.00147008  1
  Cs  Cs7  1  0.00322889  0.66337248  0.33390603  1
  Cs  Cs8  1  -0.00045714  0.66540503  0.66442050  1
  Cs  Cs9  1  0.32948495  -0.00037266  0.00012497  1
  Cs  Cs10  1  0.33465893  -0.00172579  0.33259600  1
  Cs  Cs11  1  0.33078916  0.00125169  0.66700980  1
  Cs  Cs12  1  0.33309692  0.33540298  -0.00035949  1
  Cs  Cs13  1  0.34078612  0.33932311  0.33285229  1
  Cs  Cs14  1  0.33783491  0.33296189  0.66679446  1
  Cs  Cs15  1  0.33606395  0.66676790  -0.00089536  1
  Cs  Cs16  1  0.32893268  0.66516965  0.33480704  1
  Cs  Cs17  1  0.33480435  0.66467557  0.66505128  1
  Cs  Cs18  1  0.66853575  -0.00360148  0.00159095  1
  Cs  Cs19  1  0.66457334  0.00162819  0.33254840  1
  Cs  Cs20  1  0.66707066  -0.00045626  0.66644305  1
  Cs  Cs21  1  0.66467163  0.33348271  0.00664317  1
  Cs  Cs22  1  0.65979675  0.33041264  0.32766684  1
  Cs  Cs23  1  0.66894507  0.33305500  0.66531223  1
  Cs  Cs24  1  0.66592729  0.66991471  -0.00278487  1
  Cs  Cs25  1  0.66856855  0.66882580  0.33135954  1
  Cs  Cs26  1  0.66668511  0.66667975  0.67059952  1
  Sn  Sn27  1  0.83257971  0.83349622  0.50010085  1
  Sn  Sn28  1  0.83202500  0.16713728  0.83309122  1
  Sn  Sn29  1  0.16647393  0.16700163  0.49844936  1
  Sn  Sn30  1  0.50155560  0.16635568  0.83334862  1
  Sn  Sn31  1  0.16648248  0.16646005  0.16847462  1
  Sn  Sn32  1  0.49910668  0.83359914  0.16740881  1
  Sn  Sn33  1  0.16638460  0.83200603  0.83363922  1
  Sn  Sn34  1  0.50064292  0.83344657  0.49959543  1
  Sn  Sn35  1  0.16735856  0.83403911  0.16597627  1
  Sn  Sn36  1  0.83317872  0.49937503  0.50043976  1
  Sn  Sn37  1  0.83410187  0.49917714  0.83275080  1
  Sn  Sn38  1  0.16597314  0.50128012  0.83296640  1
  Sn  Sn39  1  0.83393381  0.16718392  0.50021839  1
  Pb  Pb40  1  0.83562300  0.83357251  0.83126164  1
  Pb  Pb41  1  0.16660066  0.50019215  0.16434378  1
  Pb  Pb42  1  0.16652995  0.83462089  0.49981296  1
  Pb  Pb43  1  0.83328792  0.49990548  0.16623863  1
  Pb  Pb44  1  0.49990594  0.50355812  0.16663559  1
  Pb  Pb45  1  0.83401632  0.83342251  0.16948511  1
  Pb  Pb46  1  0.50034025  0.16487602  0.50129160  1
  Pb  Pb47  1  0.16607219  0.16692758  0.83325049  1
  Pb  Pb48  1  0.83553730  0.16662656  0.16666122  1
  Pb  Pb49  1  0.16480001  0.49660583  0.50245746  1
  Pb  Pb50  1  0.50323258  0.50302054  0.50012939  1
  Pb  Pb51  1  0.49718986  0.16447874  0.16412924  1
  Pb  Pb52  1  0.49767834  0.83521670  0.83310888  1
  Pb  Pb53  1  0.50085316  0.49755079  0.83326889  1
  I  I54  1  0.16930598  -0.00078750  0.16328006  1
  I  I55  1  0.16094117  0.00247403  0.50256178  1
  I  I56  1  0.16708282  -0.00169272  0.83439587  1
  I  I57  1  0.16414020  0.33042512  0.16798003  1
  I  I58  1  0.16137687  0.32859232  0.49690455  1
  I  I59  1  0.16493436  0.33520752  0.83292231  1
  I  I60  1  0.17056254  0.67009703  0.16466949  1
  I  I61  1  0.16556203  0.66650224  0.49845845  1
  I  I62  1  0.16173014  0.66708839  0.83832292  1
  I  I63  1  0.49774225  -0.00330183  0.17046928  1
  I  I64  1  0.50528946  -0.00301371  0.49755986  1
  I  I65  1  0.50400635  0.00288201  0.83233586  1
  I  I66  1  0.49899304  0.33293094  0.16558919  1
  I  I67  1  0.49914434  0.33319284  0.50190874  1
  I  I68  1  0.49721134  0.32963783  0.83176486  1
  I  I69  1  0.49306502  0.67176612  0.16953436  1
  I  I70  1  0.50279645  0.67124914  0.49748677  1
  I  I71  1  0.50143437  0.66694762  0.83427675  1
  I  I72  1  0.83291261  -0.00006550  0.16547236  1
  I  I73  1  0.83417137  0.00077099  0.50421125  1
  I  I74  1  0.83208862  0.00279086  0.82854848  1
  I  I75  1  0.83584604  0.33310566  0.16991043  1
  I  I76  1  0.84050910  0.33246287  0.50659180  1
  I  I77  1  0.83713797  0.33295314  0.82447129  1
  I  I78  1  0.83463094  0.66692647  0.16672487  1
  I  I79  1  0.82870972  0.66664548  0.50422159  1
  I  I80  1  0.83648151  0.66419744  0.82893293  1
  I  I81  1  0.16717487  0.16440233  0.00173496  1
  I  I82  1  0.16016020  0.15873068  0.33374908  1
  I  I83  1  0.16478402  0.16497839  0.66473790  1
  I  I84  1  0.15981764  0.49823081  -0.00381434  1
  I  I85  1  0.16451464  0.50249533  0.33363553  1
  I  I86  1  0.16457878  0.50544488  0.67037237  1
  I  I87  1  0.17136695  0.83667885  0.00044439  1
  I  I88  1  0.16749647  0.83712518  0.33093747  1
  I  I89  1  0.16623426  0.83278042  0.66877368  1
  I  I90  1  0.50437699  0.16474156  -0.00359582  1
  I  I91  1  0.50193683  0.16655885  0.33313853  1
  I  I92  1  0.49775111  0.16351221  0.66920365  1
  I  I93  1  0.50183254  0.50126846  -0.00034619  1
  I  I94  1  0.50171937  0.49607957  0.33359661  1
  I  I95  1  0.49634091  0.50324115  0.66676090  1
  I  I96  1  0.49638544  0.83529410  0.00232435  1
  I  I97  1  0.49840460  0.83523980  0.33344027  1
  I  I98  1  0.50300135  0.83506865  0.66415984  1
  I  I99  1  0.83183187  0.17150318  -0.00346250  1
  I  I100  1  0.83645176  0.16634104  0.33692645  1
  I  I101  1  0.83643908  0.16655585  0.66618978  1
  I  I102  1  0.83790643  0.49489344  -0.00406076  1
  I  I103  1  0.83372092  0.50036478  0.33699729  1
  I  I104  1  0.83799372  0.49917123  0.66692765  1
  I  I105  1  0.83133309  0.83304940  -0.00019206  1
  I  I106  1  0.83421170  0.83415557  0.33787705  1
  I  I107  1  0.82962990  0.83411638  0.66311783  1
  I  I108  1  0.00356105  0.15911800  0.16512632  1
  I  I109  1  -0.00117163  0.16293213  0.50329006  1
  I  I110  1  -0.00255595  0.16750288  0.83137742  1
  I  I111  1  0.00014858  0.50346201  0.16817848  1
  I  I112  1  -0.00348865  0.50594742  0.50185888  1
  I  I113  1  -0.00074119  0.49731715  0.82986378  1
  I  I114  1  0.00349086  0.83710730  0.16318660  1
  I  I115  1  -0.00265403  0.83296427  0.50122859  1
  I  I116  1  0.00356044  0.83536596  0.83744345  1
  I  I117  1  0.32926825  0.16348169  0.16972654  1
  I  I118  1  0.33087418  0.16234728  0.50025722  1
  I  I119  1  0.33451457  0.16496731  0.83316424  1
  I  I120  1  0.33296934  0.49682233  0.16425310  1
  I  I121  1  0.33326966  0.50007882  0.50137047  1
  I  I122  1  0.33062076  0.50172208  0.83511939  1
  I  I123  1  0.33238395  0.83832000  0.16829362  1
  I  I124  1  0.33522630  0.83714336  0.49965713  1
  I  I125  1  0.32966688  0.83145008  0.83240506  1
  I  I126  1  0.66637128  0.16539735  0.16808846  1
  I  I127  1  0.67008642  0.16748551  0.50396567  1
  I  I128  1  0.66855482  0.17059844  0.82645632  1
  I  I129  1  0.66666762  0.50100526  0.16449048  1
  I  I130  1  0.67159517  0.49483936  0.50812755  1
  I  I131  1  0.67049062  0.49842054  0.82818778  1
  I  I132  1  0.66404817  0.83289590  0.16874655  1
  I  I133  1  0.66729713  0.83563356  0.49542834  1
  I  I134  1  0.66682059  0.83155299  0.83581053  1
