# generated using pymatgen
data_Cs27Sn14Pb13I81
_symmetry_space_group_name_H-M   'P 1'
_cell_length_a   18.97693299
_cell_length_b   18.98024124
_cell_length_c   18.97153431
_cell_angle_alpha   90.00086320
_cell_angle_beta   90.00106990
_cell_angle_gamma   90.00009452
_symmetry_Int_Tables_number   1
_chemical_formula_structural   Cs27Sn14Pb13I81
_chemical_formula_sum   'Cs27 Sn14 Pb13 I81'
_cell_volume   6833.29558897
_cell_formula_units_Z   1
loop_
 _symmetry_equiv_pos_site_id
 _symmetry_equiv_pos_as_xyz
  1  'x, y, z'
loop_
 _atom_site_type_symbol
 _atom_site_label
 _atom_site_symmetry_multiplicity
 _atom_site_fract_x
 _atom_site_fract_y
 _atom_site_fract_z
 _atom_site_occupancy
  Cs  Cs0  1  -0.00012593  -0.00039275  0.00007361  1
  Cs  Cs1  1  0.00163234  -0.00534508  0.33346286  1
  Cs  Cs2  1  0.00068652  0.00055444  0.67006702  1
  Cs  Cs3  1  -0.00021154  0.33154315  0.00089350  1
  Cs  Cs4  1  0.00042036  0.33149805  0.33115172  1
  Cs  Cs5  1  0.00169443  0.33982501  0.66575868  1
  Cs  Cs6  1  0.00122415  0.66913411  -0.00002946  1
  Cs  Cs7  1  -0.00125204  0.67654912  0.33752849  1
  Cs  Cs8  1  -0.00151488  0.65715761  0.66261882  1
  Cs  Cs9  1  0.33174739  -0.00015256  -0.00252807  1
  Cs  Cs10  1  0.33346792  -0.00017099  0.33431907  1
  Cs  Cs11  1  0.33433711  0.00015591  0.66827296  1
  Cs  Cs12  1  0.33312846  0.33550200  0.00202510  1
  Cs  Cs13  1  0.33424270  0.33247291  0.33221818  1
  Cs  Cs14  1  0.32919255  0.33467386  0.66606673  1
  Cs  Cs15  1  0.33530709  0.66277625  -0.00120584  1
  Cs  Cs16  1  0.33632883  0.66983048  0.33267645  1
  Cs  Cs17  1  0.33197759  0.66381494  0.66964117  1
  Cs  Cs18  1  0.66846450  0.00104456  -0.00241802  1
  Cs  Cs19  1  0.66613247  0.00064390  0.33320635  1
  Cs  Cs20  1  0.66474455  0.00121357  0.66883688  1
  Cs  Cs21  1  0.66696233  0.33381417  0.00256141  1
  Cs  Cs22  1  0.66539450  0.33189329  0.33141162  1
  Cs  Cs23  1  0.66854529  0.33170142  0.66667043  1
  Cs  Cs24  1  0.66331926  0.66260048  -0.00117536  1
  Cs  Cs25  1  0.66526332  0.66834783  0.33529427  1
  Cs  Cs26  1  0.66982111  0.66471356  0.66577492  1
  Sn  Sn27  1  0.16546410  0.83396076  0.83325846  1
  Sn  Sn28  1  0.83477327  0.49986033  0.16702633  1
  Sn  Sn29  1  0.16648714  0.16695549  0.16602867  1
  Sn  Sn30  1  0.16571128  0.16597131  0.83420498  1
  Sn  Sn31  1  0.50020402  0.83472207  0.16669426  1
  Sn  Sn32  1  0.16508906  0.49973149  0.16721031  1
  Sn  Sn33  1  0.83313805  0.16636846  0.49979620  1
  Sn  Sn34  1  0.50062874  0.16661127  0.49930313  1
  Sn  Sn35  1  0.83439307  0.16614084  0.83322540  1
  Sn  Sn36  1  0.83427938  0.83378525  0.83336887  1
  Sn  Sn37  1  0.83363980  0.16691845  0.16696166  1
  Sn  Sn38  1  0.49994229  0.16549809  0.16710603  1
  Sn  Sn39  1  0.49996479  0.49940240  0.50003646  1
  Sn  Sn40  1  0.50002182  0.83379522  0.49961072  1
  Pb  Pb41  1  0.83342174  0.49927447  0.83575600  1
  Pb  Pb42  1  0.16864025  0.49997613  0.49628543  1
  Pb  Pb43  1  0.49981744  0.16703205  0.83350479  1
  Pb  Pb44  1  0.16639561  0.49939379  0.83575473  1
  Pb  Pb45  1  0.16893586  0.83369922  0.16491170  1
  Pb  Pb46  1  0.16644428  0.16652771  0.49990256  1
  Pb  Pb47  1  0.16897430  0.83345927  0.50330377  1
  Pb  Pb48  1  0.83164214  0.49741791  0.49686446  1
  Pb  Pb49  1  0.50011943  0.49963667  0.16810025  1
  Pb  Pb50  1  0.50018195  0.49960896  0.82989332  1
  Pb  Pb51  1  0.50019111  0.83350020  0.83329585  1
  Pb  Pb52  1  0.83107974  0.83366699  0.16482232  1
  Pb  Pb53  1  0.83133947  0.83591972  0.50269852  1
  I  I54  1  0.16474302  0.00342690  0.16465841  1
  I  I55  1  0.16991047  0.00023933  0.49498806  1
  I  I56  1  0.16343805  0.00144625  0.83956825  1
  I  I57  1  0.16911357  0.33114992  0.16095835  1
  I  I58  1  0.17042832  0.33299981  0.50569121  1
  I  I59  1  0.16296397  0.32977957  0.83473354  1
  I  I60  1  0.16531864  0.66440410  0.16484828  1
  I  I61  1  0.16937615  0.66671232  0.50018177  1
  I  I62  1  0.16492677  0.66937969  0.83448516  1
  I  I63  1  0.49998378  0.00178453  0.17453072  1
  I  I64  1  0.50379007  0.00104921  0.49555861  1
  I  I65  1  0.49961624  0.00029793  0.82942457  1
  I  I66  1  0.50008653  0.33002237  0.17027969  1
  I  I67  1  0.50387597  0.33169076  0.49500965  1
  I  I68  1  0.50001436  0.33279813  0.83502752  1
  I  I69  1  0.49984942  0.66870193  0.17004190  1
  I  I70  1  0.49817042  0.66726943  0.49475392  1
  I  I71  1  0.49936153  0.66700735  0.83597025  1
  I  I72  1  0.83498324  0.00367937  0.16799666  1
  I  I73  1  0.82709876  0.00412838  0.49427504  1
  I  I74  1  0.83646275  0.00186072  0.83585363  1
  I  I75  1  0.83064385  0.33089706  0.16442164  1
  I  I76  1  0.82684436  0.32917503  0.50507165  1
  I  I77  1  0.83688151  0.32931096  0.83133627  1
  I  I78  1  0.83505973  0.66445412  0.16362285  1
  I  I79  1  0.83067880  0.66670867  0.50086028  1
  I  I80  1  0.83557869  0.66938088  0.83538116  1
  I  I81  1  0.16458105  0.16648179  0.00084138  1
  I  I82  1  0.16590048  0.17157612  0.32986516  1
  I  I83  1  0.16534627  0.16185948  0.66975047  1
  I  I84  1  0.16550942  0.49756048  0.00365801  1
  I  I85  1  0.16405264  0.49086127  0.32849367  1
  I  I86  1  0.16993243  0.49987421  0.66662783  1
  I  I87  1  0.16581519  0.83590919  -0.00288951  1
  I  I88  1  0.16689937  0.83324446  0.33312737  1
  I  I89  1  0.16613643  0.84182683  0.67131535  1
  I  I90  1  0.50225904  0.16173038  0.00348164  1
  I  I91  1  0.50285764  0.16630127  0.33280840  1
  I  I92  1  0.50338085  0.16568125  0.66342605  1
  I  I93  1  0.49964453  0.50119284  0.00061388  1
  I  I94  1  0.49992830  0.49927154  0.33583273  1
  I  I95  1  0.50036463  0.49984912  0.66169024  1
  I  I96  1  0.50006462  0.83894073  0.00266476  1
  I  I97  1  0.49987778  0.83425583  0.33323644  1
  I  I98  1  0.49991594  0.83488932  0.66370561  1
  I  I99  1  0.83293494  0.16662633  0.00064183  1
  I  I100  1  0.83092962  0.17242697  0.33235029  1
  I  I101  1  0.83079183  0.16093562  0.66700970  1
  I  I102  1  0.83457786  0.49331226  0.00369020  1
  I  I103  1  0.83585629  0.49354395  0.32904476  1
  I  I104  1  0.83036954  0.49956535  0.66635932  1
  I  I105  1  0.83405284  0.84009001  -0.00293009  1
  I  I106  1  0.83330777  0.83323376  0.33334181  1
  I  I107  1  0.83384290  0.83970485  0.67060406  1
  I  I108  1  -0.00035050  0.17232938  0.16560718  1
  I  I109  1  -0.00319975  0.16687228  0.49759260  1
  I  I110  1  -0.00050164  0.16187452  0.83725396  1
  I  I111  1  -0.00013091  0.48931490  0.16498632  1
  I  I112  1  -0.00027499  0.49813077  0.50227205  1
  I  I113  1  -0.00007922  0.50103778  0.82992312  1
  I  I114  1  -0.00003546  0.83442270  0.16676080  1
  I  I115  1  -0.00031071  0.83503180  0.49805561  1
  I  I116  1  -0.00016097  0.84015147  0.83618463  1
  I  I117  1  0.33343992  0.16734151  0.16665774  1
  I  I118  1  0.33672344  0.16657430  0.49678851  1
  I  I119  1  0.33027980  0.16242301  0.83634584  1
  I  I120  1  0.33131164  0.49621492  0.16727676  1
  I  I121  1  0.33707546  0.49620410  0.49800619  1
  I  I122  1  0.33305644  0.50081350  0.83665883  1
  I  I123  1  0.33687066  0.83690829  0.16850887  1
  I  I124  1  0.33764818  0.83736667  0.49700356  1
  I  I125  1  0.33082738  0.83849400  0.83332818  1
  I  I126  1  0.66697287  0.16736421  0.16676647  1
  I  I127  1  0.66590365  0.16665403  0.49720124  1
  I  I128  1  0.66983444  0.16232912  0.83531662  1
  I  I129  1  0.66884023  0.49582345  0.16704330  1
  I  I130  1  0.66353531  0.50207779  0.49671152  1
  I  I131  1  0.66702350  0.50108191  0.83814597  1
  I  I132  1  0.66316564  0.83720181  0.16831642  1
  I  I133  1  0.66303840  0.83186957  0.49775700  1
  I  I134  1  0.66931758  0.83935856  0.83354162  1
