# generated using pymatgen
data_Cs27Sn13Pb14I81
_symmetry_space_group_name_H-M   'P 1'
_cell_length_a   18.98101273
_cell_length_b   18.97165655
_cell_length_c   18.98101280
_cell_angle_alpha   90.00057396
_cell_angle_beta   89.99923355
_cell_angle_gamma   89.99942581
_symmetry_Int_Tables_number   1
_chemical_formula_structural   Cs27Sn13Pb14I81
_chemical_formula_sum   'Cs27 Sn13 Pb14 I81'
_cell_volume   6835.08652264
_cell_formula_units_Z   1
loop_
 _symmetry_equiv_pos_site_id
 _symmetry_equiv_pos_as_xyz
  1  'x, y, z'
loop_
 _atom_site_type_symbol
 _atom_site_label
 _atom_site_symmetry_multiplicity
 _atom_site_fract_x
 _atom_site_fract_y
 _atom_site_fract_z
 _atom_site_occupancy
  Cs  Cs0  1  -0.00087718  -0.00060804  0.00118214  1
  Cs  Cs1  1  -0.00068979  0.00089895  0.33438883  1
  Cs  Cs2  1  0.00372937  -0.00306293  0.66293727  1
  Cs  Cs3  1  -0.00272179  0.33645283  -0.00147496  1
  Cs  Cs4  1  0.00373166  0.33090569  0.33093248  1
  Cs  Cs5  1  -0.00437782  0.33710779  0.67104449  1
  Cs  Cs6  1  0.00068148  0.66570712  -0.00031960  1
  Cs  Cs7  1  -0.00145511  0.66717253  0.33574652  1
  Cs  Cs8  1  0.00229849  0.66472463  0.66436812  1
  Cs  Cs9  1  0.33564959  -0.00056380  0.00052340  1
  Cs  Cs10  1  0.33446028  0.00040675  0.33220641  1
  Cs  Cs11  1  0.33227782  0.00089884  0.66735638  1
  Cs  Cs12  1  0.33328213  0.33447362  -0.00067871  1
  Cs  Cs13  1  0.33068673  0.33570201  0.33598003  1
  Cs  Cs14  1  0.33573412  0.33090538  0.66293477  1
  Cs  Cs15  1  0.33337705  0.66663570  -0.00011501  1
  Cs  Cs16  1  0.33422751  0.66071991  0.33243910  1
  Cs  Cs17  1  0.33092011  0.66717265  0.66812202  1
  Cs  Cs18  1  0.66544322  0.00170817  0.00122333  1
  Cs  Cs19  1  0.66614319  -0.00056389  0.33101715  1
  Cs  Cs20  1  0.66548466  -0.00060794  0.66754368  1
  Cs  Cs21  1  0.66876939  0.32876013  -0.00210263  1
  Cs  Cs22  1  0.66734536  0.33447365  0.33338446  1
  Cs  Cs23  1  0.66814168  0.33645283  0.66938825  1
  Cs  Cs24  1  0.66574774  0.66860815  0.00091891  1
  Cs  Cs25  1  0.66678155  0.66663565  0.33328953  1
  Cs  Cs26  1  0.66698626  0.66570711  0.66598520  1
  Sn  Sn27  1  0.50074748  0.83275831  0.83256608  1
  Sn  Sn28  1  0.49990194  0.83392394  0.50075795  1
  Sn  Sn29  1  0.83309174  0.83351951  0.83357493  1
  Sn  Sn30  1  0.50117014  0.49982515  0.16549648  1
  Sn  Sn31  1  0.50062259  0.16565888  0.49988723  1
  Sn  Sn32  1  0.83229037  0.50068788  0.16667838  1
  Sn  Sn33  1  0.16590876  0.83392396  0.16676469  1
  Sn  Sn34  1  0.16677945  0.16565889  0.16604409  1
  Sn  Sn35  1  0.49998825  0.50068784  0.83437625  1
  Sn  Sn36  1  0.16653126  0.16660781  0.83352389  1
  Sn  Sn37  1  0.83314281  0.16660780  0.50013539  1
  Sn  Sn38  1  0.16630301  0.16634530  0.50036367  1
  Sn  Sn39  1  0.83410060  0.83275830  0.16591921  1
  Pb  Pb40  1  0.50006187  0.83190600  0.16660476  1
  Pb  Pb41  1  0.16635374  0.49756357  0.50031294  1
  Pb  Pb42  1  0.83516449  0.16637311  0.16800765  1
  Pb  Pb43  1  0.16929595  0.83498093  0.49737069  1
  Pb  Pb44  1  0.16924167  0.49765577  0.83332560  1
  Pb  Pb45  1  0.16680643  0.83488453  0.83523203  1
  Pb  Pb46  1  0.83557331  0.16384101  0.83109333  1
  Pb  Pb47  1  0.49865900  0.16637314  0.83150217  1
  Pb  Pb48  1  0.83143463  0.83488450  0.49986025  1
  Pb  Pb49  1  0.50009686  0.50029785  0.50036767  1
  Pb  Pb50  1  0.83112312  0.50267658  0.83554359  1
  Pb  Pb51  1  0.49773657  0.16949539  0.16893012  1
  Pb  Pb52  1  0.16629904  0.50029784  0.16656983  1
  Pb  Pb53  1  0.83334106  0.49765581  0.49742502  1
  I  I54  1  0.16163568  0.00033988  0.16757462  1
  I  I55  1  0.16537271  0.00367264  0.50129431  1
  I  I56  1  0.16932913  0.00305236  0.83089703  1
  I  I57  1  0.16758207  0.33030894  0.16921883  1
  I  I58  1  0.17138450  0.32800438  0.49528202  1
  I  I59  1  0.16803316  0.32907846  0.83511528  1
  I  I60  1  0.16643902  0.66957541  0.16547441  1
  I  I61  1  0.16922016  0.66728079  0.49744628  1
  I  I62  1  0.16596311  0.66697275  0.83642850  1
  I  I63  1  0.50144961  0.00007600  0.16521692  1
  I  I64  1  0.49909198  0.00033989  0.50503084  1
  I  I65  1  0.50172821  -0.00294843  0.83092261  1
  I  I66  1  0.50468675  0.33724704  0.16198012  1
  I  I67  1  0.49744781  0.33030894  0.49908483  1
  I  I68  1  0.49681195  0.33557826  0.83587266  1
  I  I69  1  0.49846493  0.66407379  0.16820178  1
  I  I70  1  0.50119248  0.66957542  0.50022763  1
  I  I71  1  0.50320953  0.66778968  0.83145128  1
  I  I72  1  0.83574436  -0.00294846  0.16493863  1
  I  I73  1  0.83576924  0.00305235  0.49733722  1
  I  I74  1  0.82570356  -0.00372539  0.84096316  1
  I  I75  1  0.83079369  0.33557822  0.16985416  1
  I  I76  1  0.83155150  0.32907849  0.49863414  1
  I  I77  1  0.83310803  0.33321945  0.83355867  1
  I  I78  1  0.83521544  0.66778969  0.16345744  1
  I  I79  1  0.83023816  0.66697272  0.50070334  1
  I  I80  1  0.83228712  0.67068541  0.83437944  1
  I  I81  1  0.16749218  0.16271688  0.00075220  1
  I  I82  1  0.16677816  0.16321826  0.33346575  1
  I  I83  1  0.16860264  0.16706023  0.66576878  1
  I  I84  1  0.16648048  0.49514933  0.00019200  1
  I  I85  1  0.17053409  0.49736488  0.33291611  1
  I  I86  1  0.16904837  0.49893105  0.66695483  1
  I  I87  1  0.16778118  0.84028030  0.00318719  1
  I  I88  1  0.16211205  0.83904216  0.32944670  1
  I  I89  1  0.16508816  0.83572767  0.66661091  1
  I  I90  1  0.49713773  0.16482701  0.00005422  1
  I  I91  1  0.49778501  0.16147989  0.33698273  1
  I  I92  1  0.49650816  0.16722286  0.66333903  1
  I  I93  1  0.50213615  0.50622666  0.00001934  1
  I  I94  1  0.50237697  0.49982784  0.33075723  1
  I  I95  1  0.49868454  0.50028688  0.66946337  1
  I  I96  1  0.50021297  0.83074404  -0.00244394  1
  I  I97  1  0.49947321  0.83690020  0.33532674  1
  I  I98  1  0.50512231  0.83222000  0.66755883  1
  I  I99  1  0.83577880  0.16834589  -0.00006034  1
  I  I100  1  0.83517424  0.16503109  0.33607308  1
  I  I101  1  0.83471284  0.16494359  0.66312915  1
  I  I102  1  0.83206023  0.49976875  0.00356021  1
  I  I103  1  0.82668013  0.50670637  0.32919676  1
  I  I104  1  0.83187406  0.49937747  0.66698499  1
  I  I105  1  0.83123994  0.83078085  0.00082320  1
  I  I106  1  0.83573320  0.83126932  0.33028651  1
  I  I107  1  0.82986037  0.83719925  0.66912065  1
  I  I108  1  0.00332765  0.16722317  0.17015840  1
  I  I109  1  0.00089782  0.16705986  0.49806388  1
  I  I110  1  0.00353755  0.16494409  0.83195395  1
  I  I111  1  -0.00279662  0.50028666  0.16798190  1
  I  I112  1  -0.00028812  0.49893117  0.49761870  1
  I  I113  1  -0.00031834  0.49937736  0.83479245  1
  I  I114  1  -0.00089215  0.83221993  0.16154404  1
  I  I115  1  0.00005582  0.83572797  0.50157886  1
  I  I116  1  -0.00245400  0.83719916  0.83680639  1
  I  I117  1  0.32968393  0.16147986  0.16888190  1
  I  I118  1  0.33320092  0.16321857  0.49988837  1
  I  I119  1  0.33059362  0.16503061  0.83149222  1
  I  I120  1  0.33590941  0.49982787  0.16428956  1
  I  I121  1  0.33375054  0.49736484  0.49613218  1
  I  I122  1  0.33746997  0.50670715  0.83998712  1
  I  I123  1  0.33133993  0.83690021  0.16719363  1
  I  I124  1  0.33721996  0.83904205  0.50455433  1
  I  I125  1  0.33638017  0.83126922  0.83093367  1
  I  I126  1  0.66661247  0.16482673  0.16952863  1
  I  I127  1  0.66591449  0.16271704  0.49917477  1
  I  I128  1  0.66672705  0.16834608  0.83088792  1
  I  I129  1  0.66664736  0.50622687  0.16453094  1
  I  I130  1  0.66647466  0.49514923  0.50018596  1
  I  I131  1  0.66310648  0.49976849  0.83460626  1
  I  I132  1  0.66911063  0.83074411  0.16645385  1
  I  I133  1  0.66347946  0.84028039  0.49888567  1
  I  I134  1  0.66584349  0.83078092  0.83542657  1
