# generated using pymatgen
data_Cs27Sn14Pb13I81
_symmetry_space_group_name_H-M   'P 1'
_cell_length_a   18.97216040
_cell_length_b   18.97751585
_cell_length_c   18.97771632
_cell_angle_alpha   89.99949332
_cell_angle_beta   90.00221930
_cell_angle_gamma   89.99842882
_symmetry_Int_Tables_number   1
_chemical_formula_structural   Cs27Sn14Pb13I81
_chemical_formula_sum   'Cs27 Sn14 Pb13 I81'
_cell_volume   6832.82189549
_cell_formula_units_Z   1
loop_
 _symmetry_equiv_pos_site_id
 _symmetry_equiv_pos_as_xyz
  1  'x, y, z'
loop_
 _atom_site_type_symbol
 _atom_site_label
 _atom_site_symmetry_multiplicity
 _atom_site_fract_x
 _atom_site_fract_y
 _atom_site_fract_z
 _atom_site_occupancy
  Cs  Cs0  1  0.00039199  0.00043522  -0.00326524  1
  Cs  Cs1  1  0.00032150  0.00125812  0.34013301  1
  Cs  Cs2  1  0.00120936  -0.00297414  0.66454691  1
  Cs  Cs3  1  0.00028766  0.33355291  0.00178604  1
  Cs  Cs4  1  0.00139477  0.33398740  0.33224516  1
  Cs  Cs5  1  0.00267626  0.33346971  0.66644900  1
  Cs  Cs6  1  -0.00405326  0.66500704  0.00067300  1
  Cs  Cs7  1  0.00012443  0.66504671  0.33438656  1
  Cs  Cs8  1  -0.00050562  0.66912825  0.66362163  1
  Cs  Cs9  1  0.33441311  -0.00384385  0.00094390  1
  Cs  Cs10  1  0.33449582  -0.00192784  0.32855874  1
  Cs  Cs11  1  0.33231318  -0.00193764  0.66946011  1
  Cs  Cs12  1  0.32833913  0.33598547  -0.00244331  1
  Cs  Cs13  1  0.33076624  0.33280700  0.33533800  1
  Cs  Cs14  1  0.33403731  0.33547234  0.66616242  1
  Cs  Cs15  1  0.33222678  0.66763947  0.00176708  1
  Cs  Cs16  1  0.33218242  0.66809169  0.32985623  1
  Cs  Cs17  1  0.33763184  0.66590811  0.66919979  1
  Cs  Cs18  1  0.66546813  -0.00017460  -0.00082300  1
  Cs  Cs19  1  0.66476618  0.00982762  0.33482105  1
  Cs  Cs20  1  0.66711186  -0.00123583  0.66681793  1
  Cs  Cs21  1  0.66916670  0.33226799  0.00003624  1
  Cs  Cs22  1  0.66420526  0.32713011  0.33461010  1
  Cs  Cs23  1  0.66228682  0.33300013  0.66628385  1
  Cs  Cs24  1  0.66894670  0.66714339  -0.00102126  1
  Cs  Cs25  1  0.66756091  0.66539152  0.33174943  1
  Cs  Cs26  1  0.66507105  0.66808049  0.66739147  1
  Sn  Sn27  1  0.50098457  0.83407347  0.83269801  1
  Sn  Sn28  1  0.16610421  0.49944360  0.49939527  1
  Sn  Sn29  1  0.16681785  0.16721754  0.49929644  1
  Sn  Sn30  1  0.83340838  0.49972570  0.49977531  1
  Sn  Sn31  1  0.50031521  0.83326735  0.49993008  1
  Sn  Sn32  1  0.50047707  0.16633842  0.83360099  1
  Sn  Sn33  1  0.83271689  0.16668111  0.83311647  1
  Sn  Sn34  1  0.50032062  0.49967496  0.16663276  1
  Sn  Sn35  1  0.16657407  0.49935814  0.16746054  1
  Sn  Sn36  1  0.83324212  0.83352220  0.16674428  1
  Sn  Sn37  1  0.83331803  0.49985475  0.83283069  1
  Sn  Sn38  1  0.16638052  0.16699579  0.16727231  1
  Sn  Sn39  1  0.83295129  0.50028957  0.16722020  1
  Sn  Sn40  1  0.83262708  0.83341397  0.83406300  1
  Pb  Pb41  1  0.49737512  0.16918056  0.16407250  1
  Pb  Pb42  1  0.49722865  0.16449934  0.50227865  1
  Pb  Pb43  1  0.16929180  0.83254179  0.49987335  1
  Pb  Pb44  1  0.50273287  0.83175400  0.16623944  1
  Pb  Pb45  1  0.50232096  0.50026049  0.83548534  1
  Pb  Pb46  1  0.83139218  0.83144881  0.49969367  1
  Pb  Pb47  1  0.83522575  0.16661703  0.16498286  1
  Pb  Pb48  1  0.49978613  0.50152160  0.49782619  1
  Pb  Pb49  1  0.16342103  0.83304671  0.16672931  1
  Pb  Pb50  1  0.16647970  0.83305050  0.83344920  1
  Pb  Pb51  1  0.16687377  0.16669301  0.83329122  1
  Pb  Pb52  1  0.83519421  0.16939150  0.50279732  1
  Pb  Pb53  1  0.16402252  0.50033437  0.83320046  1
  I  I54  1  0.16548659  0.00281093  0.17004517  1
  I  I55  1  0.16779589  0.00267433  0.49648667  1
  I  I56  1  0.16159109  0.00020280  0.83301227  1
  I  I57  1  0.16422955  0.33501269  0.16979692  1
  I  I58  1  0.16272729  0.33453048  0.49583245  1
  I  I59  1  0.16695454  0.33347527  0.83366975  1
  I  I60  1  0.16802139  0.66298093  0.17087447  1
  I  I61  1  0.16250397  0.66304572  0.49518279  1
  I  I62  1  0.16797633  0.66642619  0.83321351  1
  I  I63  1  0.49925153  0.00008422  0.16821004  1
  I  I64  1  0.50007036  -0.00324785  0.50092399  1
  I  I65  1  0.50785571  -0.00067021  0.83007203  1
  I  I66  1  0.50660175  0.33708071  0.16582664  1
  I  I67  1  0.50146909  0.33332847  0.50116456  1
  I  I68  1  0.50430522  0.33123108  0.83566890  1
  I  I69  1  0.49532605  0.66366417  0.16466813  1
  I  I70  1  0.49889756  0.66911318  0.50817698  1
  I  I71  1  0.50404092  0.66942071  0.83054223  1
  I  I72  1  0.83468056  -0.00242702  0.16019885  1
  I  I73  1  0.83498449  0.00017619  0.49998506  1
  I  I74  1  0.82983478  -0.00068898  0.83914233  1
  I  I75  1  0.83288458  0.33674252  0.16480175  1
  I  I76  1  0.83403248  0.33768979  0.49815595  1
  I  I77  1  0.83016684  0.33382053  0.83433816  1
  I  I78  1  0.83508121  0.66474042  0.16134537  1
  I  I79  1  0.83942820  0.66309429  0.50342985  1
  I  I80  1  0.83023939  0.66664171  0.83510191  1
  I  I81  1  0.16568850  0.17276949  0.00254006  1
  I  I82  1  0.16588843  0.17216819  0.33313495  1
  I  I83  1  0.16631356  0.17207236  0.66406990  1
  I  I84  1  0.16608273  0.49551268  0.00343786  1
  I  I85  1  0.16143151  0.49620487  0.33264633  1
  I  I86  1  0.16223579  0.49528411  0.66336221  1
  I  I87  1  0.17142622  0.83390563  0.00031149  1
  I  I88  1  0.16771429  0.83399290  0.33324418  1
  I  I89  1  0.16192585  0.83414322  0.66647133  1
  I  I90  1  0.50267868  0.15979194  -0.00359480  1
  I  I91  1  0.50102497  0.16505232  0.33323874  1
  I  I92  1  0.50255356  0.16693656  0.67022482  1
  I  I93  1  0.49870482  0.50160041  0.00333851  1
  I  I94  1  0.50454523  0.50320391  0.33001834  1
  I  I95  1  0.49959096  0.49893863  0.66687405  1
  I  I96  1  0.50256901  0.83625764  -0.00299845  1
  I  I97  1  0.49970674  0.82910701  0.33511310  1
  I  I98  1  0.50541713  0.83535143  0.66837310  1
  I  I99  1  0.83284695  0.17106900  -0.00322304  1
  I  I100  1  0.83277470  0.16556188  0.33353800  1
  I  I101  1  0.83226156  0.16552362  0.67096166  1
  I  I102  1  0.83343712  0.50115245  0.00038492  1
  I  I103  1  0.83519431  0.50647281  0.33228659  1
  I  I104  1  0.83848543  0.50024383  0.66689470  1
  I  I105  1  0.82864943  0.82748766  -0.00119761  1
  I  I106  1  0.83316143  0.82601326  0.33078715  1
  I  I107  1  0.83152072  0.83202379  0.66972155  1
  I  I108  1  0.00301087  0.17313850  0.16713312  1
  I  I109  1  0.00310565  0.16741769  0.49827107  1
  I  I110  1  -0.00297136  0.16676847  0.83409875  1
  I  I111  1  -0.00062235  0.50006810  0.16627462  1
  I  I112  1  -0.00022169  0.49769619  0.49620888  1
  I  I113  1  -0.00453698  0.49952533  0.83827878  1
  I  I114  1  -0.00433221  0.82657223  0.15959972  1
  I  I115  1  -0.00015001  0.83462216  0.50091507  1
  I  I116  1  -0.00412375  0.83381246  0.83758193  1
  I  I117  1  0.32951291  0.17217216  0.16828750  1
  I  I118  1  0.32955807  0.17485275  0.49868088  1
  I  I119  1  0.33605189  0.16085851  0.83371129  1
  I  I120  1  0.33219163  0.49608245  0.17098861  1
  I  I121  1  0.33033018  0.49748100  0.49515919  1
  I  I122  1  0.33355960  0.49964705  0.83406150  1
  I  I123  1  0.33346426  0.83150666  0.16557288  1
  I  I124  1  0.33692034  0.83125377  0.50752660  1
  I  I125  1  0.33698814  0.83863114  0.82957682  1
  I  I126  1  0.66670215  0.16788548  0.16694446  1
  I  I127  1  0.66660321  0.16748363  0.49923968  1
  I  I128  1  0.66765257  0.16628593  0.83408823  1
  I  I129  1  0.66831054  0.50607019  0.16532659  1
  I  I130  1  0.66950497  0.50330759  0.49985168  1
  I  I131  1  0.67071733  0.50042881  0.83336596  1
  I  I132  1  0.67046799  0.82558404  0.16390171  1
  I  I133  1  0.66389548  0.83002892  0.50293369  1
  I  I134  1  0.66772443  0.83329085  0.83335377  1
