# generated using pymatgen
data_Cs27Sn14Pb13I81
_symmetry_space_group_name_H-M   'P 1'
_cell_length_a   18.96855251
_cell_length_b   18.98653455
_cell_length_c   18.97281566
_cell_angle_alpha   90.00047558
_cell_angle_beta   89.99948552
_cell_angle_gamma   90.00259098
_symmetry_Int_Tables_number   1
_chemical_formula_structural   Cs27Sn14Pb13I81
_chemical_formula_sum   'Cs27 Sn14 Pb13 I81'
_cell_volume   6833.00410641
_cell_formula_units_Z   1
loop_
 _symmetry_equiv_pos_site_id
 _symmetry_equiv_pos_as_xyz
  1  'x, y, z'
loop_
 _atom_site_type_symbol
 _atom_site_label
 _atom_site_symmetry_multiplicity
 _atom_site_fract_x
 _atom_site_fract_y
 _atom_site_fract_z
 _atom_site_occupancy
  Cs  Cs0  1  -0.00209314  0.00006192  0.00042161  1
  Cs  Cs1  1  0.00356030  -0.00302580  0.33076522  1
  Cs  Cs2  1  0.00105762  0.00018335  0.66848011  1
  Cs  Cs3  1  -0.00018351  0.33374002  -0.00092476  1
  Cs  Cs4  1  0.00000003  0.33333336  0.33333334  1
  Cs  Cs5  1  0.00018353  0.33292646  0.66759149  1
  Cs  Cs6  1  -0.00105751  0.66648322  -0.00181349  1
  Cs  Cs7  1  -0.00356008  0.66969245  0.33590140  1
  Cs  Cs8  1  0.00209310  0.66660475  0.66624508  1
  Cs  Cs9  1  0.33446861  -0.00105773  0.00023446  1
  Cs  Cs10  1  0.33141623  -0.00045123  0.33325545  1
  Cs  Cs11  1  0.33368026  0.00031162  0.66680676  1
  Cs  Cs12  1  0.33375326  0.33463189  -0.00020403  1
  Cs  Cs13  1  0.33412278  0.33301099  0.33252570  1
  Cs  Cs14  1  0.33278298  0.33440397  0.66694495  1
  Cs  Cs15  1  0.33665583  0.66435047  0.00629757  1
  Cs  Cs16  1  0.33537364  0.66532527  0.32499749  1
  Cs  Cs17  1  0.33089961  0.66520717  0.66849073  1
  Cs  Cs18  1  0.66910033  0.00145955  -0.00182398  1
  Cs  Cs19  1  0.66462654  0.00134128  0.34166919  1
  Cs  Cs20  1  0.66334430  0.00231627  0.66036886  1
  Cs  Cs21  1  0.66721705  0.33226267  -0.00027826  1
  Cs  Cs22  1  0.66587718  0.33365560  0.33414110  1
  Cs  Cs23  1  0.66624669  0.33203476  0.66687078  1
  Cs  Cs24  1  0.66631960  0.66635489  -0.00014010  1
  Cs  Cs25  1  0.66858376  0.66711767  0.33341119  1
  Cs  Cs26  1  0.66553144  0.66772441  0.66643226  1
  Sn  Sn27  1  0.49913098  0.50017927  0.50085887  1
  Sn  Sn28  1  0.83303088  0.83352638  0.16581685  1
  Sn  Sn29  1  0.83336711  0.49992589  0.16570336  1
  Sn  Sn30  1  0.83248121  0.50069955  0.83382743  1
  Sn  Sn31  1  0.16696911  0.83314027  0.50084977  1
  Sn  Sn32  1  0.16751880  0.16596706  0.83283924  1
  Sn  Sn33  1  0.16628236  0.83388852  0.83308136  1
  Sn  Sn34  1  0.16769074  0.50012790  0.49997630  1
  Sn  Sn35  1  0.49922662  0.16727146  0.83401955  1
  Sn  Sn36  1  0.50077339  0.49939518  0.83264714  1
  Sn  Sn37  1  0.50086902  0.16648742  0.16580777  1
  Sn  Sn38  1  0.16663290  0.16674077  0.50096327  1
  Sn  Sn39  1  0.83371763  0.83277814  0.83358531  1
  Sn  Sn40  1  0.83230930  0.16653878  0.16669039  1
  Pb  Pb41  1  0.49766875  0.16855991  0.50031132  1
  Pb  Pb42  1  0.83522315  0.83347638  0.50104024  1
  Pb  Pb43  1  0.50233127  0.49810674  0.16635534  1
  Pb  Pb44  1  0.16674151  0.50019183  0.83222790  1
  Pb  Pb45  1  0.16690171  0.16672364  0.16580610  1
  Pb  Pb46  1  0.16372393  0.50004467  0.16970904  1
  Pb  Pb47  1  0.83309818  0.49994302  0.50086061  1
  Pb  Pb48  1  0.16477687  0.83319023  0.16562639  1
  Pb  Pb49  1  0.50000003  0.83333330  0.83333333  1
  Pb  Pb50  1  0.49662725  0.83010814  0.50014333  1
  Pb  Pb51  1  0.83325851  0.16647483  0.83443879  1
  Pb  Pb52  1  0.83627607  0.16662200  0.49695763  1
  Pb  Pb53  1  0.50337281  0.83655858  0.16652332  1
  I  I54  1  0.16410093  0.00011692  0.17232048  1
  I  I55  1  0.16396449  0.00008302  0.50371628  1
  I  I56  1  0.16574187  0.00022417  0.82568888  1
  I  I57  1  0.16233806  0.33321038  0.16709722  1
  I  I58  1  0.16979911  0.33328401  0.50357962  1
  I  I59  1  0.16677478  0.33090590  0.82941930  1
  I  I60  1  0.16598438  0.66662777  0.16659925  1
  I  I61  1  0.16875046  0.66679416  0.50514820  1
  I  I62  1  0.16410705  0.66904735  0.82827041  1
  I  I63  1  0.50393531  0.00457408  0.16021175  1
  I  I64  1  0.49995632  0.00020400  0.49974198  1
  I  I65  1  0.49896686  0.00313522  0.83790780  1
  I  I66  1  0.50607804  0.33041632  0.16552652  1
  I  I67  1  0.49392191  0.33625033  0.50114004  1
  I  I68  1  0.49999992  0.33333333  0.83333330  1
  I  I69  1  0.50004417  0.66646265  0.16692453  1
  I  I70  1  0.49606431  0.66209264  0.50645510  1
  I  I71  1  0.50103325  0.66353149  0.82875887  1
  I  I72  1  0.83124949  -0.00012748  0.16151838  1
  I  I73  1  0.83401501  0.00003888  0.50006782  1
  I  I74  1  0.83589283  -0.00238066  0.83839618  1
  I  I75  1  0.83020088  0.33338265  0.16308692  1
  I  I76  1  0.83766213  0.33345625  0.49956947  1
  I  I77  1  0.83322529  0.33576075  0.83724739  1
  I  I78  1  0.83603554  0.66658366  0.16295055  1
  I  I79  1  0.83589960  0.66654979  0.49434587  1
  I  I80  1  0.83425818  0.66644254  0.84097787  1
  I  I81  1  0.16708022  0.16150928  -0.00347339  1
  I  I82  1  0.16530548  0.16651210  0.33600727  1
  I  I83  1  0.17184089  0.16596367  0.66757232  1
  I  I84  1  0.16888978  0.49963659  -0.00015465  1
  I  I85  1  0.17195041  0.49887585  0.33818930  1
  I  I86  1  0.16518035  0.49968175  0.66399506  1
  I  I87  1  0.16379475  0.83963243  -0.00374020  1
  I  I88  1  0.16504379  0.83445321  0.33615038  1
  I  I89  1  0.15969991  0.83426995  0.66736094  1
  I  I90  1  0.49763932  0.17291432  -0.00128534  1
  I  I91  1  0.50371348  0.16826398  0.33112615  1
  I  I92  1  0.49785142  0.16878218  0.66968986  1
  I  I93  1  0.50214903  0.49788448  -0.00302318  1
  I  I94  1  0.49628644  0.49840291  0.33554052  1
  I  I95  1  0.50236038  0.49375224  0.66795198  1
  I  I96  1  0.49334294  0.82841151  -0.00015803  1
  I  I97  1  0.50000014  0.83333322  0.33333333  1
  I  I98  1  0.50665660  0.83825533  0.66682468  1
  I  I99  1  0.83481986  0.16698490  0.00267161  1
  I  I100  1  0.82804948  0.16779076  0.32847736  1
  I  I101  1  0.83111007  0.16703021  0.66682130  1
  I  I102  1  0.82815884  0.50070308  -0.00090563  1
  I  I103  1  0.83469464  0.50015442  0.33065934  1
  I  I104  1  0.83291984  0.50515762  0.67014003  1
  I  I105  1  0.84030085  0.83239673  -0.00069424  1
  I  I106  1  0.83495583  0.83221378  0.33051627  1
  I  I107  1  0.83620460  0.82703398  0.67040686  1
  I  I108  1  -0.00299197  0.16657821  0.16751413  1
  I  I109  1  0.00457609  0.17031023  0.50579203  1
  I  I110  1  0.00252741  0.16640138  0.83071934  1
  I  I111  1  -0.00457611  0.49635620  0.16087455  1
  I  I112  1  0.00299197  0.50008841  0.49915267  1
  I  I113  1  -0.00252744  0.50026532  0.83594728  1
  I  I114  1  -0.00359247  0.83641853  0.16633826  1
  I  I115  1  0.00359248  0.83024853  0.50032891  1
  I  I116  1  0.00000001  0.83333341  0.83333292  1
  I  I117  1  0.33603029  0.16852463  0.16603606  1
  I  I118  1  0.32961552  0.16460071  0.49899009  1
  I  I119  1  0.33331659  0.16727232  0.83522547  1
  I  I120  1  0.33369847  0.49812690  0.16470946  1
  I  I121  1  0.33299742  0.49937350  0.50720349  1
  I  I122  1  0.33580449  0.49839854  0.82994612  1
  I  I123  1  0.33348370  0.83467944  0.16731105  1
  I  I124  1  0.32845711  0.83722376  0.50762519  1
  I  I125  1  0.33017731  0.83501872  0.82687558  1
  I  I126  1  0.66700252  0.16729306  0.15946300  1
  I  I127  1  0.66630148  0.16854019  0.50195705  1
  I  I128  1  0.66419551  0.16826830  0.83672090  1
  I  I129  1  0.67038447  0.50206589  0.16767690  1
  I  I130  1  0.66396966  0.49814221  0.50063064  1
  I  I131  1  0.66668343  0.49939422  0.83144082  1
  I  I132  1  0.67154288  0.82944325  0.15904079  1
  I  I133  1  0.66651630  0.83198667  0.49935577  1
  I  I134  1  0.66982277  0.83164781  0.83979159  1
