# generated using pymatgen
data_Cs27Sn14Pb13I81
_symmetry_space_group_name_H-M   'P 1'
_cell_length_a   18.96510704
_cell_length_b   18.97646037
_cell_length_c   18.98561117
_cell_angle_alpha   89.99969997
_cell_angle_beta   89.99968239
_cell_angle_gamma   90.00222235
_symmetry_Int_Tables_number   1
_chemical_formula_structural   Cs27Sn14Pb13I81
_chemical_formula_sum   'Cs27 Sn14 Pb13 I81'
_cell_volume   6832.74303322
_cell_formula_units_Z   1
loop_
 _symmetry_equiv_pos_site_id
 _symmetry_equiv_pos_as_xyz
  1  'x, y, z'
loop_
 _atom_site_type_symbol
 _atom_site_label
 _atom_site_symmetry_multiplicity
 _atom_site_fract_x
 _atom_site_fract_y
 _atom_site_fract_z
 _atom_site_occupancy
  Cs  Cs0  1  -0.00198137  -0.00408774  -0.00211976  1
  Cs  Cs1  1  -0.00242096  -0.00144616  0.33523929  1
  Cs  Cs2  1  0.00091915  0.00024950  0.66597910  1
  Cs  Cs3  1  0.00041928  0.33619983  -0.00012147  1
  Cs  Cs4  1  0.00026120  0.33439371  0.33471869  1
  Cs  Cs5  1  -0.00130160  0.33444724  0.66564657  1
  Cs  Cs6  1  0.00086906  0.66841538  -0.00206716  1
  Cs  Cs7  1  -0.00017989  0.66778043  0.33317692  1
  Cs  Cs8  1  0.00084247  0.66539514  0.66740295  1
  Cs  Cs9  1  0.33735332  0.00543327  -0.00176201  1
  Cs  Cs10  1  0.33279314  0.00055135  0.33290231  1
  Cs  Cs11  1  0.33330772  0.00028230  0.67046167  1
  Cs  Cs12  1  0.34034909  0.32456554  0.01120910  1
  Cs  Cs13  1  0.33393322  0.33371222  0.32250604  1
  Cs  Cs14  1  0.33156731  0.32896162  0.66881622  1
  Cs  Cs15  1  0.33083716  0.66620601  0.00196419  1
  Cs  Cs16  1  0.33474930  0.66476925  0.33373349  1
  Cs  Cs17  1  0.33511659  0.66946359  0.66469671  1
  Cs  Cs18  1  0.66689889  -0.00020555  0.00134401  1
  Cs  Cs19  1  0.67006233  -0.00000626  0.33413684  1
  Cs  Cs20  1  0.66608642  -0.00030255  0.66474925  1
  Cs  Cs21  1  0.66242844  0.33518013  -0.00277364  1
  Cs  Cs22  1  0.66737775  0.33209852  0.33479467  1
  Cs  Cs23  1  0.66859645  0.33725075  0.66640693  1
  Cs  Cs24  1  0.66678348  0.66505624  -0.00468859  1
  Cs  Cs25  1  0.66608731  0.66749429  0.33520699  1
  Cs  Cs26  1  0.65958781  0.66405279  0.66715514  1
  Sn  Sn27  1  0.16590586  0.83254056  0.83300304  1
  Sn  Sn28  1  0.83355337  0.49938281  0.16740081  1
  Sn  Sn29  1  0.83374170  0.16798054  0.16644408  1
  Sn  Sn30  1  0.50035673  0.16673855  0.50006328  1
  Sn  Sn31  1  0.83378570  0.83385994  0.83170581  1
  Sn  Sn32  1  0.83267571  0.16669737  0.50018610  1
  Sn  Sn33  1  0.83400985  0.50051785  0.49920422  1
  Sn  Sn34  1  0.83373339  0.16597332  0.83317148  1
  Sn  Sn35  1  0.16682173  0.50021146  0.83286784  1
  Sn  Sn36  1  0.16591917  0.83254869  0.50010352  1
  Sn  Sn37  1  0.49912676  0.83305101  0.16683249  1
  Sn  Sn38  1  0.83380933  0.83272619  0.50138791  1
  Sn  Sn39  1  0.16617396  0.50066735  0.50083058  1
  Sn  Sn40  1  0.16780301  0.83355962  0.16671629  1
  Pb  Pb41  1  0.50326900  0.50253677  0.16687480  1
  Pb  Pb42  1  0.50323420  0.16659184  0.83075680  1
  Pb  Pb43  1  0.49980347  0.83318498  0.83550076  1
  Pb  Pb44  1  0.16641272  0.16705543  0.49985666  1
  Pb  Pb45  1  0.83451085  0.50037599  0.83285377  1
  Pb  Pb46  1  0.83371296  0.83300389  0.16658395  1
  Pb  Pb47  1  0.16370183  0.16369159  0.16661128  1
  Pb  Pb48  1  0.49967588  0.83497546  0.49851620  1
  Pb  Pb49  1  0.50304122  0.16447592  0.16890884  1
  Pb  Pb50  1  0.16453834  0.16688239  0.83349284  1
  Pb  Pb51  1  0.16471226  0.50191829  0.16684984  1
  Pb  Pb52  1  0.49510304  0.50000404  0.83319165  1
  Pb  Pb53  1  0.49901090  0.49744183  0.50007098  1
  I  I54  1  0.16744999  -0.00480340  0.16758977  1
  I  I55  1  0.16274952  -0.00333209  0.50035380  1
  I  I56  1  0.16404694  -0.00354475  0.83193456  1
  I  I57  1  0.16734743  0.33351207  0.16700814  1
  I  I58  1  0.16178254  0.33664249  0.50572245  1
  I  I59  1  0.16277286  0.33647591  0.82544750  1
  I  I60  1  0.16590982  0.67020813  0.16683927  1
  I  I61  1  0.15841854  0.66770916  0.49997379  1
  I  I62  1  0.15899275  0.66831208  0.83326520  1
  I  I63  1  0.49766351  -0.00308663  0.16724292  1
  I  I64  1  0.50697189  0.00256467  0.49802514  1
  I  I65  1  0.49560173  -0.00009347  0.83375604  1
  I  I66  1  0.49815493  0.33308010  0.16731409  1
  I  I67  1  0.50724862  0.32982402  0.49995965  1
  I  I68  1  0.50149731  0.33312847  0.83334344  1
  I  I69  1  0.49821288  0.67029787  0.16858087  1
  I  I70  1  0.50337658  0.66670214  0.49848744  1
  I  I71  1  0.50813929  0.66690145  0.83323623  1
  I  I72  1  0.83347606  0.00181365  0.16944930  1
  I  I73  1  0.83357630  -0.00035036  0.49919815  1
  I  I74  1  0.83909763  -0.00099516  0.83132751  1
  I  I75  1  0.83410602  0.33298689  0.17051910  1
  I  I76  1  0.83343599  0.33333868  0.49924661  1
  I  I77  1  0.83501185  0.33109207  0.83102791  1
  I  I78  1  0.83391523  0.66465806  0.17045037  1
  I  I79  1  0.83854785  0.66702819  0.49789699  1
  I  I80  1  0.83597408  0.66964678  0.83272202  1
  I  I81  1  0.16393288  0.16703250  0.00002599  1
  I  I82  1  0.16425658  0.16579793  0.33344870  1
  I  I83  1  0.16536788  0.16261723  0.66650508  1
  I  I84  1  0.16214288  0.50655320  -0.00229475  1
  I  I85  1  0.16340366  0.50433801  0.33631859  1
  I  I86  1  0.15864350  0.50840945  0.66556553  1
  I  I87  1  0.16392835  0.82927957  -0.00085579  1
  I  I88  1  0.16477388  0.83041301  0.33447501  1
  I  I89  1  0.16062318  0.82970493  0.66625707  1
  I  I90  1  0.50060927  0.16595893  0.00026609  1
  I  I91  1  0.50706285  0.16552288  0.33631364  1
  I  I92  1  0.50563158  0.16448154  0.66303509  1
  I  I93  1  0.50266915  0.50017459  0.00018816  1
  I  I94  1  0.49579789  0.50002553  0.33345435  1
  I  I95  1  0.50696307  0.50047492  0.66637676  1
  I  I96  1  0.49829463  0.83430883  0.00335250  1
  I  I97  1  0.49764307  0.83487899  0.33076243  1
  I  I98  1  0.49864956  0.83516817  0.66656126  1
  I  I99  1  0.83660103  0.16454043  -0.00011363  1
  I  I100  1  0.82971263  0.16574291  0.33443416  1
  I  I101  1  0.82995707  0.16549288  0.66575216  1
  I  I102  1  0.83512054  0.49808743  0.00181787  1
  I  I103  1  0.83877007  0.49779491  0.33507788  1
  I  I104  1  0.83576667  0.49695592  0.66354165  1
  I  I105  1  0.83634929  0.83645920  -0.00218249  1
  I  I106  1  0.83607671  0.83584271  0.33601226  1
  I  I107  1  0.84061297  0.83743032  0.66578456  1
  I  I108  1  -0.00458802  0.16766926  0.17165126  1
  I  I109  1  -0.00378510  0.16580847  0.49988914  1
  I  I110  1  -0.00401270  0.16389463  0.82898060  1
  I  I111  1  -0.00335683  0.49854438  0.16908731  1
  I  I112  1  -0.00116415  0.49893395  0.49953245  1
  I  I113  1  0.00241039  0.50244019  0.83199242  1
  I  I114  1  0.00221722  0.83359586  0.16678764  1
  I  I115  1  -0.00072309  0.83542650  0.49784945  1
  I  I116  1  -0.00009968  0.83417444  0.83539211  1
  I  I117  1  0.33356401  0.16770931  0.16849603  1
  I  I118  1  0.33556473  0.16478595  0.49994264  1
  I  I119  1  0.33338811  0.16616952  0.83120845  1
  I  I120  1  0.33309366  0.49943259  0.16681528  1
  I  I121  1  0.32940870  0.50531585  0.50494213  1
  I  I122  1  0.32722110  0.50940771  0.82514893  1
  I  I123  1  0.33173344  0.83235301  0.16776511  1
  I  I124  1  0.32978335  0.83076422  0.50181150  1
  I  I125  1  0.32950559  0.82862556  0.82991419  1
  I  I126  1  0.67121175  0.16643579  0.16529723  1
  I  I127  1  0.66990228  0.16527476  0.49931181  1
  I  I128  1  0.67183541  0.15990913  0.83641032  1
  I  I129  1  0.67152442  0.49850474  0.17304777  1
  I  I130  1  0.67017633  0.50256257  0.49592033  1
  I  I131  1  0.66693909  0.50037249  0.83389929  1
  I  I132  1  0.66550045  0.83463375  0.16780109  1
  I  I133  1  0.67022590  0.83180317  0.50145081  1
  I  I134  1  0.67019859  0.83774372  0.83115609  1
