# generated using pymatgen
data_Cs27Sn13Pb14I81
_symmetry_space_group_name_H-M   'P 1'
_cell_length_a   18.97634825
_cell_length_b   18.97622782
_cell_length_c   18.97743407
_cell_angle_alpha   90.00004647
_cell_angle_beta   89.99922693
_cell_angle_gamma   90.00025675
_symmetry_Int_Tables_number   1
_chemical_formula_structural   Cs27Sn13Pb14I81
_chemical_formula_sum   'Cs27 Sn13 Pb14 I81'
_cell_volume   6833.76466173
_cell_formula_units_Z   1
loop_
 _symmetry_equiv_pos_site_id
 _symmetry_equiv_pos_as_xyz
  1  'x, y, z'
loop_
 _atom_site_type_symbol
 _atom_site_label
 _atom_site_symmetry_multiplicity
 _atom_site_fract_x
 _atom_site_fract_y
 _atom_site_fract_z
 _atom_site_occupancy
  Cs  Cs0  1  0.00077992  0.00097437  0.00217547  1
  Cs  Cs1  1  0.00004927  0.00257304  0.33078074  1
  Cs  Cs2  1  -0.00264904  -0.00125863  0.66702621  1
  Cs  Cs3  1  -0.00082705  0.33258586  0.00114446  1
  Cs  Cs4  1  0.00951504  0.32768247  0.33120237  1
  Cs  Cs5  1  -0.00010408  0.34040114  0.66716533  1
  Cs  Cs6  1  0.00622113  0.66533705  -0.00164002  1
  Cs  Cs7  1  -0.00219362  0.66626448  0.33646022  1
  Cs  Cs8  1  -0.00191702  0.65858569  0.66614779  1
  Cs  Cs9  1  0.33555589  -0.00259674  -0.00268210  1
  Cs  Cs10  1  0.33141703  0.00035475  0.33655142  1
  Cs  Cs11  1  0.33397865  0.00035203  0.66676375  1
  Cs  Cs12  1  0.33608153  0.33642936  0.00115272  1
  Cs  Cs13  1  0.32815808  0.34093158  0.34151567  1
  Cs  Cs14  1  0.33302148  0.33046064  0.65871970  1
  Cs  Cs15  1  0.32877509  0.66675581  0.00169918  1
  Cs  Cs16  1  0.33306145  0.66121613  0.33002239  1
  Cs  Cs17  1  0.33011566  0.66914446  0.66862415  1
  Cs  Cs18  1  0.66625835  0.00049513  -0.00079642  1
  Cs  Cs19  1  0.66814101  -0.00219506  0.33177787  1
  Cs  Cs20  1  0.66622592  -0.00051830  0.66730131  1
  Cs  Cs21  1  0.66758058  0.33228986  -0.00054395  1
  Cs  Cs22  1  0.66264288  0.33559536  0.33200532  1
  Cs  Cs23  1  0.66669805  0.33364007  0.66716869  1
  Cs  Cs24  1  0.66563338  0.66675813  0.00093710  1
  Cs  Cs25  1  0.66754980  0.66696423  0.33330006  1
  Cs  Cs26  1  0.67075741  0.66799927  0.66574711  1
  Sn  Sn27  1  0.49990614  0.16685142  0.83396126  1
  Sn  Sn28  1  0.83294228  0.83379902  0.83439871  1
  Sn  Sn29  1  0.83349256  0.16594318  0.83229570  1
  Sn  Sn30  1  0.83275150  0.83227841  0.16533224  1
  Sn  Sn31  1  0.83282597  0.16672376  0.50067849  1
  Sn  Sn32  1  0.16713404  0.83352511  0.50020062  1
  Sn  Sn33  1  0.16671115  0.16643755  0.83360440  1
  Sn  Sn34  1  0.49906202  0.83348793  0.49987136  1
  Sn  Sn35  1  0.50075202  0.83295189  0.83349144  1
  Sn  Sn36  1  0.83328369  0.50087946  0.16656701  1
  Sn  Sn37  1  0.50011742  0.50026290  0.83302458  1
  Sn  Sn38  1  0.49977167  0.16621486  0.16667784  1
  Sn  Sn39  1  0.50064299  0.83425867  0.16661447  1
  Pb  Pb40  1  0.16609922  0.83486679  0.83175514  1
  Pb  Pb41  1  0.17087484  0.16630451  0.16428103  1
  Pb  Pb42  1  0.16670210  0.83352966  0.16884742  1
  Pb  Pb43  1  0.16657954  0.50301176  0.50021275  1
  Pb  Pb44  1  0.83308748  0.49640398  0.49679304  1
  Pb  Pb45  1  0.16346413  0.50006626  0.16636690  1
  Pb  Pb46  1  0.83158317  0.50011803  0.83499031  1
  Pb  Pb47  1  0.50039931  0.50343275  0.50294283  1
  Pb  Pb48  1  0.16992556  0.49674269  0.83333804  1
  Pb  Pb49  1  0.50153238  0.16480787  0.49984724  1
  Pb  Pb50  1  0.83154181  0.16623668  0.16622903  1
  Pb  Pb51  1  0.16416365  0.16466050  0.50254018  1
  Pb  Pb52  1  0.83312796  0.83452712  0.50002974  1
  Pb  Pb53  1  0.50121923  0.50024658  0.16489566  1
  I  I54  1  0.16098845  -0.00003291  0.16742985  1
  I  I55  1  0.17153275  -0.00287904  0.50056016  1
  I  I56  1  0.17093998  0.00273566  0.83224037  1
  I  I57  1  0.16540016  0.33297691  0.16652420  1
  I  I58  1  0.16549381  0.33300488  0.50023716  1
  I  I59  1  0.16408815  0.32868597  0.83321264  1
  I  I60  1  0.17152169  0.66703397  0.16602766  1
  I  I61  1  0.17003923  0.67109232  0.50181116  1
  I  I62  1  0.16662762  0.66671972  0.83149033  1
  I  I63  1  0.50613960  -0.00129235  0.16139404  1
  I  I64  1  0.49823568  -0.00343277  0.50444133  1
  I  I65  1  0.50077700  -0.00025473  0.83396743  1
  I  I66  1  0.50395562  0.33073397  0.15949887  1
  I  I67  1  0.50158160  0.33321217  0.49967674  1
  I  I68  1  0.50116362  0.33151949  0.83944175  1
  I  I69  1  0.50241347  0.67025607  0.16596393  1
  I  I70  1  0.49817921  0.67183742  0.49857006  1
  I  I71  1  0.50549563  0.66862081  0.83293581  1
  I  I72  1  0.83053359  -0.00284898  0.16582156  1
  I  I73  1  0.83238668  0.00224382  0.50093336  1
  I  I74  1  0.82842717  -0.00007852  0.83477839  1
  I  I75  1  0.83045599  0.33471320  0.16590441  1
  I  I76  1  0.83204498  0.32870533  0.50747731  1
  I  I77  1  0.83160121  0.33010416  0.83166060  1
  I  I78  1  0.82648908  0.66907307  0.16230498  1
  I  I79  1  0.83402119  0.66682235  0.50239761  1
  I  I80  1  0.82793995  0.66995865  0.83446613  1
  I  I81  1  0.16054622  0.16444921  -0.00383376  1
  I  I82  1  0.16460648  0.16587056  0.33358419  1
  I  I83  1  0.17323054  0.16455738  0.67030846  1
  I  I84  1  0.16737443  0.50151526  -0.00041929  1
  I  I85  1  0.16780599  0.49867234  0.33334917  1
  I  I86  1  0.16536182  0.50034981  0.66699096  1
  I  I87  1  0.16840509  0.83420169  -0.00017998  1
  I  I88  1  0.17027196  0.83478901  0.33669220  1
  I  I89  1  0.17197056  0.83636084  0.66412914  1
  I  I90  1  0.50245416  0.16196194  -0.00176962  1
  I  I91  1  0.50530917  0.16052664  0.33070237  1
  I  I92  1  0.49900744  0.16533454  0.67026076  1
  I  I93  1  0.50195912  0.50240203  -0.00303896  1
  I  I94  1  0.50116405  0.49910433  0.33319057  1
  I  I95  1  0.50164856  0.49701739  0.67106469  1
  I  I96  1  0.50520930  0.83514415  -0.00080867  1
  I  I97  1  0.50151825  0.83920041  0.33221278  1
  I  I98  1  0.50044248  0.83426566  0.66823669  1
  I  I99  1  0.83375888  0.16567033  -0.00330546  1
  I  I100  1  0.83060625  0.16488491  0.33484864  1
  I  I101  1  0.83044822  0.15982787  0.66930198  1
  I  I102  1  0.83042374  0.49960583  0.00259959  1
  I  I103  1  0.83030475  0.50766276  0.32924591  1
  I  I104  1  0.83286989  0.50250167  0.66682501  1
  I  I105  1  0.82532850  0.83601805  -0.00076033  1
  I  I106  1  0.82969566  0.83208418  0.33075451  1
  I  I107  1  0.82926845  0.83708652  0.66961277  1
  I  I108  1  -0.00010447  0.16688725  0.16647509  1
  I  I109  1  -0.00367621  0.16281142  0.50341507  1
  I  I110  1  -0.00157018  0.16073593  0.82900377  1
  I  I111  1  -0.00475288  0.50604434  0.16469762  1
  I  I112  1  -0.00036171  0.50343655  0.50120855  1
  I  I113  1  -0.00011834  0.50031807  0.83437125  1
  I  I114  1  -0.00357978  0.83013005  0.16344902  1
  I  I115  1  0.00162467  0.83652136  0.50020349  1
  I  I116  1  -0.00344610  0.83892457  0.83613447  1
  I  I117  1  0.33886879  0.15923628  0.16067654  1
  I  I118  1  0.33343751  0.16632333  0.50091072  1
  I  I119  1  0.33520944  0.16526652  0.83823601  1
  I  I120  1  0.33361741  0.49999051  0.16537251  1
  I  I121  1  0.33369821  0.49611925  0.49940831  1
  I  I122  1  0.33801910  0.50335061  0.83561694  1
  I  I123  1  0.33719632  0.83757292  0.16289734  1
  I  I124  1  0.33518005  0.83554571  0.50175192  1
  I  I125  1  0.33686056  0.83448725  0.83514361  1
  I  I126  1  0.66369583  0.16451421  0.16060107  1
  I  I127  1  0.66924760  0.16281979  0.50613138  1
  I  I128  1  0.66616574  0.16516790  0.83347743  1
  I  I129  1  0.66905646  0.50169774  0.16508640  1
  I  I130  1  0.66671530  0.50258951  0.50029515  1
  I  I131  1  0.66375241  0.49644938  0.83474098  1
  I  I132  1  0.66591402  0.83388473  0.16752046  1
  I  I133  1  0.66398999  0.83526621  0.50078842  1
  I  I134  1  0.66567656  0.83782114  0.83191038  1
