# generated using pymatgen
data_Cs27Sn13Pb14I81
_symmetry_space_group_name_H-M   'P 1'
_cell_length_a   18.98233405
_cell_length_b   18.97793159
_cell_length_c   18.97088289
_cell_angle_alpha   90.00301535
_cell_angle_beta   90.00154624
_cell_angle_gamma   90.00146300
_symmetry_Int_Tables_number   1
_chemical_formula_structural   Cs27Sn13Pb14I81
_chemical_formula_sum   'Cs27 Sn13 Pb14 I81'
_cell_volume   6834.17398373
_cell_formula_units_Z   1
loop_
 _symmetry_equiv_pos_site_id
 _symmetry_equiv_pos_as_xyz
  1  'x, y, z'
loop_
 _atom_site_type_symbol
 _atom_site_label
 _atom_site_symmetry_multiplicity
 _atom_site_fract_x
 _atom_site_fract_y
 _atom_site_fract_z
 _atom_site_occupancy
  Cs  Cs0  1  -0.00032209  0.00074218  0.00572295  1
  Cs  Cs1  1  0.00096472  0.00353870  0.33182629  1
  Cs  Cs2  1  0.00104688  -0.00012460  0.66583710  1
  Cs  Cs3  1  0.00004043  0.33319860  0.00159459  1
  Cs  Cs4  1  0.00366650  0.33341845  0.33464310  1
  Cs  Cs5  1  -0.00145543  0.33010012  0.66494499  1
  Cs  Cs6  1  0.00688417  0.66668992  -0.00079036  1
  Cs  Cs7  1  -0.00300236  0.66525265  0.33433676  1
  Cs  Cs8  1  -0.00168912  0.66811535  0.66701043  1
  Cs  Cs9  1  0.33481570  -0.00176474  0.00720286  1
  Cs  Cs10  1  0.33420431  0.00405775  0.33044312  1
  Cs  Cs11  1  0.33141662  -0.00141740  0.66517706  1
  Cs  Cs12  1  0.33405041  0.33455213  -0.00251496  1
  Cs  Cs13  1  0.32877427  0.33181712  0.33319556  1
  Cs  Cs14  1  0.33671199  0.33354102  0.66919025  1
  Cs  Cs15  1  0.32192455  0.66673686  -0.00105006  1
  Cs  Cs16  1  0.33568687  0.66610722  0.33288216  1
  Cs  Cs17  1  0.33495850  0.66694187  0.66851962  1
  Cs  Cs18  1  0.66487109  0.00716850  0.00541647  1
  Cs  Cs19  1  0.66545181  -0.00203126  0.33021946  1
  Cs  Cs20  1  0.66678047  -0.00157515  0.66670810  1
  Cs  Cs21  1  0.66541503  0.32668638  -0.00205323  1
  Cs  Cs22  1  0.66679592  0.33832992  0.33460924  1
  Cs  Cs23  1  0.66487846  0.33347543  0.66867136  1
  Cs  Cs24  1  0.66822198  0.66782855  0.00252788  1
  Cs  Cs25  1  0.66691428  0.66564023  0.33403461  1
  Cs  Cs26  1  0.66687544  0.66710907  0.66521281  1
  Sn  Sn27  1  0.83306778  0.50064245  0.83329734  1
  Sn  Sn28  1  0.83224163  0.83294281  0.83286203  1
  Sn  Sn29  1  0.50014508  0.83425388  0.50064978  1
  Sn  Sn30  1  0.83333808  0.83370844  0.50052957  1
  Sn  Sn31  1  0.16660301  0.16628184  0.83309976  1
  Sn  Sn32  1  0.83397844  0.49990407  0.50050274  1
  Sn  Sn33  1  0.50058509  0.50042829  0.16620918  1
  Sn  Sn34  1  0.83206629  0.16640845  0.50023037  1
  Sn  Sn35  1  0.16616406  0.50099518  0.50065578  1
  Sn  Sn36  1  0.50095603  0.83317133  0.83300587  1
  Sn  Sn37  1  0.50104850  0.16596432  0.50032213  1
  Sn  Sn38  1  0.16659243  0.83242590  0.50012972  1
  Sn  Sn39  1  0.83232114  0.50030175  0.16628481  1
  Pb  Pb40  1  0.16651489  0.83329155  0.17023088  1
  Pb  Pb41  1  0.50018875  0.16954355  0.16953168  1
  Pb  Pb42  1  0.83443965  0.16586260  0.83138601  1
  Pb  Pb43  1  0.49814587  0.16381249  0.83119771  1
  Pb  Pb44  1  0.83325845  0.16967388  0.16986564  1
  Pb  Pb45  1  0.16616288  0.83503591  0.83143755  1
  Pb  Pb46  1  0.50236121  0.50258924  0.83599705  1
  Pb  Pb47  1  0.16669516  0.16691923  0.16303874  1
  Pb  Pb48  1  0.50018873  0.83107108  0.16652369  1
  Pb  Pb49  1  0.16628633  0.50010417  0.16909429  1
  Pb  Pb50  1  0.83334938  0.83123763  0.16641455  1
  Pb  Pb51  1  0.16686693  0.16655226  0.50097527  1
  Pb  Pb52  1  0.50006501  0.50028091  0.49921375  1
  Pb  Pb53  1  0.16404293  0.49824139  0.83048935  1
  I  I54  1  0.16698203  0.00010154  0.16969487  1
  I  I55  1  0.16396839  -0.00271091  0.50269647  1
  I  I56  1  0.16428521  0.00217677  0.82699301  1
  I  I57  1  0.16617842  0.33377384  0.17156770  1
  I  I58  1  0.16254927  0.33563716  0.50058628  1
  I  I59  1  0.16504445  0.33085946  0.82886044  1
  I  I60  1  0.16712835  0.66637898  0.16356911  1
  I  I61  1  0.16312430  0.66694115  0.50040903  1
  I  I62  1  0.16833733  0.66681166  0.83411556  1
  I  I63  1  0.49882483  -0.00008234  0.16573738  1
  I  I64  1  0.50241115  -0.00123030  0.50354232  1
  I  I65  1  0.50699870  -0.00413679  0.83034230  1
  I  I66  1  0.50551411  0.33718607  0.16910207  1
  I  I67  1  0.50265279  0.33136953  0.49727797  1
  I  I68  1  0.49981410  0.33333752  0.83247834  1
  I  I69  1  0.50575004  0.66358616  0.17197543  1
  I  I70  1  0.50178779  0.66968521  0.50140020  1
  I  I71  1  0.50083392  0.67033793  0.82428258  1
  I  I72  1  0.83417097  0.00008302  0.16671623  1
  I  I73  1  0.83393796  -0.00122851  0.50585787  1
  I  I74  1  0.83189239  -0.00344886  0.82592925  1
  I  I75  1  0.82969438  0.33800480  0.16624654  1
  I  I76  1  0.83428378  0.33445380  0.49958438  1
  I  I77  1  0.83622459  0.33600956  0.83152984  1
  I  I78  1  0.82943029  0.66302451  0.17337417  1
  I  I79  1  0.83401175  0.66657983  0.49979539  1
  I  I80  1  0.83033502  0.66682824  0.82723208  1
  I  I81  1  0.16497164  0.16660702  -0.00453161  1
  I  I82  1  0.16677020  0.16715227  0.33368633  1
  I  I83  1  0.16539212  0.16674243  0.66800829  1
  I  I84  1  0.16596521  0.49801243  -0.00029232  1
  I  I85  1  0.16084500  0.50216002  0.33740531  1
  I  I86  1  0.16181443  0.50359829  0.66248912  1
  I  I87  1  0.16719545  0.83508256  -0.00042038  1
  I  I88  1  0.16589233  0.83024353  0.33907370  1
  I  I89  1  0.16607374  0.83040963  0.66292410  1
  I  I90  1  0.49794367  0.16572592  -0.00010233  1
  I  I91  1  0.50239566  0.15932193  0.33787025  1
  I  I92  1  0.50361777  0.16735304  0.66292912  1
  I  I93  1  0.50597466  0.50103738  0.00351095  1
  I  I94  1  0.50616263  0.50172734  0.33168667  1
  I  I95  1  0.49986891  0.49808049  0.66675071  1
  I  I96  1  0.50555792  0.83174028  -0.00323627  1
  I  I97  1  0.50080651  0.83554252  0.33709317  1
  I  I98  1  0.50117763  0.83555563  0.66485139  1
  I  I99  1  0.83603144  0.16677690  -0.00009335  1
  I  I100  1  0.83172993  0.16478062  0.33856495  1
  I  I101  1  0.83127322  0.17152438  0.66286006  1
  I  I102  1  0.82860350  0.50505283  -0.00051313  1
  I  I103  1  0.83320151  0.49991820  0.33505813  1
  I  I104  1  0.83820199  0.50102737  0.66535231  1
  I  I105  1  0.82896664  0.82875279  -0.00370832  1
  I  I106  1  0.83274577  0.83226181  0.33729649  1
  I  I107  1  0.83275119  0.82829736  0.66498593  1
  I  I108  1  -0.00024078  0.16875177  0.17031573  1
  I  I109  1  -0.00264921  0.16566074  0.50185837  1
  I  I110  1  0.00189190  0.16581723  0.82766057  1
  I  I111  1  -0.00348457  0.50026987  0.16658018  1
  I  I112  1  -0.00201766  0.50202692  0.49783444  1
  I  I113  1  -0.00421308  0.50659563  0.83681248  1
  I  I114  1  -0.00022967  0.83047348  0.16576314  1
  I  I115  1  -0.00134013  0.83217962  0.50385611  1
  I  I116  1  -0.00336659  0.82992063  0.82785573  1
  I  I117  1  0.33357757  0.16954945  0.17086573  1
  I  I118  1  0.33570576  0.16399116  0.50158118  1
  I  I119  1  0.33069004  0.16663314  0.82797387  1
  I  I120  1  0.33575341  0.50041364  0.17075343  1
  I  I121  1  0.33116658  0.50221362  0.49679835  1
  I  I122  1  0.33326962  0.50011606  0.83366541  1
  I  I123  1  0.33349833  0.82948735  0.16591594  1
  I  I124  1  0.33392655  0.83303160  0.50404031  1
  I  I125  1  0.33570922  0.83523331  0.82766922  1
  I  I126  1  0.66678553  0.16566512  0.16405079  1
  I  I127  1  0.66746468  0.16502442  0.50092590  1
  I  I128  1  0.66666016  0.16887866  0.83317207  1
  I  I129  1  0.66827565  0.50135984  0.17204419  1
  I  I130  1  0.66997462  0.50166086  0.50050797  1
  I  I131  1  0.67067980  0.50028748  0.82587671  1
  I  I132  1  0.66679500  0.83238990  0.17209211  1
  I  I133  1  0.66738939  0.83302134  0.50342731  1
  I  I134  1  0.66767580  0.82875368  0.82301329  1
