# generated using pymatgen
data_Cs27Sn13Pb14I81
_symmetry_space_group_name_H-M   'P 1'
_cell_length_a   18.98889999
_cell_length_b   18.99816397
_cell_length_c   18.98784055
_cell_angle_alpha   90.00114528
_cell_angle_beta   89.99976602
_cell_angle_gamma   89.99940684
_symmetry_Int_Tables_number   1
_chemical_formula_structural   Cs27Sn13Pb14I81
_chemical_formula_sum   'Cs27 Sn13 Pb14 I81'
_cell_volume   6849.94390092
_cell_formula_units_Z   1
loop_
 _symmetry_equiv_pos_site_id
 _symmetry_equiv_pos_as_xyz
  1  'x, y, z'
loop_
 _atom_site_type_symbol
 _atom_site_label
 _atom_site_symmetry_multiplicity
 _atom_site_fract_x
 _atom_site_fract_y
 _atom_site_fract_z
 _atom_site_occupancy
  Cs  Cs0  1  0.00144500  0.00099437  0.00233057  1
  Cs  Cs1  1  -0.00030536  0.00064848  0.33145465  1
  Cs  Cs2  1  0.00067841  0.00022523  0.66387731  1
  Cs  Cs3  1  -0.00281627  0.33057323  0.00255448  1
  Cs  Cs4  1  0.00050724  0.33594218  0.33278997  1
  Cs  Cs5  1  0.00022519  0.33160072  0.66471900  1
  Cs  Cs6  1  -0.00392481  0.66641828  0.00175090  1
  Cs  Cs7  1  0.00322919  0.66313597  0.33018742  1
  Cs  Cs8  1  -0.00304829  0.66757499  0.66653333  1
  Cs  Cs9  1  0.33200694  -0.00037432  -0.00059504  1
  Cs  Cs10  1  0.33559564  -0.00109099  0.33067771  1
  Cs  Cs11  1  0.32915668  -0.00065176  0.67034593  1
  Cs  Cs12  1  0.33482023  0.33195717  -0.00424273  1
  Cs  Cs13  1  0.33915629  0.34159458  0.33541452  1
  Cs  Cs14  1  0.33259063  0.33659789  0.67031993  1
  Cs  Cs15  1  0.33369166  0.66901563  -0.00210571  1
  Cs  Cs16  1  0.33731775  0.65999097  0.33573494  1
  Cs  Cs17  1  0.33294357  0.66480108  0.66807210  1
  Cs  Cs18  1  0.66720048  0.00110036  0.00132297  1
  Cs  Cs19  1  0.66142812  0.00081976  0.33971164  1
  Cs  Cs20  1  0.67093182  -0.00067845  0.65921695  1
  Cs  Cs21  1  0.66915323  0.33386868  0.00091867  1
  Cs  Cs22  1  0.65855597  0.33151831  0.33632369  1
  Cs  Cs23  1  0.66799888  0.33107465  0.66485467  1
  Cs  Cs24  1  0.67094915  0.66343404  -0.00144500  1
  Cs  Cs25  1  0.65545745  0.66656270  0.33406549  1
  Cs  Cs26  1  0.67202753  0.67039339  0.66788049  1
  Sn  Sn27  1  0.49997017  0.83359737  0.83352225  1
  Sn  Sn28  1  0.83358005  0.50015651  0.49950932  1
  Sn  Sn29  1  0.16650846  0.16633972  0.16822321  1
  Sn  Sn30  1  0.16615612  0.83392118  0.16701477  1
  Sn  Sn31  1  0.16624024  0.50116693  0.83387913  1
  Sn  Sn32  1  0.16649140  0.83389880  0.49953437  1
  Sn  Sn33  1  0.16669755  0.83220879  0.83346333  1
  Sn  Sn34  1  0.16687757  0.16627318  0.49814328  1
  Sn  Sn35  1  0.83362497  0.83420905  0.16713240  1
  Sn  Sn36  1  0.83258700  0.16609963  0.83364024  1
  Sn  Sn37  1  0.83375420  0.16542354  0.16651177  1
  Sn  Sn38  1  0.50168256  0.16601670  0.83337914  1
  Sn  Sn39  1  0.49979804  0.50031147  0.83332438  1
  Pb  Pb40  1  0.83321250  0.49961740  0.16941769  1
  Pb  Pb41  1  0.83351134  0.49759342  0.83212097  1
  Pb  Pb42  1  0.49998238  0.50001622  0.16355598  1
  Pb  Pb43  1  0.49626322  0.16645043  0.50299740  1
  Pb  Pb44  1  0.83586866  0.83142471  0.49635091  1
  Pb  Pb45  1  0.50275101  0.50012289  0.50340035  1
  Pb  Pb46  1  0.83385037  0.83583014  0.83496280  1
  Pb  Pb47  1  0.49963007  0.16653220  0.16475777  1
  Pb  Pb48  1  0.83538739  0.16780160  0.49882979  1
  Pb  Pb49  1  0.49687458  0.83347365  0.50302038  1
  Pb  Pb50  1  0.16641806  0.16625822  0.83381645  1
  Pb  Pb51  1  0.16552423  0.50017465  0.50234589  1
  Pb  Pb52  1  0.16674528  0.49985486  0.16388732  1
  Pb  Pb53  1  0.49961900  0.83344833  0.16429720  1
  I  I54  1  0.16249575  -0.00043622  0.16377287  1
  I  I55  1  0.16514463  -0.00048672  0.50434932  1
  I  I56  1  0.16998146  -0.00273085  0.83337678  1
  I  I57  1  0.16109731  0.32986011  0.16859584  1
  I  I58  1  0.16402698  0.33079305  0.49848430  1
  I  I59  1  0.17000828  0.33483044  0.83234136  1
  I  I60  1  0.16200101  0.67024160  0.16778364  1
  I  I61  1  0.16474747  0.66970444  0.49865781  1
  I  I62  1  0.17471382  0.66804359  0.83268232  1
  I  I63  1  0.49935231  0.00000481  0.16157996  1
  I  I64  1  0.50432534  0.00001481  0.50346847  1
  I  I65  1  0.49653512  -0.00023366  0.83486884  1
  I  I66  1  0.50006394  0.33300886  0.16326979  1
  I  I67  1  0.49755740  0.33324139  0.50252230  1
  I  I68  1  0.49763038  0.33325876  0.83372416  1
  I  I69  1  0.50061357  0.66699762  0.16438814  1
  I  I70  1  0.49839161  0.66675335  0.50120829  1
  I  I71  1  0.49266874  0.66696623  0.83353868  1
  I  I72  1  0.83968310  0.00078817  0.16048482  1
  I  I73  1  0.83298947  -0.00013180  0.50318076  1
  I  I74  1  0.83066740  0.00365401  0.83415172  1
  I  I75  1  0.83906986  0.32971470  0.16167678  1
  I  I76  1  0.83764850  0.33520503  0.50160982  1
  I  I77  1  0.83130408  0.32981680  0.83880411  1
  I  I78  1  0.83963094  0.66971226  0.16618160  1
  I  I79  1  0.83651906  0.66423741  0.50317384  1
  I  I80  1  0.83105542  0.66687025  0.83412421  1
  I  I81  1  0.16576021  0.16374855  0.00225389  1
  I  I82  1  0.15861822  0.15800739  0.33231987  1
  I  I83  1  0.16685714  0.16397197  0.66529104  1
  I  I84  1  0.17028341  0.50303069  -0.00427589  1
  I  I85  1  0.16470384  0.50191707  0.33339399  1
  I  I86  1  0.17034455  0.50228657  0.67028844  1
  I  I87  1  0.16763977  0.83433066  -0.00021052  1
  I  I88  1  0.15961439  0.83940826  0.33268090  1
  I  I89  1  0.17211551  0.83420833  0.66741314  1
  I  I90  1  0.49765327  0.16711479  -0.00393521  1
  I  I91  1  0.50322543  0.16734482  0.33350378  1
  I  I92  1  0.50479408  0.16700718  0.67149584  1
  I  I93  1  0.49651176  0.49981122  -0.00505294  1
  I  I94  1  0.50092847  0.49963666  0.33389640  1
  I  I95  1  0.49382308  0.49914047  0.67124800  1
  I  I96  1  0.49250837  0.83356962  -0.00404585  1
  I  I97  1  0.50035540  0.83294032  0.33335138  1
  I  I98  1  0.49482363  0.83318371  0.67148326  1
  I  I99  1  0.83641677  0.16498898  0.00023683  1
  I  I100  1  0.83795070  0.16425281  0.32985758  1
  I  I101  1  0.83113514  0.16939415  0.66880790  1
  I  I102  1  0.83254474  0.50071660  0.00004917  1
  I  I103  1  0.83848479  0.49822703  0.33658434  1
  I  I104  1  0.83437954  0.49790668  0.66472048  1
  I  I105  1  0.83955520  0.83421421  0.00265344  1
  I  I106  1  0.83997758  0.84071704  0.32868321  1
  I  I107  1  0.83360321  0.83359791  0.66652894  1
  I  I108  1  0.00037396  0.16276588  0.16223671  1
  I  I109  1  0.00319446  0.16360595  0.50409230  1
  I  I110  1  -0.00192086  0.16750169  0.83423232  1
  I  I111  1  0.00004439  0.50011126  0.16265180  1
  I  I112  1  -0.00177140  0.49912981  0.50440554  1
  I  I113  1  0.00254317  0.50374765  0.83148588  1
  I  I114  1  0.00161793  0.83750761  0.16296138  1
  I  I115  1  0.00391648  0.83681766  0.50783127  1
  I  I116  1  0.00347624  0.82999219  0.83179976  1
  I  I117  1  0.32970402  0.16086401  0.16745909  1
  I  I118  1  0.32833285  0.16308295  0.49580114  1
  I  I119  1  0.33514816  0.16745283  0.83271204  1
  I  I120  1  0.33296980  0.49953820  0.16992017  1
  I  I121  1  0.33340141  0.49975552  0.49948704  1
  I  I122  1  0.33311583  0.49757729  0.83256824  1
  I  I123  1  0.32944394  0.83878178  0.16651014  1
  I  I124  1  0.32848335  0.83641562  0.49524133  1
  I  I125  1  0.33197146  0.83487979  0.83495375  1
  I  I126  1  0.66992043  0.16322764  0.16247025  1
  I  I127  1  0.66655750  0.16931724  0.49873459  1
  I  I128  1  0.66662656  0.16832702  0.83972901  1
  I  I129  1  0.66698278  0.50078767  0.16436140  1
  I  I130  1  0.67007718  0.49804124  0.50120087  1
  I  I131  1  0.66392931  0.50261869  0.83173299  1
  I  I132  1  0.66967096  0.83721669  0.16346912  1
  I  I133  1  0.66682816  0.83143818  0.50058297  1
  I  I134  1  0.66425205  0.82985704  0.83643960  1
