# generated using pymatgen
data_Cs27Sn14Pb13I81
_symmetry_space_group_name_H-M   'P 1'
_cell_length_a   18.96850076
_cell_length_b   18.98059351
_cell_length_c   18.97742739
_cell_angle_alpha   89.99963106
_cell_angle_beta   89.99833759
_cell_angle_gamma   89.99909877
_symmetry_Int_Tables_number   1
_chemical_formula_structural   Cs27Sn14Pb13I81
_chemical_formula_sum   'Cs27 Sn14 Pb13 I81'
_cell_volume   6832.50774894
_cell_formula_units_Z   1
loop_
 _symmetry_equiv_pos_site_id
 _symmetry_equiv_pos_as_xyz
  1  'x, y, z'
loop_
 _atom_site_type_symbol
 _atom_site_label
 _atom_site_symmetry_multiplicity
 _atom_site_fract_x
 _atom_site_fract_y
 _atom_site_fract_z
 _atom_site_occupancy
  Cs  Cs0  1  -0.00264355  -0.00143634  0.00074434  1
  Cs  Cs1  1  0.00106896  -0.00172152  0.33153189  1
  Cs  Cs2  1  0.00180060  -0.00277766  0.66757240  1
  Cs  Cs3  1  0.00281290  0.33691965  -0.00355629  1
  Cs  Cs4  1  0.00261096  0.33171943  0.33751159  1
  Cs  Cs5  1  -0.00204463  0.33226916  0.66549717  1
  Cs  Cs6  1  -0.00028995  0.66594407  -0.00002169  1
  Cs  Cs7  1  0.00156886  0.66925939  0.33472444  1
  Cs  Cs8  1  -0.00110863  0.66839503  0.66556389  1
  Cs  Cs9  1  0.33465138  0.00181814  -0.00647996  1
  Cs  Cs10  1  0.33156459  -0.00072768  0.33469598  1
  Cs  Cs11  1  0.34011525  -0.00145493  0.67221257  1
  Cs  Cs12  1  0.33194112  0.33380549  -0.00096917  1
  Cs  Cs13  1  0.33121774  0.33359219  0.33189880  1
  Cs  Cs14  1  0.33197186  0.33237282  0.66840865  1
  Cs  Cs15  1  0.33202142  0.66464201  0.00182292  1
  Cs  Cs16  1  0.33321787  0.66638642  0.33302030  1
  Cs  Cs17  1  0.33539808  0.66964275  0.66605572  1
  Cs  Cs18  1  0.66897350  0.00451374  0.00395185  1
  Cs  Cs19  1  0.66541408  0.00872675  0.33029283  1
  Cs  Cs20  1  0.65856305  -0.00051631  0.66613292  1
  Cs  Cs21  1  0.66520883  0.33502039  0.00015366  1
  Cs  Cs22  1  0.66800346  0.32864487  0.33488902  1
  Cs  Cs23  1  0.67076311  0.33553988  0.66515886  1
  Cs  Cs24  1  0.66791415  0.66538475  0.00150269  1
  Cs  Cs25  1  0.66515232  0.66584643  0.33126701  1
  Cs  Cs26  1  0.66690260  0.66517336  0.66721850  1
  Sn  Sn27  1  0.83267863  0.50022359  0.83420424  1
  Sn  Sn28  1  0.16663154  0.16547257  0.16680702  1
  Sn  Sn29  1  0.83297180  0.50000634  0.16666055  1
  Sn  Sn30  1  0.16779900  0.83419874  0.16702621  1
  Sn  Sn31  1  0.50084371  0.50064467  0.16684700  1
  Sn  Sn32  1  0.83314471  0.83346249  0.83240443  1
  Sn  Sn33  1  0.16746942  0.50037945  0.50019343  1
  Sn  Sn34  1  0.16675508  0.16584220  0.49980110  1
  Sn  Sn35  1  0.16639987  0.83385965  0.49958076  1
  Sn  Sn36  1  0.83308014  0.83345461  0.50027334  1
  Sn  Sn37  1  0.83334419  0.16655985  0.83309089  1
  Sn  Sn38  1  0.49919015  0.50005986  0.49967322  1
  Sn  Sn39  1  0.50050617  0.50041524  0.83353424  1
  Sn  Sn40  1  0.49917142  0.83303177  0.16683652  1
  Pb  Pb41  1  0.83319475  0.50152577  0.49984012  1
  Pb  Pb42  1  0.50294497  0.83106735  0.83644099  1
  Pb  Pb43  1  0.49736830  0.16704924  0.16665979  1
  Pb  Pb44  1  0.16662691  0.50032210  0.16850434  1
  Pb  Pb45  1  0.16479956  0.16652009  0.83324476  1
  Pb  Pb46  1  0.49720388  0.16955027  0.49999317  1
  Pb  Pb47  1  0.83332195  0.83185891  0.16703329  1
  Pb  Pb48  1  0.16651082  0.50029518  0.83015456  1
  Pb  Pb49  1  0.16501721  0.83317894  0.83356263  1
  Pb  Pb50  1  0.83619075  0.16995851  0.16493072  1
  Pb  Pb51  1  0.50005965  0.83163064  0.49787758  1
  Pb  Pb52  1  0.83546487  0.16330465  0.50202613  1
  Pb  Pb53  1  0.50286038  0.16952737  0.83338872  1
  I  I54  1  0.17014675  -0.00126478  0.17525731  1
  I  I55  1  0.15908546  -0.00094348  0.49435658  1
  I  I56  1  0.16392048  -0.00016913  0.83010105  1
  I  I57  1  0.16530852  0.33171138  0.17122601  1
  I  I58  1  0.17105692  0.33347267  0.49566451  1
  I  I59  1  0.16395043  0.33359252  0.83386207  1
  I  I60  1  0.16708664  0.66914660  0.17115621  1
  I  I61  1  0.16584332  0.66733872  0.49593785  1
  I  I62  1  0.16286486  0.66655557  0.83412418  1
  I  I63  1  0.49890720  -0.00285291  0.16780994  1
  I  I64  1  0.50057622  -0.00018509  0.49847951  1
  I  I65  1  0.50083726  -0.00028195  0.83420254  1
  I  I66  1  0.50269983  0.33711755  0.16605266  1
  I  I67  1  0.49642491  0.33823602  0.49743225  1
  I  I68  1  0.50462119  0.33798190  0.83612597  1
  I  I69  1  0.49751018  0.66536473  0.16678644  1
  I  I70  1  0.49452394  0.66329473  0.50152986  1
  I  I71  1  0.50603061  0.66296089  0.83090090  1
  I  I72  1  0.83093251  0.00003157  0.16507336  1
  I  I73  1  0.83921486  -0.00467523  0.50363043  1
  I  I74  1  0.83788158  -0.00079056  0.82894103  1
  I  I75  1  0.82823771  0.33786267  0.16218295  1
  I  I76  1  0.83468633  0.33335449  0.50097632  1
  I  I77  1  0.83006204  0.33483471  0.83824543  1
  I  I78  1  0.83421154  0.66393284  0.16123471  1
  I  I79  1  0.84006377  0.66914411  0.50507510  1
  I  I80  1  0.83012198  0.66586919  0.83319331  1
  I  I81  1  0.16539628  0.16268533  0.00292007  1
  I  I82  1  0.16582092  0.16702078  0.33391851  1
  I  I83  1  0.16436266  0.16785650  0.66341264  1
  I  I84  1  0.16792271  0.49927720  0.00007163  1
  I  I85  1  0.16929797  0.50032389  0.33652471  1
  I  I86  1  0.16926836  0.49994250  0.66191460  1
  I  I87  1  0.16868120  0.83729451  0.00350808  1
  I  I88  1  0.16357075  0.83293790  0.33392806  1
  I  I89  1  0.16326109  0.83292783  0.66332025  1
  I  I90  1  0.49660508  0.16860362  0.00008248  1
  I  I91  1  0.50427726  0.16985106  0.33325367  1
  I  I92  1  0.49677755  0.16720506  0.66671019  1
  I  I93  1  0.50600902  0.50365136  0.00051841  1
  I  I94  1  0.49958548  0.50464011  0.33268401  1
  I  I95  1  0.50067343  0.49911985  0.66671492  1
  I  I96  1  0.49436115  0.82671929  0.00405035  1
  I  I97  1  0.50040863  0.82524140  0.33014709  1
  I  I98  1  0.49770126  0.83159029  0.66677975  1
  I  I99  1  0.83587074  0.16155867  -0.00302102  1
  I  I100  1  0.83232789  0.16731904  0.33337852  1
  I  I101  1  0.83629171  0.17446586  0.66983174  1
  I  I102  1  0.82680179  0.50217990  -0.00086058  1
  I  I103  1  0.83077146  0.50349250  0.33116667  1
  I  I104  1  0.83085559  0.49887401  0.66932422  1
  I  I105  1  0.83346146  0.83320838  -0.00233780  1
  I  I106  1  0.83636067  0.82870742  0.33557843  1
  I  I107  1  0.84053406  0.82986701  0.66670065  1
  I  I108  1  0.00376089  0.16121217  0.17097044  1
  I  I109  1  0.00364733  0.17342188  0.49656832  1
  I  I110  1  -0.00323759  0.17110283  0.83346314  1
  I  I111  1  -0.00221673  0.50052961  0.16212725  1
  I  I112  1  0.00255568  0.49893440  0.49921490  1
  I  I113  1  -0.00358406  0.49990821  0.83769466  1
  I  I114  1  0.00254925  0.83496941  0.16793235  1
  I  I115  1  0.00135182  0.82985631  0.49834251  1
  I  I116  1  -0.00353679  0.82928169  0.83420332  1
  I  I117  1  0.32938430  0.16866630  0.17107388  1
  I  I118  1  0.32876102  0.16196062  0.49628570  1
  I  I119  1  0.33341820  0.16892731  0.83326882  1
  I  I120  1  0.33599665  0.50081220  0.16430645  1
  I  I121  1  0.33320619  0.50178165  0.49908433  1
  I  I122  1  0.33639801  0.49987366  0.83689879  1
  I  I123  1  0.33240687  0.82967877  0.17324831  1
  I  I124  1  0.33019856  0.83371203  0.49652502  1
  I  I125  1  0.33388488  0.83167940  0.83089951  1
  I  I126  1  0.66687818  0.16415401  0.16503422  1
  I  I127  1  0.66684648  0.16712338  0.50127400  1
  I  I128  1  0.67086579  0.16415887  0.83393731  1
  I  I129  1  0.66571938  0.50657820  0.16717917  1
  I  I130  1  0.66421083  0.50339155  0.50028865  1
  I  I131  1  0.66744768  0.50022739  0.83212363  1
  I  I132  1  0.66456294  0.82790712  0.16581988  1
  I  I133  1  0.66912642  0.82857378  0.50387424  1
  I  I134  1  0.67101486  0.83399389  0.82719187  1
