# generated using pymatgen
data_Cs27Sn13Pb14I81
_symmetry_space_group_name_H-M   'P 1'
_cell_length_a   19.00380630
_cell_length_b   18.97889505
_cell_length_c   18.99476643
_cell_angle_alpha   90.00255426
_cell_angle_beta   89.99940545
_cell_angle_gamma   90.00093134
_symmetry_Int_Tables_number   1
_chemical_formula_structural   Cs27Sn13Pb14I81
_chemical_formula_sum   'Cs27 Sn13 Pb14 I81'
_cell_volume   6850.86605320
_cell_formula_units_Z   1
loop_
 _symmetry_equiv_pos_site_id
 _symmetry_equiv_pos_as_xyz
  1  'x, y, z'
loop_
 _atom_site_type_symbol
 _atom_site_label
 _atom_site_symmetry_multiplicity
 _atom_site_fract_x
 _atom_site_fract_y
 _atom_site_fract_z
 _atom_site_occupancy
  Cs  Cs0  1  0.00152232  0.00543549  -0.00476692  1
  Cs  Cs1  1  -0.00118592  -0.00143939  0.33452351  1
  Cs  Cs2  1  0.00185886  0.00465684  0.66971739  1
  Cs  Cs3  1  -0.00002551  0.32962938  -0.00303767  1
  Cs  Cs4  1  0.00161205  0.32585733  0.34285263  1
  Cs  Cs5  1  -0.00672962  0.32726776  0.66009923  1
  Cs  Cs6  1  0.00212594  0.66600793  0.00351052  1
  Cs  Cs7  1  0.00088038  0.66835034  0.32964773  1
  Cs  Cs8  1  -0.00114481  0.66623103  0.66609982  1
  Cs  Cs9  1  0.33257811  0.00271418  -0.00506494  1
  Cs  Cs10  1  0.33666479  0.00003235  0.33332744  1
  Cs  Cs11  1  0.33520568  -0.00020168  0.67097883  1
  Cs  Cs12  1  0.33147060  0.33284345  0.00374482  1
  Cs  Cs13  1  0.33151424  0.33285861  0.33475930  1
  Cs  Cs14  1  0.33454453  0.33569746  0.66096348  1
  Cs  Cs15  1  0.33123528  0.66645156  -0.00076965  1
  Cs  Cs16  1  0.33202838  0.66664240  0.33208728  1
  Cs  Cs17  1  0.33520448  0.66443180  0.67020552  1
  Cs  Cs18  1  0.66579761  0.00116476  0.00110672  1
  Cs  Cs19  1  0.66469125  -0.00124145  0.33378421  1
  Cs  Cs20  1  0.66296465  -0.00116872  0.66548484  1
  Cs  Cs21  1  0.66954537  0.33055049  -0.00134629  1
  Cs  Cs22  1  0.66697261  0.33003765  0.33354219  1
  Cs  Cs23  1  0.67129639  0.34099733  0.66944870  1
  Cs  Cs24  1  0.66697358  0.66654131  0.00067084  1
  Cs  Cs25  1  0.66734948  0.66950460  0.33142741  1
  Cs  Cs26  1  0.66576012  0.66058063  0.67000643  1
  Sn  Sn27  1  0.50023377  0.16605054  0.50133942  1
  Sn  Sn28  1  0.16684264  0.83344452  0.16706436  1
  Sn  Sn29  1  0.83309772  0.83308641  0.50039819  1
  Sn  Sn30  1  0.83326649  0.83301616  0.83359212  1
  Sn  Sn31  1  0.16601802  0.50051792  0.16599049  1
  Sn  Sn32  1  0.16623966  0.49981111  0.83353633  1
  Sn  Sn33  1  0.49974524  0.83336915  0.49963535  1
  Sn  Sn34  1  0.50006846  0.16706761  0.83209950  1
  Sn  Sn35  1  0.83394974  0.50037279  0.16698588  1
  Sn  Sn36  1  0.83357595  0.83314179  0.16626730  1
  Sn  Sn37  1  0.50008328  0.50089193  0.16682863  1
  Sn  Sn38  1  0.16717605  0.83303643  0.49961948  1
  Sn  Sn39  1  0.49958844  0.83255815  0.16691999  1
  Pb  Pb40  1  0.49993361  0.16640987  0.16708305  1
  Pb  Pb41  1  0.16943919  0.16324527  0.49994842  1
  Pb  Pb42  1  0.16454495  0.83192359  0.83347635  1
  Pb  Pb43  1  0.16653010  0.50233816  0.49944889  1
  Pb  Pb44  1  0.16660047  0.16639786  0.16678603  1
  Pb  Pb45  1  0.50014910  0.50072584  0.49748097  1
  Pb  Pb46  1  0.83335183  0.50266417  0.49702731  1
  Pb  Pb47  1  0.83582087  0.50207224  0.83578071  1
  Pb  Pb48  1  0.49827439  0.49752954  0.83632967  1
  Pb  Pb49  1  0.50180127  0.83403714  0.83367429  1
  Pb  Pb50  1  0.16888969  0.17026849  0.83306405  1
  Pb  Pb51  1  0.83349280  0.16639846  0.16679639  1
  Pb  Pb52  1  0.83033418  0.16379418  0.49996076  1
  Pb  Pb53  1  0.83090623  0.16430902  0.83325274  1
  I  I54  1  0.16716730  -0.00438841  0.17120481  1
  I  I55  1  0.16287503  -0.00513673  0.49310398  1
  I  I56  1  0.16558691  -0.00003813  0.83392357  1
  I  I57  1  0.16852159  0.33715859  0.16147832  1
  I  I58  1  0.16895781  0.33327246  0.49855631  1
  I  I59  1  0.16750396  0.33785916  0.84460754  1
  I  I60  1  0.16706222  0.66768763  0.16690143  1
  I  I61  1  0.16987175  0.67090738  0.49725392  1
  I  I62  1  0.16814513  0.66435814  0.83683860  1
  I  I63  1  0.50095843  -0.00363078  0.16805602  1
  I  I64  1  0.50046710  -0.00219767  0.49696134  1
  I  I65  1  0.50066205  0.00201599  0.83469533  1
  I  I66  1  0.49948709  0.33641082  0.16611043  1
  I  I67  1  0.49875715  0.33071069  0.50166591  1
  I  I68  1  0.49929861  0.32987532  0.82750272  1
  I  I69  1  0.50026914  0.66821274  0.17173717  1
  I  I70  1  0.50029568  0.67067005  0.49689580  1
  I  I71  1  0.50035380  0.66639205  0.83076636  1
  I  I72  1  0.83183702  -0.00480681  0.16774844  1
  I  I73  1  0.83597351  -0.00501351  0.49504466  1
  I  I74  1  0.83525325  -0.00417921  0.83727980  1
  I  I75  1  0.83124724  0.33684835  0.16466018  1
  I  I76  1  0.83249736  0.33328082  0.49833390  1
  I  I77  1  0.83313307  0.33359164  0.83603063  1
  I  I78  1  0.83274138  0.66845761  0.16732195  1
  I  I79  1  0.82924865  0.67155165  0.50161239  1
  I  I80  1  0.83073705  0.67025449  0.83074591  1
  I  I81  1  0.17061922  0.16075451  -0.00016408  1
  I  I82  1  0.16972723  0.17199702  0.33348838  1
  I  I83  1  0.16603492  0.16616984  0.66652774  1
  I  I84  1  0.16795639  0.50733906  0.00242173  1
  I  I85  1  0.16777519  0.50318909  0.32938522  1
  I  I86  1  0.16903632  0.50312865  0.66903956  1
  I  I87  1  0.16745193  0.83082790  0.00338582  1
  I  I88  1  0.16371874  0.82816081  0.33218986  1
  I  I89  1  0.16707883  0.83175880  0.66386029  1
  I  I90  1  0.50020648  0.16628673  -0.00184994  1
  I  I91  1  0.50019022  0.16347411  0.33591886  1
  I  I92  1  0.49869440  0.15692721  0.66561248  1
  I  I93  1  0.50191443  0.50599637  0.00431956  1
  I  I94  1  0.49659632  0.50011830  0.32913985  1
  I  I95  1  0.49745454  0.50247691  0.66671649  1
  I  I96  1  0.50021667  0.83140535  0.00346849  1
  I  I97  1  0.50351011  0.83576530  0.33284086  1
  I  I98  1  0.49983269  0.83696514  0.66374347  1
  I  I99  1  0.82902641  0.16272548  -0.00003225  1
  I  I100  1  0.83035229  0.16562237  0.33348129  1
  I  I101  1  0.83508355  0.16466540  0.66653368  1
  I  I102  1  0.83002047  0.50792125  0.00393326  1
  I  I103  1  0.83522753  0.50700535  0.32862464  1
  I  I104  1  0.83451981  0.50212797  0.66677193  1
  I  I105  1  0.83213915  0.82923506  0.00166947  1
  I  I106  1  0.83279189  0.82988086  0.33266152  1
  I  I107  1  0.83316157  0.83546177  0.66590527  1
  I  I108  1  0.00002051  0.16538157  0.16550686  1
  I  I109  1  -0.00008049  0.16679647  0.49950004  1
  I  I110  1  -0.00007047  0.16607657  0.83476491  1
  I  I111  1  0.00028901  0.51054473  0.16154890  1
  I  I112  1  0.00000825  0.50198708  0.49829580  1
  I  I113  1  0.00322209  0.50304183  0.84119657  1
  I  I114  1  -0.00006921  0.82677621  0.17057445  1
  I  I115  1  -0.00016774  0.83005774  0.49529230  1
  I  I116  1  -0.00320496  0.83185626  0.83408307  1
  I  I117  1  0.33353552  0.16657075  0.16649650  1
  I  I118  1  0.33718296  0.16034126  0.50253306  1
  I  I119  1  0.33658266  0.16225912  0.83056450  1
  I  I120  1  0.33309467  0.50641024  0.16297557  1
  I  I121  1  0.33340112  0.50215512  0.49772939  1
  I  I122  1  0.33068776  0.50228822  0.84028089  1
  I  I123  1  0.33350605  0.82745288  0.17432302  1
  I  I124  1  0.33387052  0.83726212  0.49158434  1
  I  I125  1  0.33326132  0.83418740  0.83341656  1
  I  I126  1  0.66645453  0.16669159  0.16651996  1
  I  I127  1  0.66268070  0.15927476  0.50129425  1
  I  I128  1  0.66323161  0.16647556  0.83041550  1
  I  I129  1  0.66666762  0.50763267  0.16831453  1
  I  I130  1  0.66660137  0.50177340  0.49902844  1
  I  I131  1  0.66684833  0.49915161  0.83436105  1
  I  I132  1  0.66656855  0.82830799  0.16930240  1
  I  I133  1  0.66632995  0.83840255  0.49531381  1
  I  I134  1  0.66963620  0.83442159  0.83476236  1
