# generated using pymatgen
data_Cs27Sn14Pb13I81
_symmetry_space_group_name_H-M   'P 1'
_cell_length_a   18.97074581
_cell_length_b   18.95352843
_cell_length_c   18.96212961
_cell_angle_alpha   90.00309499
_cell_angle_beta   90.00000007
_cell_angle_gamma   89.99999999
_symmetry_Int_Tables_number   1
_chemical_formula_structural   Cs27Sn14Pb13I81
_chemical_formula_sum   'Cs27 Sn14 Pb13 I81'
_cell_volume   6818.07204641
_cell_formula_units_Z   1
loop_
 _symmetry_equiv_pos_site_id
 _symmetry_equiv_pos_as_xyz
  1  'x, y, z'
loop_
 _atom_site_type_symbol
 _atom_site_label
 _atom_site_symmetry_multiplicity
 _atom_site_fract_x
 _atom_site_fract_y
 _atom_site_fract_z
 _atom_site_occupancy
  Cs  Cs0  1  0.00246394  -0.00088234  -0.00247601  1
  Cs  Cs1  1  0.00116335  0.00015949  0.33446265  1
  Cs  Cs2  1  0.00072724  -0.00109342  0.66612339  1
  Cs  Cs3  1  0.00027644  0.33370099  -0.00058880  1
  Cs  Cs4  1  -0.00095316  0.33299627  0.33375765  1
  Cs  Cs5  1  -0.00094298  0.33357665  0.66677162  1
  Cs  Cs6  1  0.00027335  0.66660627  0.00166899  1
  Cs  Cs7  1  -0.00320867  0.66710407  0.33163787  1
  Cs  Cs8  1  -0.00046062  0.66834563  0.66611686  1
  Cs  Cs9  1  0.33333344  0.00440903  -0.00377793  1
  Cs  Cs10  1  0.33333339  -0.00151845  0.33277234  1
  Cs  Cs11  1  0.33333337  -0.00156295  0.66873135  1
  Cs  Cs12  1  0.33333339  0.33136273  0.00140561  1
  Cs  Cs13  1  0.33333337  0.33371022  0.33324267  1
  Cs  Cs14  1  0.33333340  0.33629635  0.66544747  1
  Cs  Cs15  1  0.33333336  0.66589789  0.00195373  1
  Cs  Cs16  1  0.33333333  0.66892296  0.33176275  1
  Cs  Cs17  1  0.33333335  0.66529720  0.66603066  1
  Cs  Cs18  1  0.66420283  -0.00088246  -0.00247593  1
  Cs  Cs19  1  0.66550341  0.00015943  0.33446265  1
  Cs  Cs20  1  0.66593942  -0.00109350  0.66612347  1
  Cs  Cs21  1  0.66639034  0.33370095  -0.00058881  1
  Cs  Cs22  1  0.66761979  0.33299634  0.33375751  1
  Cs  Cs23  1  0.66760956  0.33357676  0.66677175  1
  Cs  Cs24  1  0.66639346  0.66660640  0.00166904  1
  Cs  Cs25  1  0.66987553  0.66710407  0.33163782  1
  Cs  Cs26  1  0.66712747  0.66834555  0.66611684  1
  Sn  Sn27  1  0.16734771  0.50050322  0.16611089  1
  Sn  Sn28  1  0.49907458  0.83406391  0.49907072  1
  Sn  Sn29  1  0.49996160  0.50001602  0.83419195  1
  Sn  Sn30  1  0.83333333  0.16659819  0.50004695  1
  Sn  Sn31  1  0.49931894  0.50050320  0.16611088  1
  Sn  Sn32  1  0.16670510  0.50001601  0.83419194  1
  Sn  Sn33  1  0.49898039  0.83287210  0.16728428  1
  Sn  Sn34  1  0.49963422  0.16601144  0.49989902  1
  Sn  Sn35  1  0.83333333  0.49966945  0.83343943  1
  Sn  Sn36  1  0.16768629  0.83287210  0.16728426  1
  Sn  Sn37  1  0.16759213  0.83406389  0.49907075  1
  Sn  Sn38  1  0.83333334  0.16705469  0.83344694  1
  Sn  Sn39  1  0.16703245  0.16601145  0.49989909  1
  Sn  Sn40  1  0.83333334  0.16630037  0.16633849  1
  Pb  Pb41  1  0.16503684  0.16659552  0.16839351  1
  Pb  Pb42  1  0.50162983  0.16659552  0.16839349  1
  Pb  Pb43  1  0.16483780  0.16904580  0.83070251  1
  Pb  Pb44  1  0.83333339  0.49819095  0.16485627  1
  Pb  Pb45  1  0.50182891  0.16904577  0.83070258  1
  Pb  Pb46  1  0.16669636  0.50086089  0.49912923  1
  Pb  Pb47  1  0.83333335  0.83591706  0.16659573  1
  Pb  Pb48  1  0.49997032  0.50086091  0.49912926  1
  Pb  Pb49  1  0.83333334  0.49782437  0.50242792  1
  Pb  Pb50  1  0.16685987  0.83097940  0.83348252  1
  Pb  Pb51  1  0.83333336  0.83550437  0.49987367  1
  Pb  Pb52  1  0.49980681  0.83097942  0.83348247  1
  Pb  Pb53  1  0.83333335  0.83334251  0.83347795  1
  I  I54  1  0.16919068  -0.00291100  0.17017692  1
  I  I55  1  0.16589212  -0.00019601  0.49454012  1
  I  I56  1  0.16383236  0.00016841  0.83535710  1
  I  I57  1  0.16920642  0.33620311  0.16412043  1
  I  I58  1  0.16573766  0.33067917  0.50076345  1
  I  I59  1  0.16834445  0.33732029  0.83780078  1
  I  I60  1  0.16953173  0.66651148  0.16845249  1
  I  I61  1  0.17317977  0.66996909  0.50023392  1
  I  I62  1  0.16377571  0.66251078  0.83165302  1
  I  I63  1  0.49747592  -0.00291101  0.17017693  1
  I  I64  1  0.50077459  -0.00019604  0.49454004  1
  I  I65  1  0.50283435  0.00016837  0.83535724  1
  I  I66  1  0.49746028  0.33620309  0.16412083  1
  I  I67  1  0.50092882  0.33067916  0.50076329  1
  I  I68  1  0.49832228  0.33732029  0.83780054  1
  I  I69  1  0.49713491  0.66651147  0.16845220  1
  I  I70  1  0.49348681  0.66996910  0.50023422  1
  I  I71  1  0.50289077  0.66251075  0.83165301  1
  I  I72  1  0.83333331  0.00413626  0.16585094  1
  I  I73  1  0.83333319  0.00413368  0.50290312  1
  I  I74  1  0.83333328  0.00367725  0.83188827  1
  I  I75  1  0.83333322  0.33010896  0.16979681  1
  I  I76  1  0.83333350  0.32892742  0.49794200  1
  I  I77  1  0.83333330  0.33335467  0.83193230  1
  I  I78  1  0.83333325  0.66660321  0.16452752  1
  I  I79  1  0.83333326  0.66687081  0.50230015  1
  I  I80  1  0.83333340  0.66295474  0.83409770  1
  I  I81  1  0.16366669  0.16445303  -0.00003220  1
  I  I82  1  0.16353824  0.16824105  0.33673081  1
  I  I83  1  0.16467186  0.16261332  0.66242701  1
  I  I84  1  0.16640074  0.50491164  0.00068120  1
  I  I85  1  0.17249596  0.49997241  0.32998796  1
  I  I86  1  0.16633562  0.49838617  0.66922085  1
  I  I87  1  0.16993846  0.83096605  0.00350492  1
  I  I88  1  0.17038518  0.83166852  0.33331604  1
  I  I89  1  0.16952178  0.83637551  0.66338026  1
  I  I90  1  0.50299990  0.16445323  -0.00003220  1
  I  I91  1  0.50312843  0.16824091  0.33673081  1
  I  I92  1  0.50199464  0.16261327  0.66242701  1
  I  I93  1  0.50026582  0.50491135  0.00068119  1
  I  I94  1  0.49417076  0.49997272  0.32998796  1
  I  I95  1  0.50033102  0.49838608  0.66922089  1
  I  I96  1  0.49672823  0.83096615  0.00350493  1
  I  I97  1  0.49628139  0.83166834  0.33331606  1
  I  I98  1  0.49714490  0.83637577  0.66338027  1
  I  I99  1  0.83333329  0.17169245  -0.00066553  1
  I  I100  1  0.83333336  0.16573075  0.33435045  1
  I  I101  1  0.83333350  0.17178638  0.66625178  1
  I  I102  1  0.83333335  0.49267155  -0.00320905  1
  I  I103  1  0.83333325  0.49730523  0.33300188  1
  I  I104  1  0.83333328  0.49466603  0.67101460  1
  I  I105  1  0.83333320  0.83752654  0.00027654  1
  I  I106  1  0.83333339  0.83474004  0.33324779  1
  I  I107  1  0.83333322  0.83408708  0.66644983  1
  I  I108  1  -0.00300043  0.16783350  0.16918522  1
  I  I109  1  -0.00007467  0.16391152  0.50035666  1
  I  I110  1  -0.00342088  0.17265810  0.83138003  1
  I  I111  1  0.00284422  0.50284921  0.16357660  1
  I  I112  1  0.00025432  0.49957039  0.50008243  1
  I  I113  1  0.00009676  0.49537845  0.83622168  1
  I  I114  1  0.00344789  0.82947378  0.17092125  1
  I  I115  1  0.00333960  0.83639293  0.49659544  1
  I  I116  1  0.00030184  0.83098460  0.83279291  1
  I  I117  1  0.33333330  0.16803314  0.16922235  1
  I  I118  1  0.33333331  0.16346986  0.49894426  1
  I  I119  1  0.33333328  0.16849230  0.83163614  1
  I  I120  1  0.33333332  0.50264511  0.15897257  1
  I  I121  1  0.33333332  0.49278900  0.50645491  1
  I  I122  1  0.33333333  0.50156512  0.83641993  1
  I  I123  1  0.33333333  0.82819124  0.17236109  1
  I  I124  1  0.33333331  0.84182266  0.49621386  1
  I  I125  1  0.33333333  0.83208699  0.83141321  1
  I  I126  1  0.66966711  0.16783340  0.16918518  1
  I  I127  1  0.66674132  0.16391174  0.50035680  1
  I  I128  1  0.67008754  0.17265812  0.83137987  1
  I  I129  1  0.66382241  0.50284918  0.16357654  1
  I  I130  1  0.66641237  0.49957022  0.50008244  1
  I  I131  1  0.66656990  0.49537856  0.83622169  1
  I  I132  1  0.66321878  0.82947383  0.17092133  1
  I  I133  1  0.66332704  0.83639285  0.49659529  1
  I  I134  1  0.66636483  0.83098447  0.83279295  1
