# generated using pymatgen
data_Cs27Sn13Pb14I81
_symmetry_space_group_name_H-M   'P 1'
_cell_length_a   18.98155544
_cell_length_b   18.97492808
_cell_length_c   18.97720414
_cell_angle_alpha   90.00063246
_cell_angle_beta   89.99945716
_cell_angle_gamma   90.00089709
_symmetry_Int_Tables_number   1
_chemical_formula_structural   Cs27Sn13Pb14I81
_chemical_formula_sum   'Cs27 Sn13 Pb14 I81'
_cell_volume   6835.08886474
_cell_formula_units_Z   1
loop_
 _symmetry_equiv_pos_site_id
 _symmetry_equiv_pos_as_xyz
  1  'x, y, z'
loop_
 _atom_site_type_symbol
 _atom_site_label
 _atom_site_symmetry_multiplicity
 _atom_site_fract_x
 _atom_site_fract_y
 _atom_site_fract_z
 _atom_site_occupancy
  Cs  Cs0  1  0.00057768  0.00285093  -0.00213019  1
  Cs  Cs1  1  0.00056066  0.00205193  0.33247883  1
  Cs  Cs2  1  -0.00030173  -0.00252650  0.66731394  1
  Cs  Cs3  1  -0.00606230  0.33820443  0.00699621  1
  Cs  Cs4  1  0.00809055  0.33237089  0.32660879  1
  Cs  Cs5  1  -0.00255079  0.33660071  0.66811778  1
  Cs  Cs6  1  0.00048886  0.66039791  0.00208529  1
  Cs  Cs7  1  -0.00203851  0.66574689  0.33346981  1
  Cs  Cs8  1  0.00034334  0.67001517  0.66565256  1
  Cs  Cs9  1  0.33501344  -0.00076375  -0.00264932  1
  Cs  Cs10  1  0.33319724  0.00211055  0.33295124  1
  Cs  Cs11  1  0.33294465  -0.00025775  0.66910209  1
  Cs  Cs12  1  0.33412311  0.33425894  0.00114412  1
  Cs  Cs13  1  0.32906601  0.33203706  0.33771536  1
  Cs  Cs14  1  0.33461151  0.33925498  0.66067088  1
  Cs  Cs15  1  0.33401690  0.66658601  -0.00152658  1
  Cs  Cs16  1  0.33342787  0.66730250  0.33221793  1
  Cs  Cs17  1  0.33332236  0.66485206  0.66806486  1
  Cs  Cs18  1  0.66471683  0.00148819  0.00182477  1
  Cs  Cs19  1  0.66613081  -0.00172282  0.33281597  1
  Cs  Cs20  1  0.66729423  0.00048835  0.66653243  1
  Cs  Cs21  1  0.67071441  0.33282006  -0.00128511  1
  Cs  Cs22  1  0.66351083  0.33326308  0.33573008  1
  Cs  Cs23  1  0.66641790  0.33569970  0.66686809  1
  Cs  Cs24  1  0.66570234  0.66454367  0.00519981  1
  Cs  Cs25  1  0.66802306  0.66909747  0.33124699  1
  Cs  Cs26  1  0.66683741  0.66651316  0.66580642  1
  Sn  Sn27  1  0.16720789  0.16659832  0.83312767  1
  Sn  Sn28  1  0.16640936  0.83369363  0.16620711  1
  Sn  Sn29  1  0.83355981  0.49988901  0.49985420  1
  Sn  Sn30  1  0.83303245  0.83343812  0.83324635  1
  Sn  Sn31  1  0.16650887  0.83381714  0.83361135  1
  Sn  Sn32  1  0.49993474  0.83365417  0.50087231  1
  Sn  Sn33  1  0.50045803  0.83395867  0.83259448  1
  Sn  Sn34  1  0.16679999  0.83370521  0.49985068  1
  Sn  Sn35  1  0.49893230  0.16616398  0.83365369  1
  Sn  Sn36  1  0.49973089  0.49851774  0.16674543  1
  Sn  Sn37  1  0.49982504  0.16773030  0.16611590  1
  Sn  Sn38  1  0.83321989  0.83366791  0.50079280  1
  Sn  Sn39  1  0.83361543  0.16656197  0.49990356  1
  Pb  Pb40  1  0.50166716  0.50290026  0.49798581  1
  Pb  Pb41  1  0.49827646  0.83391873  0.16628246  1
  Pb  Pb42  1  0.50002851  0.49978340  0.83498329  1
  Pb  Pb43  1  0.16896156  0.16458770  0.16401947  1
  Pb  Pb44  1  0.83323812  0.16490458  0.83176430  1
  Pb  Pb45  1  0.83315753  0.50297548  0.83132498  1
  Pb  Pb46  1  0.16919071  0.50222189  0.16666024  1
  Pb  Pb47  1  0.83095463  0.16639175  0.16923053  1
  Pb  Pb48  1  0.83109046  0.49992450  0.16943622  1
  Pb  Pb49  1  0.83613487  0.83358907  0.16637594  1
  Pb  Pb50  1  0.16422545  0.50238979  0.50008110  1
  Pb  Pb51  1  0.50128183  0.16469885  0.50080098  1
  Pb  Pb52  1  0.16448658  0.16462018  0.50275551  1
  Pb  Pb53  1  0.16671746  0.49939707  0.83332835  1
  I  I54  1  0.16924536  -0.00354821  0.16944375  1
  I  I55  1  0.16437868  -0.00435525  0.49869103  1
  I  I56  1  0.16784185  -0.00231030  0.83293665  1
  I  I57  1  0.16564073  0.33299788  0.16547782  1
  I  I58  1  0.16511779  0.33301018  0.50119313  1
  I  I59  1  0.17306824  0.32958534  0.83230206  1
  I  I60  1  0.16908983  0.67072805  0.16459205  1
  I  I61  1  0.16529775  0.67176181  0.50322366  1
  I  I62  1  0.16739643  0.67113989  0.83243465  1
  I  I63  1  0.49880188  0.00217339  0.16530032  1
  I  I64  1  0.50281986  -0.00388549  0.49873283  1
  I  I65  1  0.49938443  -0.00135595  0.83556153  1
  I  I66  1  0.50141151  0.33225361  0.16084042  1
  I  I67  1  0.50367550  0.33326820  0.50197195  1
  I  I68  1  0.49549204  0.32967435  0.83540217  1
  I  I69  1  0.49863928  0.66542470  0.16801891  1
  I  I70  1  0.50155163  0.67144698  0.50375359  1
  I  I71  1  0.49908681  0.67045066  0.83079499  1
  I  I72  1  0.82972597  -0.00027844  0.17072090  1
  I  I73  1  0.83303413  -0.00206459  0.50394176  1
  I  I74  1  0.83363263  -0.00371498  0.82614576  1
  I  I75  1  0.83546869  0.33319555  0.16764291  1
  I  I76  1  0.82996323  0.33312597  0.50010266  1
  I  I77  1  0.83297663  0.33312996  0.83006776  1
  I  I78  1  0.83014660  0.66701032  0.16852083  1
  I  I79  1  0.83344919  0.66882958  0.50369863  1
  I  I80  1  0.83372185  0.67187848  0.82733987  1
  I  I81  1  0.16775966  0.15764087  -0.00381500  1
  I  I82  1  0.16678015  0.16412250  0.33344195  1
  I  I83  1  0.17379361  0.15834983  0.67045522  1
  I  I84  1  0.16629625  0.50505673  0.00006812  1
  I  I85  1  0.16650626  0.50287188  0.33342436  1
  I  I86  1  0.16773074  0.50281407  0.66653343  1
  I  I87  1  0.16851700  0.83679674  -0.00151200  1
  I  I88  1  0.16723238  0.83161497  0.33435434  1
  I  I89  1  0.16574790  0.83650360  0.66697022  1
  I  I90  1  0.49706796  0.16267988  -0.00114876  1
  I  I91  1  0.50346929  0.16747887  0.33137793  1
  I  I92  1  0.49807557  0.16181164  0.66989198  1
  I  I93  1  0.50003747  0.50329465  0.00286851  1
  I  I94  1  0.50131207  0.49625215  0.33026551  1
  I  I95  1  0.50116296  0.49870966  0.66640243  1
  I  I96  1  0.49972171  0.83387558  -0.00314014  1
  I  I97  1  0.50083395  0.83292100  0.33584271  1
  I  I98  1  0.49751616  0.83798193  0.66727288  1
  I  I99  1  0.83452358  0.16397328  -0.00029894  1
  I  I100  1  0.83133078  0.16110517  0.33756627  1
  I  I101  1  0.83067979  0.16598993  0.66365140  1
  I  I102  1  0.83321250  0.50210350  0.00017467  1
  I  I103  1  0.83184209  0.50682658  0.33738511  1
  I  I104  1  0.83159600  0.49950041  0.66311781  1
  I  I105  1  0.83175932  0.83473142  -0.00344747  1
  I  I106  1  0.83215813  0.83249963  0.33709788  1
  I  I107  1  0.83648822  0.83323128  0.66562527  1
  I  I108  1  0.00038127  0.16528123  0.16642466  1
  I  I109  1  -0.00344173  0.16267991  0.50222403  1
  I  I110  1  0.00251683  0.15934298  0.82939037  1
  I  I111  1  0.00007773  0.50168770  0.16720649  1
  I  I112  1  -0.00388130  0.50380390  0.50079287  1
  I  I113  1  -0.00014236  0.50058002  0.83318315  1
  I  I114  1  0.00403413  0.83332129  0.16721582  1
  I  I115  1  -0.00046681  0.83276224  0.50319848  1
  I  I116  1  0.00053638  0.83710782  0.82909334  1
  I  I117  1  0.33697848  0.16859938  0.16671469  1
  I  I118  1  0.33328394  0.16425651  0.49756976  1
  I  I119  1  0.33419078  0.15538309  0.83775853  1
  I  I120  1  0.33690352  0.49748078  0.16725684  1
  I  I121  1  0.33341208  0.50193482  0.49898909  1
  I  I122  1  0.33352356  0.50640850  0.83317932  1
  I  I123  1  0.33056150  0.83306208  0.16743848  1
  I  I124  1  0.33331551  0.83370380  0.50227177  1
  I  I125  1  0.33345548  0.83681115  0.83088928  1
  I  I126  1  0.66273162  0.16752846  0.15959821  1
  I  I127  1  0.66929222  0.16211760  0.50133939  1
  I  I128  1  0.66361681  0.16132315  0.83599429  1
  I  I129  1  0.66326593  0.49971960  0.16644891  1
  I  I130  1  0.66963528  0.50409056  0.49951539  1
  I  I131  1  0.66656510  0.50088203  0.83351520  1
  I  I132  1  0.66642856  0.83266040  0.16754254  1
  I  I133  1  0.66720507  0.83322037  0.50598183  1
  I  I134  1  0.66598573  0.83695792  0.82536125  1
