# generated using pymatgen
data_Cs27Sn14Pb13I81
_symmetry_space_group_name_H-M   'P 1'
_cell_length_a   18.98641699
_cell_length_b   18.95408477
_cell_length_c   18.99088844
_cell_angle_alpha   89.99967770
_cell_angle_beta   89.99999795
_cell_angle_gamma   90.00038000
_symmetry_Int_Tables_number   1
_chemical_formula_structural   Cs27Sn14Pb13I81
_chemical_formula_sum   'Cs27 Sn14 Pb13 I81'
_cell_volume   6834.25400661
_cell_formula_units_Z   1
loop_
 _symmetry_equiv_pos_site_id
 _symmetry_equiv_pos_as_xyz
  1  'x, y, z'
loop_
 _atom_site_type_symbol
 _atom_site_label
 _atom_site_symmetry_multiplicity
 _atom_site_fract_x
 _atom_site_fract_y
 _atom_site_fract_z
 _atom_site_occupancy
  Cs  Cs0  1  -0.00280418  0.00488595  -0.00164365  1
  Cs  Cs1  1  0.00133977  0.00140974  0.33064770  1
  Cs  Cs2  1  -0.00078446  0.00378511  0.67198555  1
  Cs  Cs3  1  0.00182664  0.33358349  0.00123323  1
  Cs  Cs4  1  -0.00365606  0.33118891  0.33439036  1
  Cs  Cs5  1  -0.00160676  0.33315107  0.66376961  1
  Cs  Cs6  1  0.00076368  0.66616561  0.00007671  1
  Cs  Cs7  1  0.00073635  0.66622484  0.33290638  1
  Cs  Cs8  1  0.00091357  0.66571529  0.66725317  1
  Cs  Cs9  1  0.33049508  0.00038773  -0.00017420  1
  Cs  Cs10  1  0.33292660  -0.00106474  0.33530540  1
  Cs  Cs11  1  0.33285001  0.00124896  0.66482701  1
  Cs  Cs12  1  0.34208992  0.33036693  -0.00135511  1
  Cs  Cs13  1  0.33522432  0.32735186  0.33208728  1
  Cs  Cs14  1  0.33492194  0.32780166  0.66897646  1
  Cs  Cs15  1  0.33264413  0.66577381  -0.00007754  1
  Cs  Cs16  1  0.33169216  0.66816439  0.33409375  1
  Cs  Cs17  1  0.33178095  0.66758361  0.66579754  1
  Cs  Cs18  1  0.67356218  0.00181238  -0.00234432  1
  Cs  Cs19  1  0.66575296  0.00030019  0.33255671  1
  Cs  Cs20  1  0.66827189  0.00242040  0.67047333  1
  Cs  Cs21  1  0.65597393  0.33104403  0.00094006  1
  Cs  Cs22  1  0.66832445  0.32464637  0.33431041  1
  Cs  Cs23  1  0.66591604  0.32648333  0.66402389  1
  Cs  Cs24  1  0.66692702  0.66607169  0.00011403  1
  Cs  Cs25  1  0.66737532  0.66699881  0.33389894  1
  Cs  Cs26  1  0.66722816  0.66722121  0.66521672  1
  Sn  Sn27  1  0.16791145  0.50054244  0.49979736  1
  Sn  Sn28  1  0.16636576  0.83262883  0.16644770  1
  Sn  Sn29  1  0.83353703  0.50074377  0.83440495  1
  Sn  Sn30  1  0.16740660  0.83246851  0.83339816  1
  Sn  Sn31  1  0.16633535  0.50049541  0.16668388  1
  Sn  Sn32  1  0.83366189  0.50087419  0.16564241  1
  Sn  Sn33  1  0.50011866  0.83231688  0.50016580  1
  Sn  Sn34  1  0.49994634  0.83251268  0.16641555  1
  Sn  Sn35  1  0.16606617  0.83273780  0.50016747  1
  Sn  Sn36  1  0.83375885  0.83218756  0.16753239  1
  Sn  Sn37  1  0.83381858  0.83262425  0.49935075  1
  Sn  Sn38  1  0.16609964  0.50065267  0.83351967  1
  Sn  Sn39  1  0.49910540  0.83242326  0.83329999  1
  Sn  Sn40  1  0.49907335  0.50097943  0.49975175  1
  Pb  Pb41  1  0.49977586  0.50200161  0.83084352  1
  Pb  Pb42  1  0.83361927  0.17157351  0.83372624  1
  Pb  Pb43  1  0.83340049  0.50154375  0.49952446  1
  Pb  Pb44  1  0.16665565  0.16743412  0.16663456  1
  Pb  Pb45  1  0.16656525  0.16743505  0.83344051  1
  Pb  Pb46  1  0.83354023  0.16732692  0.16647381  1
  Pb  Pb47  1  0.49977199  0.16270283  0.83327075  1
  Pb  Pb48  1  0.49997706  0.50188909  0.16925082  1
  Pb  Pb49  1  0.83386970  0.83179953  0.83362626  1
  Pb  Pb50  1  0.49976613  0.16610341  0.49993851  1
  Pb  Pb51  1  0.83368363  0.16246213  0.49992150  1
  Pb  Pb52  1  0.16655702  0.16704834  0.49992904  1
  Pb  Pb53  1  0.49984762  0.16269734  0.16676053  1
  I  I54  1  0.16687141  -0.00457976  0.16736487  1
  I  I55  1  0.16806245  -0.00460184  0.49943835  1
  I  I56  1  0.17106457  -0.00408784  0.83275861  1
  I  I57  1  0.16066628  0.33783488  0.16774431  1
  I  I58  1  0.17109127  0.33770123  0.50031921  1
  I  I59  1  0.16144719  0.33775740  0.83240088  1
  I  I60  1  0.16580835  0.66782674  0.16704943  1
  I  I61  1  0.16781647  0.66780221  0.49991701  1
  I  I62  1  0.16686117  0.66734713  0.83296907  1
  I  I63  1  0.49932570  -0.00631070  0.17057363  1
  I  I64  1  0.49922309  -0.00477708  0.49938134  1
  I  I65  1  0.49453888  -0.00597587  0.83008740  1
  I  I66  1  0.50017533  0.33368918  0.16869401  1
  I  I67  1  0.49501977  0.33659078  0.50039826  1
  I  I68  1  0.50034577  0.33366487  0.83125294  1
  I  I69  1  0.50002441  0.67059230  0.16533560  1
  I  I70  1  0.49841929  0.66883544  0.49995808  1
  I  I71  1  0.49812257  0.67038793  0.83498664  1
  I  I72  1  0.83310061  -0.00404142  0.17125047  1
  I  I73  1  0.83246528  -0.00622736  0.49423365  1
  I  I74  1  0.83238389  -0.00024935  0.83246511  1
  I  I75  1  0.83977498  0.33746445  0.16361871  1
  I  I76  1  0.83269844  0.33362005  0.50025278  1
  I  I77  1  0.84104651  0.33959044  0.83764777  1
  I  I78  1  0.83482396  0.66774785  0.16694317  1
  I  I79  1  0.83262652  0.67003344  0.49830691  1
  I  I80  1  0.83557102  0.66406404  0.83473919  1
  I  I81  1  0.16637916  0.16397254  0.00001152  1
  I  I82  1  0.16706343  0.16490453  0.33331361  1
  I  I83  1  0.16680146  0.16491325  0.66668045  1
  I  I84  1  0.16034247  0.50773355  0.00021762  1
  I  I85  1  0.16600293  0.50735794  0.33319582  1
  I  I86  1  0.16563286  0.50713788  0.66664034  1
  I  I87  1  0.17024195  0.82814825  0.00025474  1
  I  I88  1  0.16874557  0.82879334  0.33331555  1
  I  I89  1  0.16950091  0.82789133  0.66641905  1
  I  I90  1  0.49975578  0.16862550  -0.00003502  1
  I  I91  1  0.50047904  0.16541234  0.33350338  1
  I  I92  1  0.50046240  0.16531381  0.66650274  1
  I  I93  1  0.49856128  0.50106241  0.00008290  1
  I  I94  1  0.49633460  0.50804640  0.33688542  1
  I  I95  1  0.49701103  0.50788695  0.66315782  1
  I  I96  1  0.49697336  0.83343742  0.00024456  1
  I  I97  1  0.49817168  0.83009361  0.33370271  1
  I  I98  1  0.49767834  0.82948346  0.66597274  1
  I  I99  1  0.83369200  0.15834515  0.00009927  1
  I  I100  1  0.83284773  0.17158323  0.33320229  1
  I  I101  1  0.83286308  0.16578636  0.66682236  1
  I  I102  1  0.84198474  0.50771760  0.00100420  1
  I  I103  1  0.83691965  0.50354337  0.33054333  1
  I  I104  1  0.83706683  0.50330320  0.66839162  1
  I  I105  1  0.83214249  0.83178220  0.00293112  1
  I  I106  1  0.83286222  0.82780801  0.33250376  1
  I  I107  1  0.83254719  0.83092058  0.66444938  1
  I  I108  1  0.00003316  0.16059425  0.16704304  1
  I  I109  1  0.00013285  0.16791627  0.50000648  1
  I  I110  1  0.00007014  0.15868700  0.83304159  1
  I  I111  1  0.00088908  0.50818765  0.16764055  1
  I  I112  1  0.00309948  0.50476849  0.50069870  1
  I  I113  1  0.00157241  0.50704115  0.83179300  1
  I  I114  1  0.00052234  0.82983551  0.17028733  1
  I  I115  1  0.00109532  0.82868359  0.49735868  1
  I  I116  1  0.00318686  0.83122729  0.83208017  1
  I  I117  1  0.33325112  0.16732877  0.16666551  1
  I  I118  1  0.33324385  0.16195756  0.49982735  1
  I  I119  1  0.33322774  0.17094382  0.83351688  1
  I  I120  1  0.33008134  0.50492933  0.16410107  1
  I  I121  1  0.33196588  0.50917661  0.50005428  1
  I  I122  1  0.32999480  0.50279809  0.83606901  1
  I  I123  1  0.33249492  0.83012095  0.16873673  1
  I  I124  1  0.33291616  0.83050939  0.49792678  1
  I  I125  1  0.33209870  0.82815497  0.83340890  1
  I  I126  1  0.66675388  0.16747749  0.16704934  1
  I  I127  1  0.66661399  0.16891481  0.50002157  1
  I  I128  1  0.66670474  0.16518790  0.83286180  1
  I  I129  1  0.66937716  0.50581596  0.16300901  1
  I  I130  1  0.66456781  0.50658314  0.50061038  1
  I  I131  1  0.66889854  0.50344826  0.83689812  1
  I  I132  1  0.66714489  0.82961871  0.17011546  1
  I  I133  1  0.66604922  0.82889073  0.49736811  1
  I  I134  1  0.66465372  0.83157105  0.83250173  1
