# generated using pymatgen
data_Cs27Sn13Pb14I81
_symmetry_space_group_name_H-M   'P 1'
_cell_length_a   18.98204931
_cell_length_b   18.96695003
_cell_length_c   18.98249284
_cell_angle_alpha   90.00179426
_cell_angle_beta   90.00012828
_cell_angle_gamma   90.00080859
_symmetry_Int_Tables_number   1
_chemical_formula_structural   Cs27Sn13Pb14I81
_chemical_formula_sum   'Cs27 Sn13 Pb14 I81'
_cell_volume   6834.29689909
_cell_formula_units_Z   1
loop_
 _symmetry_equiv_pos_site_id
 _symmetry_equiv_pos_as_xyz
  1  'x, y, z'
loop_
 _atom_site_type_symbol
 _atom_site_label
 _atom_site_symmetry_multiplicity
 _atom_site_fract_x
 _atom_site_fract_y
 _atom_site_fract_z
 _atom_site_occupancy
  Cs  Cs0  1  0.00108259  -0.00080104  0.00017338  1
  Cs  Cs1  1  0.00044003  -0.00017329  0.33738123  1
  Cs  Cs2  1  0.00348874  -0.00019887  0.66329522  1
  Cs  Cs3  1  -0.00706852  0.33389131  0.00615691  1
  Cs  Cs4  1  0.00250398  0.33847164  0.32530252  1
  Cs  Cs5  1  -0.00031376  0.33237978  0.66823881  1
  Cs  Cs6  1  -0.00071473  0.66674859  -0.00110748  1
  Cs  Cs7  1  -0.00206683  0.66174505  0.33495240  1
  Cs  Cs8  1  -0.00285863  0.66547534  0.66606456  1
  Cs  Cs9  1  0.33296078  -0.00153208  0.00046135  1
  Cs  Cs10  1  0.33299048  0.00054585  0.33309575  1
  Cs  Cs11  1  0.32990965  0.00031924  0.66677377  1
  Cs  Cs12  1  0.33235417  0.33351105  0.00102005  1
  Cs  Cs13  1  0.33197708  0.33471588  0.33458050  1
  Cs  Cs14  1  0.33451805  0.33375747  0.66427530  1
  Cs  Cs15  1  0.33596585  0.66833701  -0.00264692  1
  Cs  Cs16  1  0.33414625  0.66562249  0.33225191  1
  Cs  Cs17  1  0.33316493  0.66617607  0.67036413  1
  Cs  Cs18  1  0.66668244  0.00249410  -0.00016561  1
  Cs  Cs19  1  0.66621183  -0.00210433  0.33367200  1
  Cs  Cs20  1  0.66772354  0.00188415  0.66630734  1
  Cs  Cs21  1  0.67511057  0.32762074  -0.00237355  1
  Cs  Cs22  1  0.66332540  0.33188438  0.33448766  1
  Cs  Cs23  1  0.66612330  0.33122436  0.66838730  1
  Cs  Cs24  1  0.66304999  0.66783794  0.00003834  1
  Cs  Cs25  1  0.66705056  0.66885759  0.33472039  1
  Cs  Cs26  1  0.66854422  0.66610015  0.66551317  1
  Sn  Sn27  1  0.16685906  0.16831136  0.83314955  1
  Sn  Sn28  1  0.49931520  0.50046931  0.83454127  1
  Sn  Sn29  1  0.83225636  0.83345729  0.83384740  1
  Sn  Sn30  1  0.49888711  0.83340608  0.50036662  1
  Sn  Sn31  1  0.16751756  0.83334851  0.49907597  1
  Sn  Sn32  1  0.49988496  0.83304243  0.16656566  1
  Sn  Sn33  1  0.50105310  0.83306768  0.83309859  1
  Sn  Sn34  1  0.50012337  0.50061109  0.16542649  1
  Sn  Sn35  1  0.83340900  0.83337340  0.16584690  1
  Sn  Sn36  1  0.83444303  0.16683797  0.49976434  1
  Sn  Sn37  1  0.16712800  0.49845085  0.83340400  1
  Sn  Sn38  1  0.16558025  0.16636514  0.50058808  1
  Sn  Sn39  1  0.16656013  0.83322249  0.16790004  1
  Pb  Pb40  1  0.16875702  0.50288806  0.16396178  1
  Pb  Pb41  1  0.16677768  0.83316646  0.83310425  1
  Pb  Pb42  1  0.49780855  0.16684221  0.83347464  1
  Pb  Pb43  1  0.16677965  0.16479130  0.16695748  1
  Pb  Pb44  1  0.49921941  0.16431189  0.50007190  1
  Pb  Pb45  1  0.83356863  0.83414865  0.49995518  1
  Pb  Pb46  1  0.82999182  0.50259830  0.16660691  1
  Pb  Pb47  1  0.83613777  0.16391573  0.83169893  1
  Pb  Pb48  1  0.49997978  0.16693339  0.16639493  1
  Pb  Pb49  1  0.49995329  0.50256481  0.50036419  1
  Pb  Pb50  1  0.83339059  0.16406488  0.16942934  1
  Pb  Pb51  1  0.83271710  0.50207495  0.83329854  1
  Pb  Pb52  1  0.83338236  0.49610748  0.49995528  1
  Pb  Pb53  1  0.16662690  0.50004379  0.50210132  1
  I  I54  1  0.17013689  -0.00422557  0.16483819  1
  I  I55  1  0.16705723  -0.00095804  0.50302608  1
  I  I56  1  0.16616667  0.00147907  0.83151639  1
  I  I57  1  0.16925671  0.33376967  0.16932722  1
  I  I58  1  0.16257256  0.33006446  0.50343315  1
  I  I59  1  0.17361754  0.33328656  0.82608321  1
  I  I60  1  0.16509900  0.67133813  0.17131512  1
  I  I61  1  0.17124495  0.67013106  0.49768580  1
  I  I62  1  0.16861110  0.66495302  0.83398769  1
  I  I63  1  0.49991048  -0.00449709  0.16617904  1
  I  I64  1  0.49858168  -0.00451834  0.49949175  1
  I  I65  1  0.50188370  -0.00366520  0.83425272  1
  I  I66  1  0.49882919  0.33702385  0.16188041  1
  I  I67  1  0.50062561  0.33337720  0.49956820  1
  I  I68  1  0.49705304  0.33680512  0.83770438  1
  I  I69  1  0.49936141  0.66902558  0.16561501  1
  I  I70  1  0.49470096  0.67134632  0.49983740  1
  I  I71  1  0.49667069  0.66817826  0.83394952  1
  I  I72  1  0.82982819  -0.00460962  0.16252752  1
  I  I73  1  0.83556522  0.00172974  0.50042699  1
  I  I74  1  0.82805388  -0.00416903  0.83722078  1
  I  I75  1  0.83198989  0.33339438  0.16799491  1
  I  I76  1  0.83983709  0.32815852  0.50203382  1
  I  I77  1  0.83048655  0.33304108  0.83080796  1
  I  I78  1  0.83584162  0.67132841  0.16418979  1
  I  I79  1  0.83344554  0.66705519  0.50024605  1
  I  I80  1  0.83499618  0.67062294  0.83547066  1
  I  I81  1  0.16905570  0.16706060  -0.00284382  1
  I  I82  1  0.16348217  0.16191694  0.33668915  1
  I  I83  1  0.16405285  0.16219657  0.66607747  1
  I  I84  1  0.16921370  0.49673731  -0.00393073  1
  I  I85  1  0.16823860  0.49778927  0.33297237  1
  I  I86  1  0.17359319  0.50259372  0.67017039  1
  I  I87  1  0.16878088  0.83337571  0.00197309  1
  I  I88  1  0.17010728  0.83952782  0.33382230  1
  I  I89  1  0.16960573  0.83487025  0.66440348  1
  I  I90  1  0.49727610  0.16007809  -0.00024982  1
  I  I91  1  0.49844499  0.16615172  0.33347520  1
  I  I92  1  0.50160146  0.16529982  0.66669436  1
  I  I93  1  0.49407569  0.51188267  -0.00085545  1
  I  I94  1  0.50100421  0.50526252  0.33037118  1
  I  I95  1  0.49610514  0.50502370  0.67026387  1
  I  I96  1  0.49966366  0.82952766  0.00000178  1
  I  I97  1  0.50004110  0.83066634  0.33267704  1
  I  I98  1  0.49951722  0.83035415  0.66729715  1
  I  I99  1  0.83409025  0.16696670  -0.00002712  1
  I  I100  1  0.84004134  0.16264325  0.33712661  1
  I  I101  1  0.83504487  0.16176607  0.66397461  1
  I  I102  1  0.83673065  0.49783829  -0.00008004  1
  I  I103  1  0.83220525  0.50388961  0.33303083  1
  I  I104  1  0.83121700  0.50551045  0.66698751  1
  I  I105  1  0.83123551  0.83327546  0.00016587  1
  I  I106  1  0.83016649  0.83555548  0.33083716  1
  I  I107  1  0.83048195  0.83455468  0.66893812  1
  I  I108  1  0.00016528  0.16381159  0.16404832  1
  I  I109  1  0.00173237  0.15670774  0.50549245  1
  I  I110  1  0.00404037  0.16914730  0.83073591  1
  I  I111  1  0.00003276  0.50160696  0.16600517  1
  I  I112  1  0.00032326  0.50770906  0.50278053  1
  I  I113  1  0.00272907  0.49921513  0.83101331  1
  I  I114  1  0.00021954  0.83618938  0.16547100  1
  I  I115  1  0.00284646  0.83623358  0.49839685  1
  I  I116  1  -0.00168214  0.83403880  0.83618664  1
  I  I117  1  0.33317455  0.16216094  0.16901394  1
  I  I118  1  0.32975879  0.16327420  0.50401862  1
  I  I119  1  0.32985813  0.16375204  0.82637904  1
  I  I120  1  0.33659652  0.50751503  0.16528103  1
  I  I121  1  0.33339672  0.49614420  0.49866006  1
  I  I122  1  0.33419510  0.50414130  0.83578304  1
  I  I123  1  0.33404702  0.83078053  0.16672548  1
  I  I124  1  0.33303661  0.83873275  0.49778021  1
  I  I125  1  0.33583527  0.83274492  0.83514672  1
  I  I126  1  0.66679397  0.16373268  0.16888942  1
  I  I127  1  0.66889187  0.16368820  0.49911219  1
  I  I128  1  0.66690946  0.16816964  0.83120749  1
  I  I129  1  0.66201882  0.50713593  0.16015811  1
  I  I130  1  0.66633701  0.50125045  0.50205793  1
  I  I131  1  0.66295609  0.50426691  0.83680734  1
  I  I132  1  0.66562156  0.82984450  0.16690682  1
  I  I133  1  0.66410560  0.83467025  0.49801763  1
  I  I134  1  0.66515375  0.82834943  0.83518243  1
