# generated using pymatgen
data_Cs27Sn13Pb14I81
_symmetry_space_group_name_H-M   'P 1'
_cell_length_a   18.97491584
_cell_length_b   18.98033678
_cell_length_c   18.97446590
_cell_angle_alpha   89.99974553
_cell_angle_beta   90.00290229
_cell_angle_gamma   90.00046629
_symmetry_Int_Tables_number   1
_chemical_formula_structural   Cs27Sn13Pb14I81
_chemical_formula_sum   'Cs27 Sn13 Pb14 I81'
_cell_volume   6833.65944795
_cell_formula_units_Z   1
loop_
 _symmetry_equiv_pos_site_id
 _symmetry_equiv_pos_as_xyz
  1  'x, y, z'
loop_
 _atom_site_type_symbol
 _atom_site_label
 _atom_site_symmetry_multiplicity
 _atom_site_fract_x
 _atom_site_fract_y
 _atom_site_fract_z
 _atom_site_occupancy
  Cs  Cs0  1  -0.00462206  -0.00227427  -0.00240780  1
  Cs  Cs1  1  0.00174811  0.00176358  0.33462786  1
  Cs  Cs2  1  0.00020793  -0.00235175  0.66807904  1
  Cs  Cs3  1  0.00066549  0.33433967  0.00123063  1
  Cs  Cs4  1  -0.00036793  0.34038121  0.33179025  1
  Cs  Cs5  1  -0.00063378  0.33394305  0.66677571  1
  Cs  Cs6  1  -0.00317443  0.66764237  -0.00039274  1
  Cs  Cs7  1  0.00121314  0.65494700  0.33323693  1
  Cs  Cs8  1  0.00145715  0.66827693  0.66702095  1
  Cs  Cs9  1  0.33279154  0.00066529  0.00593108  1
  Cs  Cs10  1  0.33377549  0.00006619  0.33257870  1
  Cs  Cs11  1  0.33159933  -0.00260122  0.66476232  1
  Cs  Cs12  1  0.33351637  0.33387483  -0.00350592  1
  Cs  Cs13  1  0.33195019  0.33336850  0.33296129  1
  Cs  Cs14  1  0.33539296  0.33288082  0.66969135  1
  Cs  Cs15  1  0.33403024  0.66536744  -0.00043725  1
  Cs  Cs16  1  0.33235682  0.66568835  0.33273638  1
  Cs  Cs17  1  0.33411444  0.66979792  0.66667471  1
  Cs  Cs18  1  0.67396579  0.00332514  0.00714777  1
  Cs  Cs19  1  0.66519915  -0.00124727  0.33157963  1
  Cs  Cs20  1  0.66896385  -0.00027366  0.66496153  1
  Cs  Cs21  1  0.66563236  0.32477696  -0.00429534  1
  Cs  Cs22  1  0.66957197  0.33413385  0.33425932  1
  Cs  Cs23  1  0.66498924  0.33406304  0.66817512  1
  Cs  Cs24  1  0.66676835  0.67033606  0.00182527  1
  Cs  Cs25  1  0.66726399  0.66761210  0.33227430  1
  Cs  Cs26  1  0.66346877  0.66584656  0.66598794  1
  Sn  Sn27  1  0.16644440  0.16678551  0.50008130  1
  Sn  Sn28  1  0.16628057  0.83347315  0.16694598  1
  Sn  Sn29  1  0.83370909  0.50007169  0.83316482  1
  Sn  Sn30  1  0.16576944  0.49984954  0.83295145  1
  Sn  Sn31  1  0.50013153  0.16655163  0.50009531  1
  Sn  Sn32  1  0.50024699  0.49963376  0.16702336  1
  Sn  Sn33  1  0.16667883  0.16586836  0.16673892  1
  Sn  Sn34  1  0.83313852  0.83351172  0.49979351  1
  Sn  Sn35  1  0.83348762  0.16601078  0.50012067  1
  Sn  Sn36  1  0.49965129  0.50004309  0.49902559  1
  Sn  Sn37  1  0.50062855  0.83349914  0.50065735  1
  Sn  Sn38  1  0.16679668  0.16692751  0.83317595  1
  Sn  Sn39  1  0.50026239  0.83444567  0.83360148  1
  Pb  Pb40  1  0.83081526  0.83158836  0.83117378  1
  Pb  Pb41  1  0.50001504  0.50135597  0.83329862  1
  Pb  Pb42  1  0.83634549  0.83312755  0.17001882  1
  Pb  Pb43  1  0.49817270  0.16351089  0.83147798  1
  Pb  Pb44  1  0.83008396  0.49977088  0.16358717  1
  Pb  Pb45  1  0.16655509  0.83494908  0.49809535  1
  Pb  Pb46  1  0.83569849  0.16815339  0.83097468  1
  Pb  Pb47  1  0.49870184  0.83205409  0.16726519  1
  Pb  Pb48  1  0.16917701  0.49751373  0.50242536  1
  Pb  Pb49  1  0.16828298  0.83376503  0.83528956  1
  Pb  Pb50  1  0.83109281  0.50008647  0.50160617  1
  Pb  Pb51  1  0.16818524  0.49961944  0.16430911  1
  Pb  Pb52  1  0.83622293  0.16675388  0.16945572  1
  Pb  Pb53  1  0.49815831  0.16875090  0.16902208  1
  I  I54  1  0.16953361  0.00128916  0.16596603  1
  I  I55  1  0.17094319  0.00354612  0.50411052  1
  I  I56  1  0.16977067  0.00303176  0.83041434  1
  I  I57  1  0.16850991  0.33036900  0.16920217  1
  I  I58  1  0.16580764  0.32909319  0.49498722  1
  I  I59  1  0.16498203  0.33270121  0.83418300  1
  I  I60  1  0.16955995  0.66851421  0.16565596  1
  I  I61  1  0.16694807  0.66646166  0.49942054  1
  I  I62  1  0.16567679  0.66437628  0.83543339  1
  I  I63  1  0.49843568  0.00024331  0.16731784  1
  I  I64  1  0.49946154  0.00003454  0.50514289  1
  I  I65  1  0.49673044  -0.00391746  0.82647362  1
  I  I66  1  0.49697204  0.33654710  0.17083785  1
  I  I67  1  0.49880050  0.33289715  0.49587899  1
  I  I68  1  0.50043005  0.33308952  0.83222934  1
  I  I69  1  0.49574727  0.66420965  0.17164156  1
  I  I70  1  0.50458362  0.66722690  0.50078397  1
  I  I71  1  0.49727114  0.66886096  0.82674918  1
  I  I72  1  0.83061345  -0.00003188  0.16398445  1
  I  I73  1  0.82877008  0.00062177  0.50089896  1
  I  I74  1  0.83421457  0.00003558  0.83300043  1
  I  I75  1  0.83576304  0.33330747  0.17025734  1
  I  I76  1  0.83317589  0.33054322  0.50153148  1
  I  I77  1  0.83302887  0.33606883  0.83036368  1
  I  I78  1  0.83680085  0.66649628  0.16937859  1
  I  I79  1  0.82771308  0.66911112  0.50182673  1
  I  I80  1  0.84016621  0.66378206  0.83025157  1
  I  I81  1  0.16851378  0.16772457  -0.00019734  1
  I  I82  1  0.16819385  0.16093170  0.33407835  1
  I  I83  1  0.16769014  0.17165893  0.66598127  1
  I  I84  1  0.16734355  0.49446238  -0.00333896  1
  I  I85  1  0.16659794  0.49945218  0.33346136  1
  I  I86  1  0.16602947  0.49559269  0.67014099  1
  I  I87  1  0.17097523  0.83831004  0.00286518  1
  I  I88  1  0.16955343  0.83922199  0.33055835  1
  I  I89  1  0.16642440  0.83388608  0.66645149  1
  I  I90  1  0.49719281  0.16819801  0.00000758  1
  I  I91  1  0.49722702  0.16184480  0.33779963  1
  I  I92  1  0.49736136  0.17209186  0.66263382  1
  I  I93  1  0.49784680  0.50365740  0.00179614  1
  I  I94  1  0.49868743  0.50174206  0.33502212  1
  I  I95  1  0.49973626  0.49845969  0.66389844  1
  I  I96  1  0.49552949  0.82784279  -0.00194306  1
  I  I97  1  0.50200203  0.83510279  0.33698698  1
  I  I98  1  0.50104321  0.83018597  0.66453744  1
  I  I99  1  0.83393778  0.16807903  -0.00019785  1
  I  I100  1  0.83376682  0.16412255  0.33805019  1
  I  I101  1  0.83490683  0.16385822  0.66263295  1
  I  I102  1  0.83676020  0.50075531  -0.00401972  1
  I  I103  1  0.83431661  0.50008553  0.33360807  1
  I  I104  1  0.83542135  0.49935486  0.66917101  1
  I  I105  1  0.83163234  0.83176036  -0.00001760  1
  I  I106  1  0.82510729  0.83716521  0.33797000  1
  I  I107  1  0.83253368  0.83737210  0.66304878  1
  I  I108  1  0.00468069  0.16414842  0.16850422  1
  I  I109  1  0.00044629  0.16095372  0.50069905  1
  I  I110  1  0.00411333  0.16750676  0.83076696  1
  I  I111  1  0.00013587  0.50011600  0.16776385  1
  I  I112  1  0.00011277  0.50036150  0.49953097  1
  I  I113  1  0.00107461  0.49598645  0.83267064  1
  I  I114  1  0.00416393  0.83794944  0.16558591  1
  I  I115  1  -0.00241425  0.83907289  0.49907663  1
  I  I116  1  0.00000037  0.83379847  0.83256538  1
  I  I117  1  0.32983283  0.16379500  0.16939820  1
  I  I118  1  0.33329327  0.16696252  0.50009973  1
  I  I119  1  0.32978934  0.17375385  0.83073186  1
  I  I120  1  0.33586350  0.50021784  0.16940290  1
  I  I121  1  0.33728890  0.50133375  0.49911713  1
  I  I122  1  0.33118995  0.49658857  0.83329285  1
  I  I123  1  0.33081932  0.83710880  0.16884133  1
  I  I124  1  0.33631555  0.83384592  0.50233410  1
  I  I125  1  0.33598943  0.83018669  0.82539925  1
  I  I126  1  0.66663514  0.16789958  0.16725973  1
  I  I127  1  0.66599943  0.16643574  0.50083896  1
  I  I128  1  0.66669473  0.16955713  0.83100120  1
  I  I129  1  0.66242470  0.50258420  0.17101007  1
  I  I130  1  0.66299217  0.49590705  0.50013231  1
  I  I131  1  0.66839074  0.50284832  0.83138573  1
  I  I132  1  0.66669676  0.83103947  0.16483142  1
  I  I133  1  0.66522436  0.83768526  0.50382164  1
  I  I134  1  0.66292745  0.82890891  0.83038648  1
