# generated using pymatgen
data_Cs27Sn13Pb14I81
_symmetry_space_group_name_H-M   'P 1'
_cell_length_a   19.00298007
_cell_length_b   19.00178199
_cell_length_c   18.97611663
_cell_angle_alpha   89.99977244
_cell_angle_beta   90.00053577
_cell_angle_gamma   89.99949092
_symmetry_Int_Tables_number   1
_chemical_formula_structural   Cs27Sn13Pb14I81
_chemical_formula_sum   'Cs27 Sn13 Pb14 I81'
_cell_volume   6852.09514826
_cell_formula_units_Z   1
loop_
 _symmetry_equiv_pos_site_id
 _symmetry_equiv_pos_as_xyz
  1  'x, y, z'
loop_
 _atom_site_type_symbol
 _atom_site_label
 _atom_site_symmetry_multiplicity
 _atom_site_fract_x
 _atom_site_fract_y
 _atom_site_fract_z
 _atom_site_occupancy
  Cs  Cs0  1  0.00024446  0.00024000  -0.00073881  1
  Cs  Cs1  1  0.00013001  -0.00398507  0.33816844  1
  Cs  Cs2  1  0.00258406  0.00095592  0.66888793  1
  Cs  Cs3  1  -0.00074767  0.33194092  -0.00032531  1
  Cs  Cs4  1  0.00082984  0.33560644  0.33843547  1
  Cs  Cs5  1  -0.00152078  0.33414182  0.66311453  1
  Cs  Cs6  1  0.00017459  0.66739813  -0.00000389  1
  Cs  Cs7  1  -0.00035366  0.66876843  0.34120717  1
  Cs  Cs8  1  0.00153796  0.66597915  0.66202877  1
  Cs  Cs9  1  0.33235837  0.00120260  0.00039619  1
  Cs  Cs10  1  0.33208342  0.00062209  0.33459794  1
  Cs  Cs11  1  0.33303630  -0.00272974  0.66112992  1
  Cs  Cs12  1  0.33204857  0.33272520  0.00106028  1
  Cs  Cs13  1  0.33214679  0.33363686  0.33383679  1
  Cs  Cs14  1  0.33484722  0.34094345  0.66050089  1
  Cs  Cs15  1  0.33287270  0.66484413  -0.00119663  1
  Cs  Cs16  1  0.32846255  0.66655555  0.33461570  1
  Cs  Cs17  1  0.34346426  0.66116939  0.66221870  1
  Cs  Cs18  1  0.66762142  0.00128058  0.00068240  1
  Cs  Cs19  1  0.66872306  -0.00225021  0.33496627  1
  Cs  Cs20  1  0.66258952  -0.00069708  0.66411221  1
  Cs  Cs21  1  0.66841136  0.33117725  0.00122069  1
  Cs  Cs22  1  0.66640052  0.33304584  0.33413162  1
  Cs  Cs23  1  0.66791003  0.33458027  0.65946405  1
  Cs  Cs24  1  0.66696705  0.66722512  0.00012984  1
  Cs  Cs25  1  0.67161549  0.66795722  0.33474091  1
  Cs  Cs26  1  0.65608297  0.66478121  0.66291499  1
  Sn  Sn27  1  0.83370037  0.16728707  0.16631109  1
  Sn  Sn28  1  0.50009718  0.16646511  0.16578457  1
  Sn  Sn29  1  0.83339144  0.50007312  0.83439707  1
  Sn  Sn30  1  0.49965518  0.16680087  0.83396361  1
  Sn  Sn31  1  0.83295245  0.49927929  0.16539524  1
  Sn  Sn32  1  0.83361306  0.83329331  0.83387784  1
  Sn  Sn33  1  0.16711938  0.16627177  0.83400264  1
  Sn  Sn34  1  0.16713755  0.83419898  0.16515220  1
  Sn  Sn35  1  0.83317116  0.16661004  0.83406885  1
  Sn  Sn36  1  0.16620988  0.16570838  0.16591220  1
  Sn  Sn37  1  0.16653266  0.83362110  0.83422915  1
  Sn  Sn38  1  0.50083580  0.50004204  0.16572759  1
  Sn  Sn39  1  0.49907391  0.83346333  0.16572805  1
  Pb  Pb40  1  0.16453065  0.49992998  0.83355974  1
  Pb  Pb41  1  0.16584856  0.50003236  0.16647455  1
  Pb  Pb42  1  0.83340098  0.16636878  0.50000080  1
  Pb  Pb43  1  0.83330884  0.83353135  0.50475579  1
  Pb  Pb44  1  0.16666694  0.16659889  0.50042394  1
  Pb  Pb45  1  0.83393980  0.83344498  0.16528936  1
  Pb  Pb46  1  0.49942922  0.83543699  0.83533333  1
  Pb  Pb47  1  0.83318344  0.49997448  0.49980891  1
  Pb  Pb48  1  0.50032784  0.49975540  0.49581192  1
  Pb  Pb49  1  0.49994078  0.16658290  0.49966131  1
  Pb  Pb50  1  0.16676831  0.83358137  0.50092190  1
  Pb  Pb51  1  0.16667252  0.49997560  0.50019342  1
  Pb  Pb52  1  0.50252394  0.49691123  0.83582612  1
  Pb  Pb53  1  0.49992229  0.83365381  0.49607407  1
  I  I54  1  0.16988710  0.00085264  0.16278971  1
  I  I55  1  0.16664798  0.00002647  0.49881741  1
  I  I56  1  0.16038975  0.00084627  0.83823220  1
  I  I57  1  0.16923105  0.32984118  0.16202642  1
  I  I58  1  0.16645220  0.33294234  0.49911954  1
  I  I59  1  0.16603586  0.32954723  0.83944446  1
  I  I60  1  0.17061263  0.66995697  0.16254066  1
  I  I61  1  0.16516694  0.66714424  0.49766107  1
  I  I62  1  0.16044178  0.67020129  0.83930258  1
  I  I63  1  0.50000718  0.00111343  0.16280422  1
  I  I64  1  0.50042686  0.00015366  0.49871815  1
  I  I65  1  0.50560368  0.00342875  0.84021854  1
  I  I66  1  0.50072216  0.33213572  0.16297134  1
  I  I67  1  0.49994526  0.33323018  0.49953365  1
  I  I68  1  0.49808721  0.32889379  0.84028987  1
  I  I69  1  0.50062249  0.66677014  0.16682605  1
  I  I70  1  0.49988425  0.66660944  0.50218011  1
  I  I71  1  0.50045765  0.66655296  0.83460585  1
  I  I72  1  0.83022258  0.00302925  0.16238486  1
  I  I73  1  0.83280871  -0.00000945  0.49628059  1
  I  I74  1  0.83453166  0.00122571  0.83830619  1
  I  I75  1  0.82988378  0.33227089  0.15904964  1
  I  I76  1  0.83376672  0.33320877  0.50377086  1
  I  I77  1  0.83350882  0.33212948  0.83826466  1
  I  I78  1  0.82908725  0.66440279  0.16184139  1
  I  I79  1  0.83465170  0.66667143  0.49632093  1
  I  I80  1  0.83934479  0.66661288  0.83967771  1
  I  I81  1  0.16624364  0.16263550  0.00053885  1
  I  I82  1  0.16752436  0.16325153  0.32915562  1
  I  I83  1  0.16485322  0.16175354  0.67098905  1
  I  I84  1  0.16894580  0.50082846  0.00022259  1
  I  I85  1  0.16492847  0.49966336  0.33251095  1
  I  I86  1  0.16366580  0.49886591  0.66734674  1
  I  I87  1  0.16623711  0.83838185  0.00040389  1
  I  I88  1  0.17120143  0.83740018  0.32984416  1
  I  I89  1  0.15924452  0.83995695  0.67080332  1
  I  I90  1  0.50072606  0.16653303  0.00135442  1
  I  I91  1  0.49996912  0.16726357  0.32853601  1
  I  I92  1  0.50162543  0.16540594  0.67024632  1
  I  I93  1  0.50155699  0.50172030  0.00386540  1
  I  I94  1  0.50688678  0.49633757  0.32761879  1
  I  I95  1  0.50080369  0.49902504  0.66686881  1
  I  I96  1  0.49912669  0.83198098  0.00364602  1
  I  I97  1  0.49461918  0.83677918  0.32735804  1
  I  I98  1  0.50068191  0.83500352  0.66702484  1
  I  I99  1  0.83305911  0.16773903  -0.00005652  1
  I  I100  1  0.83236527  0.17196105  0.32908150  1
  I  I101  1  0.83377570  0.16764669  0.67113098  1
  I  I102  1  0.82962034  0.49770499  0.00058689  1
  I  I103  1  0.82907719  0.49460550  0.32939152  1
  I  I104  1  0.83601005  0.49769682  0.67021795  1
  I  I105  1  0.83441944  0.83407227  -0.00281796  1
  I  I106  1  0.83315897  0.83273080  0.33307669  1
  I  I107  1  0.84102227  0.83541325  0.67303904  1
  I  I108  1  -0.00015742  0.16709202  0.16011971  1
  I  I109  1  -0.00000081  0.16741074  0.49892240  1
  I  I110  1  -0.00042246  0.16583868  0.83947390  1
  I  I111  1  -0.00355793  0.49584526  0.16218439  1
  I  I112  1  -0.00052041  0.50005768  0.49684722  1
  I  I113  1  -0.00388049  0.49531748  0.84128679  1
  I  I114  1  0.00275622  0.83677416  0.16413509  1
  I  I115  1  0.00010972  0.83211968  0.49271072  1
  I  I116  1  0.00019451  0.83851317  0.84044292  1
  I  I117  1  0.33347589  0.16660314  0.16118110  1
  I  I118  1  0.33333708  0.16703756  0.49943719  1
  I  I119  1  0.33285793  0.16050039  0.84181682  1
  I  I120  1  0.33590865  0.49706484  0.16799797  1
  I  I121  1  0.33385464  0.49995548  0.49973951  1
  I  I122  1  0.33369861  0.50021797  0.83344650  1
  I  I123  1  0.33279589  0.83652342  0.16136982  1
  I  I124  1  0.33331586  0.83276856  0.50467489  1
  I  I125  1  0.33021192  0.83961416  0.83646481  1
  I  I126  1  0.66665116  0.16724100  0.16094224  1
  I  I127  1  0.66667427  0.16683416  0.50013722  1
  I  I128  1  0.66748357  0.16621421  0.84047732  1
  I  I129  1  0.66714231  0.49652276  0.16243298  1
  I  I130  1  0.66677230  0.50010174  0.50269562  1
  I  I131  1  0.67056207  0.50170429  0.83609380  1
  I  I132  1  0.66474054  0.83583185  0.16504361  1
  I  I133  1  0.66660140  0.83335426  0.49915643  1
  I  I134  1  0.66914381  0.83478805  0.83582419  1
