# generated using pymatgen
data_Cs27Sn13Pb14I81
_symmetry_space_group_name_H-M   'P 1'
_cell_length_a   18.97905355
_cell_length_b   18.97860636
_cell_length_c   18.97467312
_cell_angle_alpha   90.00138149
_cell_angle_beta   89.99950692
_cell_angle_gamma   89.99948943
_symmetry_Int_Tables_number   1
_chemical_formula_structural   Cs27Sn13Pb14I81
_chemical_formula_sum   'Cs27 Sn13 Pb14 I81'
_cell_volume   6834.60109702
_cell_formula_units_Z   1
loop_
 _symmetry_equiv_pos_site_id
 _symmetry_equiv_pos_as_xyz
  1  'x, y, z'
loop_
 _atom_site_type_symbol
 _atom_site_label
 _atom_site_symmetry_multiplicity
 _atom_site_fract_x
 _atom_site_fract_y
 _atom_site_fract_z
 _atom_site_occupancy
  Cs  Cs0  1  -0.00072152  -0.00249486  0.00181534  1
  Cs  Cs1  1  -0.00128044  -0.00222760  0.33411028  1
  Cs  Cs2  1  -0.00300432  -0.00553639  0.66558682  1
  Cs  Cs3  1  0.00194987  0.33495503  0.00092110  1
  Cs  Cs4  1  0.00077583  0.33223733  0.33221715  1
  Cs  Cs5  1  0.00154450  0.33346953  0.66671746  1
  Cs  Cs6  1  -0.00068209  0.66559323  0.00094102  1
  Cs  Cs7  1  -0.00046018  0.66881460  0.33212259  1
  Cs  Cs8  1  0.00250018  0.66932934  0.66674989  1
  Cs  Cs9  1  0.34336856  0.00075586  -0.00014297  1
  Cs  Cs10  1  0.33421686  0.00192111  0.33385295  1
  Cs  Cs11  1  0.33166423  -0.00114579  0.66564002  1
  Cs  Cs12  1  0.33001752  0.33033495  0.00443099  1
  Cs  Cs13  1  0.33320807  0.33247540  0.33144186  1
  Cs  Cs14  1  0.33149238  0.33372312  0.66489568  1
  Cs  Cs15  1  0.33577167  0.66912256  0.00151338  1
  Cs  Cs16  1  0.33850180  0.66502705  0.33299619  1
  Cs  Cs17  1  0.33044064  0.66689330  0.66625931  1
  Cs  Cs18  1  0.65871954  0.00094924  -0.00636858  1
  Cs  Cs19  1  0.66763772  -0.00056566  0.33468454  1
  Cs  Cs20  1  0.67183819  0.00224286  0.67090150  1
  Cs  Cs21  1  0.66751672  0.33020284  -0.00349070  1
  Cs  Cs22  1  0.66665854  0.33537133  0.33565131  1
  Cs  Cs23  1  0.66658602  0.33310648  0.66675081  1
  Cs  Cs24  1  0.66694541  0.66876199  0.00106055  1
  Cs  Cs25  1  0.66354811  0.66517438  0.33261727  1
  Cs  Cs26  1  0.66655290  0.66347123  0.66684608  1
  Sn  Sn27  1  0.16621243  0.16686970  0.83271814  1
  Sn  Sn28  1  0.83317780  0.16654406  0.16651866  1
  Sn  Sn29  1  0.50008988  0.83453523  0.50054761  1
  Sn  Sn30  1  0.83378233  0.83359693  0.16652532  1
  Sn  Sn31  1  0.83362046  0.49991985  0.83321580  1
  Sn  Sn32  1  0.16578887  0.49937796  0.50016861  1
  Sn  Sn33  1  0.83363336  0.49974296  0.16670952  1
  Sn  Sn34  1  0.16692705  0.16715546  0.50080551  1
  Sn  Sn35  1  0.16693707  0.49928068  0.83290239  1
  Sn  Sn36  1  0.16673653  0.83345951  0.16659762  1
  Sn  Sn37  1  0.83461164  0.49994328  0.50003142  1
  Sn  Sn38  1  0.49922035  0.49975512  0.83364256  1
  Sn  Sn39  1  0.49960685  0.16570539  0.50031787  1
  Pb  Pb40  1  0.49741174  0.16899710  0.83065998  1
  Pb  Pb41  1  0.16512552  0.50158936  0.16680594  1
  Pb  Pb42  1  0.50047321  0.83342936  0.16853266  1
  Pb  Pb43  1  0.16674572  0.83345720  0.83574152  1
  Pb  Pb44  1  0.16503543  0.16443995  0.16677422  1
  Pb  Pb45  1  0.16804845  0.83318132  0.49811079  1
  Pb  Pb46  1  0.83401172  0.16855505  0.49870703  1
  Pb  Pb47  1  0.83120688  0.83059811  0.49814706  1
  Pb  Pb48  1  0.50281399  0.16693881  0.16916628  1
  Pb  Pb49  1  0.50284075  0.49962161  0.16354155  1
  Pb  Pb50  1  0.49991099  0.83115185  0.83027064  1
  Pb  Pb51  1  0.83341237  0.83105717  0.83580873  1
  Pb  Pb52  1  0.83596819  0.16867464  0.83534328  1
  Pb  Pb53  1  0.49940891  0.49943789  0.50157319  1
  I  I54  1  0.15868528  -0.00297258  0.16793075  1
  I  I55  1  0.16951404  0.00296626  0.50256088  1
  I  I56  1  0.16622132  0.00320314  0.82915059  1
  I  I57  1  0.16456216  0.33327995  0.16671680  1
  I  I58  1  0.16847419  0.33389353  0.50282039  1
  I  I59  1  0.16589654  0.33491162  0.82978005  1
  I  I60  1  0.16018662  0.66918411  0.16708994  1
  I  I61  1  0.16429472  0.66346627  0.50342497  1
  I  I62  1  0.16554371  0.66286354  0.82951872  1
  I  I63  1  0.50227535  0.00011513  0.16481770  1
  I  I64  1  0.49333297  0.00094743  0.49758278  1
  I  I65  1  0.49850182  0.00044088  0.83511554  1
  I  I66  1  0.50069841  0.33338849  0.17032678  1
  I  I67  1  0.49925955  0.33110585  0.50136782  1
  I  I68  1  0.50430757  0.33687150  0.83023366  1
  I  I69  1  0.50151127  0.66649799  0.17004833  1
  I  I70  1  0.50085343  0.66793903  0.50040303  1
  I  I71  1  0.49849189  0.66278226  0.83104728  1
  I  I72  1  0.83928581  -0.00038762  0.16971389  1
  I  I73  1  0.83493252  0.00001238  0.49644059  1
  I  I74  1  0.83448893  0.00030374  0.83511302  1
  I  I75  1  0.83299987  0.33457051  0.16674087  1
  I  I76  1  0.83193141  0.33705625  0.49739558  1
  I  I77  1  0.83129729  0.33746765  0.83581913  1
  I  I78  1  0.83747469  0.66586993  0.16615482  1
  I  I79  1  0.83705672  0.66214761  0.49881519  1
  I  I80  1  0.83623442  0.66188848  0.83467762  1
  I  I81  1  0.16321761  0.17241351  -0.00252838  1
  I  I82  1  0.16941524  0.17093587  0.33646208  1
  I  I83  1  0.17048364  0.17232753  0.66577385  1
  I  I84  1  0.16546897  0.49680633  -0.00306088  1
  I  I85  1  0.16229295  0.49694222  0.33638812  1
  I  I86  1  0.16212843  0.49718149  0.66655086  1
  I  I87  1  0.16096047  0.83136983  0.00350430  1
  I  I88  1  0.16175212  0.83278349  0.33050880  1
  I  I89  1  0.16873764  0.83229267  0.66650669  1
  I  I90  1  0.49941610  0.16743569  -0.00046520  1
  I  I91  1  0.49287537  0.16541465  0.33721979  1
  I  I92  1  0.49997517  0.16396678  0.66280841  1
  I  I93  1  0.49804244  0.50067499  -0.00446726  1
  I  I94  1  0.50090373  0.50089590  0.33360925  1
  I  I95  1  0.50518573  0.50033920  0.66928898  1
  I  I96  1  0.50030614  0.83166230  -0.00010250  1
  I  I97  1  0.50014984  0.83428519  0.33634021  1
  I  I98  1  0.49805708  0.83623510  0.66262288  1
  I  I99  1  0.83600985  0.16957780  0.00343043  1
  I  I100  1  0.83512922  0.17025626  0.33057105  1
  I  I101  1  0.83084874  0.16903967  0.66667240  1
  I  I102  1  0.83353557  0.50070929  -0.00002787  1
  I  I103  1  0.83779625  0.50002464  0.33337904  1
  I  I104  1  0.83316378  0.49922967  0.66674703  1
  I  I105  1  0.83734607  0.83003941  0.00424432  1
  I  I106  1  0.83684714  0.83008497  0.32996455  1
  I  I107  1  0.83225173  0.83176467  0.66648347  1
  I  I108  1  -0.00291570  0.17009839  0.16884482  1
  I  I109  1  0.00316208  0.17052906  0.50165391  1
  I  I110  1  0.00374659  0.17346999  0.82712073  1
  I  I111  1  -0.00341698  0.49879452  0.16316525  1
  I  I112  1  0.00045428  0.49516329  0.50343728  1
  I  I113  1  0.00019369  0.49631771  0.83352620  1
  I  I114  1  -0.00124107  0.83194458  0.16786609  1
  I  I115  1  -0.00012042  0.83463100  0.49962181  1
  I  I116  1  0.00011854  0.83086102  0.83105038  1
  I  I117  1  0.33309408  0.16426050  0.16489620  1
  I  I118  1  0.33211972  0.16935045  0.50269805  1
  I  I119  1  0.32958388  0.17323571  0.83378987  1
  I  I120  1  0.33317090  0.50309807  0.16746124  1
  I  I121  1  0.33033156  0.49993429  0.50490080  1
  I  I122  1  0.33184165  0.49736958  0.82613480  1
  I  I123  1  0.33099063  0.83246317  0.16763946  1
  I  I124  1  0.33576916  0.83116569  0.49644113  1
  I  I125  1  0.33322414  0.82926383  0.83768540  1
  I  I126  1  0.67103891  0.16627532  0.16795246  1
  I  I127  1  0.66464462  0.16539974  0.49611042  1
  I  I128  1  0.66669713  0.16854973  0.83368535  1
  I  I129  1  0.67170685  0.50359891  0.16955495  1
  I  I130  1  0.66912295  0.50049730  0.49982364  1
  I  I131  1  0.66776337  0.50202800  0.83335488  1
  I  I132  1  0.67004627  0.83033426  0.16871307  1
  I  I133  1  0.66352540  0.83699982  0.49729480  1
  I  I134  1  0.66667301  0.83088563  0.83574016  1
