# generated using pymatgen
data_Cs27Sn14Pb13I81
_symmetry_space_group_name_H-M   'P 1'
_cell_length_a   18.97450845
_cell_length_b   18.97942519
_cell_length_c   18.97152627
_cell_angle_alpha   90.00071431
_cell_angle_beta   89.99871122
_cell_angle_gamma   89.99997647
_symmetry_Int_Tables_number   1
_chemical_formula_structural   Cs27Sn14Pb13I81
_chemical_formula_sum   'Cs27 Sn14 Pb13 I81'
_cell_volume   6832.12589416
_cell_formula_units_Z   1
loop_
 _symmetry_equiv_pos_site_id
 _symmetry_equiv_pos_as_xyz
  1  'x, y, z'
loop_
 _atom_site_type_symbol
 _atom_site_label
 _atom_site_symmetry_multiplicity
 _atom_site_fract_x
 _atom_site_fract_y
 _atom_site_fract_z
 _atom_site_occupancy
  Cs  Cs0  1  -0.00149539  -0.00103195  -0.00193111  1
  Cs  Cs1  1  -0.00020694  -0.00043773  0.33409498  1
  Cs  Cs2  1  -0.00165534  0.01124764  0.66773618  1
  Cs  Cs3  1  0.00315804  0.33184999  -0.00064849  1
  Cs  Cs4  1  0.00412400  0.33414472  0.34195117  1
  Cs  Cs5  1  -0.00029506  0.32599656  0.65873831  1
  Cs  Cs6  1  -0.00118508  0.66933790  -0.00034947  1
  Cs  Cs7  1  -0.00043044  0.66520260  0.33503042  1
  Cs  Cs8  1  0.00110229  0.66452340  0.66692023  1
  Cs  Cs9  1  0.33276442  0.00015149  0.00051017  1
  Cs  Cs10  1  0.33121390  -0.00215434  0.33632451  1
  Cs  Cs11  1  0.33467310  -0.00061108  0.66357769  1
  Cs  Cs12  1  0.33250405  0.33240361  0.00462482  1
  Cs  Cs13  1  0.32852452  0.33360455  0.32288677  1
  Cs  Cs14  1  0.33806781  0.33276527  0.66948654  1
  Cs  Cs15  1  0.33285756  0.66623559  -0.00124763  1
  Cs  Cs16  1  0.32865405  0.66834136  0.33562302  1
  Cs  Cs17  1  0.33500397  0.66739262  0.66752257  1
  Cs  Cs18  1  0.66835897  -0.00200874  0.00070493  1
  Cs  Cs19  1  0.66639149  -0.00274441  0.33095052  1
  Cs  Cs20  1  0.66571431  0.00190542  0.66775485  1
  Cs  Cs21  1  0.66392007  0.33656859  0.00203900  1
  Cs  Cs22  1  0.66689243  0.33248937  0.33369884  1
  Cs  Cs23  1  0.66531453  0.33391379  0.66478654  1
  Cs  Cs24  1  0.66777291  0.66715022  -0.00058812  1
  Cs  Cs25  1  0.66804229  0.66886230  0.33227058  1
  Cs  Cs26  1  0.66474389  0.66483097  0.66865971  1
  Sn  Sn27  1  0.16721603  0.83277871  0.83369787  1
  Sn  Sn28  1  0.16652591  0.50041334  0.83320166  1
  Sn  Sn29  1  0.50010197  0.16799174  0.49979358  1
  Sn  Sn30  1  0.49957453  0.83295989  0.16594635  1
  Sn  Sn31  1  0.83347731  0.49961256  0.16615455  1
  Sn  Sn32  1  0.83322144  0.83312411  0.50027534  1
  Sn  Sn33  1  0.83348568  0.16712381  0.16647959  1
  Sn  Sn34  1  0.49991384  0.49913469  0.49979445  1
  Sn  Sn35  1  0.50028004  0.16667075  0.83322193  1
  Sn  Sn36  1  0.83361533  0.83314991  0.16745158  1
  Sn  Sn37  1  0.49982208  0.49983891  0.83302492  1
  Sn  Sn38  1  0.16648779  0.83304739  0.16578595  1
  Sn  Sn39  1  0.49935815  0.83346486  0.83427773  1
  Sn  Sn40  1  0.83386433  0.49974588  0.83366888  1
  Pb  Pb41  1  0.16926135  0.16652874  0.83339260  1
  Pb  Pb42  1  0.50143410  0.83309102  0.50048737  1
  Pb  Pb43  1  0.83365756  0.83199529  0.83320879  1
  Pb  Pb44  1  0.50144566  0.50239894  0.16665528  1
  Pb  Pb45  1  0.16367213  0.83335233  0.50134444  1
  Pb  Pb46  1  0.83143579  0.50157002  0.50016719  1
  Pb  Pb47  1  0.17027924  0.16677219  0.49994558  1
  Pb  Pb48  1  0.17004494  0.50009297  0.50306163  1
  Pb  Pb49  1  0.50140647  0.16422057  0.16670568  1
  Pb  Pb50  1  0.16361420  0.50222297  0.16439223  1
  Pb  Pb51  1  0.83085198  0.16440166  0.49763059  1
  Pb  Pb52  1  0.16360929  0.16386178  0.16646932  1
  Pb  Pb53  1  0.83076507  0.17010059  0.83545207  1
  I  I54  1  0.16552088  -0.00471200  0.15967136  1
  I  I55  1  0.16862391  -0.00035448  0.50157388  1
  I  I56  1  0.17061676  -0.00352226  0.83759467  1
  I  I57  1  0.16615719  0.33358978  0.16527466  1
  I  I58  1  0.16152065  0.33362152  0.50141526  1
  I  I59  1  0.16737556  0.33653475  0.83305182  1
  I  I60  1  0.16545258  0.67051511  0.16447277  1
  I  I61  1  0.16945123  0.66683995  0.49780990  1
  I  I62  1  0.17186054  0.66713190  0.83743435  1
  I  I63  1  0.50360381  -0.00399527  0.16290684  1
  I  I64  1  0.50260414  0.00178231  0.50343908  1
  I  I65  1  0.49613036  -0.00108974  0.83320790  1
  I  I66  1  0.50346327  0.33346991  0.16455399  1
  I  I67  1  0.50248207  0.33374595  0.51056780  1
  I  I68  1  0.50158717  0.33432557  0.82791269  1
  I  I69  1  0.50374026  0.67059338  0.16271675  1
  I  I70  1  0.50243731  0.66453656  0.50440661  1
  I  I71  1  0.50007178  0.66648002  0.83299556  1
  I  I72  1  0.83224174  -0.00173343  0.17149667  1
  I  I73  1  0.83064498  -0.00340583  0.49487558  1
  I  I74  1  0.83283923  0.00013213  0.83370349  1
  I  I75  1  0.82938186  0.33419619  0.15973664  1
  I  I76  1  0.83342535  0.33327551  0.49883398  1
  I  I77  1  0.83305902  0.33824648  0.83856896  1
  I  I78  1  0.83228807  0.66767566  0.16618496  1
  I  I79  1  0.82969867  0.66925841  0.49342872  1
  I  I80  1  0.82770445  0.66402226  0.83848299  1
  I  I81  1  0.16974779  0.16845084  -0.00009449  1
  I  I82  1  0.16930874  0.16455383  0.33301490  1
  I  I83  1  0.16217125  0.16325290  0.66701177  1
  I  I84  1  0.17308161  0.50195752  -0.00374349  1
  I  I85  1  0.16676498  0.50144235  0.33319253  1
  I  I86  1  0.16180200  0.50858449  0.67147652  1
  I  I87  1  0.16563003  0.82958911  -0.00024570  1
  I  I88  1  0.16959922  0.83455533  0.33040838  1
  I  I89  1  0.17245995  0.82843610  0.67061489  1
  I  I90  1  0.50137254  0.16913300  -0.00282826  1
  I  I91  1  0.50337953  0.16945583  0.33566886  1
  I  I92  1  0.50084074  0.16487336  0.66786676  1
  I  I93  1  0.49924232  0.49812936  -0.00340603  1
  I  I94  1  0.50466771  0.49739164  0.33553568  1
  I  I95  1  0.50244791  0.50209948  0.66892521  1
  I  I96  1  0.50262382  0.83309002  -0.00091031  1
  I  I97  1  0.49986450  0.83367237  0.33079196  1
  I  I98  1  0.49759908  0.83278527  0.67000458  1
  I  I99  1  0.83047875  0.15900612  0.00308064  1
  I  I100  1  0.82952757  0.16948958  0.32976009  1
  I  I101  1  0.83437747  0.16516097  0.66669938  1
  I  I102  1  0.82943498  0.50370229  -0.00023038  1
  I  I103  1  0.82981212  0.50078334  0.33048366  1
  I  I104  1  0.83314499  0.50442047  0.66969265  1
  I  I105  1  0.83244997  0.83434975  0.00289750  1
  I  I106  1  0.83133266  0.83132951  0.33065919  1
  I  I107  1  0.83060605  0.82977193  0.66483308  1
  I  I108  1  -0.00444691  0.16417094  0.16526041  1
  I  I109  1  -0.00041438  0.16493029  0.49946780  1
  I  I110  1  -0.00026479  0.16543264  0.83475301  1
  I  I111  1  -0.00451676  0.50343960  0.16103142  1
  I  I112  1  -0.00005404  0.50211710  0.50057755  1
  I  I113  1  -0.00011328  0.50838901  0.84064043  1
  I  I114  1  -0.00076551  0.83322346  0.16589678  1
  I  I115  1  -0.00401310  0.83147184  0.49402118  1
  I  I116  1  0.00250719  0.82695810  0.83719885  1
  I  I117  1  0.33344143  0.16538249  0.16724410  1
  I  I118  1  0.33846498  0.16730013  0.50489360  1
  I  I119  1  0.33767917  0.16997141  0.83056161  1
  I  I120  1  0.33317577  0.50121667  0.16712171  1
  I  I121  1  0.33824951  0.49898157  0.50540125  1
  I  I122  1  0.33443445  0.50199201  0.82761756  1
  I  I123  1  0.33378128  0.83347728  0.16152697  1
  I  I124  1  0.33346260  0.83396670  0.49635869  1
  I  I125  1  0.33457533  0.82885523  0.84072536  1
  I  I126  1  0.66931753  0.16271239  0.16584716  1
  I  I127  1  0.66324720  0.16980874  0.50506101  1
  I  I128  1  0.66263829  0.16386416  0.83022425  1
  I  I129  1  0.66957532  0.50408414  0.16080799  1
  I  I130  1  0.66357427  0.49813935  0.50691676  1
  I  I131  1  0.66567170  0.50124152  0.83371810  1
  I  I132  1  0.66723652  0.83351816  0.16652989  1
  I  I133  1  0.66901629  0.83297622  0.49424036  1
  I  I134  1  0.66383625  0.83215643  0.83606410  1
