# generated using pymatgen
data_Cs27Sn13Pb14I81
_symmetry_space_group_name_H-M   'P 1'
_cell_length_a   18.97168184
_cell_length_b   18.97765961
_cell_length_c   18.98148434
_cell_angle_alpha   90.00007368
_cell_angle_beta   90.00143041
_cell_angle_gamma   89.99954876
_symmetry_Int_Tables_number   1
_chemical_formula_structural   Cs27Sn13Pb14I81
_chemical_formula_sum   'Cs27 Sn13 Pb14 I81'
_cell_volume   6834.05793722
_cell_formula_units_Z   1
loop_
 _symmetry_equiv_pos_site_id
 _symmetry_equiv_pos_as_xyz
  1  'x, y, z'
loop_
 _atom_site_type_symbol
 _atom_site_label
 _atom_site_symmetry_multiplicity
 _atom_site_fract_x
 _atom_site_fract_y
 _atom_site_fract_z
 _atom_site_occupancy
  Cs  Cs0  1  -0.00020757  0.00071085  0.00048166  1
  Cs  Cs1  1  0.00042244  0.00277822  0.33122558  1
  Cs  Cs2  1  0.00083348  0.00328198  0.67006332  1
  Cs  Cs3  1  0.00093296  0.33089502  0.00242137  1
  Cs  Cs4  1  0.00074180  0.33270742  0.33362612  1
  Cs  Cs5  1  -0.00252894  0.33376714  0.66546154  1
  Cs  Cs6  1  0.00147757  0.66861193  0.00230410  1
  Cs  Cs7  1  -0.00027030  0.66396261  0.33315039  1
  Cs  Cs8  1  -0.00367337  0.66204895  0.66428928  1
  Cs  Cs9  1  0.33074397  -0.00314484  -0.00030957  1
  Cs  Cs10  1  0.33384189  -0.00031397  0.33417179  1
  Cs  Cs11  1  0.33421932  -0.00078376  0.66622276  1
  Cs  Cs12  1  0.33896131  0.33435145  -0.00075653  1
  Cs  Cs13  1  0.33490239  0.33391826  0.33244723  1
  Cs  Cs14  1  0.33496938  0.33254364  0.66824309  1
  Cs  Cs15  1  0.33261490  0.66767239  0.00002057  1
  Cs  Cs16  1  0.33204916  0.66615684  0.33346511  1
  Cs  Cs17  1  0.33165026  0.66826215  0.66633016  1
  Cs  Cs18  1  0.67060993  -0.00200533  -0.00189799  1
  Cs  Cs19  1  0.66627888  0.00029558  0.33783759  1
  Cs  Cs20  1  0.66629957  -0.00038233  0.66258639  1
  Cs  Cs21  1  0.65839010  0.33664665  -0.00447917  1
  Cs  Cs22  1  0.66397310  0.33018694  0.33034672  1
  Cs  Cs23  1  0.66518158  0.33573938  0.67640663  1
  Cs  Cs24  1  0.66667140  0.66544053  -0.00256838  1
  Cs  Cs25  1  0.66853884  0.66961075  0.33677691  1
  Cs  Cs26  1  0.67455278  0.66487428  0.66418426  1
  Sn  Sn27  1  0.16656055  0.50056063  0.83418455  1
  Sn  Sn28  1  0.83373192  0.49900020  0.16668099  1
  Sn  Sn29  1  0.49932262  0.83314951  0.83381236  1
  Sn  Sn30  1  0.16688010  0.83224468  0.83319555  1
  Sn  Sn31  1  0.49947490  0.83337942  0.16612378  1
  Sn  Sn32  1  0.49988202  0.49997623  0.49977334  1
  Sn  Sn33  1  0.16642036  0.83393494  0.49988191  1
  Sn  Sn34  1  0.16735453  0.83336848  0.16692791  1
  Sn  Sn35  1  0.16658411  0.16683033  0.16741690  1
  Sn  Sn36  1  0.16624148  0.49975104  0.16579194  1
  Sn  Sn37  1  0.16608206  0.16598658  0.49917153  1
  Sn  Sn38  1  0.83410263  0.16708717  0.49925855  1
  Sn  Sn39  1  0.83384940  0.16796587  0.16732671  1
  Pb  Pb40  1  0.16748415  0.49937525  0.49977300  1
  Pb  Pb41  1  0.49992898  0.50247643  0.16785290  1
  Pb  Pb42  1  0.49796165  0.83172827  0.50018896  1
  Pb  Pb43  1  0.49970636  0.16886950  0.49996154  1
  Pb  Pb44  1  0.83395991  0.83324172  0.83320000  1
  Pb  Pb45  1  0.49998875  0.16384365  0.16648965  1
  Pb  Pb46  1  0.83078658  0.49699708  0.49742746  1
  Pb  Pb47  1  0.83680389  0.83584688  0.49985401  1
  Pb  Pb48  1  0.16681733  0.16672914  0.83361709  1
  Pb  Pb49  1  0.49748831  0.50285695  0.83110416  1
  Pb  Pb50  1  0.83628423  0.49996829  0.83649607  1
  Pb  Pb51  1  0.83352312  0.83362981  0.16671812  1
  Pb  Pb52  1  0.83339071  0.16678915  0.83404373  1
  Pb  Pb53  1  0.49978361  0.16324620  0.83347770  1
  I  I54  1  0.16655106  -0.00031731  0.16700788  1
  I  I55  1  0.16466681  -0.00015491  0.49695999  1
  I  I56  1  0.17037788  -0.00330323  0.83521267  1
  I  I57  1  0.16157832  0.33331460  0.16749570  1
  I  I58  1  0.16472000  0.33039957  0.49681700  1
  I  I59  1  0.16545735  0.33621521  0.83613451  1
  I  I60  1  0.16660159  0.66699470  0.16634232  1
  I  I61  1  0.17073294  0.66900554  0.49767306  1
  I  I62  1  0.17062624  0.66771947  0.83689265  1
  I  I63  1  0.49443445  -0.00406179  0.16433503  1
  I  I64  1  0.50152421  -0.00016357  0.50054148  1
  I  I65  1  0.49143766  -0.00491143  0.83630753  1
  I  I66  1  0.49741174  0.33351967  0.16881972  1
  I  I67  1  0.49587444  0.33631319  0.49779920  1
  I  I68  1  0.49906330  0.33393871  0.83153250  1
  I  I69  1  0.49445775  0.67018832  0.16422322  1
  I  I70  1  0.49616967  0.66433701  0.49839920  1
  I  I71  1  0.49558790  0.67047004  0.83835585  1
  I  I72  1  0.83708354  0.00322617  0.17013127  1
  I  I73  1  0.83308009  0.00380950  0.49216751  1
  I  I74  1  0.83510790  -0.00000971  0.83609035  1
  I  I75  1  0.84332277  0.33288422  0.17126264  1
  I  I76  1  0.84271304  0.32947524  0.49724549  1
  I  I77  1  0.83560322  0.33350927  0.83052355  1
  I  I78  1  0.83766537  0.66410815  0.16554059  1
  I  I79  1  0.83296873  0.66630724  0.49922899  1
  I  I80  1  0.83203071  0.66649866  0.83468912  1
  I  I81  1  0.16190878  0.16368389  0.00361315  1
  I  I82  1  0.16316860  0.16343129  0.33244812  1
  I  I83  1  0.16317493  0.16355563  0.66355865  1
  I  I84  1  0.16349688  0.50362355  0.00147384  1
  I  I85  1  0.16486308  0.50298134  0.33020039  1
  I  I86  1  0.17057495  0.50395525  0.66872663  1
  I  I87  1  0.17034960  0.83282616  0.00091514  1
  I  I88  1  0.17066278  0.83362950  0.33225199  1
  I  I89  1  0.17120358  0.83371404  0.66692695  1
  I  I90  1  0.49987677  0.17057132  0.00034052  1
  I  I91  1  0.49934066  0.16384936  0.33319006  1
  I  I92  1  0.49938194  0.16545693  0.66642169  1
  I  I93  1  0.50190341  0.49916764  -0.00007811  1
  I  I94  1  0.49611988  0.50282707  0.33520040  1
  I  I95  1  0.49697450  0.50076093  0.66380275  1
  I  I96  1  0.49074010  0.83320340  0.00050978  1
  I  I97  1  0.49501114  0.83195547  0.33082190  1
  I  I98  1  0.49353848  0.83248923  0.66925111  1
  I  I99  1  0.83977577  0.16805042  0.00418346  1
  I  I100  1  0.83907261  0.16970524  0.33226719  1
  I  I101  1  0.83899254  0.16469821  0.66341813  1
  I  I102  1  0.83385732  0.49394905  0.00455825  1
  I  I103  1  0.84144855  0.49977907  0.32966230  1
  I  I104  1  0.83325205  0.49920435  0.66657663  1
  I  I105  1  0.83708360  0.83632887  0.00028845  1
  I  I106  1  0.83135770  0.83066562  0.33312180  1
  I  I107  1  0.83239547  0.83529099  0.66642070  1
  I  I108  1  0.00169401  0.16530698  0.17039430  1
  I  I109  1  0.00146836  0.16267876  0.49529979  1
  I  I110  1  0.00047566  0.16322559  0.83301016  1
  I  I111  1  0.00198020  0.50196311  0.16415690  1
  I  I112  1  0.00002521  0.50238575  0.50206273  1
  I  I113  1  0.00443908  0.50754861  0.83245236  1
  I  I114  1  0.00379588  0.83334303  0.16579305  1
  I  I115  1  0.00521658  0.83217068  0.49861831  1
  I  I116  1  0.00449703  0.83094533  0.83535154  1
  I  I117  1  0.32962086  0.16885383  0.17116398  1
  I  I118  1  0.32972887  0.16348816  0.49561381  1
  I  I119  1  0.33272834  0.16943363  0.83250869  1
  I  I120  1  0.32982194  0.49807033  0.16476955  1
  I  I121  1  0.33482108  0.49934750  0.49758771  1
  I  I122  1  0.32949270  0.50148188  0.84006936  1
  I  I123  1  0.33087672  0.83321005  0.16605610  1
  I  I124  1  0.32950557  0.83880255  0.49924669  1
  I  I125  1  0.33135995  0.82996464  0.83500253  1
  I  I126  1  0.67001569  0.16960035  0.17163173  1
  I  I127  1  0.66967880  0.16774449  0.49388426  1
  I  I128  1  0.66671301  0.16531700  0.83294586  1
  I  I129  1  0.66917302  0.49644363  0.17035965  1
  I  I130  1  0.66353270  0.50140186  0.49788841  1
  I  I131  1  0.66650539  0.50091614  0.83316654  1
  I  I132  1  0.66382124  0.83277812  0.16136209  1
  I  I133  1  0.66660789  0.83366617  0.50008699  1
  I  I134  1  0.66345878  0.83457935  0.83991472  1
