# generated using pymatgen
data_Cs27Sn14Pb13I81
_symmetry_space_group_name_H-M   'P 1'
_cell_length_a   18.96402228
_cell_length_b   18.95952180
_cell_length_c   18.95861725
_cell_angle_alpha   90.00174246
_cell_angle_beta   90.00239523
_cell_angle_gamma   90.00078222
_symmetry_Int_Tables_number   1
_chemical_formula_structural   Cs27Sn14Pb13I81
_chemical_formula_sum   'Cs27 Sn14 Pb13 I81'
_cell_volume   6816.54795495
_cell_formula_units_Z   1
loop_
 _symmetry_equiv_pos_site_id
 _symmetry_equiv_pos_as_xyz
  1  'x, y, z'
loop_
 _atom_site_type_symbol
 _atom_site_label
 _atom_site_symmetry_multiplicity
 _atom_site_fract_x
 _atom_site_fract_y
 _atom_site_fract_z
 _atom_site_occupancy
  Cs  Cs0  1  0.00011319  -0.00178008  0.00199892  1
  Cs  Cs1  1  0.00106611  0.00068122  0.33267777  1
  Cs  Cs2  1  -0.00677655  0.00241321  0.66687480  1
  Cs  Cs3  1  0.00260987  0.33875001  -0.00309193  1
  Cs  Cs4  1  -0.00124286  0.32934812  0.33147123  1
  Cs  Cs5  1  0.00012007  0.33299794  0.67367606  1
  Cs  Cs6  1  -0.00315895  0.66437472  -0.00226720  1
  Cs  Cs7  1  0.00217751  0.66882046  0.33480305  1
  Cs  Cs8  1  0.00166227  0.66360339  0.66794983  1
  Cs  Cs9  1  0.33460301  0.00018254  0.00074457  1
  Cs  Cs10  1  0.33217697  -0.00086626  0.33189904  1
  Cs  Cs11  1  0.33591244  -0.00034646  0.66791362  1
  Cs  Cs12  1  0.33131606  0.33080485  -0.00120867  1
  Cs  Cs13  1  0.33402671  0.33380171  0.33326862  1
  Cs  Cs14  1  0.33030082  0.33606882  0.66956046  1
  Cs  Cs15  1  0.33533417  0.67013288  -0.00052617  1
  Cs  Cs16  1  0.33155488  0.66586046  0.33726799  1
  Cs  Cs17  1  0.33267613  0.66492005  0.66497266  1
  Cs  Cs18  1  0.66366681  -0.00168391  -0.00009596  1
  Cs  Cs19  1  0.66685462  0.00015653  0.33407756  1
  Cs  Cs20  1  0.66762224  -0.00037352  0.66568660  1
  Cs  Cs21  1  0.66686085  0.33794657  0.00178157  1
  Cs  Cs22  1  0.66694077  0.33535393  0.33271248  1
  Cs  Cs23  1  0.66846117  0.32676948  0.66475328  1
  Cs  Cs24  1  0.66819335  0.66588724  0.00022640  1
  Cs  Cs25  1  0.66575441  0.66428494  0.33355475  1
  Cs  Cs26  1  0.66542446  0.66919636  0.66582508  1
  Sn  Sn27  1  0.16707060  0.49972942  0.16730313  1
  Sn  Sn28  1  0.16683745  0.16767414  0.16735136  1
  Sn  Sn29  1  0.50064674  0.83369519  0.16717847  1
  Sn  Sn30  1  0.50029010  0.50051025  0.83327427  1
  Sn  Sn31  1  0.49873499  0.16590591  0.49898504  1
  Sn  Sn32  1  0.83298538  0.16601405  0.16672743  1
  Sn  Sn33  1  0.50026124  0.16603978  0.16762817  1
  Sn  Sn34  1  0.83238783  0.83402908  0.16774443  1
  Sn  Sn35  1  0.83265419  0.83215887  0.49885220  1
  Sn  Sn36  1  0.50039126  0.83388926  0.49951823  1
  Sn  Sn37  1  0.83334210  0.50072701  0.49985334  1
  Sn  Sn38  1  0.16762989  0.16638550  0.49973620  1
  Sn  Sn39  1  0.49906227  0.83231296  0.83323514  1
  Sn  Sn40  1  0.16707694  0.83382914  0.83309179  1
  Pb  Pb41  1  0.83266055  0.83342364  0.83337127  1
  Pb  Pb42  1  0.83319119  0.16665093  0.83750156  1
  Pb  Pb43  1  0.50012898  0.16627497  0.83340315  1
  Pb  Pb44  1  0.83308773  0.16613808  0.49832483  1
  Pb  Pb45  1  0.16658455  0.83373475  0.16537699  1
  Pb  Pb46  1  0.16430027  0.49711279  0.49829517  1
  Pb  Pb47  1  0.49819683  0.50010002  0.16527761  1
  Pb  Pb48  1  0.83528729  0.50061167  0.16828498  1
  Pb  Pb49  1  0.16671555  0.16431204  0.83352566  1
  Pb  Pb50  1  0.16639666  0.83544358  0.50222066  1
  Pb  Pb51  1  0.50131381  0.49949951  0.50188246  1
  Pb  Pb52  1  0.16880448  0.50246506  0.83548365  1
  Pb  Pb53  1  0.83055529  0.50018079  0.83037479  1
  I  I54  1  0.16662989  0.00293188  0.16866027  1
  I  I55  1  0.16646913  0.00331652  0.49236753  1
  I  I56  1  0.17431479  -0.00334031  0.83637921  1
  I  I57  1  0.16670448  0.33123921  0.16981006  1
  I  I58  1  0.17179101  0.32904690  0.49794501  1
  I  I59  1  0.16801554  0.33336224  0.83237361  1
  I  I60  1  0.16647057  0.66509490  0.16339786  1
  I  I61  1  0.16830597  0.66678258  0.49907816  1
  I  I62  1  0.16905027  0.67023680  0.83518705  1
  I  I63  1  0.49873660  -0.00029291  0.16503021  1
  I  I64  1  0.50225514  -0.00084560  0.50139263  1
  I  I65  1  0.49669708  -0.00343095  0.83412641  1
  I  I66  1  0.50230185  0.33004928  0.16930403  1
  I  I67  1  0.49904898  0.33008374  0.49666391  1
  I  I68  1  0.50070889  0.33549450  0.83386365  1
  I  I69  1  0.50281888  0.67010327  0.16801472  1
  I  I70  1  0.50259618  0.66992354  0.49779252  1
  I  I71  1  0.49636412  0.66912568  0.83386150  1
  I  I72  1  0.83471238  -0.00061528  0.17228987  1
  I  I73  1  0.83201957  -0.00281256  0.49846542  1
  I  I74  1  0.83193819  -0.00035477  0.82777385  1
  I  I75  1  0.83059988  0.33057599  0.16913581  1
  I  I76  1  0.83254522  0.33467668  0.49816465  1
  I  I77  1  0.83158867  0.33354604  0.83159930  1
  I  I78  1  0.83000977  0.67002211  0.16791945  1
  I  I79  1  0.82767288  0.66890619  0.49447245  1
  I  I80  1  0.83537846  0.66699281  0.83851523  1
  I  I81  1  0.16759365  0.16883353  0.00369239  1
  I  I82  1  0.16753821  0.16873287  0.33204210  1
  I  I83  1  0.17173956  0.16430973  0.66370524  1
  I  I84  1  0.16567603  0.49277981  0.00333249  1
  I  I85  1  0.16824966  0.49997916  0.33024499  1
  I  I86  1  0.16582837  0.49881776  0.66668114  1
  I  I87  1  0.17169540  0.83512904  -0.00227230  1
  I  I88  1  0.16827122  0.83184423  0.33336721  1
  I  I89  1  0.17181779  0.83467409  0.66971089  1
  I  I90  1  0.49937273  0.16311212  0.00358083  1
  I  I91  1  0.49905373  0.15963279  0.33265844  1
  I  I92  1  0.49622725  0.16380674  0.66333907  1
  I  I93  1  0.49924585  0.50461476  -0.00259436  1
  I  I94  1  0.49991293  0.50200194  0.33343066  1
  I  I95  1  0.50039546  0.50521788  0.66962265  1
  I  I96  1  0.49968742  0.83411524  0.00091091  1
  I  I97  1  0.50470110  0.83838568  0.33320403  1
  I  I98  1  0.50030069  0.83396046  0.66584852  1
  I  I99  1  0.83255912  0.15973667  0.00596440  1
  I  I100  1  0.83386249  0.16503627  0.33012026  1
  I  I101  1  0.83357854  0.16650397  0.66620230  1
  I  I102  1  0.83432443  0.49948660  0.00018727  1
  I  I103  1  0.83154806  0.50174644  0.33596838  1
  I  I104  1  0.83389905  0.50631321  0.66250578  1
  I  I105  1  0.83083553  0.83826522  0.00332645  1
  I  I106  1  0.82657839  0.83365535  0.33302511  1
  I  I107  1  0.83035126  0.83044742  0.66347789  1
  I  I108  1  0.00026017  0.16533398  0.17127624  1
  I  I109  1  0.00192090  0.16587875  0.49498991  1
  I  I110  1  0.00019281  0.16410838  0.83086425  1
  I  I111  1  0.00302557  0.49590295  0.16705257  1
  I  I112  1  -0.00340828  0.50637696  0.49838506  1
  I  I113  1  0.00014491  0.50134586  0.83377835  1
  I  I114  1  -0.00263814  0.83650808  0.16907780  1
  I  I115  1  -0.00285428  0.83211542  0.49660109  1
  I  I116  1  0.00210997  0.83490506  0.83491422  1
  I  I117  1  0.33395471  0.16582933  0.16990070  1
  I  I118  1  0.33456881  0.16128258  0.49207401  1
  I  I119  1  0.33354948  0.16733416  0.83745491  1
  I  I120  1  0.33050272  0.49595613  0.16608924  1
  I  I121  1  0.33326447  0.50189447  0.50038561  1
  I  I122  1  0.33654500  0.50249568  0.83237520  1
  I  I123  1  0.33640346  0.83616938  0.16771141  1
  I  I124  1  0.33656905  0.83577940  0.49734666  1
  I  I125  1  0.33560442  0.83064120  0.83469033  1
  I  I126  1  0.66572566  0.16168633  0.17035604  1
  I  I127  1  0.66382820  0.16585353  0.49716797  1
  I  I128  1  0.66625591  0.16465671  0.83070032  1
  I  I129  1  0.66661372  0.49729988  0.16551717  1
  I  I130  1  0.66920644  0.49996061  0.49912455  1
  I  I131  1  0.66285680  0.50739009  0.83644503  1
  I  I132  1  0.66578342  0.84008188  0.16507097  1
  I  I133  1  0.66550930  0.83568014  0.50165806  1
  I  I134  1  0.66307179  0.83042205  0.83381686  1
