# generated using pymatgen
data_Cs27Sn13Pb14I81
_symmetry_space_group_name_H-M   'P 1'
_cell_length_a   18.96563513
_cell_length_b   18.98230504
_cell_length_c   18.98229939
_cell_angle_alpha   90.00294459
_cell_angle_beta   90.00177395
_cell_angle_gamma   90.00260390
_symmetry_Int_Tables_number   1
_chemical_formula_structural   Cs27Sn13Pb14I81
_chemical_formula_sum   'Cs27 Sn13 Pb14 I81'
_cell_volume   6833.84551240
_cell_formula_units_Z   1
loop_
 _symmetry_equiv_pos_site_id
 _symmetry_equiv_pos_as_xyz
  1  'x, y, z'
loop_
 _atom_site_type_symbol
 _atom_site_label
 _atom_site_symmetry_multiplicity
 _atom_site_fract_x
 _atom_site_fract_y
 _atom_site_fract_z
 _atom_site_occupancy
  Cs  Cs0  1  0.01187982  0.00197048  0.00058143  1
  Cs  Cs1  1  -0.00047282  0.00060651  0.33326573  1
  Cs  Cs2  1  -0.00221125  -0.00884022  0.66674808  1
  Cs  Cs3  1  -0.00320117  0.33138957  -0.00000340  1
  Cs  Cs4  1  -0.00425310  0.33119487  0.33087324  1
  Cs  Cs5  1  0.00831022  0.33710356  0.66939668  1
  Cs  Cs6  1  -0.00505449  0.66684610  -0.00812871  1
  Cs  Cs7  1  0.00407306  0.66826071  0.33711761  1
  Cs  Cs8  1  0.00366515  0.67175080  0.66990163  1
  Cs  Cs9  1  0.33065131  0.00063362  0.00065178  1
  Cs  Cs10  1  0.33299601  0.00007370  0.33160952  1
  Cs  Cs11  1  0.33417570  0.00361012  0.66809312  1
  Cs  Cs12  1  0.33399581  0.33195633  -0.00015737  1
  Cs  Cs13  1  0.33455184  0.33550495  0.33582927  1
  Cs  Cs14  1  0.33126645  0.33354438  0.66506602  1
  Cs  Cs15  1  0.33671715  0.66810008  0.00386976  1
  Cs  Cs16  1  0.33316832  0.66519105  0.33323377  1
  Cs  Cs17  1  0.33129025  0.66353583  0.66351779  1
  Cs  Cs18  1  0.66498944  -0.00086918  -0.00089988  1
  Cs  Cs19  1  0.66811995  0.00109831  0.33588504  1
  Cs  Cs20  1  0.66824512  0.00145976  0.66479381  1
  Cs  Cs21  1  0.66790978  0.33391081  0.00017272  1
  Cs  Cs22  1  0.66912897  0.33225497  0.33437581  1
  Cs  Cs23  1  0.66543684  0.33073150  0.66502299  1
  Cs  Cs24  1  0.66609172  0.66624058  0.00083448  1
  Cs  Cs25  1  0.66553212  0.66579459  0.33188104  1
  Cs  Cs26  1  0.66711961  0.66762232  0.66708996  1
  Sn  Sn27  1  0.50098942  0.16679535  0.83428703  1
  Sn  Sn28  1  0.50012627  0.83260410  0.49990685  1
  Sn  Sn29  1  0.83278262  0.16656816  0.83329663  1
  Sn  Sn30  1  0.50093831  0.83360108  0.16690232  1
  Sn  Sn31  1  0.83294000  0.50010357  0.50032090  1
  Sn  Sn32  1  0.50016521  0.49991494  0.83329599  1
  Sn  Sn33  1  0.16677116  0.50011133  0.16622773  1
  Sn  Sn34  1  0.50117547  0.50079188  0.49994171  1
  Sn  Sn35  1  0.49952933  0.49960125  0.16674704  1
  Sn  Sn36  1  0.83276157  0.83342534  0.16649630  1
  Sn  Sn37  1  0.50028038  0.16680791  0.16612623  1
  Sn  Sn38  1  0.16643006  0.16640274  0.49981412  1
  Sn  Sn39  1  0.50023827  0.83333708  0.83312924  1
  Pb  Pb40  1  0.83113733  0.16425547  0.16474445  1
  Pb  Pb41  1  0.16672791  0.49881224  0.49818773  1
  Pb  Pb42  1  0.16700033  0.16665787  0.83148085  1
  Pb  Pb43  1  0.16946953  0.83572092  0.49979333  1
  Pb  Pb44  1  0.83101183  0.83122474  0.49814679  1
  Pb  Pb45  1  0.49924422  0.16681909  0.50009222  1
  Pb  Pb46  1  0.16680342  0.83081008  0.16661194  1
  Pb  Pb47  1  0.16921717  0.50000832  0.83633834  1
  Pb  Pb48  1  0.83303898  0.50184589  0.16812009  1
  Pb  Pb49  1  0.83613786  0.16874516  0.50257117  1
  Pb  Pb50  1  0.16912464  0.16899385  0.16846652  1
  Pb  Pb51  1  0.83101929  0.83556836  0.83562482  1
  Pb  Pb52  1  0.16970934  0.83307380  0.83342609  1
  Pb  Pb53  1  0.83096421  0.49834339  0.83093380  1
  I  I54  1  0.16815343  0.00003255  0.16745428  1
  I  I55  1  0.16962899  0.00324623  0.49973843  1
  I  I56  1  0.16994042  0.00014268  0.83371071  1
  I  I57  1  0.17407937  0.33655725  0.16808327  1
  I  I58  1  0.17143905  0.33132331  0.49972553  1
  I  I59  1  0.17027102  0.33332567  0.83231815  1
  I  I60  1  0.17613607  0.66335510  0.16968250  1
  I  I61  1  0.16630164  0.66659950  0.49850822  1
  I  I62  1  0.16679784  0.66637108  0.83178899  1
  I  I63  1  0.50399062  -0.00046491  0.16469989  1
  I  I64  1  0.49708008  -0.00248901  0.49933355  1
  I  I65  1  0.50305332  0.00021842  0.83569594  1
  I  I66  1  0.49527347  0.33399185  0.16456811  1
  I  I67  1  0.50096524  0.33624254  0.49933414  1
  I  I68  1  0.50310560  0.33332466  0.83601966  1
  I  I69  1  0.49954088  0.66650024  0.16492452  1
  I  I70  1  0.50261323  0.66583674  0.49946803  1
  I  I71  1  0.49875724  0.66649733  0.83606499  1
  I  I72  1  0.82511736  -0.00337148  0.16779299  1
  I  I73  1  0.83286718  -0.00012020  0.49993560  1
  I  I74  1  0.82489793  0.00318367  0.83198476  1
  I  I75  1  0.83250071  0.33332029  0.16713078  1
  I  I76  1  0.82424263  0.33640977  0.49772784  1
  I  I77  1  0.82563247  0.33056941  0.83411187  1
  I  I78  1  0.82496467  0.66940586  0.16685882  1
  I  I79  1  0.83016977  0.66332938  0.49914935  1
  I  I80  1  0.83230505  0.66686859  0.83367980  1
  I  I81  1  0.16601058  0.16725271  0.00007390  1
  I  I82  1  0.17019478  0.16794085  0.33583031  1
  I  I83  1  0.17195480  0.16996151  0.66407934  1
  I  I84  1  0.17374894  0.49935615  0.00408802  1
  I  I85  1  0.17534024  0.49942283  0.33068695  1
  I  I86  1  0.16860631  0.49757077  0.66659412  1
  I  I87  1  0.16938953  0.83466755  0.00029902  1
  I  I88  1  0.17027615  0.83349033  0.33316246  1
  I  I89  1  0.16783549  0.83305076  0.66646722  1
  I  I90  1  0.50241945  0.16716785  -0.00013771  1
  I  I91  1  0.49703610  0.16673037  0.33079335  1
  I  I92  1  0.50118056  0.16641544  0.66948823  1
  I  I93  1  0.49530563  0.50167601  0.00045237  1
  I  I94  1  0.49913147  0.50231372  0.33303672  1
  I  I95  1  0.50456827  0.50195535  0.66638858  1
  I  I96  1  0.50332167  0.83081105  0.00052163  1
  I  I97  1  0.50274880  0.83068317  0.33263305  1
  I  I98  1  0.49866245  0.83124561  0.66684726  1
  I  I99  1  0.82954311  0.16859284  -0.00303093  1
  I  I100  1  0.83271296  0.16678041  0.33332581  1
  I  I101  1  0.82308207  0.16675266  0.66992854  1
  I  I102  1  0.83333391  0.50006615  -0.00010938  1
  I  I103  1  0.82590533  0.49947515  0.33587394  1
  I  I104  1  0.82622617  0.49885666  0.66319598  1
  I  I105  1  0.82491878  0.83073235  0.00325102  1
  I  I106  1  0.82516683  0.83340844  0.33039791  1
  I  I107  1  0.83171402  0.83399123  0.66684629  1
  I  I108  1  -0.00001285  0.16684527  0.16566147  1
  I  I109  1  0.00332877  0.17046074  0.49995976  1
  I  I110  1  -0.00268867  0.16765679  0.83157168  1
  I  I111  1  0.00216926  0.50137215  0.17141759  1
  I  I112  1  -0.00235995  0.49585760  0.49610340  1
  I  I113  1  -0.00022042  0.49703619  0.83324443  1
  I  I114  1  -0.00277542  0.83164574  0.16762812  1
  I  I115  1  -0.00024420  0.83232486  0.49774876  1
  I  I116  1  -0.00053139  0.83572870  0.83530889  1
  I  I117  1  0.33790688  0.16208611  0.16088875  1
  I  I118  1  0.33201473  0.16887842  0.50107038  1
  I  I119  1  0.33733629  0.16617472  0.83605766  1
  I  I120  1  0.33683723  0.50162387  0.16876872  1
  I  I121  1  0.33707633  0.50227193  0.50120416  1
  I  I122  1  0.33858871  0.49710663  0.82777027  1
  I  I123  1  0.33761463  0.83469175  0.16610971  1
  I  I124  1  0.33835113  0.82630202  0.49708821  1
  I  I125  1  0.33913487  0.83658489  0.83711935  1
  I  I126  1  0.66228114  0.17199638  0.16658869  1
  I  I127  1  0.66656914  0.16575379  0.49863967  1
  I  I128  1  0.66373087  0.16713801  0.83609601  1
  I  I129  1  0.66263397  0.49914896  0.16513884  1
  I  I130  1  0.66376194  0.50220006  0.49744393  1
  I  I131  1  0.66192239  0.50216386  0.83901582  1
  I  I132  1  0.66327138  0.83064545  0.16649510  1
  I  I133  1  0.66224137  0.83309827  0.50147688  1
  I  I134  1  0.66204622  0.83101235  0.83225681  1
