# generated using pymatgen
data_Cs27Sn14Pb13I81
_symmetry_space_group_name_H-M   'P 1'
_cell_length_a   18.98118371
_cell_length_b   18.97373802
_cell_length_c   18.97314035
_cell_angle_alpha   90.00439628
_cell_angle_beta   89.99969362
_cell_angle_gamma   89.99989477
_symmetry_Int_Tables_number   1
_chemical_formula_structural   Cs27Sn14Pb13I81
_chemical_formula_sum   'Cs27 Sn14 Pb13 I81'
_cell_volume   6833.06276677
_cell_formula_units_Z   1
loop_
 _symmetry_equiv_pos_site_id
 _symmetry_equiv_pos_as_xyz
  1  'x, y, z'
loop_
 _atom_site_type_symbol
 _atom_site_label
 _atom_site_symmetry_multiplicity
 _atom_site_fract_x
 _atom_site_fract_y
 _atom_site_fract_z
 _atom_site_occupancy
  Cs  Cs0  1  -0.00173198  0.00248383  0.00143567  1
  Cs  Cs1  1  0.00045045  -0.00073573  0.33278043  1
  Cs  Cs2  1  -0.00174950  -0.00021766  0.66459767  1
  Cs  Cs3  1  -0.00310843  0.33108379  0.00008121  1
  Cs  Cs4  1  -0.00179707  0.33156901  0.33043101  1
  Cs  Cs5  1  -0.00010357  0.33915225  0.66962035  1
  Cs  Cs6  1  0.00226009  0.66589823  -0.00559724  1
  Cs  Cs7  1  -0.00074113  0.66939657  0.33467574  1
  Cs  Cs8  1  0.00888220  0.65749569  0.67517642  1
  Cs  Cs9  1  0.33325591  -0.00105463  -0.00051510  1
  Cs  Cs10  1  0.33237470  0.00005053  0.33409125  1
  Cs  Cs11  1  0.33476228  0.00292674  0.66599103  1
  Cs  Cs12  1  0.33560788  0.33338256  0.00039498  1
  Cs  Cs13  1  0.33627271  0.33303289  0.33307421  1
  Cs  Cs14  1  0.33381792  0.33064873  0.66685554  1
  Cs  Cs15  1  0.33390825  0.66699861  -0.00054186  1
  Cs  Cs16  1  0.33198259  0.66716181  0.33389932  1
  Cs  Cs17  1  0.32324257  0.66535372  0.66861122  1
  Cs  Cs18  1  0.66738205  -0.00143663  -0.00241446  1
  Cs  Cs19  1  0.66664232  -0.00260758  0.33571090  1
  Cs  Cs20  1  0.66583513  -0.00121359  0.66482291  1
  Cs  Cs21  1  0.66521929  0.33213807  0.00133369  1
  Cs  Cs22  1  0.66493786  0.33483468  0.33350493  1
  Cs  Cs23  1  0.66726557  0.33453671  0.66479428  1
  Cs  Cs24  1  0.66474429  0.66888636  0.00318264  1
  Cs  Cs25  1  0.66722504  0.66773268  0.33175431  1
  Cs  Cs26  1  0.66993402  0.66797400  0.66647319  1
  Sn  Sn27  1  0.83312932  0.16636145  0.49981931  1
  Sn  Sn28  1  0.16650884  0.16683607  0.50055018  1
  Sn  Sn29  1  0.16666787  0.49994395  0.16714819  1
  Sn  Sn30  1  0.50012716  0.16605228  0.16668388  1
  Sn  Sn31  1  0.50043693  0.49961155  0.83358576  1
  Sn  Sn32  1  0.50053768  0.83345640  0.16764152  1
  Sn  Sn33  1  0.49959981  0.16739894  0.83318208  1
  Sn  Sn34  1  0.50027476  0.16606679  0.49999860  1
  Sn  Sn35  1  0.83258418  0.83266869  0.16726045  1
  Sn  Sn36  1  0.83289997  0.83348910  0.49972554  1
  Sn  Sn37  1  0.50035958  0.83358365  0.49950172  1
  Sn  Sn38  1  0.16734266  0.16643193  0.83286579  1
  Sn  Sn39  1  0.83330633  0.50094977  0.16691185  1
  Sn  Sn40  1  0.50004516  0.50029344  0.16615182  1
  Pb  Pb41  1  0.16930330  0.49714516  0.83597739  1
  Pb  Pb42  1  0.16642139  0.83539603  0.50000659  1
  Pb  Pb43  1  0.16898292  0.16825189  0.16658786  1
  Pb  Pb44  1  0.83080214  0.16604354  0.16870300  1
  Pb  Pb45  1  0.83022423  0.49992781  0.83641903  1
  Pb  Pb46  1  0.16655803  0.83113021  0.16664787  1
  Pb  Pb47  1  0.49991059  0.83329020  0.83272021  1
  Pb  Pb48  1  0.16666295  0.49700471  0.49756208  1
  Pb  Pb49  1  0.83274921  0.16657173  0.83028248  1
  Pb  Pb50  1  0.49997289  0.50095895  0.50023853  1
  Pb  Pb51  1  0.83334766  0.83330829  0.83286790  1
  Pb  Pb52  1  0.16674703  0.83675627  0.83339624  1
  Pb  Pb53  1  0.83330464  0.50094156  0.49805351  1
  I  I54  1  0.16686982  0.00031962  0.16613806  1
  I  I55  1  0.16832429  0.00390096  0.50189763  1
  I  I56  1  0.17554697  0.00494752  0.83092196  1
  I  I57  1  0.16686421  0.33621670  0.16752147  1
  I  I58  1  0.16905637  0.32858321  0.50356640  1
  I  I59  1  0.17006504  0.32962390  0.82819392  1
  I  I60  1  0.17280153  0.66307767  0.16656794  1
  I  I61  1  0.16737131  0.66663635  0.49929864  1
  I  I62  1  0.16749106  0.66595748  0.83347478  1
  I  I63  1  0.50402579  -0.00000640  0.16710134  1
  I  I64  1  0.50012469  0.00140072  0.49690253  1
  I  I65  1  0.49594207  0.00340710  0.83581954  1
  I  I66  1  0.49967711  0.33334796  0.16658480  1
  I  I67  1  0.49991728  0.33007321  0.49716498  1
  I  I68  1  0.49648065  0.33197602  0.83736880  1
  I  I69  1  0.50070780  0.66649197  0.16618373  1
  I  I70  1  0.50681187  0.67024721  0.49562640  1
  I  I71  1  0.50161860  0.66399464  0.83899152  1
  I  I72  1  0.82849086  -0.00296505  0.16856288  1
  I  I73  1  0.83221899  0.00023387  0.49385107  1
  I  I74  1  0.83206910  0.00023442  0.83986850  1
  I  I75  1  0.83198349  0.33555302  0.16795409  1
  I  I76  1  0.83175082  0.33043952  0.49869517  1
  I  I77  1  0.83466206  0.33316533  0.83361174  1
  I  I78  1  0.82696930  0.66705563  0.17286239  1
  I  I79  1  0.82448798  0.67046099  0.49584679  1
  I  I80  1  0.83174121  0.66645642  0.82818323  1
  I  I81  1  0.17263142  0.16884188  -0.00242412  1
  I  I82  1  0.16830199  0.16826755  0.33608411  1
  I  I83  1  0.17346127  0.16591651  0.66597572  1
  I  I84  1  0.16517376  0.49752015  0.00367300  1
  I  I85  1  0.17167899  0.49761090  0.32951992  1
  I  I86  1  0.16796949  0.50195177  0.66712127  1
  I  I87  1  0.16724079  0.83589221  0.00035456  1
  I  I88  1  0.16787423  0.83586782  0.33326968  1
  I  I89  1  0.16752293  0.82982633  0.66640297  1
  I  I90  1  0.49510231  0.16796327  0.00031116  1
  I  I91  1  0.49978540  0.16745698  0.33363180  1
  I  I92  1  0.49904251  0.16675840  0.66588453  1
  I  I93  1  0.50010746  0.49586735  0.00190602  1
  I  I94  1  0.50057764  0.49637504  0.32977843  1
  I  I95  1  0.49934133  0.49477975  0.66935494  1
  I  I96  1  0.50412398  0.83537960  0.00331726  1
  I  I97  1  0.50334911  0.83659376  0.33258684  1
  I  I98  1  0.50517278  0.83833380  0.66313241  1
  I  I99  1  0.83413613  0.16676422  0.00024069  1
  I  I100  1  0.83390030  0.16644563  0.33673690  1
  I  I101  1  0.82811728  0.16002745  0.66211534  1
  I  I102  1  0.83523091  0.50508771  0.00486801  1
  I  I103  1  0.82812376  0.49974161  0.32956432  1
  I  I104  1  0.83227774  0.49980141  0.66682397  1
  I  I105  1  0.82764225  0.82909026  0.00370140  1
  I  I106  1  0.82818258  0.83352835  0.33299460  1
  I  I107  1  0.82593605  0.84110339  0.66252933  1
  I  I108  1  -0.00016287  0.16795016  0.16666498  1
  I  I109  1  -0.00019346  0.16282742  0.50329731  1
  I  I110  1  0.00277739  0.16609252  0.82959372  1
  I  I111  1  -0.00074093  0.50333982  0.17019510  1
  I  I112  1  -0.00006560  0.49903516  0.49707518  1
  I  I113  1  0.00026308  0.49878637  0.83450553  1
  I  I114  1  -0.00359809  0.82970810  0.17170662  1
  I  I115  1  -0.00350815  0.83960508  0.49278177  1
  I  I116  1  -0.00004964  0.83476043  0.83438754  1
  I  I117  1  0.33752386  0.16690848  0.17105195  1
  I  I118  1  0.33496133  0.16353936  0.50038423  1
  I  I119  1  0.33527819  0.17041084  0.82862352  1
  I  I120  1  0.33527329  0.49854627  0.16307052  1
  I  I121  1  0.33362501  0.50075300  0.49636272  1
  I  I122  1  0.33705125  0.49836721  0.83968428  1
  I  I123  1  0.33713018  0.83328605  0.17055253  1
  I  I124  1  0.33665676  0.83762771  0.49490321  1
  I  I125  1  0.33388821  0.83052091  0.83409181  1
  I  I126  1  0.66241380  0.17197825  0.16553792  1
  I  I127  1  0.66531303  0.16305279  0.49926265  1
  I  I128  1  0.66281918  0.17005044  0.83407764  1
  I  I129  1  0.66542386  0.50036410  0.16304842  1
  I  I130  1  0.66642107  0.49315010  0.49881666  1
  I  I131  1  0.66230863  0.49231152  0.83840282  1
  I  I132  1  0.66530038  0.82868861  0.17056804  1
  I  I133  1  0.66595797  0.84333403  0.49460306  1
  I  I134  1  0.66627897  0.83604016  0.83382125  1
