# generated using pymatgen
data_Cs27Sn14Pb13I81
_symmetry_space_group_name_H-M   'P 1'
_cell_length_a   19.02023110
_cell_length_b   19.01466418
_cell_length_c   19.02084360
_cell_angle_alpha   89.99823932
_cell_angle_beta   89.99995719
_cell_angle_gamma   89.99960926
_symmetry_Int_Tables_number   1
_chemical_formula_structural   Cs27Sn14Pb13I81
_chemical_formula_sum   'Cs27 Sn14 Pb13 I81'
_cell_volume   6879.14119440
_cell_formula_units_Z   1
loop_
 _symmetry_equiv_pos_site_id
 _symmetry_equiv_pos_as_xyz
  1  'x, y, z'
loop_
 _atom_site_type_symbol
 _atom_site_label
 _atom_site_symmetry_multiplicity
 _atom_site_fract_x
 _atom_site_fract_y
 _atom_site_fract_z
 _atom_site_occupancy
  Cs  Cs0  1  0.01888110  -0.00446064  -0.00002556  1
  Cs  Cs1  1  -0.00216828  0.00439974  0.33435389  1
  Cs  Cs2  1  0.00146518  0.01131548  0.66543288  1
  Cs  Cs3  1  -0.00635395  0.33467017  0.00354541  1
  Cs  Cs4  1  0.00024854  0.32942628  0.33148224  1
  Cs  Cs5  1  -0.01379235  0.32514292  0.66601066  1
  Cs  Cs6  1  0.00306991  0.66780728  -0.00250941  1
  Cs  Cs7  1  -0.00483759  0.66792611  0.33644460  1
  Cs  Cs8  1  -0.00173956  0.66590094  0.66705952  1
  Cs  Cs9  1  0.32027891  -0.00267321  -0.00351819  1
  Cs  Cs10  1  0.33286974  0.00114978  0.33386115  1
  Cs  Cs11  1  0.33365094  -0.00090539  0.66865457  1
  Cs  Cs12  1  0.33564570  0.33642415  0.00050213  1
  Cs  Cs13  1  0.33446100  0.33588000  0.33400439  1
  Cs  Cs14  1  0.33565263  0.33513861  0.66419414  1
  Cs  Cs15  1  0.33261699  0.66595704  -0.00154508  1
  Cs  Cs16  1  0.33615264  0.66294374  0.33796743  1
  Cs  Cs17  1  0.33434668  0.66650145  0.66485875  1
  Cs  Cs18  1  0.66568759  -0.00059008  -0.00006414  1
  Cs  Cs19  1  0.66786353  -0.00458062  0.33120215  1
  Cs  Cs20  1  0.66679843  0.00002570  0.66921218  1
  Cs  Cs21  1  0.66794757  0.33178925  0.00217822  1
  Cs  Cs22  1  0.66384908  0.33335906  0.32854665  1
  Cs  Cs23  1  0.67248948  0.33067365  0.67136513  1
  Cs  Cs24  1  0.66634206  0.66867800  -0.00072055  1
  Cs  Cs25  1  0.66649877  0.67095431  0.33392547  1
  Cs  Cs26  1  0.66784173  0.66786121  0.66745498  1
  Sn  Sn27  1  0.16740136  0.83234397  0.49996906  1
  Sn  Sn28  1  0.83281815  0.83355322  0.83356155  1
  Sn  Sn29  1  0.16679773  0.50047938  0.50066132  1
  Sn  Sn30  1  0.50016323  0.49980089  0.16659509  1
  Sn  Sn31  1  0.16718983  0.49952970  0.83221779  1
  Sn  Sn32  1  0.83281121  0.50026198  0.16701807  1
  Sn  Sn33  1  0.49947937  0.50074343  0.83307145  1
  Sn  Sn34  1  0.50072095  0.83242998  0.83286379  1
  Sn  Sn35  1  0.83211993  0.16652972  0.16602686  1
  Sn  Sn36  1  0.50013303  0.49974932  0.50045310  1
  Sn  Sn37  1  0.50020128  0.16677657  0.49925672  1
  Sn  Sn38  1  0.50037276  0.16689697  0.16699165  1
  Sn  Sn39  1  0.16685660  0.50035865  0.16714729  1
  Sn  Sn40  1  0.49924309  0.83330178  0.50094879  1
  Pb  Pb41  1  0.16707432  0.82988420  0.17050173  1
  Pb  Pb42  1  0.82962947  0.16665303  0.49717568  1
  Pb  Pb43  1  0.83347348  0.83335387  0.50234569  1
  Pb  Pb44  1  0.83292999  0.50136298  0.83575201  1
  Pb  Pb45  1  0.83305129  0.49999110  0.49746455  1
  Pb  Pb46  1  0.16711946  0.17127927  0.83307598  1
  Pb  Pb47  1  0.83314736  0.16312197  0.83724850  1
  Pb  Pb48  1  0.16953964  0.16770318  0.49994588  1
  Pb  Pb49  1  0.16731324  0.83076598  0.83016163  1
  Pb  Pb50  1  0.49965555  0.83359823  0.16645304  1
  Pb  Pb51  1  0.16766140  0.16948814  0.16676977  1
  Pb  Pb52  1  0.83345277  0.83389470  0.16409938  1
  Pb  Pb53  1  0.49971729  0.16679986  0.83399671  1
  I  I54  1  0.16486402  -0.00000425  0.16617951  1
  I  I55  1  0.17142544  -0.00263176  0.50157635  1
  I  I56  1  0.16606956  -0.00039299  0.83339415  1
  I  I57  1  0.16736584  0.33779908  0.17051939  1
  I  I58  1  0.17244823  0.33740940  0.49802289  1
  I  I59  1  0.17667351  0.33929507  0.83145011  1
  I  I60  1  0.16806769  0.66161136  0.16193477  1
  I  I61  1  0.17692823  0.66504084  0.49880265  1
  I  I62  1  0.16821639  0.66309020  0.83848746  1
  I  I63  1  0.50906983  0.00302293  0.17153606  1
  I  I64  1  0.49604445  -0.00061904  0.49972339  1
  I  I65  1  0.50595413  -0.00297235  0.82911630  1
  I  I66  1  0.49985149  0.33532562  0.17014382  1
  I  I67  1  0.49457349  0.33483144  0.49821659  1
  I  I68  1  0.49412218  0.33674662  0.83095927  1
  I  I69  1  0.50010269  0.66316182  0.16916056  1
  I  I70  1  0.49568610  0.66588767  0.49970132  1
  I  I71  1  0.50007815  0.66543299  0.83092020  1
  I  I72  1  0.82325053  0.00335140  0.16727882  1
  I  I73  1  0.83496732  -0.00001966  0.49668814  1
  I  I74  1  0.82213555  -0.00414613  0.83264565  1
  I  I75  1  0.83275055  0.33459319  0.16574828  1
  I  I76  1  0.83607667  0.33337372  0.50561919  1
  I  I77  1  0.83472137  0.33308294  0.83107334  1
  I  I78  1  0.83236246  0.66363252  0.16626703  1
  I  I79  1  0.82832958  0.66658900  0.49476240  1
  I  I80  1  0.83055994  0.66881150  0.83647909  1
  I  I81  1  0.16938606  0.16432386  0.00025031  1
  I  I82  1  0.16269716  0.16693256  0.33331582  1
  I  I83  1  0.16790410  0.16744942  0.66631450  1
  I  I84  1  0.17077757  0.49830062  0.00011404  1
  I  I85  1  0.17106567  0.50399742  0.33358858  1
  I  I86  1  0.17828189  0.50645349  0.66611356  1
  I  I87  1  0.16608503  0.83431781  -0.00023577  1
  I  I88  1  0.17537913  0.82738533  0.33790001  1
  I  I89  1  0.16927420  0.82484747  0.66315887  1
  I  I90  1  0.50587003  0.17261215  0.00328343  1
  I  I91  1  0.50351491  0.17126610  0.33310722  1
  I  I92  1  0.49694184  0.16958870  0.66402154  1
  I  I93  1  0.49695226  0.49980848  0.00031248  1
  I  I94  1  0.49733103  0.49946488  0.33346131  1
  I  I95  1  0.49141648  0.50086873  0.66628376  1
  I  I96  1  0.50581460  0.82855615  -0.00286509  1
  I  I97  1  0.49553775  0.82999444  0.33632266  1
  I  I98  1  0.50034747  0.82944160  0.66611621  1
  I  I99  1  0.82207235  0.17547934  0.00433242  1
  I  I100  1  0.83330355  0.17195548  0.32957073  1
  I  I101  1  0.83444135  0.16611558  0.66712344  1
  I  I102  1  0.83299047  0.49599437  0.00346545  1
  I  I103  1  0.83297461  0.49659366  0.32943410  1
  I  I104  1  0.83409581  0.50170673  0.66678390  1
  I  I105  1  0.82314870  0.83138576  -0.00326586  1
  I  I106  1  0.83348542  0.83345644  0.33320854  1
  I  I107  1  0.82953768  0.82919669  0.66980658  1
  I  I108  1  -0.00237629  0.17221403  0.16465735  1
  I  I109  1  -0.00007567  0.16513331  0.49968436  1
  I  I110  1  -0.00023960  0.16506465  0.83448328  1
  I  I111  1  0.00022675  0.49592532  0.16572833  1
  I  I112  1  0.00327092  0.50794593  0.49988150  1
  I  I113  1  0.00269766  0.50318524  0.83450221  1
  I  I114  1  0.00018119  0.83326419  0.16472502  1
  I  I115  1  0.00313350  0.82438770  0.49984169  1
  I  I116  1  -0.00144997  0.83077020  0.83554842  1
  I  I117  1  0.33695484  0.17133911  0.17165227  1
  I  I118  1  0.33733927  0.16746732  0.49098152  1
  I  I119  1  0.33379171  0.15840862  0.83780718  1
  I  I120  1  0.33430759  0.49594665  0.16672732  1
  I  I121  1  0.33472837  0.50045433  0.49508207  1
  I  I122  1  0.33487078  0.50646041  0.83885367  1
  I  I123  1  0.33345155  0.83698326  0.15855001  1
  I  I124  1  0.33529653  0.83171247  0.50635341  1
  I  I125  1  0.33640339  0.83182686  0.83194799  1
  I  I126  1  0.66547136  0.17855216  0.17158007  1
  I  I127  1  0.66168942  0.16780583  0.49928891  1
  I  I128  1  0.66637215  0.17260647  0.82951219  1
  I  I129  1  0.66526580  0.49506519  0.16623464  1
  I  I130  1  0.66270329  0.50136349  0.50056213  1
  I  I131  1  0.66317380  0.50174942  0.83239944  1
  I  I132  1  0.66632333  0.82687307  0.17211167  1
  I  I133  1  0.66299500  0.83153352  0.50074001  1
  I  I134  1  0.66433058  0.82579786  0.82748719  1
