# generated using pymatgen
data_Cs27Sn14Pb13I81
_symmetry_space_group_name_H-M   'P 1'
_cell_length_a   18.97033704
_cell_length_b   18.98364655
_cell_length_c   18.97308868
_cell_angle_alpha   90.00057094
_cell_angle_beta   89.99965927
_cell_angle_gamma   90.00030660
_symmetry_Int_Tables_number   1
_chemical_formula_structural   Cs27Sn14Pb13I81
_chemical_formula_sum   'Cs27 Sn14 Pb13 I81'
_cell_volume   6832.70582364
_cell_formula_units_Z   1
loop_
 _symmetry_equiv_pos_site_id
 _symmetry_equiv_pos_as_xyz
  1  'x, y, z'
loop_
 _atom_site_type_symbol
 _atom_site_label
 _atom_site_symmetry_multiplicity
 _atom_site_fract_x
 _atom_site_fract_y
 _atom_site_fract_z
 _atom_site_occupancy
  Cs  Cs0  1  -0.00014701  -0.00044641  -0.00094576  1
  Cs  Cs1  1  -0.00634882  0.00111002  0.33048694  1
  Cs  Cs2  1  0.00139927  0.00087936  0.66744106  1
  Cs  Cs3  1  0.00102952  0.33430401  -0.00451602  1
  Cs  Cs4  1  -0.00095372  0.33366351  0.33257355  1
  Cs  Cs5  1  0.00159302  0.33383958  0.66864754  1
  Cs  Cs6  1  0.00039726  0.66627332  0.00100192  1
  Cs  Cs7  1  0.00098333  0.66555810  0.32978641  1
  Cs  Cs8  1  0.00053351  0.66494500  0.66782792  1
  Cs  Cs9  1  0.33848673  0.00077281  0.00198411  1
  Cs  Cs10  1  0.33196967  -0.00106183  0.33631819  1
  Cs  Cs11  1  0.33065278  0.00125496  0.66526791  1
  Cs  Cs12  1  0.33964726  0.33296192  0.00153376  1
  Cs  Cs13  1  0.33254627  0.33411415  0.33572422  1
  Cs  Cs14  1  0.33160925  0.33205646  0.66564548  1
  Cs  Cs15  1  0.33866240  0.66677987  0.01049483  1
  Cs  Cs16  1  0.33222993  0.66711241  0.33228484  1
  Cs  Cs17  1  0.33210277  0.66693568  0.66439462  1
  Cs  Cs18  1  0.65894794  -0.00655272  0.00651208  1
  Cs  Cs19  1  0.67705602  0.00245072  0.32796722  1
  Cs  Cs20  1  0.66894660  -0.00582707  0.66736813  1
  Cs  Cs21  1  0.66058258  0.33206340  0.00070537  1
  Cs  Cs22  1  0.66977320  0.33111887  0.33222665  1
  Cs  Cs23  1  0.66720547  0.33537178  0.66659330  1
  Cs  Cs24  1  0.65903062  0.67339394  -0.00153715  1
  Cs  Cs25  1  0.66755651  0.66676639  0.33515115  1
  Cs  Cs26  1  0.66732878  0.66768473  0.66770121  1
  Sn  Sn27  1  0.49947727  0.83390370  0.50016355  1
  Sn  Sn28  1  0.83367227  0.49909181  0.83392630  1
  Sn  Sn29  1  0.16652401  0.16696372  0.16652166  1
  Sn  Sn30  1  0.16676186  0.50047957  0.83307266  1
  Sn  Sn31  1  0.16682977  0.83279254  0.83290603  1
  Sn  Sn32  1  0.83379925  0.49976788  0.50017519  1
  Sn  Sn33  1  0.16682036  0.16656580  0.49968270  1
  Sn  Sn34  1  0.16686643  0.83333253  0.50074077  1
  Sn  Sn35  1  0.16652400  0.50018240  0.50052544  1
  Sn  Sn36  1  0.50002204  0.16615567  0.50048694  1
  Sn  Sn37  1  0.83329428  0.16707420  0.83338535  1
  Sn  Sn38  1  0.49973633  0.49984603  0.50046632  1
  Sn  Sn39  1  0.83329367  0.49996997  0.16542418  1
  Sn  Sn40  1  0.16621728  0.16680537  0.83368809  1
  Pb  Pb41  1  0.16650886  0.83606841  0.16687493  1
  Pb  Pb42  1  0.50303274  0.49975499  0.16986970  1
  Pb  Pb43  1  0.49952093  0.50001921  0.83126633  1
  Pb  Pb44  1  0.49969621  0.83348755  0.17068124  1
  Pb  Pb45  1  0.49752662  0.16684048  0.17008183  1
  Pb  Pb46  1  0.50010680  0.16656350  0.83081120  1
  Pb  Pb47  1  0.49651798  0.83332392  0.83075429  1
  Pb  Pb48  1  0.83369710  0.83046493  0.16628950  1
  Pb  Pb49  1  0.83551247  0.83311844  0.83331675  1
  Pb  Pb50  1  0.16534128  0.49799811  0.16629915  1
  Pb  Pb51  1  0.83375189  0.16872561  0.50214402  1
  Pb  Pb52  1  0.83546394  0.16881284  0.16296146  1
  Pb  Pb53  1  0.83425454  0.83065668  0.50006425  1
  I  I54  1  0.16621888  0.00397898  0.16772986  1
  I  I55  1  0.17468985  0.00057305  0.50345659  1
  I  I56  1  0.16269246  0.00093735  0.82905077  1
  I  I57  1  0.16519674  0.33028616  0.16888696  1
  I  I58  1  0.16890354  0.33356190  0.50198853  1
  I  I59  1  0.16154539  0.33345562  0.82880721  1
  I  I60  1  0.16503784  0.66649079  0.16721101  1
  I  I61  1  0.16866920  0.66575947  0.50631006  1
  I  I62  1  0.16129750  0.66558921  0.82351464  1
  I  I63  1  0.50010891  0.00023275  0.16739253  1
  I  I64  1  0.48929377  0.00019981  0.50157061  1
  I  I65  1  0.50110002  0.00002499  0.82985700  1
  I  I66  1  0.49939202  0.33334005  0.16926038  1
  I  I67  1  0.49594065  0.33361703  0.50030404  1
  I  I68  1  0.49577772  0.33331770  0.82976607  1
  I  I69  1  0.49965487  0.66646120  0.16836572  1
  I  I70  1  0.49709188  0.66619710  0.50041977  1
  I  I71  1  0.50179339  0.66660016  0.82963069  1
  I  I72  1  0.83398187  0.00056386  0.16699787  1
  I  I73  1  0.83269472  0.00017682  0.50123773  1
  I  I74  1  0.83964723  0.00296897  0.83063853  1
  I  I75  1  0.83500993  0.33650876  0.17170835  1
  I  I76  1  0.83359582  0.33717765  0.49846186  1
  I  I77  1  0.84268114  0.33461588  0.83121561  1
  I  I78  1  0.83652397  0.66203473  0.16695173  1
  I  I79  1  0.83345102  0.66193167  0.50293366  1
  I  I80  1  0.83797147  0.66276158  0.83164036  1
  I  I81  1  0.16009822  0.16715598  -0.00145383  1
  I  I82  1  0.17194469  0.16764959  0.33516787  1
  I  I83  1  0.16705547  0.16704777  0.66627793  1
  I  I84  1  0.16051369  0.49997862  -0.00342670  1
  I  I85  1  0.16622843  0.50003705  0.33685633  1
  I  I86  1  0.16301724  0.49678634  0.66554122  1
  I  I87  1  0.16316827  0.83240746  -0.00331707  1
  I  I88  1  0.17143948  0.83160109  0.33722653  1
  I  I89  1  0.16970673  0.83642539  0.66555476  1
  I  I90  1  0.49896096  0.16727551  -0.00000232  1
  I  I91  1  0.49448137  0.16811298  0.33851446  1
  I  I92  1  0.49254039  0.16835343  0.66249237  1
  I  I93  1  0.49924684  0.50013812  0.00006578  1
  I  I94  1  0.49719335  0.50020639  0.33867678  1
  I  I95  1  0.50332078  0.49966988  0.66242073  1
  I  I96  1  0.49962364  0.83272780  0.00008003  1
  I  I97  1  0.49075730  0.83111865  0.33885108  1
  I  I98  1  0.49855970  0.83237339  0.66237009  1
  I  I99  1  0.84165538  0.17379927  -0.00471023  1
  I  I100  1  0.83388485  0.16840450  0.33337544  1
  I  I101  1  0.84001932  0.17307161  0.66973644  1
  I  I102  1  0.84238756  0.49537983  -0.00155885  1
  I  I103  1  0.83325117  0.50110653  0.33475680  1
  I  I104  1  0.83466645  0.49660150  0.66664104  1
  I  I105  1  0.83680209  0.83147218  -0.00039638  1
  I  I106  1  0.83490878  0.83221432  0.33363483  1
  I  I107  1  0.83053969  0.83108178  0.66654181  1
  I  I108  1  0.00331019  0.16705979  0.17405275  1
  I  I109  1  0.00369763  0.16631553  0.49881147  1
  I  I110  1  0.00217106  0.16811086  0.83016616  1
  I  I111  1  -0.00251227  0.49852218  0.17276728  1
  I  I112  1  0.00094806  0.49962685  0.50066683  1
  I  I113  1  0.00083823  0.49901529  0.82783560  1
  I  I114  1  0.00047440  0.83364891  0.17101648  1
  I  I115  1  0.00397218  0.83410054  0.50386162  1
  I  I116  1  0.00400531  0.83371628  0.82504577  1
  I  I117  1  0.32932696  0.16831485  0.16088469  1
  I  I118  1  0.33139514  0.17100183  0.50161512  1
  I  I119  1  0.32923483  0.16786784  0.83409354  1
  I  I120  1  0.33344857  0.49962923  0.16652145  1
  I  I121  1  0.33202371  0.49950458  0.50447329  1
  I  I122  1  0.32935577  0.49791296  0.82741752  1
  I  I123  1  0.33290330  0.83150472  0.16405776  1
  I  I124  1  0.33192657  0.82948978  0.50385306  1
  I  I125  1  0.32820436  0.83439017  0.83003296  1
  I  I126  1  0.66690527  0.16759777  0.16773741  1
  I  I127  1  0.66432951  0.16796833  0.50236512  1
  I  I128  1  0.66968272  0.17495275  0.82978145  1
  I  I129  1  0.67106207  0.49835052  0.16629142  1
  I  I130  1  0.66686656  0.49992289  0.49974627  1
  I  I131  1  0.67002432  0.49416418  0.83127829  1
  I  I132  1  0.66656007  0.83399636  0.16797568  1
  I  I133  1  0.66387917  0.83252322  0.49899462  1
  I  I134  1  0.66644138  0.83294276  0.83221197  1
