# generated using pymatgen
data_Cs27Sn13Pb14I81
_symmetry_space_group_name_H-M   'P 1'
_cell_length_a   18.97622511
_cell_length_b   18.98022806
_cell_length_c   18.97537499
_cell_angle_alpha   89.99810395
_cell_angle_beta   89.99839451
_cell_angle_gamma   90.00146082
_symmetry_Int_Tables_number   1
_chemical_formula_structural   Cs27Sn13Pb14I81
_chemical_formula_sum   'Cs27 Sn13 Pb14 I81'
_cell_volume   6834.41925030
_cell_formula_units_Z   1
loop_
 _symmetry_equiv_pos_site_id
 _symmetry_equiv_pos_as_xyz
  1  'x, y, z'
loop_
 _atom_site_type_symbol
 _atom_site_label
 _atom_site_symmetry_multiplicity
 _atom_site_fract_x
 _atom_site_fract_y
 _atom_site_fract_z
 _atom_site_occupancy
  Cs  Cs0  1  -0.00236243  -0.00316619  0.00487049  1
  Cs  Cs1  1  0.00117854  0.00024721  0.33378710  1
  Cs  Cs2  1  0.00301809  0.00287059  0.66351489  1
  Cs  Cs3  1  0.00316759  0.33744171  -0.00189471  1
  Cs  Cs4  1  -0.00148586  0.33386993  0.33191588  1
  Cs  Cs5  1  -0.00109537  0.33076192  0.67008395  1
  Cs  Cs6  1  0.00112455  0.66501693  -0.00442156  1
  Cs  Cs7  1  0.00164647  0.66589364  0.33367940  1
  Cs  Cs8  1  -0.00216875  0.66774538  0.66883982  1
  Cs  Cs9  1  0.34027725  0.00025243  -0.00167934  1
  Cs  Cs10  1  0.32955196  -0.00130501  0.33367565  1
  Cs  Cs11  1  0.32946106  0.00267797  0.66856809  1
  Cs  Cs12  1  0.33075246  0.33260510  -0.00305115  1
  Cs  Cs13  1  0.33418457  0.33772237  0.33285914  1
  Cs  Cs14  1  0.33483244  0.32950958  0.66937756  1
  Cs  Cs15  1  0.33102554  0.66659484  0.00105299  1
  Cs  Cs16  1  0.33287171  0.66440714  0.33381899  1
  Cs  Cs17  1  0.33662088  0.66816285  0.66297693  1
  Cs  Cs18  1  0.66009689  -0.00487585  0.00571992  1
  Cs  Cs19  1  0.66781524  0.00132220  0.32852719  1
  Cs  Cs20  1  0.66653816  0.00055471  0.66770490  1
  Cs  Cs21  1  0.66544936  0.33069627  0.00142157  1
  Cs  Cs22  1  0.66720247  0.33364663  0.33463051  1
  Cs  Cs23  1  0.66829161  0.33403537  0.66401696  1
  Cs  Cs24  1  0.66729342  0.67320703  -0.00361640  1
  Cs  Cs25  1  0.66544651  0.66478172  0.33509228  1
  Cs  Cs26  1  0.66718804  0.66607462  0.66706016  1
  Sn  Sn27  1  0.83462282  0.50004279  0.49948551  1
  Sn  Sn28  1  0.50060856  0.16524559  0.49970477  1
  Sn  Sn29  1  0.83241028  0.83351987  0.49973034  1
  Sn  Sn30  1  0.83291110  0.16616615  0.83364579  1
  Sn  Sn31  1  0.83233216  0.50023024  0.16685075  1
  Sn  Sn32  1  0.83251138  0.16647512  0.50054837  1
  Sn  Sn33  1  0.50128178  0.50013012  0.16501372  1
  Sn  Sn34  1  0.50098405  0.83511218  0.49972962  1
  Sn  Sn35  1  0.16659016  0.83346662  0.83415116  1
  Sn  Sn36  1  0.16536801  0.49958247  0.50061845  1
  Sn  Sn37  1  0.50032720  0.50001803  0.83467022  1
  Sn  Sn38  1  0.16677032  0.16594433  0.16669585  1
  Sn  Sn39  1  0.16667213  0.83421096  0.16560339  1
  Pb  Pb40  1  0.83152305  0.49852659  0.83329257  1
  Pb  Pb41  1  0.16641719  0.83177834  0.49987028  1
  Pb  Pb42  1  0.83471174  0.16856619  0.16683682  1
  Pb  Pb43  1  0.50073268  0.49970132  0.49992864  1
  Pb  Pb44  1  0.49790939  0.16881353  0.16904848  1
  Pb  Pb45  1  0.16446350  0.16440535  0.83605431  1
  Pb  Pb46  1  0.83489641  0.83601646  0.83103031  1
  Pb  Pb47  1  0.16637520  0.50020475  0.16780157  1
  Pb  Pb48  1  0.16634224  0.16904921  0.49858497  1
  Pb  Pb49  1  0.16878380  0.50166775  0.83037725  1
  Pb  Pb50  1  0.50226559  0.16828621  0.83126716  1
  Pb  Pb51  1  0.49823436  0.83168173  0.83089374  1
  Pb  Pb52  1  0.49800009  0.83109701  0.16907691  1
  Pb  Pb53  1  0.83520848  0.83070831  0.16890561  1
  I  I54  1  0.16510805  -0.00056990  0.16612988  1
  I  I55  1  0.16514486  0.00007183  0.50035939  1
  I  I56  1  0.16684120  -0.00324237  0.83113681  1
  I  I57  1  0.16629453  0.33190939  0.17101444  1
  I  I58  1  0.16444242  0.33673395  0.49633505  1
  I  I59  1  0.16695396  0.33319886  0.83401484  1
  I  I60  1  0.16704762  0.66877653  0.16597343  1
  I  I61  1  0.16449290  0.66399713  0.49718152  1
  I  I62  1  0.16568666  0.66932315  0.83933118  1
  I  I63  1  0.49997451  -0.00008585  0.16679660  1
  I  I64  1  0.50675049  0.00003451  0.50018824  1
  I  I65  1  0.49929206  0.00000547  0.83264601  1
  I  I66  1  0.50061065  0.33685210  0.16773837  1
  I  I67  1  0.50256355  0.33140826  0.49966440  1
  I  I68  1  0.49887341  0.33631424  0.83344915  1
  I  I69  1  0.50087630  0.66308302  0.16774477  1
  I  I70  1  0.50142487  0.66832866  0.50003517  1
  I  I71  1  0.50054109  0.66367877  0.83321535  1
  I  I72  1  0.83495852  -0.00012917  0.16820436  1
  I  I73  1  0.82952957  0.00040952  0.50496342  1
  I  I74  1  0.83507047  0.00364221  0.82606088  1
  I  I75  1  0.83274716  0.33652509  0.17380704  1
  I  I76  1  0.83265451  0.33348674  0.49957386  1
  I  I77  1  0.83335549  0.33087943  0.82613230  1
  I  I78  1  0.83200826  0.66268898  0.17323209  1
  I  I79  1  0.83347982  0.66605837  0.49511372  1
  I  I80  1  0.83372996  0.66681486  0.83199478  1
  I  I81  1  0.16445476  0.16846411  0.00365333  1
  I  I82  1  0.16473405  0.16111411  0.33100530  1
  I  I83  1  0.16827462  0.16627683  0.66662170  1
  I  I84  1  0.16487079  0.49897057  -0.00011326  1
  I  I85  1  0.16781443  0.50249638  0.33579119  1
  I  I86  1  0.16247896  0.50200627  0.66253049  1
  I  I87  1  0.16625393  0.83532081  0.00080435  1
  I  I88  1  0.16668624  0.83457310  0.33140227  1
  I  I89  1  0.16680139  0.82972658  0.66809940  1
  I  I90  1  0.50079421  0.16738008  0.00011485  1
  I  I91  1  0.50681057  0.16677127  0.33715665  1
  I  I92  1  0.50008966  0.16713293  0.66287317  1
  I  I93  1  0.50401233  0.49962078  0.00091356  1
  I  I94  1  0.49988240  0.50003764  0.33168206  1
  I  I95  1  0.49883782  0.50045264  0.66800006  1
  I  I96  1  0.49988075  0.83297193  0.00014442  1
  I  I97  1  0.50111925  0.83300391  0.33713634  1
  I  I98  1  0.50071571  0.83218706  0.66276000  1
  I  I99  1  0.83771654  0.17104295  -0.00208977  1
  I  I100  1  0.83119214  0.16651381  0.33677834  1
  I  I101  1  0.83096177  0.16983369  0.66409049  1
  I  I102  1  0.83229120  0.49679040  0.00263152  1
  I  I103  1  0.83163324  0.49785977  0.33493377  1
  I  I104  1  0.83488088  0.50127273  0.66328092  1
  I  I105  1  0.83411611  0.83313609  0.00010525  1
  I  I106  1  0.83266059  0.83728111  0.33743630  1
  I  I107  1  0.83251295  0.82697220  0.66243933  1
  I  I108  1  0.00255749  0.16580630  0.17018807  1
  I  I109  1  -0.00321888  0.16497268  0.50195520  1
  I  I110  1  -0.00307711  0.16880761  0.82396722  1
  I  I111  1  -0.00235975  0.49944350  0.17177975  1
  I  I112  1  -0.00187823  0.50094701  0.49345601  1
  I  I113  1  -0.00011678  0.49972751  0.83493193  1
  I  I114  1  0.00321958  0.83419889  0.16678683  1
  I  I115  1  -0.00275114  0.83447513  0.49965742  1
  I  I116  1  0.00281115  0.83138409  0.83480028  1
  I  I117  1  0.33011388  0.16555050  0.16937277  1
  I  I118  1  0.33571096  0.16490394  0.49768613  1
  I  I119  1  0.33338889  0.16761681  0.83159539  1
  I  I120  1  0.33532199  0.50025894  0.16740424  1
  I  I121  1  0.33208389  0.50151196  0.49854244  1
  I  I122  1  0.33651173  0.49980321  0.83663694  1
  I  I123  1  0.33001295  0.83388442  0.16700827  1
  I  I124  1  0.33542083  0.83386802  0.49986767  1
  I  I125  1  0.33031877  0.83228656  0.83402757  1
  I  I126  1  0.66666643  0.16771280  0.16609619  1
  I  I127  1  0.66788639  0.16975904  0.50295710  1
  I  I128  1  0.67005080  0.16837210  0.82988608  1
  I  I129  1  0.66710715  0.49826035  0.17200293  1
  I  I130  1  0.66959370  0.49974532  0.49870499  1
  I  I131  1  0.66381929  0.49982745  0.83071400  1
  I  I132  1  0.66668574  0.83356969  0.16648552  1
  I  I133  1  0.66734493  0.82994033  0.50052566  1
  I  I134  1  0.66666908  0.83256405  0.83279654  1
