# generated using pymatgen
data_Cs27Sn13Pb14I81
_symmetry_space_group_name_H-M   'P 1'
_cell_length_a   18.99696595
_cell_length_b   18.97521963
_cell_length_c   19.00212263
_cell_angle_alpha   90.00111010
_cell_angle_beta   89.99934004
_cell_angle_gamma   89.99907068
_symmetry_Int_Tables_number   1
_chemical_formula_structural   Cs27Sn13Pb14I81
_chemical_formula_sum   'Cs27 Sn13 Pb14 I81'
_cell_volume   6849.72556853
_cell_formula_units_Z   1
loop_
 _symmetry_equiv_pos_site_id
 _symmetry_equiv_pos_as_xyz
  1  'x, y, z'
loop_
 _atom_site_type_symbol
 _atom_site_label
 _atom_site_symmetry_multiplicity
 _atom_site_fract_x
 _atom_site_fract_y
 _atom_site_fract_z
 _atom_site_occupancy
  Cs  Cs0  1  -0.00350891  -0.00067306  -0.00167978  1
  Cs  Cs1  1  -0.00290775  -0.00178618  0.33262191  1
  Cs  Cs2  1  -0.00151399  -0.00171952  0.66878689  1
  Cs  Cs3  1  0.00721429  0.33836291  0.00291709  1
  Cs  Cs4  1  0.00583460  0.34282188  0.33954884  1
  Cs  Cs5  1  0.00887583  0.34001731  0.65680485  1
  Cs  Cs6  1  -0.00231406  0.66521145  0.00336487  1
  Cs  Cs7  1  0.00045772  0.66474959  0.33180572  1
  Cs  Cs8  1  0.00010871  0.66868604  0.66472267  1
  Cs  Cs9  1  0.33428180  0.00147663  0.00204882  1
  Cs  Cs10  1  0.33709582  0.00520671  0.32968467  1
  Cs  Cs11  1  0.33316244  -0.00111482  0.66774933  1
  Cs  Cs12  1  0.32319917  0.33350880  -0.00108024  1
  Cs  Cs13  1  0.32995112  0.32486836  0.33131245  1
  Cs  Cs14  1  0.32530415  0.33284367  0.66850449  1
  Cs  Cs15  1  0.33713117  0.66654445  -0.00062060  1
  Cs  Cs16  1  0.33734044  0.66826039  0.33390811  1
  Cs  Cs17  1  0.33707261  0.66741403  0.66605069  1
  Cs  Cs18  1  0.66877229  -0.00011465  -0.00016587  1
  Cs  Cs19  1  0.66566079  0.00271658  0.33126618  1
  Cs  Cs20  1  0.66809127  0.00054123  0.66836583  1
  Cs  Cs21  1  0.66872508  0.33595026  -0.00371703  1
  Cs  Cs22  1  0.66714629  0.33142015  0.33739245  1
  Cs  Cs23  1  0.66791165  0.33283910  0.66600967  1
  Cs  Cs24  1  0.66531569  0.66459640  -0.00036367  1
  Cs  Cs25  1  0.66393895  0.66691950  0.33198487  1
  Cs  Cs26  1  0.66356954  0.66639439  0.66795105  1
  Sn  Sn27  1  0.83320616  0.16646465  0.83407087  1
  Sn  Sn28  1  0.50066896  0.16587584  0.83343455  1
  Sn  Sn29  1  0.16663264  0.83350471  0.83378290  1
  Sn  Sn30  1  0.50003103  0.50022498  0.49880669  1
  Sn  Sn31  1  0.16711932  0.83354473  0.49955362  1
  Sn  Sn32  1  0.83383812  0.83384659  0.16654246  1
  Sn  Sn33  1  0.83359969  0.16665936  0.16597293  1
  Sn  Sn34  1  0.50025067  0.49923876  0.16755469  1
  Sn  Sn35  1  0.50025054  0.83445812  0.83272623  1
  Sn  Sn36  1  0.16608579  0.83353191  0.16662548  1
  Sn  Sn37  1  0.50021518  0.83335889  0.50056574  1
  Sn  Sn38  1  0.83274508  0.83339500  0.49989012  1
  Sn  Sn39  1  0.83312003  0.83323626  0.83347752  1
  Pb  Pb40  1  0.50009589  0.49930635  0.83284696  1
  Pb  Pb41  1  0.17012162  0.50309634  0.49976809  1
  Pb  Pb42  1  0.50046221  0.83285706  0.16637721  1
  Pb  Pb43  1  0.16648639  0.50340700  0.83329734  1
  Pb  Pb44  1  0.50002608  0.16642458  0.50267323  1
  Pb  Pb45  1  0.83351956  0.49913042  0.83326020  1
  Pb  Pb46  1  0.83149007  0.49955718  0.16663432  1
  Pb  Pb47  1  0.16308400  0.16400235  0.16664280  1
  Pb  Pb48  1  0.16652733  0.16343595  0.49985467  1
  Pb  Pb49  1  0.83346673  0.16486315  0.50044327  1
  Pb  Pb50  1  0.16537684  0.16430505  0.83334104  1
  Pb  Pb51  1  0.16955098  0.50298124  0.16685266  1
  Pb  Pb52  1  0.83069424  0.50282045  0.50008900  1
  Pb  Pb53  1  0.50241451  0.16984222  0.16361812  1
  I  I54  1  0.16815056  -0.00467674  0.16680209  1
  I  I55  1  0.17000475  -0.00576288  0.50139486  1
  I  I56  1  0.16712585  -0.00465715  0.83215299  1
  I  I57  1  0.16621210  0.33334208  0.16586837  1
  I  I58  1  0.16733352  0.33382837  0.50065254  1
  I  I59  1  0.16831546  0.33295476  0.83357518  1
  I  I60  1  0.15862332  0.67150029  0.16618184  1
  I  I61  1  0.16326919  0.67171342  0.50116952  1
  I  I62  1  0.16781782  0.67262437  0.83256149  1
  I  I63  1  0.49738719  0.00019846  0.16928615  1
  I  I64  1  0.49957443  -0.00392902  0.50231610  1
  I  I65  1  0.50067868  -0.00246066  0.82798549  1
  I  I66  1  0.50337804  0.33718664  0.17350463  1
  I  I67  1  0.50198384  0.33617785  0.49688797  1
  I  I68  1  0.50777801  0.33004983  0.83374672  1
  I  I69  1  0.50137223  0.66528232  0.16578474  1
  I  I70  1  0.50004247  0.66924474  0.50235830  1
  I  I71  1  0.50018730  0.67004854  0.83224865  1
  I  I72  1  0.83594766  -0.00229314  0.16571209  1
  I  I73  1  0.83042446  -0.00473706  0.50031932  1
  I  I74  1  0.83206332  -0.00242219  0.83387531  1
  I  I75  1  0.82829591  0.32995435  0.15873570  1
  I  I76  1  0.83100577  0.33335616  0.50023119  1
  I  I77  1  0.82351686  0.32916350  0.84032106  1
  I  I78  1  0.83664733  0.67039864  0.16593849  1
  I  I79  1  0.83650983  0.67212024  0.50044625  1
  I  I80  1  0.83217169  0.67124649  0.83396503  1
  I  I81  1  0.17089753  0.16382347  -0.00008288  1
  I  I82  1  0.16692919  0.16293545  0.33298945  1
  I  I83  1  0.16583408  0.16488028  0.66695338  1
  I  I84  1  0.17028572  0.50266374  0.00025198  1
  I  I85  1  0.16434514  0.50371960  0.33335887  1
  I  I86  1  0.16885036  0.50108121  0.66637145  1
  I  I87  1  0.16446283  0.83344379  -0.00034218  1
  I  I88  1  0.16326123  0.83240157  0.33350645  1
  I  I89  1  0.16463430  0.83324178  0.66679973  1
  I  I90  1  0.50201250  0.15861486  -0.00381379  1
  I  I91  1  0.50110067  0.16407144  0.33323849  1
  I  I92  1  0.50758462  0.16487727  0.67048769  1
  I  I93  1  0.50130706  0.50326052  0.00185741  1
  I  I94  1  0.50137746  0.51050308  0.33423319  1
  I  I95  1  0.50062394  0.50510998  0.66398642  1
  I  I96  1  0.49956472  0.83404541  -0.00291817  1
  I  I97  1  0.49994885  0.82970771  0.33583102  1
  I  I98  1  0.49996960  0.83052344  0.66686885  1
  I  I99  1  0.82739951  0.15461573  -0.00072544  1
  I  I100  1  0.83232218  0.15937535  0.33055112  1
  I  I101  1  0.82721926  0.15953760  0.67035004  1
  I  I102  1  0.82841654  0.50728273  0.00008376  1
  I  I103  1  0.83313370  0.50091348  0.33335886  1
  I  I104  1  0.82969998  0.50107318  0.66660386  1
  I  I105  1  0.83554998  0.83647495  -0.00032583  1
  I  I106  1  0.83570000  0.83636778  0.33304510  1
  I  I107  1  0.83514016  0.83612576  0.66721431  1
  I  I108  1  -0.00475897  0.16299472  0.15787181  1
  I  I109  1  -0.00024522  0.16446430  0.50301007  1
  I  I110  1  -0.00389771  0.15848425  0.83834378  1
  I  I111  1  0.00015478  0.49896148  0.16541179  1
  I  I112  1  0.00037916  0.49983409  0.50071076  1
  I  I113  1  0.00002262  0.50055336  0.83450086  1
  I  I114  1  -0.00091171  0.83653151  0.16652223  1
  I  I115  1  -0.00030080  0.83586898  0.50327159  1
  I  I116  1  -0.00076224  0.83657345  0.83054134  1
  I  I117  1  0.33324719  0.16653833  0.16599704  1
  I  I118  1  0.33361943  0.16414668  0.50160325  1
  I  I119  1  0.33578342  0.16211020  0.83163986  1
  I  I120  1  0.33714099  0.50349690  0.16964547  1
  I  I121  1  0.33757292  0.50880263  0.49783417  1
  I  I122  1  0.33363020  0.50042978  0.83398502  1
  I  I123  1  0.33120455  0.82922026  0.16616877  1
  I  I124  1  0.33385142  0.82837940  0.50394722  1
  I  I125  1  0.33403509  0.83583948  0.83036185  1
  I  I126  1  0.66989143  0.15674933  0.16533577  1
  I  I127  1  0.66669051  0.16361703  0.49807930  1
  I  I128  1  0.66706599  0.15659774  0.83648365  1
  I  I129  1  0.66391875  0.50577428  0.17004859  1
  I  I130  1  0.66295467  0.50787068  0.49698886  1
  I  I131  1  0.66647251  0.50667098  0.83359895  1
  I  I132  1  0.66970406  0.83474205  0.16677392  1
  I  I133  1  0.66645482  0.82920961  0.50301587  1
  I  I134  1  0.66669707  0.83610436  0.83067602  1
