# generated using pymatgen
data_Cs27Sn13Pb14I81
_symmetry_space_group_name_H-M   'P 1'
_cell_length_a   18.97212923
_cell_length_b   18.97643057
_cell_length_c   18.98047461
_cell_angle_alpha   90.00137330
_cell_angle_beta   90.00092246
_cell_angle_gamma   89.99858873
_symmetry_Int_Tables_number   1
_chemical_formula_structural   Cs27Sn13Pb14I81
_chemical_formula_sum   'Cs27 Sn13 Pb14 I81'
_cell_volume   6833.41296813
_cell_formula_units_Z   1
loop_
 _symmetry_equiv_pos_site_id
 _symmetry_equiv_pos_as_xyz
  1  'x, y, z'
loop_
 _atom_site_type_symbol
 _atom_site_label
 _atom_site_symmetry_multiplicity
 _atom_site_fract_x
 _atom_site_fract_y
 _atom_site_fract_z
 _atom_site_occupancy
  Cs  Cs0  1  -0.00076783  -0.00040555  -0.00024265  1
  Cs  Cs1  1  0.00064359  0.00095628  0.33405473  1
  Cs  Cs2  1  -0.00098668  -0.00154333  0.66618210  1
  Cs  Cs3  1  0.00420258  0.33878570  0.00207715  1
  Cs  Cs4  1  0.00154583  0.33403067  0.32921822  1
  Cs  Cs5  1  -0.00021463  0.33710151  0.66858752  1
  Cs  Cs6  1  0.00065747  0.66268493  -0.00303087  1
  Cs  Cs7  1  -0.00081556  0.66530700  0.33283579  1
  Cs  Cs8  1  -0.00046504  0.66465818  0.67056050  1
  Cs  Cs9  1  0.33374862  -0.00132272  -0.00063769  1
  Cs  Cs10  1  0.32957324  -0.00385437  0.33998684  1
  Cs  Cs11  1  0.33253635  0.00189548  0.66338515  1
  Cs  Cs12  1  0.33262403  0.33471835  -0.00017710  1
  Cs  Cs13  1  0.32899710  0.33103955  0.33427550  1
  Cs  Cs14  1  0.33747714  0.33151854  0.66590564  1
  Cs  Cs15  1  0.33380019  0.66661543  -0.00024246  1
  Cs  Cs16  1  0.33775953  0.67291926  0.33854119  1
  Cs  Cs17  1  0.33143812  0.66658877  0.66489894  1
  Cs  Cs18  1  0.66713267  0.00045662  0.00090924  1
  Cs  Cs19  1  0.66896805  -0.00237867  0.32901170  1
  Cs  Cs20  1  0.67006264  0.00479377  0.66970661  1
  Cs  Cs21  1  0.66383688  0.33066316  0.00233960  1
  Cs  Cs22  1  0.66826063  0.33667823  0.33352780  1
  Cs  Cs23  1  0.66272901  0.33173464  0.66187318  1
  Cs  Cs24  1  0.66557675  0.66797789  -0.00077768  1
  Cs  Cs25  1  0.66405170  0.66479652  0.33462459  1
  Cs  Cs26  1  0.66946366  0.66222190  0.66713725  1
  Sn  Sn27  1  0.16748397  0.83421618  0.83415979  1
  Sn  Sn28  1  0.50000503  0.50092649  0.83402447  1
  Sn  Sn29  1  0.49985386  0.49920153  0.16614723  1
  Sn  Sn30  1  0.83440032  0.83373293  0.16717481  1
  Sn  Sn31  1  0.16578686  0.83350700  0.16592991  1
  Sn  Sn32  1  0.49939197  0.83286705  0.83317930  1
  Sn  Sn33  1  0.16584801  0.16598635  0.83372864  1
  Sn  Sn34  1  0.83358451  0.16604028  0.49952938  1
  Sn  Sn35  1  0.83328106  0.83374688  0.49921813  1
  Sn  Sn36  1  0.83452145  0.16681794  0.83390519  1
  Sn  Sn37  1  0.16655839  0.49995398  0.49982629  1
  Sn  Sn38  1  0.49995252  0.16700437  0.16692332  1
  Sn  Sn39  1  0.83297511  0.16612361  0.16656141  1
  Pb  Pb40  1  0.50336027  0.83364226  0.50366253  1
  Pb  Pb41  1  0.16423254  0.83205755  0.50060541  1
  Pb  Pb42  1  0.50249741  0.16628967  0.49626535  1
  Pb  Pb43  1  0.83527612  0.49992318  0.49984353  1
  Pb  Pb44  1  0.83352424  0.83465554  0.83375849  1
  Pb  Pb45  1  0.49793379  0.49991578  0.49973563  1
  Pb  Pb46  1  0.50017487  0.83367042  0.16530983  1
  Pb  Pb47  1  0.16651160  0.16467778  0.16486414  1
  Pb  Pb48  1  0.16891537  0.50011819  0.83211699  1
  Pb  Pb49  1  0.83033293  0.49634722  0.83359013  1
  Pb  Pb50  1  0.16969993  0.50326550  0.16865268  1
  Pb  Pb51  1  0.83134453  0.50028604  0.16643017  1
  Pb  Pb52  1  0.49981494  0.16640510  0.83486594  1
  Pb  Pb53  1  0.16397347  0.16847581  0.50268498  1
  I  I54  1  0.16744199  -0.00331818  0.16522726  1
  I  I55  1  0.16751500  -0.00001742  0.49906264  1
  I  I56  1  0.16874113  -0.00083145  0.83653048  1
  I  I57  1  0.16469244  0.33334707  0.16612997  1
  I  I58  1  0.16567832  0.33592789  0.50149719  1
  I  I59  1  0.16338553  0.33078898  0.83157006  1
  I  I60  1  0.16106582  0.67098756  0.15988668  1
  I  I61  1  0.16497036  0.66459602  0.50156790  1
  I  I62  1  0.16868262  0.66967885  0.83532637  1
  I  I63  1  0.50353159  0.00228932  0.16336587  1
  I  I64  1  0.49558305  -0.00005888  0.50064422  1
  I  I65  1  0.49949144  -0.00222321  0.83574630  1
  I  I66  1  0.50625409  0.33288153  0.16012348  1
  I  I67  1  0.50193607  0.33314393  0.50531031  1
  I  I68  1  0.50053699  0.33523377  0.83585985  1
  I  I69  1  0.49960054  0.66479819  0.16368919  1
  I  I70  1  0.50247306  0.66682085  0.49546016  1
  I  I71  1  0.49511155  0.66704332  0.83963961  1
  I  I72  1  0.83026483  0.00059648  0.16705707  1
  I  I73  1  0.83415877  0.00053855  0.49935529  1
  I  I74  1  0.83154205  0.00288155  0.83347173  1
  I  I75  1  0.83047983  0.32989799  0.16746347  1
  I  I76  1  0.83387108  0.32994868  0.49994946  1
  I  I77  1  0.83868252  0.32804261  0.83341156  1
  I  I78  1  0.83529008  0.67021823  0.17151156  1
  I  I79  1  0.83419645  0.66967054  0.49537229  1
  I  I80  1  0.83498274  0.66671638  0.83229919  1
  I  I81  1  0.16147788  0.16534819  -0.00315020  1
  I  I82  1  0.16715472  0.16646435  0.33324581  1
  I  I83  1  0.16308984  0.16056521  0.67071014  1
  I  I84  1  0.16641575  0.49894425  0.00007369  1
  I  I85  1  0.16693460  0.50015797  0.33591235  1
  I  I86  1  0.16780363  0.50183409  0.66465534  1
  I  I87  1  0.16465181  0.83668661  -0.00063574  1
  I  I88  1  0.16518372  0.83164008  0.33095708  1
  I  I89  1  0.16919954  0.83546697  0.66986968  1
  I  I90  1  0.50675076  0.16730163  0.00258186  1
  I  I91  1  0.50462234  0.17261377  0.32819711  1
  I  I92  1  0.50140455  0.16797023  0.66680233  1
  I  I93  1  0.49967119  0.49975787  -0.00011009  1
  I  I94  1  0.50013451  0.49608233  0.33026259  1
  I  I95  1  0.49912612  0.50380644  0.66952638  1
  I  I96  1  0.50094870  0.83257359  -0.00264126  1
  I  I97  1  0.49743138  0.83259430  0.33323532  1
  I  I98  1  0.49434170  0.82775090  0.67162465  1
  I  I99  1  0.83140723  0.16145833  0.00077172  1
  I  I100  1  0.82780530  0.16228352  0.33250564  1
  I  I101  1  0.83757210  0.16181860  0.66689603  1
  I  I102  1  0.83616016  0.50131138  -0.00004190  1
  I  I103  1  0.83130554  0.49673747  0.33313790  1
  I  I104  1  0.83150875  0.50111563  0.66678044  1
  I  I105  1  0.83313781  0.83849498  0.00267329  1
  I  I106  1  0.83823639  0.84141866  0.33205471  1
  I  I107  1  0.83271486  0.83803970  0.66486058  1
  I  I108  1  -0.00322104  0.16340645  0.16836096  1
  I  I109  1  -0.00413281  0.16277573  0.49498770  1
  I  I110  1  -0.00040105  0.15989343  0.83438968  1
  I  I111  1  0.00042108  0.49766149  0.16813485  1
  I  I112  1  0.00271967  0.50045298  0.50173838  1
  I  I113  1  0.00022125  0.50200407  0.83126247  1
  I  I114  1  -0.00087518  0.83949292  0.16503785  1
  I  I115  1  -0.00348087  0.83739053  0.50033465  1
  I  I116  1  0.00255485  0.83630540  0.83380916  1
  I  I117  1  0.33565979  0.16969494  0.16187165  1
  I  I118  1  0.33298658  0.16861399  0.50083430  1
  I  I119  1  0.33105019  0.16578066  0.83588162  1
  I  I120  1  0.33729467  0.49423538  0.16191942  1
  I  I121  1  0.33043851  0.50143101  0.50062654  1
  I  I122  1  0.33661660  0.49906968  0.83679783  1
  I  I123  1  0.33118478  0.83266649  0.16317865  1
  I  I124  1  0.33309694  0.83118712  0.49701178  1
  I  I125  1  0.33233849  0.83518121  0.83996050  1
  I  I126  1  0.66811919  0.16445877  0.16377214  1
  I  I127  1  0.67097884  0.16422507  0.50726570  1
  I  I128  1  0.66932231  0.16603946  0.83203809  1
  I  I129  1  0.66330366  0.50045892  0.16340816  1
  I  I130  1  0.66665697  0.49987673  0.50068775  1
  I  I131  1  0.66250291  0.50658315  0.83632251  1
  I  I132  1  0.66941611  0.83499698  0.16845426  1
  I  I133  1  0.67121046  0.83650560  0.49347857  1
  I  I134  1  0.66459527  0.83128324  0.83392577  1
