# generated using pymatgen
data_Cs27Sn13Pb14I81
_symmetry_space_group_name_H-M   'P 1'
_cell_length_a   18.97560263
_cell_length_b   18.97652419
_cell_length_c   18.97905024
_cell_angle_alpha   89.99806548
_cell_angle_beta   90.00084465
_cell_angle_gamma   90.00199984
_symmetry_Int_Tables_number   1
_chemical_formula_structural   Cs27Sn13Pb14I81
_chemical_formula_sum   'Cs27 Sn13 Pb14 I81'
_cell_volume   6834.18483789
_cell_formula_units_Z   1
loop_
 _symmetry_equiv_pos_site_id
 _symmetry_equiv_pos_as_xyz
  1  'x, y, z'
loop_
 _atom_site_type_symbol
 _atom_site_label
 _atom_site_symmetry_multiplicity
 _atom_site_fract_x
 _atom_site_fract_y
 _atom_site_fract_z
 _atom_site_occupancy
  Cs  Cs0  1  0.00098048  0.00102382  -0.00068380  1
  Cs  Cs1  1  -0.00042141  0.00150010  0.33555913  1
  Cs  Cs2  1  -0.00279345  -0.00049419  0.66772081  1
  Cs  Cs3  1  -0.00035527  0.33213885  -0.00200917  1
  Cs  Cs4  1  0.00244038  0.33165835  0.33779344  1
  Cs  Cs5  1  -0.00161651  0.33607972  0.66762182  1
  Cs  Cs6  1  -0.00035262  0.66671565  0.00061263  1
  Cs  Cs7  1  -0.00083327  0.66667428  0.33094462  1
  Cs  Cs8  1  0.00151729  0.66342547  0.66727615  1
  Cs  Cs9  1  0.33233030  0.00161600  0.00239530  1
  Cs  Cs10  1  0.33230084  0.00186505  0.32957169  1
  Cs  Cs11  1  0.33610054  -0.00207165  0.66620555  1
  Cs  Cs12  1  0.33388359  0.33113999  -0.00010798  1
  Cs  Cs13  1  0.33147956  0.33422045  0.34210034  1
  Cs  Cs14  1  0.33422950  0.33616966  0.66143727  1
  Cs  Cs15  1  0.33320253  0.66683821  -0.00022147  1
  Cs  Cs16  1  0.33291718  0.66549722  0.33398809  1
  Cs  Cs17  1  0.33692103  0.66587377  0.66490337  1
  Cs  Cs18  1  0.66582523  0.00169773  -0.00055759  1
  Cs  Cs19  1  0.66730788  -0.00068252  0.33988478  1
  Cs  Cs20  1  0.66632462  -0.00593943  0.65928031  1
  Cs  Cs21  1  0.66663205  0.33341984  0.00072852  1
  Cs  Cs22  1  0.66518196  0.33495640  0.33249019  1
  Cs  Cs23  1  0.66943416  0.33183401  0.66625610  1
  Cs  Cs24  1  0.66590977  0.66632575  0.00275519  1
  Cs  Cs25  1  0.66868270  0.66563320  0.32805339  1
  Cs  Cs26  1  0.66001884  0.67393984  0.66732900  1
  Sn  Sn27  1  0.16636774  0.83350996  0.49993086  1
  Sn  Sn28  1  0.16723280  0.83261784  0.16664128  1
  Sn  Sn29  1  0.83311049  0.50042423  0.50123742  1
  Sn  Sn30  1  0.83285283  0.16705123  0.83407965  1
  Sn  Sn31  1  0.16654805  0.83313626  0.83321718  1
  Sn  Sn32  1  0.50030446  0.16674783  0.83368941  1
  Sn  Sn33  1  0.16672175  0.50017355  0.16585087  1
  Sn  Sn34  1  0.83258463  0.16657794  0.16602752  1
  Sn  Sn35  1  0.16629641  0.49992896  0.83430043  1
  Sn  Sn36  1  0.16696088  0.16694673  0.83337279  1
  Sn  Sn37  1  0.83355107  0.49981141  0.83261608  1
  Sn  Sn38  1  0.50086511  0.16593503  0.16603244  1
  Sn  Sn39  1  0.49942780  0.83410613  0.16622179  1
  Pb  Pb40  1  0.83336743  0.16840667  0.50046633  1
  Pb  Pb41  1  0.83358715  0.83610367  0.16649430  1
  Pb  Pb42  1  0.50019508  0.49773414  0.83341413  1
  Pb  Pb43  1  0.16538385  0.50203750  0.50044497  1
  Pb  Pb44  1  0.50359593  0.50026382  0.50011437  1
  Pb  Pb45  1  0.49746391  0.83575368  0.83562727  1
  Pb  Pb46  1  0.49713881  0.49922583  0.16647318  1
  Pb  Pb47  1  0.50005166  0.16668112  0.49971803  1
  Pb  Pb48  1  0.83570226  0.49749914  0.16583036  1
  Pb  Pb49  1  0.16678048  0.16689631  0.16534762  1
  Pb  Pb50  1  0.83554209  0.83029812  0.50000209  1
  Pb  Pb51  1  0.83498214  0.83317149  0.83352403  1
  Pb  Pb52  1  0.16653933  0.16407821  0.50388862  1
  Pb  Pb53  1  0.49750648  0.83333441  0.49656137  1
  I  I54  1  0.16756551  -0.00260837  0.16540738  1
  I  I55  1  0.16665106  -0.00385371  0.49708318  1
  I  I56  1  0.16634152  0.00016336  0.83418317  1
  I  I57  1  0.16538288  0.33559199  0.16113146  1
  I  I58  1  0.16593725  0.33361336  0.49827978  1
  I  I59  1  0.16526596  0.33355203  0.83942179  1
  I  I60  1  0.17073430  0.66767903  0.16221599  1
  I  I61  1  0.16497018  0.66975633  0.50326142  1
  I  I62  1  0.16099669  0.66637899  0.83479729  1
  I  I63  1  0.49614129  0.00053135  0.16193380  1
  I  I64  1  0.50041658  -0.00008908  0.50275677  1
  I  I65  1  0.50010249  0.00403890  0.83595896  1
  I  I66  1  0.50326693  0.32969450  0.16168268  1
  I  I67  1  0.49693122  0.33329256  0.49706804  1
  I  I68  1  0.49526397  0.32929129  0.84082689  1
  I  I69  1  0.49644546  0.66937484  0.16792567  1
  I  I70  1  0.49928390  0.66703448  0.49954500  1
  I  I71  1  0.50022719  0.66693355  0.83417017  1
  I  I72  1  0.83552745  0.00406948  0.15954109  1
  I  I73  1  0.83390088  -0.00016499  0.50016703  1
  I  I74  1  0.83584339  0.00351298  0.83829324  1
  I  I75  1  0.82901953  0.32972503  0.16425230  1
  I  I76  1  0.83696199  0.33614175  0.50200396  1
  I  I77  1  0.83907077  0.33266059  0.83340291  1
  I  I78  1  0.83141287  0.66642719  0.16686613  1
  I  I79  1  0.83550133  0.66253997  0.50629709  1
  I  I80  1  0.83994497  0.66325198  0.82967099  1
  I  I81  1  0.16594191  0.16309956  -0.00311345  1
  I  I82  1  0.16652883  0.16718634  0.33332935  1
  I  I83  1  0.16565970  0.16859589  0.67241528  1
  I  I84  1  0.16150300  0.50442427  -0.00132876  1
  I  I85  1  0.16535114  0.50422248  0.33087183  1
  I  I86  1  0.16429447  0.49968693  0.67016476  1
  I  I87  1  0.16983025  0.83276130  -0.00005119  1
  I  I88  1  0.17043863  0.82799888  0.33185589  1
  I  I89  1  0.16412081  0.83438628  0.66796093  1
  I  I90  1  0.50026694  0.16300798  -0.00011502  1
  I  I91  1  0.50459163  0.16246622  0.32941794  1
  I  I92  1  0.49927762  0.16800499  0.67029170  1
  I  I93  1  0.50366927  0.50205538  0.00002968  1
  I  I94  1  0.49909170  0.49746768  0.33298111  1
  I  I95  1  0.49386652  0.49799500  0.66702991  1
  I  I96  1  0.49341297  0.83515555  0.00346955  1
  I  I97  1  0.49393289  0.84050598  0.32872093  1
  I  I98  1  0.49872414  0.83483718  0.66679505  1
  I  I99  1  0.83353429  0.17184524  -0.00142257  1
  I  I100  1  0.82909806  0.16738990  0.33040029  1
  I  I101  1  0.83481267  0.16894315  0.67054933  1
  I  I102  1  0.83696733  0.49698146  -0.00320405  1
  I  I103  1  0.83580481  0.49899545  0.33486768  1
  I  I104  1  0.84186961  0.49259846  0.66885833  1
  I  I105  1  0.83691032  0.82890710  0.00006948  1
  I  I106  1  0.83665201  0.83335125  0.33308854  1
  I  I107  1  0.83563210  0.83846637  0.66688407  1
  I  I108  1  -0.00193728  0.16715439  0.16193031  1
  I  I109  1  0.00007581  0.16548670  0.49713173  1
  I  I110  1  0.00004290  0.16700665  0.83759087  1
  I  I111  1  0.00362294  0.50526629  0.16465953  1
  I  I112  1  -0.00229686  0.50011090  0.50217236  1
  I  I113  1  0.00108678  0.49535938  0.83326267  1
  I  I114  1  0.00374522  0.83077711  0.16606410  1
  I  I115  1  0.00383838  0.83424957  0.49744836  1
  I  I116  1  0.00422710  0.83798162  0.83669430  1
  I  I117  1  0.33562059  0.16450733  0.16109655  1
  I  I118  1  0.33310709  0.16798166  0.49906636  1
  I  I119  1  0.33280250  0.16534105  0.83854774  1
  I  I120  1  0.32894410  0.50020833  0.16035966  1
  I  I121  1  0.33304516  0.50025163  0.49956326  1
  I  I122  1  0.32970631  0.49978940  0.83772654  1
  I  I123  1  0.33181493  0.83639006  0.16590869  1
  I  I124  1  0.32936270  0.83173563  0.50411626  1
  I  I125  1  0.32870918  0.83240229  0.83174445  1
  I  I126  1  0.66629416  0.16250503  0.15793495  1
  I  I127  1  0.66678265  0.16708892  0.50366983  1
  I  I128  1  0.66744763  0.17323057  0.83897148  1
  I  I129  1  0.66684194  0.50291186  0.16724589  1
  I  I130  1  0.67157906  0.49788676  0.50604954  1
  I  I131  1  0.67017403  0.49417661  0.82954398  1
  I  I132  1  0.66378807  0.83531785  0.16622885  1
  I  I133  1  0.66650115  0.83279605  0.49918311  1
  I  I134  1  0.66627407  0.83270394  0.83467577  1
