# generated using pymatgen
data_Cs27Sn14Pb13I81
_symmetry_space_group_name_H-M   'P 1'
_cell_length_a   18.96634833
_cell_length_b   18.97740954
_cell_length_c   18.98213366
_cell_angle_alpha   89.99879063
_cell_angle_beta   90.00094947
_cell_angle_gamma   89.99948504
_symmetry_Int_Tables_number   1
_chemical_formula_structural   Cs27Sn14Pb13I81
_chemical_formula_sum   'Cs27 Sn14 Pb13 I81'
_cell_volume   6832.28036315
_cell_formula_units_Z   1
loop_
 _symmetry_equiv_pos_site_id
 _symmetry_equiv_pos_as_xyz
  1  'x, y, z'
loop_
 _atom_site_type_symbol
 _atom_site_label
 _atom_site_symmetry_multiplicity
 _atom_site_fract_x
 _atom_site_fract_y
 _atom_site_fract_z
 _atom_site_occupancy
  Cs  Cs0  1  -0.00240349  -0.00028002  0.00179658  1
  Cs  Cs1  1  0.00001730  0.00319315  0.33557266  1
  Cs  Cs2  1  0.00018492  0.00012726  0.66540586  1
  Cs  Cs3  1  0.00109383  0.33043146  0.00510721  1
  Cs  Cs4  1  -0.00098437  0.33065954  0.33271923  1
  Cs  Cs5  1  0.00128432  0.33178066  0.66415529  1
  Cs  Cs6  1  -0.00220980  0.66923755  -0.00268919  1
  Cs  Cs7  1  0.00238891  0.66540702  0.33535410  1
  Cs  Cs8  1  0.00066786  0.66806305  0.66821643  1
  Cs  Cs9  1  0.33240227  0.00107374  -0.00322792  1
  Cs  Cs10  1  0.33442238  -0.00020581  0.33350877  1
  Cs  Cs11  1  0.33354206  0.00013273  0.66710903  1
  Cs  Cs12  1  0.33424188  0.33185193  -0.00279224  1
  Cs  Cs13  1  0.33135260  0.33067795  0.33248318  1
  Cs  Cs14  1  0.33318990  0.33106522  0.66940990  1
  Cs  Cs15  1  0.33171266  0.66765940  0.00161845  1
  Cs  Cs16  1  0.33668948  0.66864113  0.33257158  1
  Cs  Cs17  1  0.33140331  0.67005771  0.66502752  1
  Cs  Cs18  1  0.66997287  -0.00299306  0.00117017  1
  Cs  Cs19  1  0.66459885  -0.00178886  0.33251946  1
  Cs  Cs20  1  0.66866400  0.00245272  0.66623951  1
  Cs  Cs21  1  0.66239363  0.34122074  -0.00098811  1
  Cs  Cs22  1  0.66887939  0.33901679  0.33211619  1
  Cs  Cs23  1  0.66522122  0.33603688  0.66888853  1
  Cs  Cs24  1  0.67544815  0.66248200  0.00668291  1
  Cs  Cs25  1  0.65620117  0.65960844  0.32687311  1
  Cs  Cs26  1  0.66908193  0.65735755  0.66582364  1
  Sn  Sn27  1  0.83413007  0.16661880  0.83283277  1
  Sn  Sn28  1  0.16741278  0.83357328  0.83339859  1
  Sn  Sn29  1  0.83310262  0.16575186  0.50087331  1
  Sn  Sn30  1  0.50002571  0.16631064  0.16712270  1
  Sn  Sn31  1  0.16666624  0.49992751  0.83345092  1
  Sn  Sn32  1  0.16681397  0.50102932  0.16665909  1
  Sn  Sn33  1  0.16598848  0.83348172  0.49977150  1
  Sn  Sn34  1  0.50042035  0.83293147  0.83309519  1
  Sn  Sn35  1  0.16550090  0.16649312  0.83254836  1
  Sn  Sn36  1  0.16658404  0.83289670  0.16684094  1
  Sn  Sn37  1  0.16672017  0.16658799  0.50077711  1
  Sn  Sn38  1  0.16679060  0.50004808  0.49992719  1
  Sn  Sn39  1  0.50027195  0.16654228  0.49911618  1
  Sn  Sn40  1  0.83322199  0.83339006  0.49976831  1
  Pb  Pb41  1  0.50037491  0.16522154  0.83310560  1
  Pb  Pb42  1  0.83579740  0.83347377  0.17040006  1
  Pb  Pb43  1  0.83642726  0.50004504  0.16684321  1
  Pb  Pb44  1  0.83023155  0.16667906  0.16680933  1
  Pb  Pb45  1  0.83350150  0.83494612  0.83111728  1
  Pb  Pb46  1  0.16787408  0.16629596  0.16645400  1
  Pb  Pb47  1  0.50049897  0.83495078  0.50187111  1
  Pb  Pb48  1  0.49699644  0.49704827  0.50030378  1
  Pb  Pb49  1  0.49784715  0.83513885  0.16406830  1
  Pb  Pb50  1  0.83551139  0.50013141  0.49990309  1
  Pb  Pb51  1  0.83636972  0.49683246  0.83320898  1
  Pb  Pb52  1  0.49759301  0.50376617  0.83337156  1
  Pb  Pb53  1  0.49699758  0.49769555  0.16648545  1
  I  I54  1  0.16875558  -0.00258058  0.16663554  1
  I  I55  1  0.16647779  0.00051413  0.50209336  1
  I  I56  1  0.16761047  0.00012827  0.83096427  1
  I  I57  1  0.16880588  0.33545017  0.16669036  1
  I  I58  1  0.16728552  0.33211849  0.50216435  1
  I  I59  1  0.16259629  0.33242941  0.83059525  1
  I  I60  1  0.16698959  0.66705437  0.16702387  1
  I  I61  1  0.16161601  0.66759427  0.50256963  1
  I  I62  1  0.17204057  0.66737221  0.83079994  1
  I  I63  1  0.49566245  0.00281944  0.17112801  1
  I  I64  1  0.49363184  0.00330748  0.49792834  1
  I  I65  1  0.49067640  -0.00208228  0.83279613  1
  I  I66  1  0.49708526  0.32976867  0.17000035  1
  I  I67  1  0.49988074  0.32848082  0.49796152  1
  I  I68  1  0.49912032  0.33324062  0.83367001  1
  I  I69  1  0.50027139  0.66674487  0.16603283  1
  I  I70  1  0.49983021  0.66670127  0.50138436  1
  I  I71  1  0.49154058  0.67134995  0.83158070  1
  I  I72  1  0.83715324  0.00012589  0.16450256  1
  I  I73  1  0.84027902  0.00128969  0.50364068  1
  I  I74  1  0.84000020  0.00310322  0.83072072  1
  I  I75  1  0.83667817  0.33298309  0.16885440  1
  I  I76  1  0.83474709  0.32969980  0.50324665  1
  I  I77  1  0.83718861  0.32856114  0.82584511  1
  I  I78  1  0.83095867  0.66699770  0.16691932  1
  I  I79  1  0.84153651  0.66972888  0.50151769  1
  I  I80  1  0.83369733  0.66671761  0.83178703  1
  I  I81  1  0.16514155  0.16674948  -0.00298857  1
  I  I82  1  0.16477118  0.16692672  0.33644110  1
  I  I83  1  0.16850749  0.16687179  0.66590958  1
  I  I84  1  0.16717948  0.50171388  -0.00058870  1
  I  I85  1  0.16631557  0.50154574  0.33403491  1
  I  I86  1  0.16664288  0.50110499  0.66654415  1
  I  I87  1  0.17198798  0.83167302  -0.00092745  1
  I  I88  1  0.16236873  0.83175609  0.33445338  1
  I  I89  1  0.16699101  0.83216694  0.66646876  1
  I  I90  1  0.49653341  0.16488773  0.00152615  1
  I  I91  1  0.49657214  0.16508364  0.33499111  1
  I  I92  1  0.49800469  0.16494555  0.66400558  1
  I  I93  1  0.49563161  0.49452749  -0.00012338  1
  I  I94  1  0.49675921  0.50231393  0.33346256  1
  I  I95  1  0.49752197  0.49659660  0.66680758  1
  I  I96  1  0.49122584  0.83850920  -0.00353958  1
  I  I97  1  0.49849944  0.83411428  0.33344669  1
  I  I98  1  0.49010649  0.83794832  0.66936835  1
  I  I99  1  0.83944713  0.16606365  -0.00300977  1
  I  I100  1  0.83844327  0.16355887  0.33710675  1
  I  I101  1  0.83410153  0.16265665  0.66545195  1
  I  I102  1  0.83581522  0.49798613  -0.00024306  1
  I  I103  1  0.83773290  0.49645675  0.33370159  1
  I  I104  1  0.83564899  0.50158891  0.66658398  1
  I  I105  1  0.83437397  0.83576622  -0.00010779  1
  I  I106  1  0.84058652  0.84264051  0.33837595  1
  I  I107  1  0.84152638  0.83722474  0.66330398  1
  I  I108  1  0.00016214  0.16760839  0.16825828  1
  I  I109  1  0.00151712  0.16635966  0.50444908  1
  I  I110  1  0.00214250  0.16525536  0.82589203  1
  I  I111  1  0.00524494  0.50102103  0.16709137  1
  I  I112  1  0.00470501  0.49531149  0.50031435  1
  I  I113  1  0.00517954  0.50624444  0.83207871  1
  I  I114  1  0.00469387  0.83123170  0.16041227  1
  I  I115  1  0.00268229  0.83825478  0.50166889  1
  I  I116  1  0.00395167  0.83123313  0.83478839  1
  I  I117  1  0.33528602  0.16668445  0.17114333  1
  I  I118  1  0.33158056  0.16691935  0.50032510  1
  I  I119  1  0.33003342  0.16819557  0.83047890  1
  I  I120  1  0.32867251  0.50373330  0.16720630  1
  I  I121  1  0.32806065  0.50136612  0.50046226  1
  I  I122  1  0.32837605  0.49257907  0.83274685  1
  I  I123  1  0.32908176  0.83022227  0.17198498  1
  I  I124  1  0.32956247  0.83405941  0.49900940  1
  I  I125  1  0.32983046  0.83653166  0.83106687  1
  I  I126  1  0.66262830  0.16467065  0.17043955  1
  I  I127  1  0.66745318  0.15969446  0.50076133  1
  I  I128  1  0.66916993  0.16236507  0.82930045  1
  I  I129  1  0.66627086  0.49878529  0.16669545  1
  I  I130  1  0.66661436  0.50055144  0.49946647  1
  I  I131  1  0.66682201  0.49933481  0.83371910  1
  I  I132  1  0.66654543  0.83571018  0.16534132  1
  I  I133  1  0.66943220  0.84198183  0.50396279  1
  I  I134  1  0.66462038  0.84032396  0.83063169  1
