# generated using pymatgen
data_Cs27Sn14Pb13I81
_symmetry_space_group_name_H-M   'P 1'
_cell_length_a   18.96294562
_cell_length_b   18.96339523
_cell_length_c   18.95782495
_cell_angle_alpha   89.99956152
_cell_angle_beta   89.99876225
_cell_angle_gamma   90.00035843
_symmetry_Int_Tables_number   1
_chemical_formula_structural   Cs27Sn14Pb13I81
_chemical_formula_sum   'Cs27 Sn14 Pb13 I81'
_cell_volume   6817.26858939
_cell_formula_units_Z   1
loop_
 _symmetry_equiv_pos_site_id
 _symmetry_equiv_pos_as_xyz
  1  'x, y, z'
loop_
 _atom_site_type_symbol
 _atom_site_label
 _atom_site_symmetry_multiplicity
 _atom_site_fract_x
 _atom_site_fract_y
 _atom_site_fract_z
 _atom_site_occupancy
  Cs  Cs0  1  -0.00036940  -0.00085517  -0.00028237  1
  Cs  Cs1  1  -0.00073173  0.00056824  0.33244201  1
  Cs  Cs2  1  0.00059208  0.00134229  0.66775305  1
  Cs  Cs3  1  0.00136701  0.33468461  -0.00023336  1
  Cs  Cs4  1  -0.00153825  0.33189335  0.33435125  1
  Cs  Cs5  1  0.00202349  0.33426546  0.66479364  1
  Cs  Cs6  1  0.00128261  0.66675697  0.00090798  1
  Cs  Cs7  1  -0.00307416  0.66782244  0.33080680  1
  Cs  Cs8  1  0.00082506  0.66302639  0.66616011  1
  Cs  Cs9  1  0.33381429  0.00118431  0.00055603  1
  Cs  Cs10  1  0.33185070  0.00032767  0.33421648  1
  Cs  Cs11  1  0.33233109  -0.00383979  0.66356226  1
  Cs  Cs12  1  0.33401491  0.33464282  -0.00020727  1
  Cs  Cs13  1  0.33239451  0.33122005  0.33493673  1
  Cs  Cs14  1  0.32814568  0.33569254  0.66348731  1
  Cs  Cs15  1  0.33091847  0.66425859  0.00081246  1
  Cs  Cs16  1  0.33474127  0.66763533  0.33691834  1
  Cs  Cs17  1  0.33636254  0.66832733  0.65891945  1
  Cs  Cs18  1  0.66525592  0.00148622  -0.00464867  1
  Cs  Cs19  1  0.66873377  0.00230241  0.33106332  1
  Cs  Cs20  1  0.66616039  -0.00045372  0.67461709  1
  Cs  Cs21  1  0.66511398  0.33292156  -0.00016721  1
  Cs  Cs22  1  0.66734583  0.33248038  0.33359282  1
  Cs  Cs23  1  0.66752714  0.33445784  0.66604124  1
  Cs  Cs24  1  0.66685398  0.66641628  0.00015350  1
  Cs  Cs25  1  0.66780817  0.66586246  0.33326654  1
  Cs  Cs26  1  0.66270521  0.66618175  0.66570256  1
  Sn  Sn27  1  0.50081203  0.50070068  0.16597755  1
  Sn  Sn28  1  0.83395762  0.16646704  0.16670751  1
  Sn  Sn29  1  0.83293850  0.83370075  0.16687783  1
  Sn  Sn30  1  0.16580321  0.16593397  0.16558447  1
  Sn  Sn31  1  0.50021701  0.83279594  0.16642342  1
  Sn  Sn32  1  0.83197834  0.16527925  0.49957684  1
  Sn  Sn33  1  0.16659163  0.16573721  0.83441841  1
  Sn  Sn34  1  0.83246633  0.49987398  0.16561958  1
  Sn  Sn35  1  0.16683980  0.83423485  0.16588754  1
  Sn  Sn36  1  0.50068845  0.49997648  0.83404062  1
  Sn  Sn37  1  0.83321806  0.83450522  0.49977204  1
  Sn  Sn38  1  0.16665116  0.83396787  0.83405437  1
  Sn  Sn39  1  0.50122351  0.16628927  0.50009801  1
  Sn  Sn40  1  0.83248627  0.49998800  0.83428154  1
  Pb  Pb41  1  0.50297891  0.83580354  0.49741118  1
  Pb  Pb42  1  0.16586525  0.16643314  0.49949026  1
  Pb  Pb43  1  0.83327999  0.49995283  0.49951841  1
  Pb  Pb44  1  0.50030325  0.49792777  0.49923496  1
  Pb  Pb45  1  0.49737618  0.83115964  0.83563765  1
  Pb  Pb46  1  0.49994483  0.16681651  0.16756166  1
  Pb  Pb47  1  0.16658521  0.50040870  0.49951251  1
  Pb  Pb48  1  0.83500376  0.16874055  0.83345694  1
  Pb  Pb49  1  0.49713089  0.16892180  0.83069364  1
  Pb  Pb50  1  0.16675349  0.50005934  0.16709059  1
  Pb  Pb51  1  0.16705742  0.50049764  0.83349842  1
  Pb  Pb52  1  0.16393813  0.83340378  0.49931095  1
  Pb  Pb53  1  0.83500387  0.83113406  0.83356541  1
  I  I54  1  0.16373322  -0.00018020  0.16324933  1
  I  I55  1  0.16903477  0.00005698  0.50091923  1
  I  I56  1  0.16520316  0.00004709  0.83799303  1
  I  I57  1  0.16373948  0.33014026  0.16346643  1
  I  I58  1  0.16491839  0.33263435  0.50076031  1
  I  I59  1  0.16618590  0.33079644  0.83696633  1
  I  I60  1  0.16364553  0.67001671  0.16225998  1
  I  I61  1  0.16514459  0.66745112  0.50113481  1
  I  I62  1  0.16497582  0.66951692  0.83939599  1
  I  I63  1  0.50137241  -0.00251695  0.16969121  1
  I  I64  1  0.50081027  0.00336049  0.49748996  1
  I  I65  1  0.50043127  -0.00006210  0.83391378  1
  I  I66  1  0.50301079  0.33592398  0.16499562  1
  I  I67  1  0.50588059  0.33018277  0.49708784  1
  I  I68  1  0.50205231  0.33678796  0.84076579  1
  I  I69  1  0.50267493  0.66660842  0.16339113  1
  I  I70  1  0.50014582  0.66697757  0.50166646  1
  I  I71  1  0.50253789  0.66312976  0.83467548  1
  I  I72  1  0.83479990  -0.00009735  0.17217343  1
  I  I73  1  0.83111872  0.00069538  0.49071307  1
  I  I74  1  0.83371961  -0.00000325  0.83469361  1
  I  I75  1  0.83370319  0.33299955  0.16735182  1
  I  I76  1  0.83107489  0.33019285  0.49630063  1
  I  I77  1  0.83272710  0.33664799  0.83744250  1
  I  I78  1  0.83397458  0.66722411  0.16736968  1
  I  I79  1  0.83563826  0.66937788  0.49565056  1
  I  I80  1  0.83296743  0.66323571  0.83751038  1
  I  I81  1  0.16132380  0.16309548  0.00145263  1
  I  I82  1  0.16561000  0.16299457  0.32994601  1
  I  I83  1  0.16685484  0.16446175  0.66926083  1
  I  I84  1  0.16618226  0.49908185  0.00026714  1
  I  I85  1  0.16653488  0.49856664  0.33237450  1
  I  I86  1  0.16540815  0.49849753  0.66733184  1
  I  I87  1  0.16387281  0.83721417  0.00179777  1
  I  I88  1  0.16800223  0.83757892  0.32933353  1
  I  I89  1  0.16471641  0.83675937  0.66937760  1
  I  I90  1  0.50145550  0.16588907  -0.00001841  1
  I  I91  1  0.49977494  0.16873168  0.33533296  1
  I  I92  1  0.50593563  0.16842376  0.66311129  1
  I  I93  1  0.50431351  0.50247612  0.00127811  1
  I  I94  1  0.50451154  0.50299432  0.32965100  1
  I  I95  1  0.50332224  0.49765011  0.66933136  1
  I  I96  1  0.50552117  0.83348629  0.00414858  1
  I  I97  1  0.49486194  0.82672892  0.32901601  1
  I  I98  1  0.49890662  0.83183700  0.66659220  1
  I  I99  1  0.83580886  0.16440195  0.00334259  1
  I  I100  1  0.83562297  0.16842125  0.33174056  1
  I  I101  1  0.83181119  0.16430170  0.66401712  1
  I  I102  1  0.83005303  0.49998492  0.00184915  1
  I  I103  1  0.82977979  0.50013715  0.32954896  1
  I  I104  1  0.83103931  0.49990833  0.66939508  1
  I  I105  1  0.83264323  0.83531453  0.00364527  1
  I  I106  1  0.83572650  0.83162851  0.33103694  1
  I  I107  1  0.83623860  0.83649665  0.66437763  1
  I  I108  1  -0.00092508  0.16482271  0.16886967  1
  I  I109  1  -0.00338622  0.16387066  0.49801030  1
  I  I110  1  0.00298978  0.16591276  0.83330928  1
  I  I111  1  -0.00343847  0.50191012  0.16304010  1
  I  I112  1  -0.00082493  0.49707548  0.50147743  1
  I  I113  1  -0.00258288  0.50001165  0.83755970  1
  I  I114  1  -0.00068078  0.83333372  0.16711122  1
  I  I115  1  -0.00391932  0.83930523  0.49389565  1
  I  I116  1  0.00291995  0.83457534  0.83906901  1
  I  I117  1  0.33074064  0.16435763  0.16557725  1
  I  I118  1  0.33520040  0.16962082  0.49912374  1
  I  I119  1  0.32929287  0.16558444  0.83925463  1
  I  I120  1  0.33646473  0.50212520  0.16249774  1
  I  I121  1  0.33395365  0.49701089  0.50069923  1
  I  I122  1  0.33610505  0.49878509  0.83878631  1
  I  I123  1  0.33281790  0.83326752  0.16164248  1
  I  I124  1  0.33357802  0.83392094  0.49945065  1
  I  I125  1  0.32939568  0.83561572  0.83893547  1
  I  I126  1  0.66967638  0.16539663  0.16987815  1
  I  I127  1  0.66857602  0.16492121  0.49261915  1
  I  I128  1  0.66669030  0.16685470  0.83498255  1
  I  I129  1  0.66760350  0.50258020  0.16319754  1
  I  I130  1  0.66693450  0.50075031  0.50081278  1
  I  I131  1  0.66709230  0.49952216  0.83802319  1
  I  I132  1  0.66769003  0.83199619  0.17204007  1
  I  I133  1  0.67081629  0.83395667  0.49412696  1
  I  I134  1  0.66661925  0.83339062  0.83361876  1
