# generated using pymatgen
data_Cs27Sn13Pb14I81
_symmetry_space_group_name_H-M   'P 1'
_cell_length_a   18.99617048
_cell_length_b   18.98105225
_cell_length_c   18.99735741
_cell_angle_alpha   89.99803285
_cell_angle_beta   89.99917520
_cell_angle_gamma   89.99877718
_symmetry_Int_Tables_number   1
_chemical_formula_structural   Cs27Sn13Pb14I81
_chemical_formula_sum   'Cs27 Sn13 Pb14 I81'
_cell_volume   6849.82594380
_cell_formula_units_Z   1
loop_
 _symmetry_equiv_pos_site_id
 _symmetry_equiv_pos_as_xyz
  1  'x, y, z'
loop_
 _atom_site_type_symbol
 _atom_site_label
 _atom_site_symmetry_multiplicity
 _atom_site_fract_x
 _atom_site_fract_y
 _atom_site_fract_z
 _atom_site_occupancy
  Cs  Cs0  1  -0.00199254  -0.00056550  0.00109876  1
  Cs  Cs1  1  -0.00520536  0.01011580  0.33148895  1
  Cs  Cs2  1  -0.00086097  0.00186919  0.66761760  1
  Cs  Cs3  1  0.00015175  0.33415558  -0.00352262  1
  Cs  Cs4  1  0.00056303  0.33059855  0.33423395  1
  Cs  Cs5  1  -0.00001088  0.33587284  0.66889722  1
  Cs  Cs6  1  -0.00039240  0.66664400  -0.00191191  1
  Cs  Cs7  1  0.00229259  0.66556413  0.33234684  1
  Cs  Cs8  1  0.00067604  0.66406825  0.66941584  1
  Cs  Cs9  1  0.33153993  -0.00346114  -0.00291308  1
  Cs  Cs10  1  0.33095014  0.00203939  0.33692115  1
  Cs  Cs11  1  0.33554366  0.00003167  0.66782457  1
  Cs  Cs12  1  0.33872203  0.33148087  0.00124812  1
  Cs  Cs13  1  0.33261475  0.33023549  0.32919580  1
  Cs  Cs14  1  0.33398983  0.33209667  0.66806229  1
  Cs  Cs15  1  0.33285253  0.66861432  0.00159121  1
  Cs  Cs16  1  0.33301516  0.66672505  0.33199113  1
  Cs  Cs17  1  0.33214068  0.66676409  0.66641999  1
  Cs  Cs18  1  0.67014091  0.00084012  0.00079745  1
  Cs  Cs19  1  0.67820412  0.00406222  0.34410897  1
  Cs  Cs20  1  0.66465867  0.00042840  0.65835394  1
  Cs  Cs21  1  0.65875494  0.33113988  0.00206115  1
  Cs  Cs22  1  0.66720438  0.33414279  0.32792139  1
  Cs  Cs23  1  0.66397375  0.33274351  0.66816340  1
  Cs  Cs24  1  0.66672338  0.66799561  0.00027133  1
  Cs  Cs25  1  0.66658926  0.66510869  0.33486961  1
  Cs  Cs26  1  0.66747944  0.66765867  0.66546126  1
  Sn  Sn27  1  0.16584466  0.50061070  0.16723445  1
  Sn  Sn28  1  0.49933233  0.50027914  0.50061496  1
  Sn  Sn29  1  0.16690302  0.50077947  0.49915406  1
  Sn  Sn30  1  0.49947645  0.83222882  0.83403057  1
  Sn  Sn31  1  0.83374415  0.50030096  0.49943258  1
  Sn  Sn32  1  0.16627119  0.83279450  0.49965365  1
  Sn  Sn33  1  0.49977011  0.83363664  0.16679160  1
  Sn  Sn34  1  0.16596842  0.16564650  0.83355586  1
  Sn  Sn35  1  0.16705116  0.83399449  0.83324745  1
  Sn  Sn36  1  0.83376572  0.16664702  0.83334291  1
  Sn  Sn37  1  0.49961925  0.50146710  0.83264610  1
  Sn  Sn38  1  0.83459667  0.50049091  0.16680586  1
  Sn  Sn39  1  0.16722228  0.83276479  0.16716409  1
  Pb  Pb40  1  0.49987647  0.16537424  0.83345700  1
  Pb  Pb41  1  0.49798412  0.83150121  0.49965746  1
  Pb  Pb42  1  0.49945306  0.50157996  0.16697347  1
  Pb  Pb43  1  0.49974993  0.16981034  0.49964845  1
  Pb  Pb44  1  0.16673744  0.16704806  0.50248523  1
  Pb  Pb45  1  0.83344387  0.16992142  0.16427026  1
  Pb  Pb46  1  0.49987710  0.16153439  0.16683289  1
  Pb  Pb47  1  0.83692924  0.83064457  0.49998569  1
  Pb  Pb48  1  0.83286375  0.83526451  0.83318917  1
  Pb  Pb49  1  0.16855346  0.50033035  0.83380598  1
  Pb  Pb50  1  0.83360023  0.17012918  0.50250135  1
  Pb  Pb51  1  0.83363260  0.83130437  0.16674993  1
  Pb  Pb52  1  0.16696995  0.16645388  0.16404393  1
  Pb  Pb53  1  0.83045158  0.49845188  0.83373954  1
  I  I54  1  0.17227427  -0.00382130  0.16879631  1
  I  I55  1  0.16868371  -0.00336577  0.49773120  1
  I  I56  1  0.16900973  -0.00188370  0.83334048  1
  I  I57  1  0.16262775  0.33673113  0.17087617  1
  I  I58  1  0.16644248  0.33733497  0.49696361  1
  I  I59  1  0.16451607  0.33173580  0.83251704  1
  I  I60  1  0.16665486  0.66668403  0.16495384  1
  I  I61  1  0.16677088  0.66572000  0.50220732  1
  I  I62  1  0.16957915  0.66953909  0.83319574  1
  I  I63  1  0.49070560  -0.00613237  0.15602058  1
  I  I64  1  0.49832531  -0.00063034  0.50157884  1
  I  I65  1  0.49745558  -0.00374353  0.83872706  1
  I  I66  1  0.50028364  0.33368520  0.16557173  1
  I  I67  1  0.49691510  0.33899631  0.50797574  1
  I  I68  1  0.49979053  0.33567165  0.82873336  1
  I  I69  1  0.49730004  0.66930853  0.16389299  1
  I  I70  1  0.50181239  0.66315707  0.50234269  1
  I  I71  1  0.49409408  0.66726491  0.83304129  1
  I  I72  1  0.83303722  0.00012121  0.16525123  1
  I  I73  1  0.83336043  0.00016817  0.50053592  1
  I  I74  1  0.83432177  0.00308779  0.83464132  1
  I  I75  1  0.83911208  0.33812561  0.17190483  1
  I  I76  1  0.83660919  0.33822235  0.49612032  1
  I  I77  1  0.84057661  0.33094065  0.83241083  1
  I  I78  1  0.83522821  0.66305642  0.16903177  1
  I  I79  1  0.83043098  0.66237091  0.49833818  1
  I  I80  1  0.83550934  0.66635917  0.83293889  1
  I  I81  1  0.16342360  0.16369719  -0.00382290  1
  I  I82  1  0.16669002  0.16449939  0.33329940  1
  I  I83  1  0.16359044  0.16362377  0.67039515  1
  I  I84  1  0.16289830  0.50291260  0.00264907  1
  I  I85  1  0.16789562  0.50786193  0.33373867  1
  I  I86  1  0.16436605  0.50266354  0.66418461  1
  I  I87  1  0.17102990  0.83281622  -0.00004401  1
  I  I88  1  0.17228235  0.82505947  0.33280623  1
  I  I89  1  0.17035145  0.83245690  0.66710400  1
  I  I90  1  0.50016313  0.17552463  -0.00038752  1
  I  I91  1  0.49964918  0.16870343  0.33319278  1
  I  I92  1  0.50018770  0.16352566  0.66701161  1
  I  I93  1  0.50002206  0.50087391  -0.00210531  1
  I  I94  1  0.50049538  0.50188598  0.33586889  1
  I  I95  1  0.49981986  0.50517856  0.66672771  1
  I  I96  1  0.49068466  0.82578909  -0.00111813  1
  I  I97  1  0.49394595  0.82945601  0.33064706  1
  I  I98  1  0.49524709  0.83138576  0.66943224  1
  I  I99  1  0.83796456  0.16843533  -0.00335193  1
  I  I100  1  0.83246875  0.16464790  0.33346685  1
  I  I101  1  0.83806732  0.16857841  0.66997681  1
  I  I102  1  0.83825085  0.49892149  0.00259246  1
  I  I103  1  0.83165596  0.50128939  0.33374032  1
  I  I104  1  0.83654249  0.49817872  0.66402148  1
  I  I105  1  0.83732431  0.83013793  -0.00009320  1
  I  I106  1  0.83028583  0.83544332  0.33340398  1
  I  I107  1  0.83341164  0.83082575  0.66664924  1
  I  I108  1  0.00022812  0.16240727  0.16650840  1
  I  I109  1  0.00021630  0.16810944  0.50018107  1
  I  I110  1  0.00134686  0.16231742  0.83307372  1
  I  I111  1  0.00137868  0.50547909  0.17364279  1
  I  I112  1  0.00095851  0.50380881  0.49575775  1
  I  I113  1  0.00015812  0.50131358  0.83117898  1
  I  I114  1  0.00384178  0.83025704  0.16466218  1
  I  I115  1  0.00523206  0.82677587  0.50140804  1
  I  I116  1  0.00353777  0.83477650  0.83432976  1
  I  I117  1  0.33317292  0.17538207  0.16348504  1
  I  I118  1  0.33293400  0.16935294  0.50366578  1
  I  I119  1  0.33075979  0.16547018  0.83288330  1
  I  I120  1  0.33042481  0.50226693  0.16930949  1
  I  I121  1  0.33239286  0.50473719  0.50077043  1
  I  I122  1  0.33622106  0.49907841  0.82958256  1
  I  I123  1  0.33172962  0.82547957  0.16410270  1
  I  I124  1  0.32984700  0.82630078  0.50097141  1
  I  I125  1  0.33217021  0.83505703  0.83399889  1
  I  I126  1  0.66674905  0.16962395  0.16167076  1
  I  I127  1  0.66688999  0.16550245  0.50423750  1
  I  I128  1  0.66878080  0.17018534  0.83384997  1
  I  I129  1  0.66836793  0.50071245  0.16930037  1
  I  I130  1  0.66655917  0.49884680  0.50061211  1
  I  I131  1  0.66274466  0.50364843  0.82982628  1
  I  I132  1  0.66358737  0.83008833  0.15807428  1
  I  I133  1  0.66658203  0.83232331  0.50127237  1
  I  I134  1  0.66303999  0.82966410  0.83899041  1
