# generated using pymatgen
data_Cs27Sn14Pb13I81
_symmetry_space_group_name_H-M   'P 1'
_cell_length_a   18.97954353
_cell_length_b   18.96958304
_cell_length_c   18.97830488
_cell_angle_alpha   90.00017306
_cell_angle_beta   90.00063166
_cell_angle_gamma   90.00197094
_symmetry_Int_Tables_number   1
_chemical_formula_structural   Cs27Sn14Pb13I81
_chemical_formula_sum   'Cs27 Sn14 Pb13 I81'
_cell_volume   6832.83552885
_cell_formula_units_Z   1
loop_
 _symmetry_equiv_pos_site_id
 _symmetry_equiv_pos_as_xyz
  1  'x, y, z'
loop_
 _atom_site_type_symbol
 _atom_site_label
 _atom_site_symmetry_multiplicity
 _atom_site_fract_x
 _atom_site_fract_y
 _atom_site_fract_z
 _atom_site_occupancy
  Cs  Cs0  1  0.00293525  -0.00120568  0.00122517  1
  Cs  Cs1  1  0.00034763  0.00109834  0.33329712  1
  Cs  Cs2  1  0.00043404  -0.00078831  0.66580583  1
  Cs  Cs3  1  -0.00144280  0.33441842  0.00360011  1
  Cs  Cs4  1  -0.00023593  0.33509735  0.33413727  1
  Cs  Cs5  1  -0.01244961  0.33892432  0.66254636  1
  Cs  Cs6  1  0.00449615  0.66769732  -0.00233173  1
  Cs  Cs7  1  0.00071078  0.66358532  0.33437989  1
  Cs  Cs8  1  0.00049053  0.66345862  0.66777143  1
  Cs  Cs9  1  0.32973979  0.00211229  -0.00074094  1
  Cs  Cs10  1  0.33370138  0.00127813  0.33488128  1
  Cs  Cs11  1  0.33158051  -0.00068404  0.66458813  1
  Cs  Cs12  1  0.33707175  0.33294737  0.00162733  1
  Cs  Cs13  1  0.33309501  0.33235961  0.33223741  1
  Cs  Cs14  1  0.33702842  0.33300507  0.66587483  1
  Cs  Cs15  1  0.32849750  0.66409574  -0.00594567  1
  Cs  Cs16  1  0.33678072  0.66444786  0.33472464  1
  Cs  Cs17  1  0.33153483  0.66712938  0.67046587  1
  Cs  Cs18  1  0.66785114  -0.00152742  0.00080156  1
  Cs  Cs19  1  0.66489789  -0.00326304  0.33221164  1
  Cs  Cs20  1  0.66866844  -0.00033152  0.66822380  1
  Cs  Cs21  1  0.66471269  0.33355577  -0.00363332  1
  Cs  Cs22  1  0.66586527  0.33349535  0.33324207  1
  Cs  Cs23  1  0.67286232  0.33455918  0.67377175  1
  Cs  Cs24  1  0.66746842  0.66831396  0.00244373  1
  Cs  Cs25  1  0.66290994  0.67044919  0.33073149  1
  Cs  Cs26  1  0.66671199  0.66764546  0.66792946  1
  Sn  Sn27  1  0.16665539  0.16597476  0.16690841  1
  Sn  Sn28  1  0.50029583  0.16704592  0.16741463  1
  Sn  Sn29  1  0.83263518  0.83374652  0.83254439  1
  Sn  Sn30  1  0.83236941  0.49934716  0.16694820  1
  Sn  Sn31  1  0.49991853  0.16757396  0.49965727  1
  Sn  Sn32  1  0.16712088  0.83374581  0.16818862  1
  Sn  Sn33  1  0.83426939  0.83366256  0.50042158  1
  Sn  Sn34  1  0.50061387  0.83392446  0.83345887  1
  Sn  Sn35  1  0.50009006  0.49869854  0.49959116  1
  Sn  Sn36  1  0.50089578  0.49917961  0.16745270  1
  Sn  Sn37  1  0.16578319  0.83377074  0.49879842  1
  Sn  Sn38  1  0.16688661  0.16639679  0.50034292  1
  Sn  Sn39  1  0.83303591  0.16724798  0.16687132  1
  Sn  Sn40  1  0.16623266  0.16724859  0.83246387  1
  Pb  Pb41  1  0.49703910  0.83335826  0.16461577  1
  Pb  Pb42  1  0.83587619  0.16460227  0.83607350  1
  Pb  Pb43  1  0.50004319  0.50214447  0.83360097  1
  Pb  Pb44  1  0.83326086  0.50272267  0.83641420  1
  Pb  Pb45  1  0.49945228  0.83376423  0.50158848  1
  Pb  Pb46  1  0.49861570  0.16489388  0.83308525  1
  Pb  Pb47  1  0.16654530  0.49553306  0.83288990  1
  Pb  Pb48  1  0.16892638  0.49940976  0.50005471  1
  Pb  Pb49  1  0.83291722  0.16497198  0.49788926  1
  Pb  Pb50  1  0.16622952  0.83473100  0.83263403  1
  Pb  Pb51  1  0.16724480  0.49944364  0.16674838  1
  Pb  Pb52  1  0.83034354  0.50282447  0.49750158  1
  Pb  Pb53  1  0.83550222  0.83314425  0.16689357  1
  I  I54  1  0.16615149  0.00162390  0.16656845  1
  I  I55  1  0.16945510  0.00073165  0.49851576  1
  I  I56  1  0.16735525  0.00254560  0.83552651  1
  I  I57  1  0.16651810  0.32950337  0.16727512  1
  I  I58  1  0.16964903  0.32935884  0.49725560  1
  I  I59  1  0.16993933  0.32771606  0.83722159  1
  I  I60  1  0.16567845  0.66936727  0.16985166  1
  I  I61  1  0.16441059  0.66990467  0.49528527  1
  I  I62  1  0.16711878  0.66697631  0.83498264  1
  I  I63  1  0.50205872  0.00322113  0.17040723  1
  I  I64  1  0.49806527  0.00288296  0.49575462  1
  I  I65  1  0.50290270  -0.00287568  0.83343720  1
  I  I66  1  0.49767270  0.33205308  0.16960163  1
  I  I67  1  0.49236185  0.33191843  0.49501977  1
  I  I68  1  0.49695871  0.33310298  0.83366398  1
  I  I69  1  0.50418487  0.66408930  0.17020437  1
  I  I70  1  0.50101988  0.66470437  0.49584704  1
  I  I71  1  0.50209402  0.67018496  0.83309875  1
  I  I72  1  0.83163607  0.00253701  0.16652325  1
  I  I73  1  0.83270832  -0.00302615  0.50045995  1
  I  I74  1  0.82967633  -0.00328995  0.83225044  1
  I  I75  1  0.83605163  0.33221278  0.16713857  1
  I  I76  1  0.83665085  0.33332309  0.50041353  1
  I  I77  1  0.83529278  0.33311889  0.83207131  1
  I  I78  1  0.82890812  0.66452958  0.16681596  1
  I  I79  1  0.83874131  0.67069500  0.50178952  1
  I  I80  1  0.83065190  0.67080793  0.83146131  1
  I  I81  1  0.16661377  0.16132582  0.00182215  1
  I  I82  1  0.16813065  0.16152588  0.33296039  1
  I  I83  1  0.17417885  0.15958953  0.66507880  1
  I  I84  1  0.16851697  0.50360703  0.00032794  1
  I  I85  1  0.16446474  0.49883529  0.33321436  1
  I  I86  1  0.17032904  0.50367026  0.66631368  1
  I  I87  1  0.16681284  0.83758606  0.00205086  1
  I  I88  1  0.16151441  0.84171415  0.33388552  1
  I  I89  1  0.16674884  0.83841183  0.66375121  1
  I  I90  1  0.49825874  0.16942925  0.00333871  1
  I  I91  1  0.49481242  0.16920825  0.33256672  1
  I  I92  1  0.49373829  0.16829536  0.66347863  1
  I  I93  1  0.50296669  0.49582250  0.00354136  1
  I  I94  1  0.50294236  0.49737226  0.33234403  1
  I  I95  1  0.49745346  0.49668609  0.66365296  1
  I  I96  1  0.50479960  0.83396498  -0.00272814  1
  I  I97  1  0.50247485  0.83265956  0.33320141  1
  I  I98  1  0.49888359  0.83365612  0.66913454  1
  I  I99  1  0.83275558  0.16750145  0.00439988  1
  I  I100  1  0.83792892  0.16700305  0.32969095  1
  I  I101  1  0.83361934  0.16638109  0.66656279  1
  I  I102  1  0.82683869  0.49710386  0.00435019  1
  I  I103  1  0.83269887  0.49801166  0.32976130  1
  I  I104  1  0.83233202  0.49918182  0.66640254  1
  I  I105  1  0.83122438  0.83351822  -0.00165253  1
  I  I106  1  0.83591415  0.83371015  0.33545306  1
  I  I107  1  0.83510473  0.83485016  0.66618577  1
  I  I108  1  0.00092041  0.16572021  0.16588452  1
  I  I109  1  0.00292398  0.16243787  0.49868431  1
  I  I110  1  0.00383345  0.16196538  0.83364779  1
  I  I111  1  -0.00224209  0.49733114  0.16511454  1
  I  I112  1  -0.00039127  0.49842101  0.49914001  1
  I  I113  1  -0.00025202  0.50397395  0.83566940  1
  I  I114  1  0.00321085  0.83811135  0.16508082  1
  I  I115  1  0.00111702  0.83973660  0.50138136  1
  I  I116  1  -0.00209055  0.83525778  0.83367073  1
  I  I117  1  0.33314607  0.16633621  0.16679014  1
  I  I118  1  0.33280119  0.16392500  0.49532240  1
  I  I119  1  0.33063333  0.16159091  0.83832562  1
  I  I120  1  0.33656024  0.49722530  0.17020347  1
  I  I121  1  0.33684561  0.50117641  0.49218292  1
  I  I122  1  0.33356166  0.50633972  0.83650372  1
  I  I123  1  0.32937327  0.83833492  0.17108248  1
  I  I124  1  0.33058666  0.83503995  0.49778470  1
  I  I125  1  0.33467757  0.83411769  0.83396534  1
  I  I126  1  0.66579942  0.17025321  0.17117639  1
  I  I127  1  0.66364447  0.16752211  0.49432902  1
  I  I128  1  0.66695942  0.16598005  0.83377559  1
  I  I129  1  0.66575700  0.49340035  0.17016066  1
  I  I130  1  0.66266503  0.49507200  0.49750413  1
  I  I131  1  0.66662646  0.49805421  0.83174479  1
  I  I132  1  0.66654917  0.83575292  0.16779325  1
  I  I133  1  0.66846520  0.83316163  0.50249718  1
  I  I134  1  0.66728645  0.83424177  0.82813611  1
