# generated using pymatgen
data_Cs27Sn14Pb13I81
_symmetry_space_group_name_H-M   'P 1'
_cell_length_a   18.98039398
_cell_length_b   18.98362914
_cell_length_c   18.96852058
_cell_angle_alpha   89.99946924
_cell_angle_beta   90.00058513
_cell_angle_gamma   90.00049841
_symmetry_Int_Tables_number   1
_chemical_formula_structural   Cs27Sn14Pb13I81
_chemical_formula_sum   'Cs27 Sn14 Pb13 I81'
_cell_volume   6834.67588014
_cell_formula_units_Z   1
loop_
 _symmetry_equiv_pos_site_id
 _symmetry_equiv_pos_as_xyz
  1  'x, y, z'
loop_
 _atom_site_type_symbol
 _atom_site_label
 _atom_site_symmetry_multiplicity
 _atom_site_fract_x
 _atom_site_fract_y
 _atom_site_fract_z
 _atom_site_occupancy
  Cs  Cs0  1  0.00160635  -0.00013925  -0.00018907  1
  Cs  Cs1  1  -0.00248132  0.00191377  0.33450700  1
  Cs  Cs2  1  -0.00007322  -0.00085271  0.66721169  1
  Cs  Cs3  1  0.00439926  0.33478619  -0.00162389  1
  Cs  Cs4  1  -0.00650467  0.33085887  0.34468301  1
  Cs  Cs5  1  -0.00376828  0.33496276  0.66224154  1
  Cs  Cs6  1  0.00110511  0.66562531  0.00076413  1
  Cs  Cs7  1  0.00071608  0.66619455  0.33300995  1
  Cs  Cs8  1  -0.00117799  0.66602818  0.66515017  1
  Cs  Cs9  1  0.33224679  -0.00017518  -0.00152016  1
  Cs  Cs10  1  0.33281180  -0.00016752  0.33486729  1
  Cs  Cs11  1  0.33373145  -0.00151160  0.66838630  1
  Cs  Cs12  1  0.33096396  0.33370261  0.00006509  1
  Cs  Cs13  1  0.34256565  0.33483068  0.33855112  1
  Cs  Cs14  1  0.33431592  0.33330056  0.66496435  1
  Cs  Cs15  1  0.33200186  0.66694353  -0.00067167  1
  Cs  Cs16  1  0.33273654  0.66596710  0.33426343  1
  Cs  Cs17  1  0.33361490  0.66867222  0.66689899  1
  Cs  Cs18  1  0.66670748  -0.00070730  -0.00039952  1
  Cs  Cs19  1  0.66994693  0.00490234  0.33092744  1
  Cs  Cs20  1  0.66606070  -0.00293022  0.66853391  1
  Cs  Cs21  1  0.66712157  0.33612835  0.00530547  1
  Cs  Cs22  1  0.66443344  0.33184256  0.33471351  1
  Cs  Cs23  1  0.67023960  0.33583920  0.66241976  1
  Cs  Cs24  1  0.66884299  0.66633770  0.00100610  1
  Cs  Cs25  1  0.66675164  0.66305217  0.32940697  1
  Cs  Cs26  1  0.66686777  0.66924519  0.66816239  1
  Sn  Sn27  1  0.16656826  0.16678168  0.83345835  1
  Sn  Sn28  1  0.16767475  0.50011467  0.83349424  1
  Sn  Sn29  1  0.49924416  0.49999127  0.83356093  1
  Sn  Sn30  1  0.16659055  0.49922825  0.16631797  1
  Sn  Sn31  1  0.50024229  0.16715024  0.83361892  1
  Sn  Sn32  1  0.83229553  0.83324258  0.50066233  1
  Sn  Sn33  1  0.49914482  0.83360881  0.16650292  1
  Sn  Sn34  1  0.16682021  0.16722072  0.16632759  1
  Sn  Sn35  1  0.83335836  0.16600192  0.83393610  1
  Sn  Sn36  1  0.50007569  0.83329543  0.83371746  1
  Sn  Sn37  1  0.83357234  0.83409451  0.83287748  1
  Sn  Sn38  1  0.50112729  0.83347941  0.49947166  1
  Sn  Sn39  1  0.16758740  0.83355600  0.16578496  1
  Sn  Sn40  1  0.16633188  0.83313063  0.83395884  1
  Pb  Pb41  1  0.49996881  0.50267328  0.50262131  1
  Pb  Pb42  1  0.83305186  0.16393524  0.50271659  1
  Pb  Pb43  1  0.49774410  0.16458870  0.16437875  1
  Pb  Pb44  1  0.16695503  0.16653957  0.50016847  1
  Pb  Pb45  1  0.16663020  0.83338647  0.49977360  1
  Pb  Pb46  1  0.16690173  0.50006539  0.50004994  1
  Pb  Pb47  1  0.83347983  0.50000122  0.83355498  1
  Pb  Pb48  1  0.83590908  0.16673698  0.16391425  1
  Pb  Pb49  1  0.49786126  0.50208127  0.16436447  1
  Pb  Pb50  1  0.50000872  0.16402035  0.50255895  1
  Pb  Pb51  1  0.83360839  0.83331347  0.16632753  1
  Pb  Pb52  1  0.83295986  0.50316151  0.50000718  1
  Pb  Pb53  1  0.83632627  0.49962676  0.16645734  1
  I  I54  1  0.17021893  -0.00085460  0.15908173  1
  I  I55  1  0.16684045  -0.00037937  0.50099063  1
  I  I56  1  0.16835859  -0.00060276  0.83774251  1
  I  I57  1  0.16468843  0.33321453  0.15517260  1
  I  I58  1  0.16544162  0.33332937  0.50164497  1
  I  I59  1  0.16953285  0.33301721  0.83945477  1
  I  I60  1  0.17021883  0.66765459  0.15962796  1
  I  I61  1  0.16585468  0.66705461  0.50135940  1
  I  I62  1  0.16919289  0.66761119  0.83799868  1
  I  I63  1  0.49425689  -0.00402019  0.16352076  1
  I  I64  1  0.50235099  -0.00450455  0.50365737  1
  I  I65  1  0.49765413  -0.00142213  0.83269952  1
  I  I66  1  0.49849208  0.33332453  0.16451352  1
  I  I67  1  0.49871271  0.33334539  0.50131696  1
  I  I68  1  0.49559113  0.33301970  0.83380224  1
  I  I69  1  0.49451499  0.67069012  0.16402806  1
  I  I70  1  0.50266895  0.67119627  0.50363467  1
  I  I71  1  0.49711495  0.66836292  0.83251551  1
  I  I72  1  0.83630341  -0.00030038  0.16846811  1
  I  I73  1  0.83006720  -0.00400603  0.50278701  1
  I  I74  1  0.83409143  -0.00140012  0.82966662  1
  I  I75  1  0.83401920  0.33312506  0.16286474  1
  I  I76  1  0.83571882  0.33300554  0.50176246  1
  I  I77  1  0.83445603  0.33021756  0.83496175  1
  I  I78  1  0.83590419  0.66713341  0.16437272  1
  I  I79  1  0.83086073  0.67144842  0.50947393  1
  I  I80  1  0.83331165  0.67013385  0.82949720  1
  I  I81  1  0.16654521  0.16538711  -0.00207253  1
  I  I82  1  0.16647427  0.16350591  0.32985532  1
  I  I83  1  0.16678629  0.16510035  0.67148077  1
  I  I84  1  0.17026541  0.50109462  -0.00168712  1
  I  I85  1  0.16544722  0.50404499  0.32977969  1
  I  I86  1  0.16972289  0.50117460  0.67091031  1
  I  I87  1  0.16901378  0.83343598  -0.00146125  1
  I  I88  1  0.16960555  0.83275776  0.32975556  1
  I  I89  1  0.16906140  0.83376706  0.67033435  1
  I  I90  1  0.50127195  0.16264705  -0.00453742  1
  I  I91  1  0.49686603  0.16431065  0.33305217  1
  I  I92  1  0.49581075  0.16361010  0.67181032  1
  I  I93  1  0.49785823  0.50312217  -0.00418752  1
  I  I94  1  0.49731631  0.50285139  0.33307205  1
  I  I95  1  0.49275200  0.50220797  0.67142085  1
  I  I96  1  0.49896207  0.83359904  -0.00185549  1
  I  I97  1  0.49812777  0.83294454  0.33295391  1
  I  I98  1  0.50002343  0.83336433  0.66892804  1
  I  I99  1  0.83149609  0.15725198  -0.00466645  1
  I  I100  1  0.83693517  0.16466883  0.33339318  1
  I  I101  1  0.83717395  0.16470388  0.67133901  1
  I  I102  1  0.83097093  0.50461452  -0.00063539  1
  I  I103  1  0.83677764  0.50350635  0.33334188  1
  I  I104  1  0.83692754  0.49801898  0.66730442  1
  I  I105  1  0.83140006  0.83671813  -0.00358644  1
  I  I106  1  0.83101292  0.83170646  0.33595204  1
  I  I107  1  0.83059821  0.83684447  0.66891517  1
  I  I108  1  0.00468703  0.16158367  0.15944329  1
  I  I109  1  -0.00008791  0.16349045  0.50205995  1
  I  I110  1  0.00102622  0.16241049  0.83708374  1
  I  I111  1  0.00539577  0.50623546  0.15648981  1
  I  I112  1  0.00004898  0.50270992  0.50230869  1
  I  I113  1  0.00352666  0.50110626  0.83760355  1
  I  I114  1  0.00368950  0.83283537  0.16275486  1
  I  I115  1  -0.00250899  0.83380387  0.50509992  1
  I  I116  1  0.00080703  0.83568985  0.83302082  1
  I  I117  1  0.32942500  0.16694317  0.15845393  1
  I  I118  1  0.33352835  0.16318316  0.50381362  1
  I  I119  1  0.33279051  0.16314420  0.83642310  1
  I  I120  1  0.32950004  0.49939654  0.16253938  1
  I  I121  1  0.33349483  0.50364275  0.49987992  1
  I  I122  1  0.33244377  0.50185088  0.83648384  1
  I  I123  1  0.33233284  0.83329721  0.16254698  1
  I  I124  1  0.33619226  0.83305861  0.50403319  1
  I  I125  1  0.33359607  0.83489775  0.83309308  1
  I  I126  1  0.66639998  0.16339693  0.16449323  1
  I  I127  1  0.66657960  0.16725949  0.50143807  1
  I  I128  1  0.66621894  0.16078335  0.83128504  1
  I  I129  1  0.66609711  0.50377833  0.16424148  1
  I  I130  1  0.66635913  0.49944965  0.50340505  1
  I  I131  1  0.66364881  0.50211457  0.83166158  1
  I  I132  1  0.66372352  0.83300480  0.16263396  1
  I  I133  1  0.66601600  0.83332396  0.50733609  1
  I  I134  1  0.66560808  0.83557952  0.83262958  1
