# generated using pymatgen
data_Cs27Sn13Pb14I81
_symmetry_space_group_name_H-M   'P 1'
_cell_length_a   18.97808387
_cell_length_b   18.97848071
_cell_length_c   18.97420731
_cell_angle_alpha   90.00064920
_cell_angle_beta   90.00082290
_cell_angle_gamma   90.00000359
_symmetry_Int_Tables_number   1
_chemical_formula_structural   Cs27Sn13Pb14I81
_chemical_formula_sum   'Cs27 Sn13 Pb14 I81'
_cell_volume   6834.03888522
_cell_formula_units_Z   1
loop_
 _symmetry_equiv_pos_site_id
 _symmetry_equiv_pos_as_xyz
  1  'x, y, z'
loop_
 _atom_site_type_symbol
 _atom_site_label
 _atom_site_symmetry_multiplicity
 _atom_site_fract_x
 _atom_site_fract_y
 _atom_site_fract_z
 _atom_site_occupancy
  Cs  Cs0  1  -0.00167169  -0.00197489  -0.00070691  1
  Cs  Cs1  1  0.00202820  0.00100241  0.33018465  1
  Cs  Cs2  1  -0.00050768  0.00083329  0.66971107  1
  Cs  Cs3  1  0.00165002  0.33381907  -0.00095351  1
  Cs  Cs4  1  0.00900465  0.33515023  0.33473232  1
  Cs  Cs5  1  -0.00178932  0.33470918  0.66625560  1
  Cs  Cs6  1  -0.00077851  0.66965476  -0.00002254  1
  Cs  Cs7  1  -0.00139308  0.66469817  0.33745838  1
  Cs  Cs8  1  -0.00108667  0.66353697  0.66519236  1
  Cs  Cs9  1  0.33198298  -0.00104400  -0.00022747  1
  Cs  Cs10  1  0.32973689  -0.00132653  0.33529688  1
  Cs  Cs11  1  0.33468707  -0.00139628  0.66436661  1
  Cs  Cs12  1  0.33462868  0.34236637  0.00679214  1
  Cs  Cs13  1  0.33005508  0.33299147  0.32479336  1
  Cs  Cs14  1  0.33353444  0.33251940  0.66830952  1
  Cs  Cs15  1  0.33503123  0.66139940  -0.00054894  1
  Cs  Cs16  1  0.33141824  0.67062578  0.33370762  1
  Cs  Cs17  1  0.33641951  0.66870158  0.66731778  1
  Cs  Cs18  1  0.66932396  0.00042280  0.00104737  1
  Cs  Cs19  1  0.66778781  0.00038580  0.33028221  1
  Cs  Cs20  1  0.66557895  0.00162094  0.66729905  1
  Cs  Cs21  1  0.66469633  0.33283007  0.00222836  1
  Cs  Cs22  1  0.66489686  0.33354587  0.33646903  1
  Cs  Cs23  1  0.66853141  0.33077019  0.66428484  1
  Cs  Cs24  1  0.66595238  0.66645216  0.00021892  1
  Cs  Cs25  1  0.66877565  0.66632953  0.33438910  1
  Cs  Cs26  1  0.66523815  0.66713936  0.66588686  1
  Sn  Sn27  1  0.50047495  0.16767063  0.50049749  1
  Sn  Sn28  1  0.49921929  0.83368446  0.16637140  1
  Sn  Sn29  1  0.83334811  0.49952512  0.16614403  1
  Sn  Sn30  1  0.83294367  0.16563199  0.50037860  1
  Sn  Sn31  1  0.83318056  0.16678323  0.83287595  1
  Sn  Sn32  1  0.16758193  0.83335831  0.16558119  1
  Sn  Sn33  1  0.16621653  0.83392586  0.83388416  1
  Sn  Sn34  1  0.83297243  0.49987110  0.83438276  1
  Sn  Sn35  1  0.83379392  0.83319366  0.83241262  1
  Sn  Sn36  1  0.49981896  0.16669705  0.83321754  1
  Sn  Sn37  1  0.16693011  0.16618105  0.83343905  1
  Sn  Sn38  1  0.83330322  0.83471815  0.50100102  1
  Sn  Sn39  1  0.49972984  0.49905284  0.50012814  1
  Pb  Pb40  1  0.50008233  0.16473028  0.16700846  1
  Pb  Pb41  1  0.50014300  0.83525604  0.83485218  1
  Pb  Pb42  1  0.16409203  0.50313454  0.16645375  1
  Pb  Pb43  1  0.83381582  0.83196791  0.16651179  1
  Pb  Pb44  1  0.16678484  0.16669620  0.50243249  1
  Pb  Pb45  1  0.50227236  0.83432128  0.49814500  1
  Pb  Pb46  1  0.50258798  0.49725720  0.83154882  1
  Pb  Pb47  1  0.83341682  0.16932140  0.16708526  1
  Pb  Pb48  1  0.50198376  0.50232060  0.16904175  1
  Pb  Pb49  1  0.83241813  0.49924311  0.50035367  1
  Pb  Pb50  1  0.17060809  0.49982445  0.50029884  1
  Pb  Pb51  1  0.16659267  0.16436412  0.16344592  1
  Pb  Pb52  1  0.16369882  0.83349366  0.50097603  1
  Pb  Pb53  1  0.16463492  0.50033917  0.83313870  1
  I  I54  1  0.16804135  -0.00374079  0.16559731  1
  I  I55  1  0.17105265  -0.00006767  0.49722544  1
  I  I56  1  0.16067984  -0.00025010  0.83714822  1
  I  I57  1  0.16591434  0.33357848  0.16651997  1
  I  I58  1  0.15947557  0.33303327  0.50239201  1
  I  I59  1  0.16469727  0.33010476  0.83055752  1
  I  I60  1  0.17053658  0.67093500  0.15876939  1
  I  I61  1  0.16504067  0.66701207  0.50166798  1
  I  I62  1  0.16125890  0.67031893  0.83731468  1
  I  I63  1  0.49880737  -0.00317036  0.16812477  1
  I  I64  1  0.50271738  0.00328858  0.50345640  1
  I  I65  1  0.50459349  0.00339279  0.82760904  1
  I  I66  1  0.50143839  0.33342573  0.16504147  1
  I  I67  1  0.50875409  0.33172229  0.50464512  1
  I  I68  1  0.49995619  0.32894273  0.83226854  1
  I  I69  1  0.49739297  0.67004791  0.16738733  1
  I  I70  1  0.50348360  0.66521379  0.49732186  1
  I  I71  1  0.50042054  0.66663502  0.83234282  1
  I  I72  1  0.83327179  -0.00013701  0.16524673  1
  I  I73  1  0.82781591  0.00065484  0.50739846  1
  I  I74  1  0.83404068  0.00017245  0.82905072  1
  I  I75  1  0.83107503  0.33693365  0.16180759  1
  I  I76  1  0.83008760  0.33024491  0.50437386  1
  I  I77  1  0.83345761  0.33198714  0.83262832  1
  I  I78  1  0.83291808  0.66436523  0.16310580  1
  I  I79  1  0.83192069  0.66861734  0.50242759  1
  I  I80  1  0.83825233  0.66779113  0.83311224  1
  I  I81  1  0.16420737  0.16437376  -0.00493365  1
  I  I82  1  0.16610787  0.16586532  0.33332240  1
  I  I83  1  0.16567484  0.15916313  0.67074593  1
  I  I84  1  0.16872932  0.49719434  -0.00023552  1
  I  I85  1  0.16162010  0.50189213  0.33313486  1
  I  I86  1  0.16239900  0.50300001  0.66703061  1
  I  I87  1  0.16300241  0.83830244  -0.00136320  1
  I  I88  1  0.16920940  0.83168843  0.33080677  1
  I  I89  1  0.16396570  0.83768312  0.67046209  1
  I  I90  1  0.50272440  0.16343979  -0.00327418  1
  I  I91  1  0.50711069  0.16897157  0.33687274  1
  I  I92  1  0.50224394  0.16884849  0.66695555  1
  I  I93  1  0.49989784  0.49914686  -0.00005409  1
  I  I94  1  0.50513078  0.49325236  0.33664002  1
  I  I95  1  0.50372600  0.50060579  0.66376950  1
  I  I96  1  0.50205094  0.83513520  0.00255868  1
  I  I97  1  0.49661954  0.83415512  0.33037894  1
  I  I98  1  0.49811447  0.83129911  0.66665256  1
  I  I99  1  0.83248532  0.16311391  -0.00381562  1
  I  I100  1  0.82674266  0.16237751  0.33694840  1
  I  I101  1  0.83261160  0.16740435  0.66801093  1
  I  I102  1  0.83305612  0.50137828  -0.00164601  1
  I  I103  1  0.83076229  0.50315608  0.33177077  1
  I  I104  1  0.83251031  0.50026956  0.66954447  1
  I  I105  1  0.83417428  0.83587653  -0.00316441  1
  I  I106  1  0.83201995  0.83514373  0.33572489  1
  I  I107  1  0.83760276  0.83191277  0.66820629  1
  I  I108  1  -0.00016606  0.16440688  0.16764522  1
  I  I109  1  -0.00346531  0.16264092  0.50390985  1
  I  I110  1  -0.00135046  0.16555775  0.83025168  1
  I  I111  1  -0.00378307  0.50180081  0.16360619  1
  I  I112  1  -0.00036333  0.50058229  0.49903237  1
  I  I113  1  -0.00414479  0.49633294  0.83537893  1
  I  I114  1  0.00223513  0.83185620  0.16442123  1
  I  I115  1  -0.00452653  0.83779688  0.49897980  1
  I  I116  1  -0.00116686  0.83803105  0.83601970  1
  I  I117  1  0.33337715  0.16795437  0.16695786  1
  I  I118  1  0.33668135  0.17022393  0.50474845  1
  I  I119  1  0.33347530  0.15946800  0.82819915  1
  I  I120  1  0.33338462  0.49938605  0.16838914  1
  I  I121  1  0.33849944  0.49440839  0.50013046  1
  I  I122  1  0.33371525  0.50034310  0.83153115  1
  I  I123  1  0.33267136  0.83417237  0.16191138  1
  I  I124  1  0.33341134  0.83237370  0.50105684  1
  I  I125  1  0.33066416  0.83849565  0.83581899  1
  I  I126  1  0.66683925  0.16254550  0.16168348  1
  I  I127  1  0.66732929  0.16648256  0.50831021  1
  I  I128  1  0.66781365  0.16631695  0.82899289  1
  I  I129  1  0.66961623  0.50398930  0.16199342  1
  I  I130  1  0.66475645  0.49859748  0.50023303  1
  I  I131  1  0.67090368  0.50234287  0.83646738  1
  I  I132  1  0.66531946  0.83179492  0.16737920  1
  I  I133  1  0.67028920  0.83396842  0.50422067  1
  I  I134  1  0.67000666  0.83410238  0.83176916  1
