# generated using pymatgen
data_Cs27Sn14Pb13I81
_symmetry_space_group_name_H-M   'P 1'
_cell_length_a   18.97869696
_cell_length_b   18.96247486
_cell_length_c   18.98846123
_cell_angle_alpha   89.99811263
_cell_angle_beta   90.00065686
_cell_angle_gamma   89.99889679
_symmetry_Int_Tables_number   1
_chemical_formula_structural   Cs27Sn14Pb13I81
_chemical_formula_sum   'Cs27 Sn14 Pb13 I81'
_cell_volume   6833.62560377
_cell_formula_units_Z   1
loop_
 _symmetry_equiv_pos_site_id
 _symmetry_equiv_pos_as_xyz
  1  'x, y, z'
loop_
 _atom_site_type_symbol
 _atom_site_label
 _atom_site_symmetry_multiplicity
 _atom_site_fract_x
 _atom_site_fract_y
 _atom_site_fract_z
 _atom_site_occupancy
  Cs  Cs0  1  0.00156156  -0.00682060  0.00214776  1
  Cs  Cs1  1  -0.00069449  -0.00596458  0.33008603  1
  Cs  Cs2  1  0.00079900  0.00026558  0.66705824  1
  Cs  Cs3  1  0.00036331  0.33396062  0.00088558  1
  Cs  Cs4  1  -0.00103930  0.33464789  0.33507197  1
  Cs  Cs5  1  0.00095866  0.33252363  0.66427709  1
  Cs  Cs6  1  -0.00169255  0.67109915  -0.00055110  1
  Cs  Cs7  1  0.00010504  0.66539303  0.33149572  1
  Cs  Cs8  1  0.00038494  0.67105749  0.66980607  1
  Cs  Cs9  1  0.33496697  -0.00033437  0.00177648  1
  Cs  Cs10  1  0.33161475  -0.00064453  0.32905322  1
  Cs  Cs11  1  0.33448301  0.00045579  0.66837583  1
  Cs  Cs12  1  0.33289681  0.33325019  0.00287855  1
  Cs  Cs13  1  0.33192426  0.33406824  0.33015237  1
  Cs  Cs14  1  0.32949369  0.33248924  0.66668458  1
  Cs  Cs15  1  0.33508215  0.66688794  -0.00069996  1
  Cs  Cs16  1  0.33652209  0.66570275  0.33956645  1
  Cs  Cs17  1  0.33491252  0.66820009  0.66253322  1
  Cs  Cs18  1  0.66369228  -0.00030565  0.00056116  1
  Cs  Cs19  1  0.66821481  -0.00047604  0.33428797  1
  Cs  Cs20  1  0.66528478  0.00267623  0.66565387  1
  Cs  Cs21  1  0.66679191  0.33511608  0.00039091  1
  Cs  Cs22  1  0.66982555  0.33268534  0.33209545  1
  Cs  Cs23  1  0.66847179  0.33155992  0.66761574  1
  Cs  Cs24  1  0.66648451  0.66642935  -0.00386785  1
  Cs  Cs25  1  0.66445554  0.66946952  0.33662275  1
  Cs  Cs26  1  0.66428646  0.66698753  0.66849354  1
  Sn  Sn27  1  0.49953307  0.16711238  0.50030856  1
  Sn  Sn28  1  0.16652293  0.16735643  0.83319535  1
  Sn  Sn29  1  0.83372199  0.16716437  0.16660606  1
  Sn  Sn30  1  0.83410733  0.49936390  0.49969315  1
  Sn  Sn31  1  0.83411788  0.49918461  0.16721046  1
  Sn  Sn32  1  0.83389424  0.16712244  0.49982360  1
  Sn  Sn33  1  0.49989056  0.83411808  0.83409133  1
  Sn  Sn34  1  0.83380257  0.16690244  0.83366527  1
  Sn  Sn35  1  0.16660293  0.49925305  0.83309706  1
  Sn  Sn36  1  0.16653181  0.16692268  0.50022967  1
  Sn  Sn37  1  0.50007639  0.83325256  0.16611114  1
  Sn  Sn38  1  0.16596700  0.49971541  0.16673197  1
  Sn  Sn39  1  0.49973981  0.16656080  0.83290113  1
  Sn  Sn40  1  0.16541283  0.49903972  0.50024197  1
  Pb  Pb41  1  0.83353989  0.83284393  0.50012645  1
  Pb  Pb42  1  0.16906940  0.82964672  0.16673827  1
  Pb  Pb43  1  0.83132290  0.83242667  0.16669703  1
  Pb  Pb44  1  0.49996653  0.83643133  0.50047295  1
  Pb  Pb45  1  0.83071071  0.83645466  0.83314878  1
  Pb  Pb46  1  0.50230329  0.16568076  0.16659237  1
  Pb  Pb47  1  0.50042282  0.49689567  0.50012049  1
  Pb  Pb48  1  0.50087947  0.50223206  0.16676562  1
  Pb  Pb49  1  0.16419633  0.16813027  0.16671876  1
  Pb  Pb50  1  0.16641362  0.83359310  0.50007221  1
  Pb  Pb51  1  0.16897424  0.83391298  0.83324311  1
  Pb  Pb52  1  0.49738076  0.49897564  0.83314357  1
  Pb  Pb53  1  0.83559317  0.49804397  0.83294077  1
  I  I54  1  0.16543730  0.00006351  0.16674426  1
  I  I55  1  0.16640712  0.00434608  0.50602159  1
  I  I56  1  0.16465633  0.00403024  0.82771490  1
  I  I57  1  0.16700674  0.33642348  0.16632343  1
  I  I58  1  0.16625418  0.33282176  0.50149995  1
  I  I59  1  0.16924872  0.33208965  0.83204687  1
  I  I60  1  0.15911681  0.66133403  0.16632023  1
  I  I61  1  0.16244875  0.66256742  0.50043142  1
  I  I62  1  0.16801760  0.66346036  0.83267833  1
  I  I63  1  0.50201221  -0.00217911  0.16514939  1
  I  I64  1  0.50101501  0.00475768  0.50179807  1
  I  I65  1  0.49869121  0.00209137  0.83326913  1
  I  I66  1  0.49877247  0.33338643  0.16597697  1
  I  I67  1  0.50046856  0.32884420  0.50678996  1
  I  I68  1  0.50216831  0.32928827  0.82878982  1
  I  I69  1  0.50068223  0.67007791  0.15901986  1
  I  I70  1  0.49976198  0.66663908  0.50016886  1
  I  I71  1  0.49831628  0.66911976  0.83839500  1
  I  I72  1  0.83138533  0.00302938  0.16762143  1
  I  I73  1  0.83301357  0.00441461  0.49959686  1
  I  I74  1  0.83895369  0.00547290  0.83254378  1
  I  I75  1  0.83523312  0.33316255  0.16786930  1
  I  I76  1  0.83380582  0.33195507  0.49904891  1
  I  I77  1  0.82712726  0.32937876  0.83331560  1
  I  I78  1  0.83676320  0.66272903  0.17208287  1
  I  I79  1  0.83830883  0.66255222  0.49373305  1
  I  I80  1  0.83303722  0.66643232  0.83370076  1
  I  I81  1  0.16807302  0.17108657  -0.00289784  1
  I  I82  1  0.16867793  0.17055328  0.33640486  1
  I  I83  1  0.16409390  0.17355128  0.66673485  1
  I  I84  1  0.16440912  0.49547461  -0.00020140  1
  I  I85  1  0.16333219  0.49601654  0.33409539  1
  I  I86  1  0.16387635  0.49483169  0.66596278  1
  I  I87  1  0.16596956  0.83391442  -0.00003657  1
  I  I88  1  0.17084278  0.83576926  0.33324627  1
  I  I89  1  0.17013353  0.82846439  0.66679763  1
  I  I90  1  0.49962868  0.16429474  -0.00300941  1
  I  I91  1  0.49975851  0.16559996  0.33610821  1
  I  I92  1  0.50364830  0.16133661  0.66734687  1
  I  I93  1  0.49930518  0.49596797  -0.00007182  1
  I  I94  1  0.49467635  0.50123622  0.33343598  1
  I  I95  1  0.50135649  0.50630135  0.66668562  1
  I  I96  1  0.49983498  0.84035845  -0.00114805  1
  I  I97  1  0.50071885  0.83306362  0.33114115  1
  I  I98  1  0.49926621  0.83629575  0.66963546  1
  I  I99  1  0.83174358  0.17083035  -0.00017167  1
  I  I100  1  0.83171605  0.17050646  0.33414128  1
  I  I101  1  0.83204855  0.16987341  0.66623576  1
  I  I102  1  0.83687988  0.49544428  0.00250231  1
  I  I103  1  0.84121598  0.49095494  0.33356960  1
  I  I104  1  0.83643484  0.49517207  0.66363410  1
  I  I105  1  0.83403855  0.83337437  -0.00007725  1
  I  I106  1  0.82884915  0.83912415  0.33325998  1
  I  I107  1  0.83038446  0.83181352  0.66675889  1
  I  I108  1  -0.00396720  0.16809332  0.16633661  1
  I  I109  1  -0.00008818  0.17141220  0.50395137  1
  I  I110  1  0.00034496  0.17277044  0.82979168  1
  I  I111  1  -0.00023110  0.49506588  0.16798614  1
  I  I112  1  0.00039340  0.49077381  0.49832504  1
  I  I113  1  0.00369913  0.49374775  0.83334765  1
  I  I114  1  -0.00013215  0.83549121  0.16717411  1
  I  I115  1  -0.00001942  0.83900481  0.49945589  1
  I  I116  1  0.00015136  0.83395463  0.83338893  1
  I  I117  1  0.33314850  0.16693354  0.16713889  1
  I  I118  1  0.33254745  0.16984495  0.50784798  1
  I  I119  1  0.33305561  0.16635585  0.82608891  1
  I  I120  1  0.33028001  0.50128656  0.16734948  1
  I  I121  1  0.32991584  0.49687762  0.49933196  1
  I  I122  1  0.32904000  0.49441708  0.83326480  1
  I  I123  1  0.33668569  0.83522366  0.16192208  1
  I  I124  1  0.33346878  0.83169081  0.49931898  1
  I  I125  1  0.33671607  0.83992589  0.83742775  1
  I  I126  1  0.67043934  0.17215138  0.16704280  1
  I  I127  1  0.66750886  0.16923197  0.50285511  1
  I  I128  1  0.66674116  0.16164348  0.83024520  1
  I  I129  1  0.67048858  0.49650684  0.17167679  1
  I  I130  1  0.67020609  0.49591537  0.49377670  1
  I  I131  1  0.66688204  0.50003955  0.83433696  1
  I  I132  1  0.66371891  0.83303062  0.16180430  1
  I  I133  1  0.66649791  0.83262887  0.49980948  1
  I  I134  1  0.66264103  0.83776627  0.83713214  1
