# generated using pymatgen
data_Cs27Sn13Pb14I81
_symmetry_space_group_name_H-M   'P 1'
_cell_length_a   18.97061734
_cell_length_b   18.98039384
_cell_length_c   18.97915526
_cell_angle_alpha   90.00066354
_cell_angle_beta   90.00132032
_cell_angle_gamma   90.00108105
_symmetry_Int_Tables_number   1
_chemical_formula_structural   Cs27Sn13Pb14I81
_chemical_formula_sum   'Cs27 Sn13 Pb14 I81'
_cell_volume   6833.82041940
_cell_formula_units_Z   1
loop_
 _symmetry_equiv_pos_site_id
 _symmetry_equiv_pos_as_xyz
  1  'x, y, z'
loop_
 _atom_site_type_symbol
 _atom_site_label
 _atom_site_symmetry_multiplicity
 _atom_site_fract_x
 _atom_site_fract_y
 _atom_site_fract_z
 _atom_site_occupancy
  Cs  Cs0  1  -0.00210686  0.00009060  -0.00080043  1
  Cs  Cs1  1  0.00060639  -0.00216356  0.33675254  1
  Cs  Cs2  1  0.00132571  -0.00062806  0.66655418  1
  Cs  Cs3  1  -0.00453332  0.33213619  0.00099759  1
  Cs  Cs4  1  0.00005117  0.33672748  0.33544062  1
  Cs  Cs5  1  0.00037869  0.33135990  0.66523800  1
  Cs  Cs6  1  0.00127977  0.66894412  0.00995548  1
  Cs  Cs7  1  -0.00135697  0.66614301  0.32927732  1
  Cs  Cs8  1  0.00065265  0.67084085  0.66449058  1
  Cs  Cs9  1  0.33373996  0.00000198  -0.00048613  1
  Cs  Cs10  1  0.33985909  0.00162572  0.33336746  1
  Cs  Cs11  1  0.33224788  0.00090518  0.66612044  1
  Cs  Cs12  1  0.33171997  0.33400542  -0.00161424  1
  Cs  Cs13  1  0.33425309  0.33379083  0.33317352  1
  Cs  Cs14  1  0.33206949  0.33268540  0.66650638  1
  Cs  Cs15  1  0.33493444  0.66664522  0.00052913  1
  Cs  Cs16  1  0.33305587  0.66410716  0.33102035  1
  Cs  Cs17  1  0.33402519  0.66650834  0.66784602  1
  Cs  Cs18  1  0.66832933  0.00178066  0.00919624  1
  Cs  Cs19  1  0.65862779  0.00161867  0.32811740  1
  Cs  Cs20  1  0.66714082  -0.00252776  0.66447695  1
  Cs  Cs21  1  0.67454655  0.33176526  -0.00311346  1
  Cs  Cs22  1  0.66435771  0.33321169  0.33147768  1
  Cs  Cs23  1  0.67066319  0.33675356  0.66973577  1
  Cs  Cs24  1  0.66337689  0.66684312  -0.00312924  1
  Cs  Cs25  1  0.66873701  0.66529153  0.33175330  1
  Cs  Cs26  1  0.66575838  0.66556364  0.66992155  1
  Sn  Sn27  1  0.16649065  0.83331127  0.50050873  1
  Sn  Sn28  1  0.16726229  0.16672292  0.83350810  1
  Sn  Sn29  1  0.49929152  0.49995480  0.49957505  1
  Sn  Sn30  1  0.83392718  0.83452953  0.50082475  1
  Sn  Sn31  1  0.49985679  0.16635181  0.83285657  1
  Sn  Sn32  1  0.16745999  0.50025213  0.50084912  1
  Sn  Sn33  1  0.16589158  0.83317463  0.83263963  1
  Sn  Sn34  1  0.49979880  0.49965913  0.16680862  1
  Sn  Sn35  1  0.16650073  0.16642751  0.16693263  1
  Sn  Sn36  1  0.83431835  0.83354954  0.83259422  1
  Sn  Sn37  1  0.16622924  0.16646992  0.49968615  1
  Sn  Sn38  1  0.16624079  0.50020921  0.83274789  1
  Sn  Sn39  1  0.83371831  0.16566947  0.50008442  1
  Pb  Pb40  1  0.83345534  0.83349273  0.16730266  1
  Pb  Pb41  1  0.49966978  0.83069777  0.16663786  1
  Pb  Pb42  1  0.83605550  0.16659507  0.17022805  1
  Pb  Pb43  1  0.16696473  0.83601897  0.16703364  1
  Pb  Pb44  1  0.49802438  0.49795951  0.83304275  1
  Pb  Pb45  1  0.49972192  0.83599807  0.83317362  1
  Pb  Pb46  1  0.83019680  0.49981594  0.16652657  1
  Pb  Pb47  1  0.83395032  0.16446330  0.83122748  1
  Pb  Pb48  1  0.83720166  0.50322596  0.83312339  1
  Pb  Pb49  1  0.50011126  0.16879148  0.50182214  1
  Pb  Pb50  1  0.83383557  0.50048894  0.50010944  1
  Pb  Pb51  1  0.16771137  0.49785624  0.16675614  1
  Pb  Pb52  1  0.49776975  0.16889709  0.16397949  1
  Pb  Pb53  1  0.49989614  0.83077959  0.50007472  1
  I  I54  1  0.16708566  0.00395348  0.16621023  1
  I  I55  1  0.16165450  0.00034418  0.50298382  1
  I  I56  1  0.16709656  0.00031495  0.83071970  1
  I  I57  1  0.16848161  0.33012252  0.16686766  1
  I  I58  1  0.16662907  0.33281042  0.50247444  1
  I  I59  1  0.17266236  0.33269281  0.83018903  1
  I  I60  1  0.16824688  0.66651683  0.16614912  1
  I  I61  1  0.16711016  0.66676350  0.50696208  1
  I  I62  1  0.16360396  0.66697577  0.82570687  1
  I  I63  1  0.49997264  0.00063392  0.16562631  1
  I  I64  1  0.49771632  0.00021442  0.50124105  1
  I  I65  1  0.49174507  0.00356841  0.83195808  1
  I  I66  1  0.49718359  0.33631048  0.17253952  1
  I  I67  1  0.49463667  0.33651711  0.49747870  1
  I  I68  1  0.49264105  0.33031161  0.83221809  1
  I  I69  1  0.49736935  0.66258162  0.17024234  1
  I  I70  1  0.49509518  0.66281766  0.49758104  1
  I  I71  1  0.49944596  0.66648698  0.83426485  1
  I  I72  1  0.83274364  0.00017602  0.16434993  1
  I  I73  1  0.84309697  -0.00024824  0.50456652  1
  I  I74  1  0.83980589  -0.00319390  0.83017364  1
  I  I75  1  0.83434037  0.33291860  0.16760601  1
  I  I76  1  0.83784420  0.33077281  0.49974536  1
  I  I77  1  0.83301566  0.33308630  0.83237772  1
  I  I78  1  0.83468660  0.66679151  0.16905192  1
  I  I79  1  0.83664559  0.67005585  0.50368184  1
  I  I80  1  0.83600927  0.67113861  0.82521546  1
  I  I81  1  0.17245282  0.16718229  -0.00150994  1
  I  I82  1  0.16211995  0.16762125  0.33501409  1
  I  I83  1  0.16693339  0.16711057  0.66645691  1
  I  I84  1  0.16875878  0.50006392  -0.00295234  1
  I  I85  1  0.16826997  0.49961026  0.33669398  1
  I  I86  1  0.17247762  0.49629713  0.66569305  1
  I  I87  1  0.16305873  0.83267657  -0.00357305  1
  I  I88  1  0.16201354  0.83203783  0.33724097  1
  I  I89  1  0.16331460  0.83633757  0.66641711  1
  I  I90  1  0.49337594  0.16824872  -0.00370271  1
  I  I91  1  0.49934911  0.16639179  0.33344697  1
  I  I92  1  0.49207994  0.16882881  0.66931752  1
  I  I93  1  0.49721228  0.49888386  0.00191624  1
  I  I94  1  0.49295049  0.49930093  0.33471422  1
  I  I95  1  0.49697850  0.49907637  0.66405885  1
  I  I96  1  0.49943485  0.83078213  -0.00042102  1
  I  I97  1  0.49952833  0.83663909  0.33372087  1
  I  I98  1  0.50004871  0.83017321  0.66663160  1
  I  I99  1  0.83324344  0.16561145  -0.00018008  1
  I  I100  1  0.83806915  0.16105043  0.33833514  1
  I  I101  1  0.83957777  0.16587223  0.66337695  1
  I  I102  1  0.83323490  0.50073720  -0.00045069  1
  I  I103  1  0.83842811  0.50214208  0.33381743  1
  I  I104  1  0.82689617  0.49745802  0.66653478  1
  I  I105  1  0.83892902  0.83275480  -0.00321811  1
  I  I106  1  0.83923935  0.83547335  0.33748239  1
  I  I107  1  0.83886163  0.83703252  0.66569594  1
  I  I108  1  0.00416654  0.16816004  0.16010118  1
  I  I109  1  0.00235899  0.16844350  0.50207547  1
  I  I110  1  0.00389685  0.16875591  0.83457003  1
  I  I111  1  0.00029522  0.49959944  0.16691950  1
  I  I112  1  0.00381654  0.49862356  0.50460777  1
  I  I113  1  0.00532898  0.49258945  0.82607776  1
  I  I114  1  0.00039407  0.83183430  0.16632501  1
  I  I115  1  0.00157571  0.83308928  0.50425793  1
  I  I116  1  0.00193912  0.83546465  0.82814702  1
  I  I117  1  0.32981654  0.16706221  0.17173092  1
  I  I118  1  0.32965525  0.16446083  0.49923370  1
  I  I119  1  0.33023951  0.16527996  0.83108296  1
  I  I120  1  0.33542488  0.49844831  0.16906479  1
  I  I121  1  0.33119811  0.49939786  0.49999637  1
  I  I122  1  0.32950661  0.50368170  0.83161583  1
  I  I123  1  0.33283300  0.83416900  0.16626291  1
  I  I124  1  0.32953427  0.83632547  0.50488204  1
  I  I125  1  0.32938249  0.83205053  0.82883566  1
  I  I126  1  0.66655230  0.16769757  0.16581661  1
  I  I127  1  0.66923563  0.16355322  0.50319117  1
  I  I128  1  0.66479463  0.16694738  0.83073378  1
  I  I129  1  0.66211774  0.49940911  0.17471390  1
  I  I130  1  0.66404269  0.49918301  0.49506810  1
  I  I131  1  0.66671541  0.49905959  0.83365022  1
  I  I132  1  0.66676814  0.83355692  0.16639005  1
  I  I133  1  0.67005468  0.83660872  0.50449083  1
  I  I134  1  0.66966361  0.83433115  0.82796124  1
