# generated using pymatgen
data_Cs27Sn14Pb13I81
_symmetry_space_group_name_H-M   'P 1'
_cell_length_a   18.96118244
_cell_length_b   18.96000249
_cell_length_c   18.96113356
_cell_angle_alpha   90.00159561
_cell_angle_beta   89.99541300
_cell_angle_gamma   89.99917305
_symmetry_Int_Tables_number   1
_chemical_formula_structural   Cs27Sn14Pb13I81
_chemical_formula_sum   'Cs27 Sn14 Pb13 I81'
_cell_volume   6816.60459181
_cell_formula_units_Z   1
loop_
 _symmetry_equiv_pos_site_id
 _symmetry_equiv_pos_as_xyz
  1  'x, y, z'
loop_
 _atom_site_type_symbol
 _atom_site_label
 _atom_site_symmetry_multiplicity
 _atom_site_fract_x
 _atom_site_fract_y
 _atom_site_fract_z
 _atom_site_occupancy
  Cs  Cs0  1  0.00133613  0.00053296  0.00300286  1
  Cs  Cs1  1  -0.00102686  -0.00156160  0.33035011  1
  Cs  Cs2  1  0.00098654  0.00826758  0.66666173  1
  Cs  Cs3  1  0.00077935  0.33267873  -0.00078166  1
  Cs  Cs4  1  -0.00117019  0.33418828  0.33393281  1
  Cs  Cs5  1  0.00057187  0.33301217  0.66708464  1
  Cs  Cs6  1  -0.00348957  0.66857689  0.00103702  1
  Cs  Cs7  1  0.00218428  0.66878862  0.33356886  1
  Cs  Cs8  1  -0.00116037  0.66412508  0.66503023  1
  Cs  Cs9  1  0.33153831  0.00070231  -0.00223598  1
  Cs  Cs10  1  0.33621579  -0.00350866  0.33537735  1
  Cs  Cs11  1  0.33630952  -0.00341271  0.66892099  1
  Cs  Cs12  1  0.33359901  0.33305251  0.00042344  1
  Cs  Cs13  1  0.33536499  0.33487920  0.32990964  1
  Cs  Cs14  1  0.32966671  0.33596616  0.67082334  1
  Cs  Cs15  1  0.33455670  0.66590598  0.00060982  1
  Cs  Cs16  1  0.32974166  0.66759410  0.33573373  1
  Cs  Cs17  1  0.33358985  0.66779075  0.66379600  1
  Cs  Cs18  1  0.66714341  -0.00463137  -0.00048893  1
  Cs  Cs19  1  0.66534557  0.00406270  0.33772658  1
  Cs  Cs20  1  0.66284935  -0.00185446  0.66233267  1
  Cs  Cs21  1  0.66543115  0.33498048  0.00175967  1
  Cs  Cs22  1  0.66540745  0.33162234  0.33243262  1
  Cs  Cs23  1  0.66857751  0.33397731  0.66550167  1
  Cs  Cs24  1  0.66886841  0.66923034  -0.00288094  1
  Cs  Cs25  1  0.66839409  0.66403789  0.33185871  1
  Cs  Cs26  1  0.66689236  0.66760000  0.66997093  1
  Sn  Sn27  1  0.50003518  0.83331217  0.16676369  1
  Sn  Sn28  1  0.50073370  0.49965571  0.50074608  1
  Sn  Sn29  1  0.50153789  0.16742345  0.83351612  1
  Sn  Sn30  1  0.83364191  0.83254156  0.50007096  1
  Sn  Sn31  1  0.49942288  0.49931356  0.83255566  1
  Sn  Sn32  1  0.16622311  0.16746419  0.16803082  1
  Sn  Sn33  1  0.16605415  0.83179860  0.83334580  1
  Sn  Sn34  1  0.83424680  0.49932850  0.16737740  1
  Sn  Sn35  1  0.16713416  0.50140806  0.83429929  1
  Sn  Sn36  1  0.16727179  0.16683441  0.49840743  1
  Sn  Sn37  1  0.16571356  0.49940697  0.16571169  1
  Sn  Sn38  1  0.83255544  0.50080365  0.49921832  1
  Sn  Sn39  1  0.83382543  0.16760465  0.16566820  1
  Sn  Sn40  1  0.83168069  0.16689504  0.83430845  1
  Pb  Pb41  1  0.50199553  0.83057555  0.49790174  1
  Pb  Pb42  1  0.16457044  0.83600485  0.50240576  1
  Pb  Pb43  1  0.83445216  0.16740148  0.49948180  1
  Pb  Pb44  1  0.16820347  0.83320366  0.16524086  1
  Pb  Pb45  1  0.83570718  0.83644541  0.83098379  1
  Pb  Pb46  1  0.16678929  0.16731811  0.83409453  1
  Pb  Pb47  1  0.16641788  0.49867117  0.49974975  1
  Pb  Pb48  1  0.83157434  0.83349667  0.16836347  1
  Pb  Pb49  1  0.49715766  0.16920188  0.50257518  1
  Pb  Pb50  1  0.50008291  0.50142009  0.16626612  1
  Pb  Pb51  1  0.83340124  0.49854009  0.83356296  1
  Pb  Pb52  1  0.49845855  0.83270982  0.83457258  1
  Pb  Pb53  1  0.50004227  0.16473381  0.16468779  1
  I  I54  1  0.16308394  0.00300403  0.16725269  1
  I  I55  1  0.16344817  0.00379380  0.49680044  1
  I  I56  1  0.16637412  -0.00112971  0.83273224  1
  I  I57  1  0.16354721  0.33369846  0.16401348  1
  I  I58  1  0.16383651  0.33093808  0.50200360  1
  I  I59  1  0.16812548  0.33591539  0.83419712  1
  I  I60  1  0.16396017  0.66340859  0.16406734  1
  I  I61  1  0.16797755  0.66650617  0.49851034  1
  I  I62  1  0.17226345  0.66447719  0.83809141  1
  I  I63  1  0.49971802  -0.00252906  0.16403143  1
  I  I64  1  0.50087843  0.00010200  0.50076125  1
  I  I65  1  0.50064116  0.00234396  0.83613018  1
  I  I66  1  0.49972476  0.33343757  0.16752754  1
  I  I67  1  0.50713252  0.33709203  0.49980316  1
  I  I68  1  0.49677373  0.33427325  0.83105052  1
  I  I69  1  0.49983665  0.66866441  0.16479090  1
  I  I70  1  0.50007698  0.66257291  0.50612223  1
  I  I71  1  0.49713558  0.66335725  0.83131189  1
  I  I72  1  0.83711464  0.00313325  0.16415819  1
  I  I73  1  0.83652276  -0.00131482  0.50071084  1
  I  I74  1  0.83087905  0.00446847  0.83760733  1
  I  I75  1  0.83676295  0.33363304  0.16858353  1
  I  I76  1  0.83124301  0.33620594  0.49898157  1
  I  I77  1  0.83525681  0.33053329  0.83239541  1
  I  I78  1  0.83626509  0.66355464  0.16908366  1
  I  I79  1  0.83084312  0.66466018  0.49504859  1
  I  I80  1  0.83155796  0.66658875  0.83545639  1
  I  I81  1  0.16535208  0.16787840  0.00262114  1
  I  I82  1  0.16040589  0.17215213  0.33153513  1
  I  I83  1  0.16521079  0.16714028  0.66555071  1
  I  I84  1  0.16730931  0.49691848  0.00016575  1
  I  I85  1  0.16627404  0.49693758  0.33054198  1
  I  I86  1  0.16762285  0.50022582  0.66913773  1
  I  I87  1  0.16733546  0.83476286  -0.00273137  1
  I  I88  1  0.16768442  0.83180026  0.33338054  1
  I  I89  1  0.16790477  0.82941907  0.67023312  1
  I  I90  1  0.49815192  0.17334434  -0.00330106  1
  I  I91  1  0.50172188  0.16654900  0.33335380  1
  I  I92  1  0.50402256  0.16699070  0.67064184  1
  I  I93  1  0.49815710  0.49736988  -0.00275202  1
  I  I94  1  0.50090950  0.50247924  0.33529111  1
  I  I95  1  0.49947788  0.49647928  0.66760977  1
  I  I96  1  0.50040148  0.83123870  0.00217016  1
  I  I97  1  0.49867920  0.83295264  0.33048363  1
  I  I98  1  0.49952858  0.83532623  0.66657951  1
  I  I99  1  0.83655994  0.17212241  0.00099633  1
  I  I100  1  0.83656481  0.16759277  0.33042097  1
  I  I101  1  0.83341330  0.16692709  0.66866432  1
  I  I102  1  0.83424287  0.49690101  0.00267861  1
  I  I103  1  0.83314239  0.49779571  0.33282905  1
  I  I104  1  0.83294927  0.50117744  0.66446429  1
  I  I105  1  0.83261918  0.83157960  -0.00003992  1
  I  I106  1  0.83327217  0.83338332  0.33610909  1
  I  I107  1  0.83318378  0.82747176  0.66340571  1
  I  I108  1  -0.00010465  0.16983645  0.16387844  1
  I  I109  1  0.00230837  0.16907642  0.50268254  1
  I  I110  1  -0.00183887  0.16671249  0.83348294  1
  I  I111  1  0.00004744  0.49635611  0.16649651  1
  I  I112  1  -0.00262172  0.50128890  0.49939881  1
  I  I113  1  0.00256075  0.50058085  0.83379340  1
  I  I114  1  -0.00008239  0.83374772  0.16648147  1
  I  I115  1  -0.00310940  0.82612681  0.49885668  1
  I  I116  1  0.00344489  0.82848153  0.83465808  1
  I  I117  1  0.33035758  0.17063495  0.16759003  1
  I  I118  1  0.32949240  0.16827728  0.49578419  1
  I  I119  1  0.33517824  0.16791827  0.83297545  1
  I  I120  1  0.33061111  0.49667916  0.16542504  1
  I  I121  1  0.33531221  0.49714077  0.50122720  1
  I  I122  1  0.33315578  0.49681752  0.83331501  1
  I  I123  1  0.33572097  0.83278212  0.16541485  1
  I  I124  1  0.33332146  0.83324163  0.49985907  1
  I  I125  1  0.33049651  0.83557648  0.83414558  1
  I  I126  1  0.66969158  0.17041949  0.16456637  1
  I  I127  1  0.66649264  0.16501592  0.49875238  1
  I  I128  1  0.66681970  0.17252018  0.83826339  1
  I  I129  1  0.66946799  0.49685748  0.16810680  1
  I  I130  1  0.66754774  0.50257265  0.50000031  1
  I  I131  1  0.66432136  0.49692976  0.83272229  1
  I  I132  1  0.66417299  0.83211193  0.16532972  1
  I  I133  1  0.66988048  0.83390812  0.50016793  1
  I  I134  1  0.66684493  0.83196725  0.83399817  1
