# generated using pymatgen
data_Cs27Sn14Pb13I81
_symmetry_space_group_name_H-M   'P 1'
_cell_length_a   18.95987178
_cell_length_b   18.96050086
_cell_length_c   18.96040619
_cell_angle_alpha   89.99901035
_cell_angle_beta   90.00006446
_cell_angle_gamma   90.00128227
_symmetry_Int_Tables_number   1
_chemical_formula_structural   Cs27Sn14Pb13I81
_chemical_formula_sum   'Cs27 Sn14 Pb13 I81'
_cell_volume   6816.05111332
_cell_formula_units_Z   1
loop_
 _symmetry_equiv_pos_site_id
 _symmetry_equiv_pos_as_xyz
  1  'x, y, z'
loop_
 _atom_site_type_symbol
 _atom_site_label
 _atom_site_symmetry_multiplicity
 _atom_site_fract_x
 _atom_site_fract_y
 _atom_site_fract_z
 _atom_site_occupancy
  Cs  Cs0  1  0.00002298  0.00498752  0.00346370  1
  Cs  Cs1  1  -0.00908510  -0.00025663  0.33490691  1
  Cs  Cs2  1  0.00212652  -0.00864878  0.66141249  1
  Cs  Cs3  1  0.00426461  0.33311100  -0.00271921  1
  Cs  Cs4  1  -0.00016366  0.33257832  0.33308011  1
  Cs  Cs5  1  0.00000294  0.33486821  0.66911819  1
  Cs  Cs6  1  -0.00420835  0.66373242  -0.00469118  1
  Cs  Cs7  1  0.00255522  0.66698450  0.33377516  1
  Cs  Cs8  1  0.00066345  0.67163921  0.67230533  1
  Cs  Cs9  1  0.33400266  0.00167046  -0.00096715  1
  Cs  Cs10  1  0.33375139  -0.00134002  0.33339654  1
  Cs  Cs11  1  0.33243489  -0.00207215  0.66686020  1
  Cs  Cs12  1  0.33244220  0.33179488  0.00041123  1
  Cs  Cs13  1  0.33404505  0.33499864  0.33402977  1
  Cs  Cs14  1  0.33441066  0.33304056  0.66414618  1
  Cs  Cs15  1  0.33463895  0.66736677  0.00342904  1
  Cs  Cs16  1  0.33324517  0.66530892  0.33312470  1
  Cs  Cs17  1  0.33173695  0.67183485  0.66560418  1
  Cs  Cs18  1  0.66567889  -0.00211810  -0.00036651  1
  Cs  Cs19  1  0.67104817  0.00094747  0.33324172  1
  Cs  Cs20  1  0.66695694  0.00185398  0.66682441  1
  Cs  Cs21  1  0.66502589  0.33368971  -0.00204231  1
  Cs  Cs22  1  0.66625788  0.33469296  0.33524598  1
  Cs  Cs23  1  0.66571567  0.33230332  0.66654000  1
  Cs  Cs24  1  0.66786885  0.66811556  -0.00088254  1
  Cs  Cs25  1  0.66480724  0.66346788  0.33193631  1
  Cs  Cs26  1  0.66656167  0.66616534  0.67215613  1
  Sn  Sn27  1  0.83302027  0.16651754  0.83300520  1
  Sn  Sn28  1  0.16652938  0.50071240  0.16739173  1
  Sn  Sn29  1  0.49933328  0.83340532  0.16782385  1
  Sn  Sn30  1  0.83467461  0.50002178  0.49969245  1
  Sn  Sn31  1  0.16714356  0.16726062  0.49963160  1
  Sn  Sn32  1  0.50034240  0.83434115  0.49900227  1
  Sn  Sn33  1  0.49998671  0.16661840  0.16691289  1
  Sn  Sn34  1  0.49939099  0.49938043  0.83425794  1
  Sn  Sn35  1  0.16713549  0.83280639  0.16684850  1
  Sn  Sn36  1  0.83344193  0.49969158  0.16740073  1
  Sn  Sn37  1  0.49995412  0.49988918  0.16567862  1
  Sn  Sn38  1  0.49935999  0.16566143  0.49979588  1
  Sn  Sn39  1  0.50068995  0.16763572  0.83325135  1
  Sn  Sn40  1  0.16545693  0.49931085  0.49948016  1
  Pb  Pb41  1  0.16841450  0.83305058  0.49774796  1
  Pb  Pb42  1  0.49966858  0.50009680  0.50008957  1
  Pb  Pb43  1  0.16707066  0.16656393  0.83026550  1
  Pb  Pb44  1  0.83124848  0.49851008  0.83334570  1
  Pb  Pb45  1  0.83010078  0.82989176  0.49985888  1
  Pb  Pb46  1  0.49992063  0.83377983  0.83375671  1
  Pb  Pb47  1  0.16842534  0.16668602  0.16901689  1
  Pb  Pb48  1  0.16956655  0.50005456  0.83327425  1
  Pb  Pb49  1  0.16678500  0.83340816  0.83737691  1
  Pb  Pb50  1  0.83327722  0.83083830  0.16666799  1
  Pb  Pb51  1  0.83330788  0.16859024  0.50180850  1
  Pb  Pb52  1  0.83076863  0.16937573  0.16470101  1
  Pb  Pb53  1  0.83329226  0.83695935  0.83355531  1
  I  I54  1  0.17355161  -0.00237259  0.16666793  1
  I  I55  1  0.17081425  0.00239188  0.50048314  1
  I  I56  1  0.16896518  0.00028434  0.83285468  1
  I  I57  1  0.16827591  0.33652633  0.16854431  1
  I  I58  1  0.17021829  0.33421031  0.49470177  1
  I  I59  1  0.16654063  0.33332572  0.83781010  1
  I  I60  1  0.17318142  0.66490607  0.17269731  1
  I  I61  1  0.16594066  0.66364871  0.49718352  1
  I  I62  1  0.16897660  0.66636469  0.82758998  1
  I  I63  1  0.49488881  0.00010843  0.16658299  1
  I  I64  1  0.49468469  0.00146265  0.49801968  1
  I  I65  1  0.50347455  0.00353939  0.83539290  1
  I  I66  1  0.50000279  0.33392573  0.16621666  1
  I  I67  1  0.49944900  0.33099479  0.49837975  1
  I  I68  1  0.50309135  0.33257046  0.83606579  1
  I  I69  1  0.49947272  0.66570597  0.16721139  1
  I  I70  1  0.50003664  0.66852740  0.49659632  1
  I  I71  1  0.50009372  0.66394799  0.83582072  1
  I  I72  1  0.83345784  0.00034639  0.16458638  1
  I  I73  1  0.83548388  0.00011447  0.50216803  1
  I  I74  1  0.82378593  0.00478641  0.83321519  1
  I  I75  1  0.83309807  0.33760181  0.17051655  1
  I  I76  1  0.83100760  0.33657683  0.49603825  1
  I  I77  1  0.82822673  0.33086080  0.83331618  1
  I  I78  1  0.82771211  0.66237376  0.16963383  1
  I  I79  1  0.83714715  0.66185070  0.49565117  1
  I  I80  1  0.83110798  0.66632818  0.83329117  1
  I  I81  1  0.16764995  0.16675074  0.00033231  1
  I  I82  1  0.17333774  0.16961940  0.33688651  1
  I  I83  1  0.17342951  0.17365317  0.66230063  1
  I  I84  1  0.16501279  0.50367410  0.00367345  1
  I  I85  1  0.16924468  0.49970191  0.33252852  1
  I  I86  1  0.16454662  0.49499532  0.66331733  1
  I  I87  1  0.17546604  0.82719019  0.00549322  1
  I  I88  1  0.17165775  0.83023133  0.32990239  1
  I  I89  1  0.16852910  0.83308547  0.66617121  1
  I  I90  1  0.50399231  0.16794474  0.00048004  1
  I  I91  1  0.49540355  0.16751209  0.33335629  1
  I  I92  1  0.50030216  0.16812685  0.66633222  1
  I  I93  1  0.50040652  0.49738511  0.00195788  1
  I  I94  1  0.50012131  0.49821623  0.33053286  1
  I  I95  1  0.50120354  0.49642999  0.66851235  1
  I  I96  1  0.49648376  0.83454841  0.00363199  1
  I  I97  1  0.49652130  0.83485690  0.33208426  1
  I  I98  1  0.49999100  0.83502017  0.66393980  1
  I  I99  1  0.82730931  0.16897737  -0.00307007  1
  I  I100  1  0.83203166  0.16635800  0.33337371  1
  I  I101  1  0.82510272  0.17129387  0.66930355  1
  I  I102  1  0.83447418  0.49919008  0.00293984  1
  I  I103  1  0.83020593  0.49885713  0.33257551  1
  I  I104  1  0.83462203  0.49772820  0.66418548  1
  I  I105  1  0.83073144  0.82991944  0.00040010  1
  I  I106  1  0.83325678  0.83734431  0.33326434  1
  I  I107  1  0.83131959  0.82970646  0.66642768  1
  I  I108  1  -0.00001345  0.16597162  0.16572739  1
  I  I109  1  0.00257373  0.16997351  0.50117651  1
  I  I110  1  -0.00247790  0.16848801  0.83324940  1
  I  I111  1  0.00080221  0.50445702  0.17171695  1
  I  I112  1  0.00101498  0.49353103  0.49154432  1
  I  I113  1  -0.00007407  0.49757551  0.83589080  1
  I  I114  1  0.00313972  0.82896924  0.16665144  1
  I  I115  1  0.00014557  0.83670151  0.49841079  1
  I  I116  1  0.00004326  0.83342896  0.83302219  1
  I  I117  1  0.33727885  0.17093081  0.16281084  1
  I  I118  1  0.33506013  0.16990612  0.50132559  1
  I  I119  1  0.33722462  0.17020358  0.83541521  1
  I  I120  1  0.33410236  0.50055712  0.16718069  1
  I  I121  1  0.33114023  0.49856030  0.49679673  1
  I  I122  1  0.33774219  0.49322992  0.83704393  1
  I  I123  1  0.33516472  0.82770604  0.17035429  1
  I  I124  1  0.33667656  0.83231276  0.49788597  1
  I  I125  1  0.33388293  0.83465750  0.83055352  1
  I  I126  1  0.66195371  0.16664945  0.17145654  1
  I  I127  1  0.66328863  0.16551486  0.49862996  1
  I  I128  1  0.66389852  0.17146793  0.83159300  1
  I  I129  1  0.66535626  0.49944637  0.16750254  1
  I  I130  1  0.66805213  0.49978497  0.49665885  1
  I  I131  1  0.66298453  0.49790536  0.83623433  1
  I  I132  1  0.66288588  0.83268044  0.16918574  1
  I  I133  1  0.66195996  0.83834612  0.49383652  1
  I  I134  1  0.66604051  0.83004447  0.83509908  1
