# generated using pymatgen
data_Cs27Sn13Pb14I81
_symmetry_space_group_name_H-M   'P 1'
_cell_length_a   18.97460588
_cell_length_b   18.97931019
_cell_length_c   18.97491081
_cell_angle_alpha   90.00169032
_cell_angle_beta   90.00088794
_cell_angle_gamma   89.99764453
_symmetry_Int_Tables_number   1
_chemical_formula_structural   Cs27Sn13Pb14I81
_chemical_formula_sum   'Cs27 Sn13 Pb14 I81'
_cell_volume   6833.33843256
_cell_formula_units_Z   1
loop_
 _symmetry_equiv_pos_site_id
 _symmetry_equiv_pos_as_xyz
  1  'x, y, z'
loop_
 _atom_site_type_symbol
 _atom_site_label
 _atom_site_symmetry_multiplicity
 _atom_site_fract_x
 _atom_site_fract_y
 _atom_site_fract_z
 _atom_site_occupancy
  Cs  Cs0  1  -0.00174763  -0.00223128  -0.00084591  1
  Cs  Cs1  1  0.00192369  0.00249092  0.33636923  1
  Cs  Cs2  1  -0.00042012  0.00082337  0.66501799  1
  Cs  Cs3  1  -0.00201088  0.33396634  -0.00217248  1
  Cs  Cs4  1  -0.00145928  0.33578441  0.33767325  1
  Cs  Cs5  1  0.00390983  0.32794004  0.66621546  1
  Cs  Cs6  1  -0.00189975  0.66784225  0.00037488  1
  Cs  Cs7  1  0.00105006  0.66338569  0.33290985  1
  Cs  Cs8  1  0.00256851  0.66966000  0.66738259  1
  Cs  Cs9  1  0.33427386  0.00072058  0.00780153  1
  Cs  Cs10  1  0.33474867  0.00039105  0.32233790  1
  Cs  Cs11  1  0.33376471  0.00106826  0.66709308  1
  Cs  Cs12  1  0.33201738  0.33444698  -0.00047365  1
  Cs  Cs13  1  0.33244080  0.33140239  0.33007644  1
  Cs  Cs14  1  0.33281338  0.33480997  0.66894396  1
  Cs  Cs15  1  0.33254888  0.66515315  0.00050156  1
  Cs  Cs16  1  0.33260755  0.66820804  0.33349907  1
  Cs  Cs17  1  0.33310063  0.66374594  0.66603216  1
  Cs  Cs18  1  0.66712999  0.00116725  -0.00168653  1
  Cs  Cs19  1  0.66309780  -0.00170546  0.33557518  1
  Cs  Cs20  1  0.66707120  0.00001214  0.66773158  1
  Cs  Cs21  1  0.66800166  0.33185337  0.00086922  1
  Cs  Cs22  1  0.66928808  0.33682760  0.33321020  1
  Cs  Cs23  1  0.66340844  0.33211640  0.66535522  1
  Cs  Cs24  1  0.67102222  0.66635808  -0.00129792  1
  Cs  Cs25  1  0.66548858  0.66397200  0.34220597  1
  Cs  Cs26  1  0.66262354  0.66693813  0.66199911  1
  Sn  Sn27  1  0.16695589  0.83315216  0.50038694  1
  Sn  Sn28  1  0.16683327  0.50049694  0.49952837  1
  Sn  Sn29  1  0.83339748  0.16545763  0.16623870  1
  Sn  Sn30  1  0.49969569  0.50042065  0.16633091  1
  Sn  Sn31  1  0.49971537  0.16644218  0.50043570  1
  Sn  Sn32  1  0.49992193  0.83382844  0.83363218  1
  Sn  Sn33  1  0.83300993  0.83322804  0.83365809  1
  Sn  Sn34  1  0.50048587  0.16588422  0.83276924  1
  Sn  Sn35  1  0.16706672  0.83361964  0.83293711  1
  Sn  Sn36  1  0.83310996  0.83409269  0.16673194  1
  Sn  Sn37  1  0.83321715  0.50002353  0.83265266  1
  Sn  Sn38  1  0.16728565  0.50013913  0.16701550  1
  Sn  Sn39  1  0.83256473  0.16663680  0.83394555  1
  Pb  Pb40  1  0.16949069  0.16621024  0.49996342  1
  Pb  Pb41  1  0.83351794  0.50022160  0.16545405  1
  Pb  Pb42  1  0.16328852  0.16945678  0.16649517  1
  Pb  Pb43  1  0.83528657  0.83335105  0.50021623  1
  Pb  Pb44  1  0.50193866  0.49983021  0.83480031  1
  Pb  Pb45  1  0.50232198  0.16835790  0.16586574  1
  Pb  Pb46  1  0.16688344  0.16365334  0.83366692  1
  Pb  Pb47  1  0.16450916  0.83169120  0.16658260  1
  Pb  Pb48  1  0.49748174  0.49792856  0.49782925  1
  Pb  Pb49  1  0.83582765  0.49998427  0.50359828  1
  Pb  Pb50  1  0.16466115  0.50208056  0.83335078  1
  Pb  Pb51  1  0.49707262  0.83527465  0.50218047  1
  Pb  Pb52  1  0.83118581  0.16649658  0.50028895  1
  Pb  Pb53  1  0.50293847  0.83098968  0.16434573  1
  I  I54  1  0.16759100  -0.00024072  0.16744785  1
  I  I55  1  0.16535084  -0.00303744  0.50642022  1
  I  I56  1  0.16141314  -0.00447960  0.82712978  1
  I  I57  1  0.16856003  0.33749487  0.17214811  1
  I  I58  1  0.16663981  0.33606963  0.49556152  1
  I  I59  1  0.16539279  0.33342243  0.83248907  1
  I  I60  1  0.16689459  0.66379045  0.16708784  1
  I  I61  1  0.16618773  0.66681734  0.50085671  1
  I  I62  1  0.16591163  0.67023229  0.83246805  1
  I  I63  1  0.49900155  -0.00008240  0.16853606  1
  I  I64  1  0.49945352  0.00303171  0.50165961  1
  I  I65  1  0.50508085  0.00000325  0.82964619  1
  I  I66  1  0.49844788  0.33602536  0.16456320  1
  I  I67  1  0.49885550  0.33030681  0.50796308  1
  I  I68  1  0.50536342  0.33044601  0.83136492  1
  I  I69  1  0.49795457  0.66351678  0.16445653  1
  I  I70  1  0.50106394  0.66673406  0.50050148  1
  I  I71  1  0.50151385  0.66950951  0.83598895  1
  I  I72  1  0.83327679  -0.00015823  0.15719335  1
  I  I73  1  0.83683227  -0.00005814  0.50290591  1
  I  I74  1  0.83277323  -0.00032289  0.83764675  1
  I  I75  1  0.83293387  0.33120594  0.16100912  1
  I  I76  1  0.83593123  0.33327415  0.49896410  1
  I  I77  1  0.82933500  0.33209015  0.83838658  1
  I  I78  1  0.83464476  0.66897478  0.15966151  1
  I  I79  1  0.83090611  0.66665669  0.49914258  1
  I  I80  1  0.83451179  0.66816541  0.83875906  1
  I  I81  1  0.17130273  0.16774118  -0.00004235  1
  I  I82  1  0.16749308  0.16209932  0.33325818  1
  I  I83  1  0.16234214  0.17104263  0.66689656  1
  I  I84  1  0.16835572  0.50112662  0.00228286  1
  I  I85  1  0.16940670  0.50615456  0.33333938  1
  I  I86  1  0.16393282  0.50274547  0.66444326  1
  I  I87  1  0.16647073  0.83186365  -0.00287328  1
  I  I88  1  0.16412129  0.83053903  0.33565249  1
  I  I89  1  0.16429160  0.82747880  0.66771215  1
  I  I90  1  0.50314292  0.16382005  -0.00323404  1
  I  I91  1  0.50040037  0.16950386  0.33503474  1
  I  I92  1  0.50592348  0.16377022  0.66872452  1
  I  I93  1  0.49373102  0.49814566  0.00250561  1
  I  I94  1  0.50097306  0.49805165  0.32997499  1
  I  I95  1  0.49999603  0.50103820  0.66680177  1
  I  I96  1  0.49551036  0.83982163  -0.00409990  1
  I  I97  1  0.50018053  0.83464405  0.33321454  1
  I  I98  1  0.50604455  0.83356042  0.67073373  1
  I  I99  1  0.82792371  0.16622496  -0.00172137  1
  I  I100  1  0.83253080  0.16302063  0.33037034  1
  I  I101  1  0.83209442  0.16549443  0.67044018  1
  I  I102  1  0.83564103  0.50052733  -0.00263590  1
  I  I103  1  0.83202792  0.49953444  0.33334060  1
  I  I104  1  0.83331366  0.50091644  0.67158201  1
  I  I105  1  0.83593226  0.83367648  -0.00199100  1
  I  I106  1  0.83577674  0.83753224  0.33037463  1
  I  I107  1  0.83244750  0.83431677  0.67059898  1
  I  I108  1  -0.00459596  0.16443664  0.15940983  1
  I  I109  1  0.00019050  0.16751268  0.50026907  1
  I  I110  1  -0.00342754  0.16689444  0.83740033  1
  I  I111  1  0.00225613  0.50047059  0.16932779  1
  I  I112  1  0.00372537  0.50291628  0.49250020  1
  I  I113  1  -0.00337473  0.49968240  0.83611221  1
  I  I114  1  -0.00327998  0.83408950  0.15946714  1
  I  I115  1  0.00329489  0.83012562  0.50612511  1
  I  I116  1  -0.00095368  0.83238249  0.83346634  1
  I  I117  1  0.33355407  0.16666923  0.16651490  1
  I  I118  1  0.33703893  0.16764585  0.50807661  1
  I  I119  1  0.33671312  0.16360973  0.82893182  1
  I  I120  1  0.33268847  0.50005376  0.16876722  1
  I  I121  1  0.32965645  0.50419613  0.50034494  1
  I  I122  1  0.33321130  0.50017501  0.83294341  1
  I  I123  1  0.33339752  0.83340690  0.16534547  1
  I  I124  1  0.32932817  0.82873455  0.50604904  1
  I  I125  1  0.33346435  0.83666036  0.82808145  1
  I  I126  1  0.67007325  0.16624653  0.16363290  1
  I  I127  1  0.66352788  0.16677369  0.50260195  1
  I  I128  1  0.66742718  0.16234282  0.83336870  1
  I  I129  1  0.66511161  0.49873176  0.16274269  1
  I  I130  1  0.66638135  0.49916995  0.49787319  1
  I  I131  1  0.66991533  0.50374851  0.83780688  1
  I  I132  1  0.67075200  0.83499130  0.15951426  1
  I  I133  1  0.66625883  0.83398212  0.50034182  1
  I  I134  1  0.66751048  0.83447597  0.83874320  1
