# generated using pymatgen
data_Cs27Sn14Pb13I81
_symmetry_space_group_name_H-M   'P 1'
_cell_length_a   18.98299038
_cell_length_b   18.97398100
_cell_length_c   18.97399617
_cell_angle_alpha   90.00027884
_cell_angle_beta   89.99953939
_cell_angle_gamma   90.00021423
_symmetry_Int_Tables_number   1
_chemical_formula_structural   Cs27Sn14Pb13I81
_chemical_formula_sum   'Cs27 Sn14 Pb13 I81'
_cell_volume   6834.10894620
_cell_formula_units_Z   1
loop_
 _symmetry_equiv_pos_site_id
 _symmetry_equiv_pos_as_xyz
  1  'x, y, z'
loop_
 _atom_site_type_symbol
 _atom_site_label
 _atom_site_symmetry_multiplicity
 _atom_site_fract_x
 _atom_site_fract_y
 _atom_site_fract_z
 _atom_site_occupancy
  Cs  Cs0  1  -0.00016833  -0.00114131  0.00449948  1
  Cs  Cs1  1  0.00076080  -0.00106795  0.33206295  1
  Cs  Cs2  1  -0.00025628  0.00183339  0.66667092  1
  Cs  Cs3  1  0.00127046  0.33218193  0.00193835  1
  Cs  Cs4  1  -0.00385279  0.33620706  0.33375670  1
  Cs  Cs5  1  0.00276142  0.32835578  0.66546752  1
  Cs  Cs6  1  -0.00601629  0.66836544  0.00190220  1
  Cs  Cs7  1  -0.00189068  0.66461023  0.33324109  1
  Cs  Cs8  1  0.00016367  0.66650661  0.66496790  1
  Cs  Cs9  1  0.33232457  -0.00004524  -0.00162756  1
  Cs  Cs10  1  0.33447338  -0.00028856  0.33163129  1
  Cs  Cs11  1  0.33223298  -0.00080403  0.66793974  1
  Cs  Cs12  1  0.33237447  0.33492322  -0.00105204  1
  Cs  Cs13  1  0.33770466  0.33391345  0.33304929  1
  Cs  Cs14  1  0.33276584  0.33449912  0.66708180  1
  Cs  Cs15  1  0.33376366  0.66616518  0.00111596  1
  Cs  Cs16  1  0.33241292  0.66769210  0.33124509  1
  Cs  Cs17  1  0.33263440  0.66756758  0.66672934  1
  Cs  Cs18  1  0.66789748  -0.00032567  -0.00065459  1
  Cs  Cs19  1  0.66445407  0.00322900  0.33633951  1
  Cs  Cs20  1  0.66845771  -0.00046833  0.66562638  1
  Cs  Cs21  1  0.66954118  0.33594950  0.00141829  1
  Cs  Cs22  1  0.66567546  0.33184579  0.33177926  1
  Cs  Cs23  1  0.66453973  0.33758701  0.66654807  1
  Cs  Cs24  1  0.67101529  0.66471784  -0.00154728  1
  Cs  Cs25  1  0.66750038  0.66558479  0.33194402  1
  Cs  Cs26  1  0.66779630  0.66265822  0.67005115  1
  Sn  Sn27  1  0.49992073  0.83332093  0.50043278  1
  Sn  Sn28  1  0.16665989  0.50053412  0.83417581  1
  Sn  Sn29  1  0.49981568  0.83274902  0.16619366  1
  Sn  Sn30  1  0.16656488  0.83431323  0.50064172  1
  Sn  Sn31  1  0.83404164  0.16567854  0.50115505  1
  Sn  Sn32  1  0.83348963  0.16641292  0.83257200  1
  Sn  Sn33  1  0.16641343  0.16565302  0.50034048  1
  Sn  Sn34  1  0.16693842  0.83317892  0.83292776  1
  Sn  Sn35  1  0.49953852  0.83393157  0.83337611  1
  Sn  Sn36  1  0.49997612  0.16609120  0.83327729  1
  Sn  Sn37  1  0.83352933  0.83401540  0.50038245  1
  Sn  Sn38  1  0.16661766  0.16624060  0.83286680  1
  Sn  Sn39  1  0.49895566  0.50088462  0.16639108  1
  Sn  Sn40  1  0.16748326  0.50012361  0.16590434  1
  Pb  Pb41  1  0.83685061  0.49679345  0.83301118  1
  Pb  Pb42  1  0.49813085  0.50047719  0.83498047  1
  Pb  Pb43  1  0.83005558  0.83366475  0.16980381  1
  Pb  Pb44  1  0.16677055  0.49984297  0.50006496  1
  Pb  Pb45  1  0.49983445  0.16636647  0.16367174  1
  Pb  Pb46  1  0.49957746  0.16482335  0.50241580  1
  Pb  Pb47  1  0.83332135  0.49927888  0.50036011  1
  Pb  Pb48  1  0.16821992  0.83163799  0.16665378  1
  Pb  Pb49  1  0.83359835  0.83515084  0.83146040  1
  Pb  Pb50  1  0.16679895  0.16894210  0.16729520  1
  Pb  Pb51  1  0.83345951  0.16634190  0.16727444  1
  Pb  Pb52  1  0.83328860  0.50007540  0.16652311  1
  Pb  Pb53  1  0.49983174  0.50300654  0.49753157  1
  I  I54  1  0.16812367  -0.00017493  0.16451839  1
  I  I55  1  0.16635566  -0.00073512  0.50762174  1
  I  I56  1  0.16845641  0.00000925  0.82816587  1
  I  I57  1  0.17342726  0.33689479  0.16205141  1
  I  I58  1  0.16070120  0.32995779  0.50363101  1
  I  I59  1  0.16673183  0.33206829  0.83324089  1
  I  I60  1  0.16974326  0.66374100  0.16296686  1
  I  I61  1  0.16705594  0.67017903  0.50318674  1
  I  I62  1  0.17334124  0.66805920  0.83207405  1
  I  I63  1  0.50052462  -0.00342868  0.16909713  1
  I  I64  1  0.49993971  -0.00368655  0.49468978  1
  I  I65  1  0.49481847  -0.00108971  0.83518147  1
  I  I66  1  0.49610196  0.33609771  0.16493849  1
  I  I67  1  0.50038074  0.33307331  0.49925438  1
  I  I68  1  0.49899037  0.33066609  0.83491308  1
  I  I69  1  0.49470210  0.66769716  0.16628386  1
  I  I70  1  0.49872708  0.67193469  0.50622165  1
  I  I71  1  0.49504367  0.67022441  0.83084443  1
  I  I72  1  0.83212880  -0.00022405  0.16410542  1
  I  I73  1  0.83378519  0.00002244  0.50414435  1
  I  I74  1  0.83689488  0.00328784  0.83109321  1
  I  I75  1  0.83050742  0.33331420  0.16895728  1
  I  I76  1  0.84015306  0.32915314  0.50336964  1
  I  I77  1  0.83087001  0.32845856  0.82669692  1
  I  I78  1  0.83538351  0.66698656  0.16861786  1
  I  I79  1  0.83422388  0.67020661  0.49846582  1
  I  I80  1  0.83266699  0.66679742  0.83233902  1
  I  I81  1  0.16632881  0.16395942  -0.00370121  1
  I  I82  1  0.16159458  0.16261706  0.33708779  1
  I  I83  1  0.16594221  0.16816906  0.66785568  1
  I  I84  1  0.17172751  0.49872769  -0.00110383  1
  I  I85  1  0.17066560  0.50065385  0.33070162  1
  I  I86  1  0.16643304  0.49952999  0.66972990  1
  I  I87  1  0.17170605  0.83659098  -0.00339363  1
  I  I88  1  0.16764452  0.83639767  0.33658756  1
  I  I89  1  0.17157434  0.83193079  0.66703542  1
  I  I90  1  0.49839892  0.16088105  -0.00463021  1
  I  I91  1  0.50065744  0.16647441  0.33353083  1
  I  I92  1  0.49882857  0.16154006  0.67054749  1
  I  I93  1  0.49702407  0.50541544  0.00281604  1
  I  I94  1  0.49280872  0.50406689  0.32933815  1
  I  I95  1  0.49911969  0.50021000  0.66699536  1
  I  I96  1  0.49364675  0.83400727  -0.00125325  1
  I  I97  1  0.49994455  0.82810253  0.33392027  1
  I  I98  1  0.49824053  0.83915726  0.66713332  1
  I  I99  1  0.83417261  0.16785487  -0.00356191  1
  I  I100  1  0.83834692  0.16310151  0.33752818  1
  I  I101  1  0.83554373  0.16204713  0.66656439  1
  I  I102  1  0.83174122  0.49836439  -0.00036009  1
  I  I103  1  0.83575389  0.49821536  0.33334401  1
  I  I104  1  0.83335572  0.50308428  0.66691479  1
  I  I105  1  0.83361297  0.83455261  -0.00017751  1
  I  I106  1  0.83583153  0.83959316  0.33817164  1
  I  I107  1  0.82920976  0.83553500  0.66331259  1
  I  I108  1  0.00027994  0.16940623  0.16198300  1
  I  I109  1  0.00077326  0.15888312  0.50881977  1
  I  I110  1  0.00118009  0.16809610  0.82869044  1
  I  I111  1  0.00327928  0.49856400  0.16301368  1
  I  I112  1  0.00035025  0.50534709  0.49683892  1
  I  I113  1  0.00511172  0.50253268  0.83964557  1
  I  I114  1  0.00001692  0.83129818  0.16633838  1
  I  I115  1  0.00115774  0.83675847  0.50538894  1
  I  I116  1  0.00341648  0.83306197  0.82909563  1
  I  I117  1  0.33337883  0.16562298  0.16788282  1
  I  I118  1  0.33029408  0.16338219  0.50398194  1
  I  I119  1  0.33223527  0.16599185  0.83033856  1
  I  I120  1  0.33324559  0.50394886  0.16277391  1
  I  I121  1  0.33313050  0.49843790  0.50123841  1
  I  I122  1  0.33006350  0.49545784  0.83476034  1
  I  I123  1  0.33635491  0.83150086  0.17085423  1
  I  I124  1  0.33287673  0.83668687  0.50074337  1
  I  I125  1  0.33304185  0.83748948  0.82936260  1
  I  I126  1  0.66642716  0.16927616  0.16696244  1
  I  I127  1  0.66911000  0.16200265  0.50368690  1
  I  I128  1  0.66641726  0.16059287  0.83042839  1
  I  I129  1  0.66331470  0.50457819  0.16732412  1
  I  I130  1  0.66649301  0.49924299  0.49745775  1
  I  I131  1  0.66666245  0.49983363  0.83540105  1
  I  I132  1  0.66172350  0.82640154  0.16393434  1
  I  I133  1  0.66634884  0.83772088  0.49848897  1
  I  I134  1  0.66366371  0.83783254  0.83315267  1
