# generated using pymatgen
data_Cs27Sn13Pb14I81
_symmetry_space_group_name_H-M   'P 1'
_cell_length_a   18.97740012
_cell_length_b   18.98074250
_cell_length_c   18.97260369
_cell_angle_alpha   89.99862508
_cell_angle_beta   89.99994905
_cell_angle_gamma   90.00159214
_symmetry_Int_Tables_number   1
_chemical_formula_structural   Cs27Sn13Pb14I81
_chemical_formula_sum   'Cs27 Sn13 Pb14 I81'
_cell_volume   6834.02945977
_cell_formula_units_Z   1
loop_
 _symmetry_equiv_pos_site_id
 _symmetry_equiv_pos_as_xyz
  1  'x, y, z'
loop_
 _atom_site_type_symbol
 _atom_site_label
 _atom_site_symmetry_multiplicity
 _atom_site_fract_x
 _atom_site_fract_y
 _atom_site_fract_z
 _atom_site_occupancy
  Cs  Cs0  1  -0.00401958  0.00077871  0.00158036  1
  Cs  Cs1  1  0.00045834  -0.00045603  0.33123814  1
  Cs  Cs2  1  0.00125954  -0.00181989  0.66771133  1
  Cs  Cs3  1  0.00174517  0.33352882  -0.00291222  1
  Cs  Cs4  1  0.00086636  0.33277373  0.33700066  1
  Cs  Cs5  1  0.00061018  0.32906325  0.66616610  1
  Cs  Cs6  1  -0.00091202  0.66508361  0.00311629  1
  Cs  Cs7  1  0.00144853  0.66718060  0.33229968  1
  Cs  Cs8  1  -0.00124681  0.66906503  0.66642133  1
  Cs  Cs9  1  0.33550541  -0.00011607  0.00067659  1
  Cs  Cs10  1  0.33748198  0.00145818  0.33167891  1
  Cs  Cs11  1  0.33180691  -0.00242918  0.66685045  1
  Cs  Cs12  1  0.33235128  0.33641419  -0.00196771  1
  Cs  Cs13  1  0.33245022  0.33064975  0.33410715  1
  Cs  Cs14  1  0.33132267  0.33289058  0.66828184  1
  Cs  Cs15  1  0.33239365  0.66325014  0.00100483  1
  Cs  Cs16  1  0.33299697  0.66904347  0.33286721  1
  Cs  Cs17  1  0.33417370  0.66878028  0.66657016  1
  Cs  Cs18  1  0.66821949  0.00265884  0.00511082  1
  Cs  Cs19  1  0.65911572  0.00748581  0.32366938  1
  Cs  Cs20  1  0.66715213  -0.00082027  0.66715276  1
  Cs  Cs21  1  0.66576400  0.33635081  0.00011006  1
  Cs  Cs22  1  0.66710124  0.33006125  0.33922891  1
  Cs  Cs23  1  0.66921844  0.33428337  0.66083210  1
  Cs  Cs24  1  0.66776900  0.66429830  -0.00217220  1
  Cs  Cs25  1  0.66441684  0.66506724  0.33435372  1
  Cs  Cs26  1  0.66748144  0.66626819  0.66817066  1
  Sn  Sn27  1  0.16636411  0.16666769  0.16673010  1
  Sn  Sn28  1  0.50042125  0.16697053  0.83293627  1
  Sn  Sn29  1  0.16673521  0.50055658  0.50038972  1
  Sn  Sn30  1  0.83334737  0.83259818  0.83279108  1
  Sn  Sn31  1  0.16587058  0.83325937  0.50057831  1
  Sn  Sn32  1  0.50073959  0.49980754  0.83361509  1
  Sn  Sn33  1  0.83335359  0.83376580  0.49990010  1
  Sn  Sn34  1  0.16668201  0.16593409  0.49936022  1
  Sn  Sn35  1  0.83291044  0.50051708  0.83373953  1
  Sn  Sn36  1  0.50077029  0.50002903  0.16646820  1
  Sn  Sn37  1  0.16635110  0.83295527  0.83336193  1
  Sn  Sn38  1  0.83267595  0.49999597  0.16646401  1
  Sn  Sn39  1  0.50034584  0.83341805  0.83331898  1
  Pb  Pb40  1  0.83537642  0.16289625  0.50000216  1
  Pb  Pb41  1  0.83081656  0.16669016  0.83327856  1
  Pb  Pb42  1  0.16826480  0.16403537  0.83325688  1
  Pb  Pb43  1  0.49811346  0.16960168  0.16432449  1
  Pb  Pb44  1  0.49775996  0.16653887  0.50245011  1
  Pb  Pb45  1  0.83545552  0.17004512  0.16659949  1
  Pb  Pb46  1  0.83316455  0.83130464  0.16690503  1
  Pb  Pb47  1  0.50051512  0.83348477  0.50156027  1
  Pb  Pb48  1  0.16663659  0.49831513  0.16883662  1
  Pb  Pb49  1  0.83534377  0.50192057  0.50041091  1
  Pb  Pb50  1  0.50012905  0.83067291  0.16377443  1
  Pb  Pb51  1  0.49782001  0.50006680  0.50042122  1
  Pb  Pb52  1  0.16622432  0.50212932  0.83149290  1
  Pb  Pb53  1  0.16666684  0.83543464  0.16694685  1
  I  I54  1  0.16753904  0.00316241  0.17113625  1
  I  I55  1  0.16276934  -0.00096695  0.50161888  1
  I  I56  1  0.16659646  -0.00403322  0.82795003  1
  I  I57  1  0.16711414  0.33064267  0.17196208  1
  I  I58  1  0.16830046  0.33305030  0.49543822  1
  I  I59  1  0.16755055  0.33335728  0.83145698  1
  I  I60  1  0.16722556  0.66640315  0.16773587  1
  I  I61  1  0.16368849  0.66794478  0.50497230  1
  I  I62  1  0.17070539  0.67018497  0.82798271  1
  I  I63  1  0.49834039  0.00033460  0.16544203  1
  I  I64  1  0.49752848  -0.00011360  0.50282893  1
  I  I65  1  0.49761023  -0.00108904  0.83026176  1
  I  I66  1  0.50212769  0.33722169  0.15941243  1
  I  I67  1  0.49712297  0.33348367  0.50343359  1
  I  I68  1  0.50214199  0.33474404  0.83774541  1
  I  I69  1  0.50140782  0.66265507  0.16138673  1
  I  I70  1  0.49534608  0.66669449  0.50149252  1
  I  I71  1  0.50030893  0.66655648  0.83650671  1
  I  I72  1  0.83517814  0.00009725  0.16594829  1
  I  I73  1  0.84002584  -0.00503472  0.50937857  1
  I  I74  1  0.83387116  -0.00362096  0.82844705  1
  I  I75  1  0.83013038  0.33805600  0.15959659  1
  I  I76  1  0.83598239  0.33342560  0.50073427  1
  I  I77  1  0.82973252  0.33682941  0.83761375  1
  I  I78  1  0.83158905  0.66323748  0.16406488  1
  I  I79  1  0.84081805  0.66972210  0.50289456  1
  I  I80  1  0.82920123  0.66697738  0.83294699  1
  I  I81  1  0.16893209  0.16656597  0.00193473  1
  I  I82  1  0.16655419  0.16591886  0.33462193  1
  I  I83  1  0.16869423  0.16776581  0.66390756  1
  I  I84  1  0.16690592  0.49930655  -0.00018541  1
  I  I85  1  0.16641171  0.50488260  0.33675972  1
  I  I86  1  0.16723344  0.49577113  0.66360135  1
  I  I87  1  0.16665690  0.83449312  -0.00329376  1
  I  I88  1  0.16117194  0.83110561  0.33699484  1
  I  I89  1  0.16665635  0.83513017  0.66658263  1
  I  I90  1  0.49613620  0.16336933  -0.00356847  1
  I  I91  1  0.49997502  0.16803470  0.33306091  1
  I  I92  1  0.49755510  0.16921593  0.67072078  1
  I  I93  1  0.50239381  0.50064104  -0.00168176  1
  I  I94  1  0.50299399  0.49956364  0.33048143  1
  I  I95  1  0.50308374  0.50106965  0.67058589  1
  I  I96  1  0.49921214  0.83578656  -0.00514879  1
  I  I97  1  0.49841107  0.83158000  0.33312259  1
  I  I98  1  0.49858088  0.82957842  0.67077988  1
  I  I99  1  0.83766768  0.16165139  -0.00019541  1
  I  I100  1  0.83185511  0.16714305  0.33338795  1
  I  I101  1  0.83528885  0.17212622  0.66673934  1
  I  I102  1  0.83045118  0.50582833  -0.00144265  1
  I  I103  1  0.83082763  0.50142301  0.33097679  1
  I  I104  1  0.82907649  0.50277204  0.66984023  1
  I  I105  1  0.83422206  0.83132329  -0.00369875  1
  I  I106  1  0.84283352  0.83062685  0.33642951  1
  I  I107  1  0.83479903  0.82748892  0.66829650  1
  I  I108  1  0.00350493  0.16772361  0.16970183  1
  I  I109  1  0.00409909  0.16978285  0.49862474  1
  I  I110  1  0.00020071  0.16725686  0.83301646  1
  I  I111  1  -0.00257610  0.49934023  0.16213012  1
  I  I112  1  0.00334191  0.49849811  0.49989524  1
  I  I113  1  -0.00287385  0.50484928  0.83688936  1
  I  I114  1  0.00001471  0.83076725  0.16143486  1
  I  I115  1  0.00125972  0.83308899  0.50925259  1
  I  I116  1  -0.00035977  0.82898092  0.82841574  1
  I  I117  1  0.33036858  0.16837315  0.17134322  1
  I  I118  1  0.32912421  0.16393936  0.49666249  1
  I  I119  1  0.33619323  0.16796975  0.83286286  1
  I  I120  1  0.33580493  0.49860874  0.16140121  1
  I  I121  1  0.32960870  0.50272732  0.50055463  1
  I  I122  1  0.33606329  0.50115913  0.83638724  1
  I  I123  1  0.33331464  0.83046009  0.16585017  1
  I  I124  1  0.32990486  0.83324904  0.50492770  1
  I  I125  1  0.33339404  0.83338124  0.82913805  1
  I  I126  1  0.66638761  0.16462874  0.16537528  1
  I  I127  1  0.66666626  0.16649731  0.50075665  1
  I  I128  1  0.66277809  0.16232456  0.83487612  1
  I  I129  1  0.66658797  0.50140161  0.16062688  1
  I  I130  1  0.66690062  0.50213239  0.49983680  1
  I  I131  1  0.66638833  0.50500439  0.83714267  1
  I  I132  1  0.66665419  0.83650491  0.16876118  1
  I  I133  1  0.66990646  0.82960671  0.50650582  1
  I  I134  1  0.66702450  0.83125483  0.82857131  1
