# generated using pymatgen
data_Cs27Sn14Pb13I81
_symmetry_space_group_name_H-M   'P 1'
_cell_length_a   18.97518629
_cell_length_b   18.98265661
_cell_length_c   18.97108132
_cell_angle_alpha   89.99952480
_cell_angle_beta   89.99945397
_cell_angle_gamma   89.99878186
_symmetry_Int_Tables_number   1
_chemical_formula_structural   Cs27Sn14Pb13I81
_chemical_formula_sum   'Cs27 Sn14 Pb13 I81'
_cell_volume   6833.37296804
_cell_formula_units_Z   1
loop_
 _symmetry_equiv_pos_site_id
 _symmetry_equiv_pos_as_xyz
  1  'x, y, z'
loop_
 _atom_site_type_symbol
 _atom_site_label
 _atom_site_symmetry_multiplicity
 _atom_site_fract_x
 _atom_site_fract_y
 _atom_site_fract_z
 _atom_site_occupancy
  Cs  Cs0  1  0.00168580  -0.00217740  -0.00145957  1
  Cs  Cs1  1  0.00113935  0.00176854  0.33422084  1
  Cs  Cs2  1  0.00101694  0.00041134  0.66590179  1
  Cs  Cs3  1  -0.00094797  0.33600118  0.00174063  1
  Cs  Cs4  1  -0.00744162  0.33279595  0.33065674  1
  Cs  Cs5  1  0.00133148  0.33178554  0.66632011  1
  Cs  Cs6  1  -0.00100751  0.66569366  0.00130513  1
  Cs  Cs7  1  0.00237507  0.66429016  0.32822542  1
  Cs  Cs8  1  -0.00321862  0.66741283  0.66801593  1
  Cs  Cs9  1  0.33342373  -0.00133665  -0.00090485  1
  Cs  Cs10  1  0.33363421  0.00080951  0.33376374  1
  Cs  Cs11  1  0.33104784  0.00080365  0.66876908  1
  Cs  Cs12  1  0.33400082  0.33482015  -0.00206056  1
  Cs  Cs13  1  0.33509361  0.33136856  0.33653569  1
  Cs  Cs14  1  0.33207086  0.33409028  0.66853249  1
  Cs  Cs15  1  0.33348515  0.66723579  0.00035602  1
  Cs  Cs16  1  0.33243998  0.66700032  0.33175483  1
  Cs  Cs17  1  0.33320289  0.66571190  0.66704309  1
  Cs  Cs18  1  0.66507802  0.00085998  0.00140449  1
  Cs  Cs19  1  0.66770307  0.00630866  0.33663235  1
  Cs  Cs20  1  0.67025334  -0.00470859  0.66288597  1
  Cs  Cs21  1  0.66629494  0.33093044  0.00151523  1
  Cs  Cs22  1  0.67355284  0.32594372  0.33944312  1
  Cs  Cs23  1  0.66771252  0.33937278  0.66284931  1
  Cs  Cs24  1  0.66380450  0.66782001  -0.00209645  1
  Cs  Cs25  1  0.66454294  0.66705532  0.34347701  1
  Cs  Cs26  1  0.67394987  0.66606567  0.65877468  1
  Sn  Sn27  1  0.16699724  0.50070445  0.50062383  1
  Sn  Sn28  1  0.16685883  0.83412585  0.16652692  1
  Sn  Sn29  1  0.50036516  0.83256267  0.16620009  1
  Sn  Sn30  1  0.16666658  0.16672460  0.83458911  1
  Sn  Sn31  1  0.49959471  0.83289988  0.83367266  1
  Sn  Sn32  1  0.49934239  0.50068571  0.83419360  1
  Sn  Sn33  1  0.16720783  0.16628555  0.16555519  1
  Sn  Sn34  1  0.50035524  0.16649142  0.83348825  1
  Sn  Sn35  1  0.83323666  0.16662108  0.83367294  1
  Sn  Sn36  1  0.83257857  0.83292288  0.16644014  1
  Sn  Sn37  1  0.16718652  0.83282985  0.83334420  1
  Sn  Sn38  1  0.16719786  0.50045736  0.83272156  1
  Sn  Sn39  1  0.50005116  0.50030703  0.16638530  1
  Sn  Sn40  1  0.16713155  0.83221756  0.50018044  1
  Pb  Pb41  1  0.16829857  0.49974255  0.16648368  1
  Pb  Pb42  1  0.83368455  0.16639282  0.50323930  1
  Pb  Pb43  1  0.16674694  0.16694758  0.50002826  1
  Pb  Pb44  1  0.83300388  0.49784210  0.83375127  1
  Pb  Pb45  1  0.49967017  0.16658757  0.50368317  1
  Pb  Pb46  1  0.83710201  0.50018525  0.49991212  1
  Pb  Pb47  1  0.83677260  0.83338781  0.49661180  1
  Pb  Pb48  1  0.49802007  0.16652838  0.16505360  1
  Pb  Pb49  1  0.49775613  0.50007347  0.50002846  1
  Pb  Pb50  1  0.83302434  0.83492765  0.83498463  1
  Pb  Pb51  1  0.82904986  0.50265855  0.16628431  1
  Pb  Pb52  1  0.49756819  0.83347092  0.50010709  1
  Pb  Pb53  1  0.83591157  0.16440008  0.16435748  1
  I  I54  1  0.16833207  -0.00178864  0.16357349  1
  I  I55  1  0.16654632  -0.00296059  0.50216248  1
  I  I56  1  0.16887386  -0.00049782  0.83378588  1
  I  I57  1  0.16908805  0.33102030  0.16247027  1
  I  I58  1  0.16834445  0.33614894  0.50496366  1
  I  I59  1  0.16938387  0.33313319  0.83274225  1
  I  I60  1  0.16502383  0.66986416  0.16491568  1
  I  I61  1  0.16776584  0.66745803  0.50316387  1
  I  I62  1  0.17282938  0.66742122  0.83308573  1
  I  I63  1  0.49991496  -0.00336583  0.16196579  1
  I  I64  1  0.49671957  -0.00020978  0.49936592  1
  I  I65  1  0.49563290  -0.00066693  0.83759306  1
  I  I66  1  0.49496450  0.33566767  0.16063896  1
  I  I67  1  0.49608616  0.33349454  0.49888710  1
  I  I68  1  0.49550246  0.33368889  0.83719327  1
  I  I69  1  0.49642923  0.66816229  0.15753260  1
  I  I70  1  0.50071500  0.66680494  0.50403745  1
  I  I71  1  0.49063088  0.66714392  0.83910193  1
  I  I72  1  0.82960266  -0.00336981  0.16473203  1
  I  I73  1  0.83606147  -0.00030689  0.50044105  1
  I  I74  1  0.83506339  0.00283202  0.83536980  1
  I  I75  1  0.83496634  0.33308767  0.16655572  1
  I  I76  1  0.83510029  0.33324991  0.49906013  1
  I  I77  1  0.83529172  0.32976158  0.83420052  1
  I  I78  1  0.84270678  0.67053863  0.16417224  1
  I  I79  1  0.83105706  0.66705427  0.50238259  1
  I  I80  1  0.83447650  0.66682484  0.83399465  1
  I  I81  1  0.16697687  0.16285849  -0.00183238  1
  I  I82  1  0.16718185  0.16238037  0.33032726  1
  I  I83  1  0.16724722  0.16412332  0.67057047  1
  I  I84  1  0.16855658  0.50118019  -0.00319024  1
  I  I85  1  0.16885542  0.50443102  0.33514905  1
  I  I86  1  0.17224267  0.50201115  0.66886843  1
  I  I87  1  0.16722689  0.83468571  -0.00036394  1
  I  I88  1  0.16653219  0.83337411  0.33207160  1
  I  I89  1  0.17151012  0.83411441  0.66844801  1
  I  I90  1  0.50014545  0.16644374  -0.00379939  1
  I  I91  1  0.49743261  0.16679761  0.33298628  1
  I  I92  1  0.49420945  0.16655333  0.67284447  1
  I  I93  1  0.49297484  0.50117565  -0.00167416  1
  I  I94  1  0.49668429  0.50770891  0.33030156  1
  I  I95  1  0.49719259  0.49895947  0.67048530  1
  I  I96  1  0.49474739  0.83307901  -0.00058166  1
  I  I97  1  0.49807811  0.82756720  0.32971431  1
  I  I98  1  0.49483082  0.83419629  0.67053359  1
  I  I99  1  0.83215943  0.16613931  -0.00345235  1
  I  I100  1  0.83556082  0.16636697  0.33294682  1
  I  I101  1  0.83749495  0.16473132  0.67144584  1
  I  I102  1  0.84071916  0.49967097  0.00002547  1
  I  I103  1  0.83470262  0.49959742  0.33304153  1
  I  I104  1  0.82875731  0.50009669  0.66697245  1
  I  I105  1  0.83924809  0.83465880  0.00275666  1
  I  I106  1  0.83223433  0.83368732  0.32871054  1
  I  I107  1  0.83305070  0.83515456  0.66658819  1
  I  I108  1  0.00417281  0.16203560  0.16109048  1
  I  I109  1  0.00064027  0.16667560  0.50229992  1
  I  I110  1  0.00203102  0.16578874  0.83643769  1
  I  I111  1  0.00022090  0.50018730  0.16742090  1
  I  I112  1  0.00529733  0.50430910  0.50678584  1
  I  I113  1  0.00366241  0.50030876  0.82916933  1
  I  I114  1  0.00213756  0.83853830  0.16665329  1
  I  I115  1  0.00504834  0.83036577  0.50302113  1
  I  I116  1  0.00360018  0.83385800  0.83401265  1
  I  I117  1  0.32989530  0.16073341  0.16082698  1
  I  I118  1  0.33270463  0.16641741  0.50102661  1
  I  I119  1  0.33243334  0.16639173  0.83670471  1
  I  I120  1  0.33596207  0.50614446  0.16390921  1
  I  I121  1  0.32979444  0.50432934  0.50282464  1
  I  I122  1  0.33259713  0.49635474  0.83312121  1
  I  I123  1  0.33265852  0.83319083  0.16536396  1
  I  I124  1  0.32931405  0.83005422  0.49667407  1
  I  I125  1  0.33226535  0.83680408  0.83701316  1
  I  I126  1  0.66649131  0.16560055  0.16436124  1
  I  I127  1  0.66674830  0.16655431  0.49912879  1
  I  I128  1  0.66554102  0.16601268  0.83382303  1
  I  I129  1  0.66113068  0.50415355  0.15694037  1
  I  I130  1  0.66652411  0.49962169  0.50099328  1
  I  I131  1  0.66277724  0.49983586  0.83827235  1
  I  I132  1  0.66510848  0.82857678  0.15834850  1
  I  I133  1  0.66673360  0.83368707  0.50125737  1
  I  I134  1  0.66324411  0.83442215  0.83881579  1
