# generated using pymatgen
data_Cs27Sn13Pb14I81
_symmetry_space_group_name_H-M   'P 1'
_cell_length_a   19.01695518
_cell_length_b   19.02447555
_cell_length_c   19.02382867
_cell_angle_alpha   89.99666543
_cell_angle_beta   89.99896988
_cell_angle_gamma   90.00006809
_symmetry_Int_Tables_number   1
_chemical_formula_structural   Cs27Sn13Pb14I81
_chemical_formula_sum   'Cs27 Sn13 Pb14 I81'
_cell_volume   6882.58528321
_cell_formula_units_Z   1
loop_
 _symmetry_equiv_pos_site_id
 _symmetry_equiv_pos_as_xyz
  1  'x, y, z'
loop_
 _atom_site_type_symbol
 _atom_site_label
 _atom_site_symmetry_multiplicity
 _atom_site_fract_x
 _atom_site_fract_y
 _atom_site_fract_z
 _atom_site_occupancy
  Cs  Cs0  1  -0.00510742  -0.00455774  0.00205930  1
  Cs  Cs1  1  -0.00106006  0.00200624  0.33388654  1
  Cs  Cs2  1  0.00029863  -0.00236339  0.66519577  1
  Cs  Cs3  1  0.00077836  0.33414534  0.00158573  1
  Cs  Cs4  1  -0.00285686  0.33074144  0.33486578  1
  Cs  Cs5  1  0.00036327  0.33412599  0.66420763  1
  Cs  Cs6  1  -0.00649118  0.67173189  -0.00189502  1
  Cs  Cs7  1  0.00463001  0.67078799  0.33297326  1
  Cs  Cs8  1  0.00041804  0.66938922  0.66830825  1
  Cs  Cs9  1  0.33431290  0.00370968  -0.00160281  1
  Cs  Cs10  1  0.33445862  -0.00009779  0.33322667  1
  Cs  Cs11  1  0.33465639  0.00147663  0.66836399  1
  Cs  Cs12  1  0.33302991  0.33093875  -0.00249441  1
  Cs  Cs13  1  0.33178367  0.33193118  0.33165809  1
  Cs  Cs14  1  0.33180818  0.33078804  0.67073061  1
  Cs  Cs15  1  0.33275057  0.66591518  -0.00047934  1
  Cs  Cs16  1  0.33980334  0.66820561  0.33125630  1
  Cs  Cs17  1  0.33324473  0.66696378  0.66711442  1
  Cs  Cs18  1  0.67448562  -0.00075481  -0.00077632  1
  Cs  Cs19  1  0.66540083  0.00252791  0.33206125  1
  Cs  Cs20  1  0.66650990  -0.00038290  0.66767220  1
  Cs  Cs21  1  0.66968538  0.33537163  0.00338616  1
  Cs  Cs22  1  0.67559883  0.33790569  0.33216089  1
  Cs  Cs23  1  0.67296290  0.33486227  0.66395492  1
  Cs  Cs24  1  0.67687828  0.66546666  0.00329761  1
  Cs  Cs25  1  0.64878962  0.65583758  0.32798165  1
  Cs  Cs26  1  0.66713672  0.66554900  0.66709247  1
  Sn  Sn27  1  0.16631910  0.83337291  0.50081363  1
  Sn  Sn28  1  0.49911879  0.50095373  0.83323357  1
  Sn  Sn29  1  0.16762619  0.16719393  0.16751250  1
  Sn  Sn30  1  0.16799628  0.83281780  0.83270465  1
  Sn  Sn31  1  0.49933755  0.16706005  0.49922134  1
  Sn  Sn32  1  0.49901459  0.16666436  0.16769398  1
  Sn  Sn33  1  0.16739919  0.50108428  0.83347413  1
  Sn  Sn34  1  0.83294258  0.83264069  0.49921048  1
  Sn  Sn35  1  0.16690319  0.49936096  0.16655662  1
  Sn  Sn36  1  0.16714949  0.50019057  0.49989708  1
  Sn  Sn37  1  0.49914854  0.83217008  0.83365853  1
  Sn  Sn38  1  0.83390767  0.16686860  0.83274650  1
  Sn  Sn39  1  0.16767300  0.16656150  0.49930727  1
  Pb  Pb40  1  0.16685116  0.83356741  0.16667457  1
  Pb  Pb41  1  0.83595502  0.50365945  0.49985388  1
  Pb  Pb42  1  0.83678783  0.50032454  0.16723430  1
  Pb  Pb43  1  0.49712107  0.49742302  0.16383389  1
  Pb  Pb44  1  0.83351312  0.83467217  0.83148762  1
  Pb  Pb45  1  0.83387717  0.16664051  0.16493841  1
  Pb  Pb46  1  0.83297134  0.83302001  0.17132852  1
  Pb  Pb47  1  0.49939981  0.83521607  0.50174360  1
  Pb  Pb48  1  0.83364758  0.16493527  0.50134903  1
  Pb  Pb49  1  0.16509182  0.16633780  0.83347817  1
  Pb  Pb50  1  0.49710200  0.49701862  0.50241066  1
  Pb  Pb51  1  0.50183335  0.16714129  0.83342756  1
  Pb  Pb52  1  0.49968883  0.83592328  0.16325305  1
  Pb  Pb53  1  0.83399272  0.49815633  0.83308223  1
  I  I54  1  0.17002863  0.00316860  0.16965828  1
  I  I55  1  0.16611472  0.00017182  0.50106536  1
  I  I56  1  0.16978990  -0.00259308  0.82905256  1
  I  I57  1  0.17104141  0.33274310  0.16858727  1
  I  I58  1  0.17254989  0.33302269  0.50111835  1
  I  I59  1  0.16992082  0.33585764  0.83085165  1
  I  I60  1  0.16523293  0.66386395  0.16929569  1
  I  I61  1  0.15898830  0.66678578  0.50203984  1
  I  I62  1  0.17024326  0.66656589  0.82942863  1
  I  I63  1  0.49092819  0.00396846  0.16872326  1
  I  I64  1  0.49267476  0.00293234  0.50008877  1
  I  I65  1  0.49553658  -0.00191198  0.83231586  1
  I  I66  1  0.49674819  0.32985430  0.16732556  1
  I  I67  1  0.49337152  0.32937651  0.50003075  1
  I  I68  1  0.49378162  0.33555452  0.83337191  1
  I  I69  1  0.49956850  0.66636414  0.16942284  1
  I  I70  1  0.50136389  0.66642112  0.49916525  1
  I  I71  1  0.49353477  0.66669456  0.83071072  1
  I  I72  1  0.83699908  0.00025292  0.16289162  1
  I  I73  1  0.84233511  -0.00225187  0.50349968  1
  I  I74  1  0.83304913  0.00208257  0.83310266  1
  I  I75  1  0.83070232  0.33306639  0.16578203  1
  I  I76  1  0.83346941  0.33353909  0.50162434  1
  I  I77  1  0.83279024  0.33067758  0.83198733  1
  I  I78  1  0.83626541  0.66674472  0.16148158  1
  I  I79  1  0.84181901  0.67106599  0.50547754  1
  I  I80  1  0.83315023  0.66660236  0.83295190  1
  I  I81  1  0.17017779  0.17050470  0.00236989  1
  I  I82  1  0.16975446  0.16969375  0.33422149  1
  I  I83  1  0.16985626  0.16866635  0.66392653  1
  I  I84  1  0.17197239  0.49753800  -0.00067633  1
  I  I85  1  0.16356457  0.49848474  0.33381929  1
  I  I86  1  0.17051982  0.49951723  0.66681095  1
  I  I87  1  0.17102865  0.83103870  -0.00317007  1
  I  I88  1  0.16059865  0.83173301  0.33658361  1
  I  I89  1  0.16619117  0.83111954  0.66651560  1
  I  I90  1  0.49458858  0.16685824  0.00209959  1
  I  I91  1  0.49375445  0.16413506  0.33382938  1
  I  I92  1  0.49470958  0.16568444  0.66455934  1
  I  I93  1  0.49178023  0.50035899  -0.00367495  1
  I  I94  1  0.50010744  0.50238569  0.33326008  1
  I  I95  1  0.49248886  0.50091274  0.66989629  1
  I  I96  1  0.49064712  0.83270530  -0.00481423  1
  I  I97  1  0.50094935  0.83278674  0.33324928  1
  I  I98  1  0.49752701  0.83363903  0.66953038  1
  I  I99  1  0.83290276  0.16460890  -0.00269941  1
  I  I100  1  0.83321264  0.16456346  0.33330724  1
  I  I101  1  0.83281498  0.16611931  0.66876124  1
  I  I102  1  0.83522024  0.49885251  -0.00023424  1
  I  I103  1  0.83337679  0.49754277  0.33367580  1
  I  I104  1  0.83567606  0.49700837  0.66663263  1
  I  I105  1  0.83390718  0.83575828  -0.00006119  1
  I  I106  1  0.84712134  0.83825932  0.33861926  1
  I  I107  1  0.83782010  0.83633136  0.66437526  1
  I  I108  1  0.00356850  0.17148230  0.17084730  1
  I  I109  1  0.00381123  0.16915145  0.49695798  1
  I  I110  1  -0.00213815  0.16601716  0.83240212  1
  I  I111  1  0.00552418  0.49087905  0.16314679  1
  I  I112  1  0.00510193  0.49163898  0.50396435  1
  I  I113  1  0.00404569  0.50360954  0.83348523  1
  I  I114  1  0.00047486  0.83560057  0.15891813  1
  I  I115  1  0.00309382  0.83577236  0.50771015  1
  I  I116  1  0.00325013  0.82986035  0.83198248  1
  I  I117  1  0.33194800  0.17052464  0.16980660  1
  I  I118  1  0.33139346  0.16381245  0.49743159  1
  I  I119  1  0.33304930  0.16598789  0.83335384  1
  I  I120  1  0.32934854  0.49803220  0.16966078  1
  I  I121  1  0.32875159  0.50678610  0.49760517  1
  I  I122  1  0.33141657  0.50304280  0.83278614  1
  I  I123  1  0.33300011  0.83174690  0.17243211  1
  I  I124  1  0.32957088  0.83188255  0.50258901  1
  I  I125  1  0.33184607  0.83087400  0.82601753  1
  I  I126  1  0.66380667  0.16449939  0.16975497  1
  I  I127  1  0.66392517  0.16264815  0.49846579  1
  I  I128  1  0.66904659  0.16476430  0.83228138  1
  I  I129  1  0.66610708  0.49852735  0.16427491  1
  I  I130  1  0.66630507  0.49888057  0.50307008  1
  I  I131  1  0.66378085  0.50288512  0.83304031  1
  I  I132  1  0.66644675  0.83793971  0.16424738  1
  I  I133  1  0.66861574  0.84058516  0.50481146  1
  I  I134  1  0.66400487  0.83194605  0.83127510  1
