# generated using pymatgen
data_Cs27Sn13Pb14I81
_symmetry_space_group_name_H-M   'P 1'
_cell_length_a   18.98180109
_cell_length_b   18.98779789
_cell_length_c   19.00557715
_cell_angle_alpha   90.00081913
_cell_angle_beta   90.00105495
_cell_angle_gamma   90.00481064
_symmetry_Int_Tables_number   1
_chemical_formula_structural   Cs27Sn13Pb14I81
_chemical_formula_sum   'Cs27 Sn13 Pb14 I81'
_cell_volume   6850.03955712
_cell_formula_units_Z   1
loop_
 _symmetry_equiv_pos_site_id
 _symmetry_equiv_pos_as_xyz
  1  'x, y, z'
loop_
 _atom_site_type_symbol
 _atom_site_label
 _atom_site_symmetry_multiplicity
 _atom_site_fract_x
 _atom_site_fract_y
 _atom_site_fract_z
 _atom_site_occupancy
  Cs  Cs0  1  -0.00033478  -0.00100539  0.00111635  1
  Cs  Cs1  1  0.00273052  0.00033888  0.33101490  1
  Cs  Cs2  1  -0.00174060  -0.00039306  0.66830657  1
  Cs  Cs3  1  -0.00067676  0.33390403  -0.00073169  1
  Cs  Cs4  1  -0.00005830  0.33151664  0.33509203  1
  Cs  Cs5  1  0.00007762  0.34256756  0.66479619  1
  Cs  Cs6  1  -0.00278103  0.66632768  0.00268233  1
  Cs  Cs7  1  0.00165346  0.66696635  0.33073820  1
  Cs  Cs8  1  0.00814810  0.65842106  0.66553006  1
  Cs  Cs9  1  0.33153107  0.00359880  -0.00284258  1
  Cs  Cs10  1  0.33165952  0.00151513  0.33222256  1
  Cs  Cs11  1  0.33053672  0.00158024  0.67176317  1
  Cs  Cs12  1  0.33314414  0.32977353  0.00286806  1
  Cs  Cs13  1  0.33339403  0.33205385  0.32957661  1
  Cs  Cs14  1  0.33132050  0.33171268  0.67128298  1
  Cs  Cs15  1  0.33639456  0.66668884  0.00102032  1
  Cs  Cs16  1  0.33429222  0.66609284  0.33464590  1
  Cs  Cs17  1  0.33312997  0.66692741  0.66424521  1
  Cs  Cs18  1  0.66788126  -0.00031319  -0.00201016  1
  Cs  Cs19  1  0.66615934  0.00127086  0.33755753  1
  Cs  Cs20  1  0.66873437  -0.00241867  0.66610581  1
  Cs  Cs21  1  0.66690654  0.33378047  0.00005466  1
  Cs  Cs22  1  0.66891957  0.33001695  0.33758316  1
  Cs  Cs23  1  0.66958830  0.33113357  0.66162728  1
  Cs  Cs24  1  0.66685644  0.66668511  -0.00067119  1
  Cs  Cs25  1  0.66504751  0.66750619  0.33202767  1
  Cs  Cs26  1  0.66345616  0.67154946  0.66830348  1
  Sn  Sn27  1  0.83344894  0.83288128  0.50084150  1
  Sn  Sn28  1  0.50039483  0.83297005  0.50006572  1
  Sn  Sn29  1  0.49957967  0.50050797  0.16680305  1
  Sn  Sn30  1  0.16552889  0.16751186  0.16734329  1
  Sn  Sn31  1  0.50051196  0.83272660  0.83333712  1
  Sn  Sn32  1  0.16721012  0.49955983  0.16653703  1
  Sn  Sn33  1  0.83307026  0.83355470  0.83227143  1
  Sn  Sn34  1  0.83327907  0.16640323  0.83386904  1
  Sn  Sn35  1  0.16667815  0.16649611  0.49978841  1
  Sn  Sn36  1  0.50031534  0.50036447  0.83336761  1
  Sn  Sn37  1  0.49996615  0.83312987  0.16662648  1
  Sn  Sn38  1  0.50011022  0.50021573  0.49987012  1
  Sn  Sn39  1  0.83378434  0.16646582  0.16604710  1
  Pb  Pb40  1  0.16975421  0.50013464  0.83644423  1
  Pb  Pb41  1  0.50016188  0.16676770  0.16665535  1
  Pb  Pb42  1  0.16689008  0.83508939  0.50006474  1
  Pb  Pb43  1  0.16950217  0.49795730  0.49753940  1
  Pb  Pb44  1  0.83092654  0.50082184  0.83320831  1
  Pb  Pb45  1  0.83552709  0.16459167  0.50033123  1
  Pb  Pb46  1  0.83268416  0.49759805  0.16686615  1
  Pb  Pb47  1  0.83091782  0.83533570  0.16671400  1
  Pb  Pb48  1  0.50260518  0.16652374  0.83316996  1
  Pb  Pb49  1  0.49774388  0.16615417  0.50020346  1
  Pb  Pb50  1  0.16935650  0.83336232  0.16653834  1
  Pb  Pb51  1  0.83094869  0.50349746  0.49994577  1
  Pb  Pb52  1  0.16334912  0.16675704  0.83371166  1
  Pb  Pb53  1  0.16628068  0.83303891  0.83336040  1
  I  I54  1  0.16433269  0.00319431  0.17031281  1
  I  I55  1  0.16914869  0.00287776  0.49149753  1
  I  I56  1  0.17350382  0.00022995  0.83595871  1
  I  I57  1  0.17057876  0.33288699  0.17025034  1
  I  I58  1  0.16696598  0.33016598  0.49749377  1
  I  I59  1  0.16769737  0.33328375  0.83097408  1
  I  I60  1  0.17026352  0.66370847  0.16598346  1
  I  I61  1  0.16445378  0.66645065  0.49875481  1
  I  I62  1  0.16102959  0.66640745  0.83457027  1
  I  I63  1  0.50065786  -0.00291310  0.16671987  1
  I  I64  1  0.50324545  -0.00376236  0.49940216  1
  I  I65  1  0.50133952  -0.00356725  0.83352410  1
  I  I66  1  0.49855805  0.33647060  0.16632981  1
  I  I67  1  0.49788690  0.33635361  0.49849861  1
  I  I68  1  0.50003377  0.33646900  0.83471130  1
  I  I69  1  0.49477589  0.66626374  0.16661348  1
  I  I70  1  0.50346371  0.66739518  0.49939630  1
  I  I71  1  0.50580468  0.66766493  0.83455817  1
  I  I72  1  0.83814121  0.00314030  0.16517626  1
  I  I73  1  0.82487343  -0.00305692  0.50092322  1
  I  I74  1  0.82663817  -0.00093423  0.83374083  1
  I  I75  1  0.83202232  0.32947953  0.16075100  1
  I  I76  1  0.83191244  0.33325639  0.50015806  1
  I  I77  1  0.83225462  0.33076729  0.83888008  1
  I  I78  1  0.83668758  0.66684633  0.16585925  1
  I  I79  1  0.83168212  0.67154883  0.50626974  1
  I  I80  1  0.82940020  0.67040025  0.83002235  1
  I  I81  1  0.16601296  0.17061421  0.00330361  1
  I  I82  1  0.16137299  0.16978759  0.33160190  1
  I  I83  1  0.16875687  0.16406477  0.66437654  1
  I  I84  1  0.17284064  0.49256786  0.00426254  1
  I  I85  1  0.17372145  0.49802131  0.32986703  1
  I  I86  1  0.16717171  0.49760530  0.66652625  1
  I  I87  1  0.16725086  0.83638498  0.00023485  1
  I  I88  1  0.16622706  0.83296322  0.33316788  1
  I  I89  1  0.17162286  0.83732595  0.66656994  1
  I  I90  1  0.49597933  0.16627285  0.00006440  1
  I  I91  1  0.50457564  0.16573861  0.33324368  1
  I  I92  1  0.49838707  0.16826541  0.66668216  1
  I  I93  1  0.49648292  0.50622194  0.00050229  1
  I  I94  1  0.49582784  0.50685947  0.33283152  1
  I  I95  1  0.50185694  0.50673444  0.66660361  1
  I  I96  1  0.50341636  0.82723571  -0.00038596  1
  I  I97  1  0.50352677  0.82768130  0.33365951  1
  I  I98  1  0.50483674  0.82699729  0.66677267  1
  I  I99  1  0.83788079  0.16069010  0.00023417  1
  I  I100  1  0.83498809  0.16588668  0.33102350  1
  I  I101  1  0.83244175  0.16328934  0.66917332  1
  I  I102  1  0.83090242  0.50356487  0.00011302  1
  I  I103  1  0.82992149  0.49938531  0.33329936  1
  I  I104  1  0.83274750  0.49230890  0.66664552  1
  I  I105  1  0.82810028  0.83616734  -0.00269203  1
  I  I106  1  0.82758347  0.83503777  0.33565631  1
  I  I107  1  0.82210348  0.84185088  0.66737499  1
  I  I108  1  0.00058409  0.17155503  0.16679712  1
  I  I109  1  0.00301993  0.16398775  0.49656772  1
  I  I110  1  -0.00426178  0.15812754  0.83588239  1
  I  I111  1  0.00279652  0.49713577  0.16685107  1
  I  I112  1  0.00034714  0.50072600  0.49876589  1
  I  I113  1  -0.00005806  0.50017063  0.83483493  1
  I  I114  1  -0.00014629  0.83093081  0.16666716  1
  I  I115  1  -0.00305896  0.83770225  0.50503567  1
  I  I116  1  -0.00400541  0.83987879  0.82918238  1
  I  I117  1  0.33078117  0.16756108  0.17096881  1
  I  I118  1  0.33020473  0.16538227  0.49127400  1
  I  I119  1  0.33321051  0.16581637  0.83422556  1
  I  I120  1  0.33481186  0.49709864  0.16645791  1
  I  I121  1  0.33758003  0.50794964  0.50205725  1
  I  I122  1  0.33814737  0.50677142  0.83030256  1
  I  I123  1  0.33787566  0.83414938  0.16715389  1
  I  I124  1  0.33721479  0.82977220  0.50031494  1
  I  I125  1  0.33742608  0.82937879  0.83241954  1
  I  I126  1  0.66919281  0.16604649  0.16231705  1
  I  I127  1  0.66684870  0.16906490  0.49865060  1
  I  I128  1  0.67021336  0.16497586  0.84003727  1
  I  I129  1  0.66271009  0.50345127  0.16585237  1
  I  I130  1  0.66223513  0.49870458  0.49621106  1
  I  I131  1  0.66249947  0.50155020  0.83783004  1
  I  I132  1  0.66277980  0.82813550  0.16642549  1
  I  I133  1  0.66517686  0.83127243  0.50059337  1
  I  I134  1  0.66548960  0.83393832  0.83285469  1
