# generated using pymatgen
data_Cs27Sn14Pb13I81
_symmetry_space_group_name_H-M   'P 1'
_cell_length_a   18.96382142
_cell_length_b   18.98336189
_cell_length_c   18.98136954
_cell_angle_alpha   89.99963279
_cell_angle_beta   90.00055451
_cell_angle_gamma   90.00058649
_symmetry_Int_Tables_number   1
_chemical_formula_structural   Cs27Sn14Pb13I81
_chemical_formula_sum   'Cs27 Sn14 Pb13 I81'
_cell_volume   6833.23769987
_cell_formula_units_Z   1
loop_
 _symmetry_equiv_pos_site_id
 _symmetry_equiv_pos_as_xyz
  1  'x, y, z'
loop_
 _atom_site_type_symbol
 _atom_site_label
 _atom_site_symmetry_multiplicity
 _atom_site_fract_x
 _atom_site_fract_y
 _atom_site_fract_z
 _atom_site_occupancy
  Cs  Cs0  1  -0.00367839  0.00389424  -0.00038407  1
  Cs  Cs1  1  -0.00016409  -0.00255057  0.33149533  1
  Cs  Cs2  1  -0.00255215  0.00229564  0.66877673  1
  Cs  Cs3  1  -0.00066946  0.33042760  -0.00698950  1
  Cs  Cs4  1  -0.00018360  0.33495461  0.33413272  1
  Cs  Cs5  1  -0.00456850  0.34242392  0.67727441  1
  Cs  Cs6  1  -0.00169364  0.66646356  0.00090809  1
  Cs  Cs7  1  0.00052408  0.66746179  0.33559703  1
  Cs  Cs8  1  -0.00586658  0.65670416  0.66415758  1
  Cs  Cs9  1  0.33306492  -0.00092452  -0.00004372  1
  Cs  Cs10  1  0.33245885  -0.00045390  0.33440004  1
  Cs  Cs11  1  0.33355104  -0.00165648  0.66432200  1
  Cs  Cs12  1  0.33400305  0.33264449  0.00074355  1
  Cs  Cs13  1  0.33477706  0.33240200  0.33235967  1
  Cs  Cs14  1  0.33247944  0.33256111  0.66774012  1
  Cs  Cs15  1  0.33534229  0.66866171  0.00222176  1
  Cs  Cs16  1  0.33262894  0.66735212  0.33250681  1
  Cs  Cs17  1  0.33323027  0.66895820  0.66493461  1
  Cs  Cs18  1  0.67206665  -0.00222878  -0.00174353  1
  Cs  Cs19  1  0.67301363  0.00346414  0.33562058  1
  Cs  Cs20  1  0.67351993  -0.00031035  0.66504918  1
  Cs  Cs21  1  0.66337982  0.33454949  0.00238288  1
  Cs  Cs22  1  0.66445486  0.32998228  0.33418055  1
  Cs  Cs23  1  0.66888999  0.33055371  0.66236114  1
  Cs  Cs24  1  0.66423960  0.66804079  -0.00173974  1
  Cs  Cs25  1  0.66530949  0.66627350  0.33197892  1
  Cs  Cs26  1  0.67046517  0.66913463  0.67024771  1
  Sn  Sn27  1  0.16766697  0.16650344  0.16754092  1
  Sn  Sn28  1  0.16723246  0.83403260  0.50024919  1
  Sn  Sn29  1  0.49939056  0.50096653  0.50009538  1
  Sn  Sn30  1  0.16681438  0.16662743  0.49976544  1
  Sn  Sn31  1  0.49955770  0.83400435  0.16775394  1
  Sn  Sn32  1  0.16757727  0.83363060  0.16651917  1
  Sn  Sn33  1  0.49962820  0.50008419  0.16686937  1
  Sn  Sn34  1  0.16664664  0.49976881  0.16662236  1
  Sn  Sn35  1  0.49943429  0.16674680  0.83396626  1
  Sn  Sn36  1  0.49933567  0.49921754  0.83295955  1
  Sn  Sn37  1  0.16675132  0.83302185  0.83304250  1
  Sn  Sn38  1  0.49922777  0.16596367  0.16581321  1
  Sn  Sn39  1  0.83327024  0.49989269  0.16689428  1
  Sn  Sn40  1  0.49958770  0.83283961  0.49900115  1
  Pb  Pb41  1  0.16919373  0.50236045  0.83603405  1
  Pb  Pb42  1  0.16859646  0.16490856  0.83333635  1
  Pb  Pb43  1  0.83822644  0.16697432  0.49968529  1
  Pb  Pb44  1  0.83369355  0.83330685  0.49964804  1
  Pb  Pb45  1  0.83737762  0.83308646  0.83350223  1
  Pb  Pb46  1  0.82960432  0.16677779  0.83360363  1
  Pb  Pb47  1  0.82985631  0.50001523  0.83615668  1
  Pb  Pb48  1  0.82992095  0.50004354  0.49737179  1
  Pb  Pb49  1  0.49891581  0.83368275  0.83307654  1
  Pb  Pb50  1  0.16852782  0.49988335  0.49822437  1
  Pb  Pb51  1  0.49862282  0.16605359  0.49983161  1
  Pb  Pb52  1  0.83359808  0.16918178  0.16683847  1
  Pb  Pb53  1  0.83324703  0.83120768  0.16676212  1
  I  I54  1  0.17415858  -0.00046856  0.16739451  1
  I  I55  1  0.17412717  -0.00130233  0.49441358  1
  I  I56  1  0.17140439  -0.00286091  0.83803374  1
  I  I57  1  0.17088142  0.33314560  0.17191261  1
  I  I58  1  0.17034697  0.33092636  0.49299541  1
  I  I59  1  0.16563041  0.33348214  0.83285742  1
  I  I60  1  0.17000497  0.66710084  0.16640769  1
  I  I61  1  0.16939498  0.66966107  0.49822737  1
  I  I62  1  0.17096607  0.67006413  0.83349448  1
  I  I63  1  0.49195044  -0.00021747  0.16595674  1
  I  I64  1  0.49644976  -0.00296539  0.49700941  1
  I  I65  1  0.49664305  0.00229753  0.83778145  1
  I  I66  1  0.49786085  0.33406036  0.16612448  1
  I  I67  1  0.49867358  0.33545207  0.49678520  1
  I  I68  1  0.49874240  0.33384820  0.83832325  1
  I  I69  1  0.49776012  0.66617815  0.16657274  1
  I  I70  1  0.49404249  0.66716250  0.49588219  1
  I  I71  1  0.49830243  0.66434231  0.83714640  1
  I  I72  1  0.83276441  0.00010791  0.16626934  1
  I  I73  1  0.82657162  0.00006491  0.49965349  1
  I  I74  1  0.83000459  -0.00005891  0.83431740  1
  I  I75  1  0.83110364  0.33700688  0.16702257  1
  I  I76  1  0.83115159  0.33359080  0.49801051  1
  I  I77  1  0.83859873  0.33360507  0.83403395  1
  I  I78  1  0.83202481  0.66334241  0.16650805  1
  I  I79  1  0.83836759  0.66656379  0.49926500  1
  I  I80  1  0.83013631  0.66634178  0.83434823  1
  I  I81  1  0.16887178  0.16646961  0.00341899  1
  I  I82  1  0.17335130  0.16257525  0.33153579  1
  I  I83  1  0.17060384  0.15961954  0.66414243  1
  I  I84  1  0.16963201  0.49922281  0.00474287  1
  I  I85  1  0.16978745  0.50379055  0.32942669  1
  I  I86  1  0.16888079  0.50031134  0.66674230  1
  I  I87  1  0.17215201  0.83226832  0.00200689  1
  I  I88  1  0.17076184  0.83366523  0.33239522  1
  I  I89  1  0.17382073  0.83959554  0.66530257  1
  I  I90  1  0.49422016  0.17070103  0.00210482  1
  I  I91  1  0.49789933  0.17022412  0.33018418  1
  I  I92  1  0.49723708  0.17073676  0.66860020  1
  I  I93  1  0.50014802  0.49972194  0.00190174  1
  I  I94  1  0.49996810  0.50060401  0.33167665  1
  I  I95  1  0.49786186  0.50013641  0.66645045  1
  I  I96  1  0.49531778  0.83002376  0.00309709  1
  I  I97  1  0.49222238  0.82874029  0.33222752  1
  I  I98  1  0.49420045  0.82967028  0.66394474  1
  I  I99  1  0.83852650  0.16686555  0.00037174  1
  I  I100  1  0.82663299  0.16775744  0.33303826  1
  I  I101  1  0.83177301  0.16679545  0.66665475  1
  I  I102  1  0.83218542  0.50051285  0.00397246  1
  I  I103  1  0.83192072  0.50067122  0.32943272  1
  I  I104  1  0.83354681  0.49995778  0.66679661  1
  I  I105  1  0.83137733  0.83199241  0.00036034  1
  I  I106  1  0.83668415  0.83230213  0.33311341  1
  I  I107  1  0.83020404  0.83277840  0.66654524  1
  I  I108  1  0.00393123  0.16531559  0.17109776  1
  I  I109  1  0.00615827  0.15833750  0.49113361  1
  I  I110  1  0.00034211  0.16431649  0.83349526  1
  I  I111  1  0.00128473  0.50146706  0.16770087  1
  I  I112  1  0.00019164  0.50041489  0.49781484  1
  I  I113  1  0.00017465  0.50186959  0.83432644  1
  I  I114  1  0.00402184  0.83317313  0.16731260  1
  I  I115  1  0.00425181  0.83821251  0.49747129  1
  I  I116  1  0.00559408  0.83479372  0.83599636  1
  I  I117  1  0.33370489  0.17060236  0.16640125  1
  I  I118  1  0.33070641  0.16471705  0.49710218  1
  I  I119  1  0.33654508  0.17138706  0.83680780  1
  I  I120  1  0.33444216  0.50043809  0.16660408  1
  I  I121  1  0.33692926  0.50174568  0.49636872  1
  I  I122  1  0.33726460  0.49627337  0.83695845  1
  I  I123  1  0.33327690  0.82917837  0.16722642  1
  I  I124  1  0.33314001  0.83261398  0.49793293  1
  I  I125  1  0.33105871  0.83291967  0.83486881  1
  I  I126  1  0.66294972  0.16718649  0.16284749  1
  I  I127  1  0.66643805  0.16661708  0.50027403  1
  I  I128  1  0.66119542  0.16984789  0.84025095  1
  I  I129  1  0.66415319  0.50020626  0.16628546  1
  I  I130  1  0.66130164  0.50529135  0.49793565  1
  I  I131  1  0.66160599  0.49807630  0.83597964  1
  I  I132  1  0.66271344  0.83276647  0.17039156  1
  I  I133  1  0.66284262  0.82900560  0.49504517  1
  I  I134  1  0.66640554  0.83318363  0.83378176  1
