# generated using pymatgen
data_Cs27Sn14Pb13I81
_symmetry_space_group_name_H-M   'P 1'
_cell_length_a   18.97622064
_cell_length_b   18.97622064
_cell_length_c   18.97247907
_cell_angle_alpha   90.00038750
_cell_angle_beta   90.00038748
_cell_angle_gamma   89.99952603
_symmetry_Int_Tables_number   1
_chemical_formula_structural   Cs27Sn14Pb13I81
_chemical_formula_sum   'Cs27 Sn14 Pb13 I81'
_cell_volume   6831.93184327
_cell_formula_units_Z   1
loop_
 _symmetry_equiv_pos_site_id
 _symmetry_equiv_pos_as_xyz
  1  'x, y, z'
loop_
 _atom_site_type_symbol
 _atom_site_label
 _atom_site_symmetry_multiplicity
 _atom_site_fract_x
 _atom_site_fract_y
 _atom_site_fract_z
 _atom_site_occupancy
  Cs  Cs0  1  -0.00005538  -0.00132603  -0.00293478  1
  Cs  Cs1  1  -0.00423847  0.00039194  0.33367976  1
  Cs  Cs2  1  0.00093442  0.00048499  0.66904152  1
  Cs  Cs3  1  0.00302264  0.33635621  0.00147155  1
  Cs  Cs4  1  -0.00074619  0.33258727  0.34083044  1
  Cs  Cs5  1  -0.00212025  0.33121305  0.65431731  1
  Cs  Cs6  1  0.00243133  0.66677950  0.00218014  1
  Cs  Cs7  1  0.00187702  0.66624935  0.33260735  1
  Cs  Cs8  1  -0.00299192  0.66832109  0.66409302  1
  Cs  Cs9  1  0.33154022  0.00274492  -0.00305992  1
  Cs  Cs10  1  0.33858094  -0.00347001  0.33250029  1
  Cs  Cs11  1  0.33339297  0.00065531  0.66942636  1
  Cs  Cs12  1  0.33344633  0.33576464  0.00218004  1
  Cs  Cs13  1  0.33291604  0.33521045  0.33260750  1
  Cs  Cs14  1  0.33498765  0.33034149  0.66409295  1
  Cs  Cs15  1  0.32913383  0.66246708  0.00030697  1
  Cs  Cs16  1  0.33338787  0.66672117  0.33448243  1
  Cs  Cs17  1  0.33551689  0.66885038  0.66567728  1
  Cs  Cs18  1  0.66816651  0.00149985  0.00275992  1
  Cs  Cs19  1  0.66615474  -0.00051155  0.32601495  1
  Cs  Cs20  1  0.66562394  -0.00104271  0.66745125  1
  Cs  Cs21  1  0.66534068  0.33327790  -0.00293482  1
  Cs  Cs22  1  0.66705873  0.32909488  0.33367986  1
  Cs  Cs23  1  0.66715170  0.33426766  0.66904150  1
  Cs  Cs24  1  0.66941146  0.66487352  -0.00305986  1
  Cs  Cs25  1  0.66319662  0.67191427  0.33250048  1
  Cs  Cs26  1  0.66732201  0.66672657  0.66942641  1
  Sn  Sn27  1  0.16624371  0.49957706  0.16641172  1
  Sn  Sn28  1  0.83320923  0.16654254  0.83338839  1
  Sn  Sn29  1  0.16597980  0.83357653  0.49927302  1
  Sn  Sn30  1  0.50010742  0.16713914  0.50035254  1
  Sn  Sn31  1  0.16615928  0.49949256  0.83242897  1
  Sn  Sn32  1  0.50058046  0.83391377  0.83386854  1
  Sn  Sn33  1  0.83332500  0.49982887  0.16682600  1
  Sn  Sn34  1  0.83251496  0.83399370  0.83286087  1
  Sn  Sn35  1  0.50066036  0.16584833  0.83286085  1
  Sn  Sn36  1  0.83380584  0.83344081  0.50035250  1
  Sn  Sn37  1  0.16649549  0.16665842  0.16682603  1
  Sn  Sn38  1  0.16674871  0.83389476  0.16758504  1
  Sn  Sn39  1  0.50024323  0.49931314  0.49927306  1
  Sn  Sn40  1  0.50056145  0.50008205  0.16758503  1
  Pb  Pb41  1  0.83071552  0.16404882  0.50210630  1
  Pb  Pb42  1  0.83605098  0.49978682  0.83451276  1
  Pb  Pb43  1  0.50027827  0.83361161  0.50160020  1
  Pb  Pb44  1  0.83034627  0.50232533  0.49737578  1
  Pb  Pb45  1  0.49842494  0.16861950  0.16617185  1
  Pb  Pb46  1  0.49759227  0.83092562  0.16324999  1
  Pb  Pb47  1  0.16841072  0.50174405  0.49961140  1
  Pb  Pb48  1  0.16630144  0.83174095  0.83327214  1
  Pb  Pb49  1  0.16645347  0.16938436  0.83451274  1
  Pb  Pb50  1  0.83576368  0.16909703  0.16422151  1
  Pb  Pb51  1  0.49840758  0.49963478  0.83327213  1
  Pb  Pb52  1  0.83528608  0.83175827  0.16617188  1
  Pb  Pb53  1  0.16899198  0.16367958  0.49737578  1
  I  I54  1  0.16733727  -0.00070336  0.17015140  1
  I  I55  1  0.16543372  -0.00416166  0.49631687  1
  I  I56  1  0.16755313  0.00011199  0.83556902  1
  I  I57  1  0.16821837  0.33487962  0.15961870  1
  I  I58  1  0.16650139  0.33313708  0.49993861  1
  I  I59  1  0.16866090  0.33685347  0.84203748  1
  I  I60  1  0.16695531  0.66575441  0.16578124  1
  I  I61  1  0.16645923  0.66961398  0.49518215  1
  I  I62  1  0.16812903  0.66415042  0.84045965  1
  I  I63  1  0.49739906  -0.00011478  0.16940622  1
  I  I64  1  0.49847769  0.00218687  0.50382157  1
  I  I65  1  0.50153680  0.00050563  0.82712348  1
  I  I66  1  0.49618046  0.33682862  0.16522926  1
  I  I67  1  0.49829268  0.33342412  0.50233476  1
  I  I68  1  0.50290360  0.33077947  0.83279390  1
  I  I69  1  0.49685895  0.66289135  0.17184778  1
  I  I70  1  0.49869746  0.66475748  0.49695417  1
  I  I71  1  0.50250808  0.66865054  0.83299882  1
  I  I72  1  0.83545529  0.00001185  0.16821995  1
  I  I73  1  0.83614037  -0.00381457  0.50073762  1
  I  I74  1  0.83011349  -0.00091677  0.83040587  1
  I  I75  1  0.83529604  0.33704811  0.16397770  1
  I  I76  1  0.83452504  0.33323868  0.50088153  1
  I  I77  1  0.82842757  0.33089279  0.83727092  1
  I  I78  1  0.83583115  0.66378441  0.16416289  1
  I  I79  1  0.83521978  0.67004854  0.50696592  1
  I  I80  1  0.82955649  0.66947104  0.83096047  1
  I  I81  1  0.16914403  0.16318377  0.00267750  1
  I  I82  1  0.16813851  0.17394844  0.32954403  1
  I  I83  1  0.16583708  0.16725361  0.66645289  1
  I  I84  1  0.16956081  0.50289466  0.00228608  1
  I  I85  1  0.16612060  0.49945384  0.32994323  1
  I  I86  1  0.16976286  0.50309577  0.66853564  1
  I  I87  1  0.16738413  0.83231537  0.00250999  1
  I  I88  1  0.16226713  0.82990401  0.33279325  1
  I  I89  1  0.16669335  0.82997856  0.66463698  1
  I  I90  1  0.50193280  0.16428999  -0.00300857  1
  I  I91  1  0.49684217  0.16915039  0.33541369  1
  I  I92  1  0.50209830  0.16941041  0.66752007  1
  I  I93  1  0.49898212  0.50071749  0.00250999  1
  I  I94  1  0.49657052  0.49560076  0.33279323  1
  I  I95  1  0.49664537  0.50002637  0.66463690  1
  I  I96  1  0.50476202  0.83809523  -0.00442235  1
  I  I97  1  0.50184414  0.83517727  0.33307090  1
  I  I98  1  0.49812727  0.83146065  0.66949740  1
  I  I99  1  0.82614066  0.15947415  -0.00358631  1
  I  I100  1  0.83239766  0.16573114  0.33333964  1
  I  I101  1  0.83343337  0.16676668  0.67023319  1
  I  I102  1  0.82985096  0.50247737  0.00267749  1
  I  I103  1  0.84061511  0.50147166  0.32954404  1
  I  I104  1  0.83391986  0.49917054  0.66645290  1
  I  I105  1  0.83095674  0.83526618  -0.00300854  1
  I  I106  1  0.83581721  0.83017546  0.33541366  1
  I  I107  1  0.83607701  0.83543152  0.66752008  1
  I  I108  1  0.00371486  0.16862956  0.16397778  1
  I  I109  1  -0.00009467  0.16785836  0.50088137  1
  I  I110  1  -0.00244053  0.16176077  0.83727102  1
  I  I111  1  0.00154631  0.50155135  0.15961905  1
  I  I112  1  -0.00019628  0.49983468  0.49993875  1
  I  I113  1  0.00352014  0.50199442  0.84203701  1
  I  I114  1  0.00349523  0.82951397  0.16522916  1
  I  I115  1  0.00009079  0.83162602  0.50233502  1
  I  I116  1  -0.00255391  0.83623690  0.83279375  1
  I  I117  1  0.33045109  0.16916411  0.16416287  1
  I  I118  1  0.33671526  0.16855297  0.50696606  1
  I  I119  1  0.33613771  0.16288987  0.83096041  1
  I  I120  1  0.33242105  0.50028881  0.16578100  1
  I  I121  1  0.33628062  0.49979233  0.49518212  1
  I  I122  1  0.33081706  0.50146214  0.84046009  1
  I  I123  1  0.32955801  0.83019246  0.17184799  1
  I  I124  1  0.33142420  0.83203107  0.49695391  1
  I  I125  1  0.33531726  0.83584142  0.83299897  1
  I  I126  1  0.66667856  0.16878868  0.16821997  1
  I  I127  1  0.66285210  0.16947381  0.50073766  1
  I  I128  1  0.66574992  0.16344687  0.83040584  1
  I  I129  1  0.66596330  0.50067071  0.17015129  1
  I  I130  1  0.66250495  0.49876714  0.49631639  1
  I  I131  1  0.66677865  0.50088639  0.83556940  1
  I  I132  1  0.66655189  0.83073215  0.16940606  1
  I  I133  1  0.66885352  0.83181068  0.50382182  1
  I  I134  1  0.66717230  0.83487018  0.82712338  1
