# generated using pymatgen
data_Cs27Sn14Pb13I81
_symmetry_space_group_name_H-M   'P 1'
_cell_length_a   18.98079010
_cell_length_b   18.97132332
_cell_length_c   18.97645991
_cell_angle_alpha   90.00079854
_cell_angle_beta   89.99969385
_cell_angle_gamma   90.00018481
_symmetry_Int_Tables_number   1
_chemical_formula_structural   Cs27Sn14Pb13I81
_chemical_formula_sum   'Cs27 Sn14 Pb13 I81'
_cell_volume   6833.24684551
_cell_formula_units_Z   1
loop_
 _symmetry_equiv_pos_site_id
 _symmetry_equiv_pos_as_xyz
  1  'x, y, z'
loop_
 _atom_site_type_symbol
 _atom_site_label
 _atom_site_symmetry_multiplicity
 _atom_site_fract_x
 _atom_site_fract_y
 _atom_site_fract_z
 _atom_site_occupancy
  Cs  Cs0  1  -0.00089399  0.00000167  0.00607635  1
  Cs  Cs1  1  -0.00041294  -0.00777905  0.32350200  1
  Cs  Cs2  1  0.00044703  0.00009564  0.66792243  1
  Cs  Cs3  1  -0.00416900  0.33313441  -0.00171158  1
  Cs  Cs4  1  -0.00060689  0.33267913  0.33350110  1
  Cs  Cs5  1  -0.00057794  0.33607812  0.66795050  1
  Cs  Cs6  1  0.00004620  0.66547897  -0.00296245  1
  Cs  Cs7  1  0.00076920  0.67293072  0.33389942  1
  Cs  Cs8  1  0.00447995  0.66391004  0.66776431  1
  Cs  Cs9  1  0.33231089  -0.00052175  -0.00208425  1
  Cs  Cs10  1  0.32999395  0.00106262  0.33189969  1
  Cs  Cs11  1  0.33579886  0.00152694  0.66914744  1
  Cs  Cs12  1  0.33536997  0.33337576  0.00193252  1
  Cs  Cs13  1  0.33621733  0.33275365  0.33362301  1
  Cs  Cs14  1  0.33218509  0.33118838  0.66584634  1
  Cs  Cs15  1  0.33690503  0.66496599  0.00004569  1
  Cs  Cs16  1  0.32899471  0.66615167  0.33351125  1
  Cs  Cs17  1  0.32976121  0.66988321  0.66600848  1
  Cs  Cs18  1  0.66853503  -0.00015962  -0.00081087  1
  Cs  Cs19  1  0.66978365  -0.00236762  0.33520433  1
  Cs  Cs20  1  0.66389403  -0.00118987  0.66605337  1
  Cs  Cs21  1  0.66763287  0.33403565  -0.00047875  1
  Cs  Cs22  1  0.66440499  0.33590596  0.33611456  1
  Cs  Cs23  1  0.66835157  0.33202991  0.66446939  1
  Cs  Cs24  1  0.66337250  0.66511471  0.00036775  1
  Cs  Cs25  1  0.66884618  0.66322099  0.33260507  1
  Cs  Cs26  1  0.66575987  0.67204427  0.66635711  1
  Sn  Sn27  1  0.16695386  0.16615094  0.83291455  1
  Sn  Sn28  1  0.16626775  0.16660174  0.50030307  1
  Sn  Sn29  1  0.50039612  0.49961866  0.50147679  1
  Sn  Sn30  1  0.83288556  0.49938779  0.49934808  1
  Sn  Sn31  1  0.50002990  0.16725323  0.49988832  1
  Sn  Sn32  1  0.16558719  0.83433667  0.83344942  1
  Sn  Sn33  1  0.83372816  0.16688934  0.49979583  1
  Sn  Sn34  1  0.83486009  0.49959157  0.16736487  1
  Sn  Sn35  1  0.49952856  0.16769679  0.83345807  1
  Sn  Sn36  1  0.50003210  0.83456225  0.16718996  1
  Sn  Sn37  1  0.49990254  0.49898906  0.83148612  1
  Sn  Sn38  1  0.16520398  0.49950206  0.16667169  1
  Sn  Sn39  1  0.50029332  0.16536295  0.16679052  1
  Sn  Sn40  1  0.83442234  0.83353639  0.83315482  1
  Pb  Pb41  1  0.83081846  0.50172555  0.83236939  1
  Pb  Pb42  1  0.49993502  0.83330639  0.49734635  1
  Pb  Pb43  1  0.16663971  0.49786505  0.49827755  1
  Pb  Pb44  1  0.16672403  0.83669960  0.50237467  1
  Pb  Pb45  1  0.83062171  0.16876837  0.16932939  1
  Pb  Pb46  1  0.50032007  0.49943041  0.16736632  1
  Pb  Pb47  1  0.83343575  0.83297905  0.50198979  1
  Pb  Pb48  1  0.83335090  0.16508799  0.83129622  1
  Pb  Pb49  1  0.83125261  0.83073801  0.16446606  1
  Pb  Pb50  1  0.49957312  0.83382117  0.83465458  1
  Pb  Pb51  1  0.16915317  0.49903762  0.83498413  1
  Pb  Pb52  1  0.16835694  0.16831747  0.16626786  1
  Pb  Pb53  1  0.16874860  0.83102998  0.16402501  1
  I  I54  1  0.16713889  0.00016027  0.16878180  1
  I  I55  1  0.16931477  0.00515578  0.50037228  1
  I  I56  1  0.17063559  0.00133278  0.82902342  1
  I  I57  1  0.16701237  0.33605498  0.16445923  1
  I  I58  1  0.16812280  0.32976115  0.50665498  1
  I  I59  1  0.17033987  0.33003204  0.83023060  1
  I  I60  1  0.16731192  0.66324152  0.16601934  1
  I  I61  1  0.16725785  0.66646842  0.50008197  1
  I  I62  1  0.16525820  0.66854082  0.83675619  1
  I  I63  1  0.49885266  0.00160544  0.16537639  1
  I  I64  1  0.50096460  0.00393587  0.50379180  1
  I  I65  1  0.49914193  0.00327912  0.83071376  1
  I  I66  1  0.49931744  0.33070586  0.16651770  1
  I  I67  1  0.50069027  0.33230849  0.49833932  1
  I  I68  1  0.49494613  0.33199428  0.83567653  1
  I  I69  1  0.50013644  0.66786830  0.16384490  1
  I  I70  1  0.50583589  0.66314208  0.50279430  1
  I  I71  1  0.50074158  0.66439469  0.83277278  1
  I  I72  1  0.83340016  0.00011520  0.16785622  1
  I  I73  1  0.83008962  0.00323231  0.50342778  1
  I  I74  1  0.83111227  -0.00260653  0.83122306  1
  I  I75  1  0.83398629  0.33674830  0.16582265  1
  I  I76  1  0.83063960  0.33338480  0.49729399  1
  I  I77  1  0.83515673  0.33339846  0.83550579  1
  I  I78  1  0.83294281  0.66286673  0.17352042  1
  I  I79  1  0.82660139  0.66307353  0.49681368  1
  I  I80  1  0.83686007  0.66943818  0.83265842  1
  I  I81  1  0.17302810  0.16422472  -0.00307454  1
  I  I82  1  0.16963811  0.17111831  0.33592481  1
  I  I83  1  0.17288858  0.16362034  0.66689937  1
  I  I84  1  0.16429477  0.49863922  0.00276817  1
  I  I85  1  0.17019135  0.49751868  0.33053010  1
  I  I86  1  0.16491616  0.50244524  0.66673309  1
  I  I87  1  0.16389722  0.84107258  -0.00363082  1
  I  I88  1  0.16801150  0.83361182  0.33296475  1
  I  I89  1  0.16525762  0.83189283  0.67055274  1
  I  I90  1  0.49439067  0.16773748  -0.00099549  1
  I  I91  1  0.49942412  0.16844869  0.33458723  1
  I  I92  1  0.49913240  0.17145432  0.66649761  1
  I  I93  1  0.49944097  0.49768213  -0.00166849  1
  I  I94  1  0.50105180  0.49625181  0.33601925  1
  I  I95  1  0.50497430  0.49259453  0.66587931  1
  I  I96  1  0.49999351  0.83511309  0.00238005  1
  I  I97  1  0.50065165  0.83619750  0.32958358  1
  I  I98  1  0.50017122  0.83415200  0.66669539  1
  I  I99  1  0.83256587  0.16734149  0.00011401  1
  I  I100  1  0.83322768  0.16801378  0.33756037  1
  I  I101  1  0.82853091  0.17305024  0.66323996  1
  I  I102  1  0.83388722  0.50285453  0.00192275  1
  I  I103  1  0.82872687  0.49589710  0.33429393  1
  I  I104  1  0.83024499  0.49657880  0.66343605  1
  I  I105  1  0.83591366  0.83288645  -0.00317772  1
  I  I106  1  0.83168040  0.83496260  0.33320116  1
  I  I107  1  0.83461433  0.83140289  0.66982187  1
  I  I108  1  -0.00023796  0.16704714  0.16660816  1
  I  I109  1  -0.00002521  0.17242736  0.50734037  1
  I  I110  1  0.00281809  0.16455498  0.82839363  1
  I  I111  1  -0.00073565  0.49955548  0.17113133  1
  I  I112  1  -0.00280817  0.49517567  0.49770482  1
  I  I113  1  0.00002444  0.49911733  0.83270653  1
  I  I114  1  0.00000436  0.83345378  0.16694961  1
  I  I115  1  0.00006132  0.83291960  0.49834500  1
  I  I116  1  0.00087577  0.83799709  0.83300108  1
  I  I117  1  0.33674697  0.16728475  0.17056044  1
  I  I118  1  0.33460559  0.17059810  0.50088950  1
  I  I119  1  0.33428611  0.16439580  0.82878928  1
  I  I120  1  0.33220623  0.50007502  0.16540326  1
  I  I121  1  0.33633135  0.49569119  0.50103686  1
  I  I122  1  0.33716494  0.50103356  0.83079588  1
  I  I123  1  0.33642158  0.83408639  0.16389188  1
  I  I124  1  0.33343998  0.83086937  0.50194740  1
  I  I125  1  0.33121114  0.83480483  0.83540319  1
  I  I126  1  0.66227378  0.16582994  0.16424635  1
  I  I127  1  0.66553671  0.17128280  0.49984712  1
  I  I128  1  0.66339440  0.16865359  0.83303162  1
  I  I129  1  0.66846213  0.50040520  0.16787977  1
  I  I130  1  0.66612125  0.49167378  0.49712796  1
  I  I131  1  0.66288951  0.49575726  0.83604754  1
  I  I132  1  0.66359513  0.83519226  0.16293780  1
  I  I133  1  0.66657245  0.83777015  0.50384766  1
  I  I134  1  0.66798877  0.83211486  0.83495456  1
