# generated using pymatgen
data_Cs27Sn13Pb14I81
_symmetry_space_group_name_H-M   'P 1'
_cell_length_a   18.97890379
_cell_length_b   18.97777130
_cell_length_c   18.97492183
_cell_angle_alpha   90.00056035
_cell_angle_beta   89.99918069
_cell_angle_gamma   90.00143550
_symmetry_Int_Tables_number   1
_chemical_formula_structural   Cs27Sn13Pb14I81
_chemical_formula_sum   'Cs27 Sn13 Pb14 I81'
_cell_volume   6834.33602981
_cell_formula_units_Z   1
loop_
 _symmetry_equiv_pos_site_id
 _symmetry_equiv_pos_as_xyz
  1  'x, y, z'
loop_
 _atom_site_type_symbol
 _atom_site_label
 _atom_site_symmetry_multiplicity
 _atom_site_fract_x
 _atom_site_fract_y
 _atom_site_fract_z
 _atom_site_occupancy
  Cs  Cs0  1  0.00113731  0.00039839  0.00168866  1
  Cs  Cs1  1  -0.00003070  -0.00036058  0.33280696  1
  Cs  Cs2  1  -0.00323134  0.00044518  0.66444274  1
  Cs  Cs3  1  -0.00162051  0.33736216  -0.00535775  1
  Cs  Cs4  1  0.00351150  0.33376466  0.33022183  1
  Cs  Cs5  1  0.00007874  0.33261195  0.67670994  1
  Cs  Cs6  1  -0.00282128  0.66501113  0.00083326  1
  Cs  Cs7  1  0.00287970  0.66597159  0.33678901  1
  Cs  Cs8  1  0.00256160  0.66705508  0.66142926  1
  Cs  Cs9  1  0.33231835  -0.00111763  0.00021526  1
  Cs  Cs10  1  0.33211793  0.00438757  0.33019056  1
  Cs  Cs11  1  0.33420424  -0.00111277  0.66907460  1
  Cs  Cs12  1  0.33141455  0.33436437  -0.00028694  1
  Cs  Cs13  1  0.33244052  0.33053119  0.33117582  1
  Cs  Cs14  1  0.33334142  0.33432048  0.66823113  1
  Cs  Cs15  1  0.33499362  0.66979076  0.00137729  1
  Cs  Cs16  1  0.33229691  0.66357338  0.33485477  1
  Cs  Cs17  1  0.33570026  0.66680581  0.66532325  1
  Cs  Cs18  1  0.66653841  -0.00327120  0.00141021  1
  Cs  Cs19  1  0.66745378  0.00453813  0.33328333  1
  Cs  Cs20  1  0.66751548  0.00127370  0.66469600  1
  Cs  Cs21  1  0.66981609  0.33820267  0.00118390  1
  Cs  Cs22  1  0.66448830  0.33253035  0.33472507  1
  Cs  Cs23  1  0.66722702  0.33298328  0.66482238  1
  Cs  Cs24  1  0.66737035  0.66772385  0.00106075  1
  Cs  Cs25  1  0.66595151  0.66454015  0.33407919  1
  Cs  Cs26  1  0.66437300  0.66659963  0.66610850  1
  Sn  Sn27  1  0.16532574  0.16582512  0.16700255  1
  Sn  Sn28  1  0.16630314  0.83346389  0.83375744  1
  Sn  Sn29  1  0.83316508  0.49976786  0.50005935  1
  Sn  Sn30  1  0.83406998  0.16612972  0.16644623  1
  Sn  Sn31  1  0.83344264  0.83345914  0.83349455  1
  Sn  Sn32  1  0.49995872  0.83340142  0.50016977  1
  Sn  Sn33  1  0.50014051  0.50029282  0.83279846  1
  Sn  Sn34  1  0.83418773  0.83405491  0.16636785  1
  Sn  Sn35  1  0.16574896  0.83382534  0.16601825  1
  Sn  Sn36  1  0.50081507  0.50064054  0.50073167  1
  Sn  Sn37  1  0.16645736  0.16650961  0.50022519  1
  Sn  Sn38  1  0.50041945  0.16651321  0.83370150  1
  Sn  Sn39  1  0.50022046  0.83335666  0.83250051  1
  Pb  Pb40  1  0.16905053  0.83509513  0.49952566  1
  Pb  Pb41  1  0.16723120  0.49708028  0.50019064  1
  Pb  Pb42  1  0.49836132  0.16685055  0.50193343  1
  Pb  Pb43  1  0.49997636  0.16671403  0.16389767  1
  Pb  Pb44  1  0.16650419  0.50032449  0.16637563  1
  Pb  Pb45  1  0.50001495  0.83331671  0.16707964  1
  Pb  Pb46  1  0.83341654  0.50048671  0.16890316  1
  Pb  Pb47  1  0.83104761  0.16442425  0.83565310  1
  Pb  Pb48  1  0.83119093  0.83219806  0.49934086  1
  Pb  Pb49  1  0.83573978  0.16915449  0.49793899  1
  Pb  Pb50  1  0.16807214  0.16455476  0.83401233  1
  Pb  Pb51  1  0.16910803  0.50345912  0.83331287  1
  Pb  Pb52  1  0.49996597  0.49999117  0.16695619  1
  Pb  Pb53  1  0.83123905  0.50287242  0.83111298  1
  I  I54  1  0.16337491  -0.00059898  0.16664395  1
  I  I55  1  0.16910774  0.00259047  0.49823083  1
  I  I56  1  0.17113750  -0.00362941  0.83478687  1
  I  I57  1  0.16439958  0.32968712  0.17152931  1
  I  I58  1  0.16960186  0.32950001  0.49220681  1
  I  I59  1  0.16961963  0.33321640  0.83367820  1
  I  I60  1  0.16347493  0.67069169  0.16237637  1
  I  I61  1  0.16640203  0.66680492  0.49960329  1
  I  I62  1  0.16878985  0.67181028  0.83854810  1
  I  I63  1  0.50018425  -0.00012719  0.16700212  1
  I  I64  1  0.49829774  -0.00244873  0.50525567  1
  I  I65  1  0.49918082  -0.00185600  0.82989695  1
  I  I66  1  0.49976414  0.33311289  0.16625781  1
  I  I67  1  0.50252645  0.33620467  0.50463845  1
  I  I68  1  0.49891211  0.33386473  0.82939669  1
  I  I69  1  0.49978830  0.66703205  0.16303937  1
  I  I70  1  0.50229543  0.66678209  0.50788213  1
  I  I71  1  0.49953316  0.66787805  0.82875946  1
  I  I72  1  0.83694720  -0.00111240  0.16340229  1
  I  I73  1  0.83189672  0.00000743  0.50154435  1
  I  I74  1  0.83023173  -0.00396777  0.83343971  1
  I  I75  1  0.83698813  0.33045973  0.16854729  1
  I  I76  1  0.82444902  0.33665229  0.49809904  1
  I  I77  1  0.83135066  0.33345350  0.83456834  1
  I  I78  1  0.83642195  0.67032859  0.16286923  1
  I  I79  1  0.83079156  0.66432286  0.49888296  1
  I  I80  1  0.83106335  0.67103177  0.84045249  1
  I  I81  1  0.16537927  0.16331499  0.00309403  1
  I  I82  1  0.16526153  0.16101195  0.33190376  1
  I  I83  1  0.17067410  0.16594994  0.66499774  1
  I  I84  1  0.16915716  0.49513830  -0.00028698  1
  I  I85  1  0.16957191  0.50444220  0.33349523  1
  I  I86  1  0.16444272  0.49890889  0.66668537  1
  I  I87  1  0.16954848  0.83895314  0.00004047  1
  I  I88  1  0.16324413  0.83547172  0.33031566  1
  I  I89  1  0.16606214  0.83484794  0.66931010  1
  I  I90  1  0.49764620  0.16422465  -0.00408152  1
  I  I91  1  0.50059190  0.16655291  0.33324881  1
  I  I92  1  0.49719546  0.16490236  0.66988576  1
  I  I93  1  0.49877502  0.50191859  -0.00366467  1
  I  I94  1  0.50327459  0.50566714  0.33720035  1
  I  I95  1  0.50347671  0.50220161  0.66679063  1
  I  I96  1  0.49959963  0.83249951  -0.00334015  1
  I  I97  1  0.49979573  0.82757787  0.33629250  1
  I  I98  1  0.49941924  0.83238127  0.66842281  1
  I  I99  1  0.83965394  0.16557390  0.00359993  1
  I  I100  1  0.83328330  0.15914028  0.32988407  1
  I  I101  1  0.83436993  0.16601319  0.66684158  1
  I  I102  1  0.83159382  0.49862125  -0.00022726  1
  I  I103  1  0.82506175  0.50217781  0.33652516  1
  I  I104  1  0.83072321  0.50127865  0.66350054  1
  I  I105  1  0.83094808  0.83636981  -0.00015830  1
  I  I106  1  0.83678216  0.83543060  0.33020728  1
  I  I107  1  0.83450419  0.83102474  0.66932186  1
  I  I108  1  0.00062428  0.16096391  0.17144169  1
  I  I109  1  0.00341825  0.16594543  0.49890065  1
  I  I110  1  -0.00010121  0.16535141  0.83078494  1
  I  I111  1  -0.00017703  0.50060290  0.16993013  1
  I  I112  1  -0.00233783  0.50091721  0.49710020  1
  I  I113  1  -0.00028826  0.50015463  0.83168748  1
  I  I114  1  0.00006934  0.83748430  0.15877205  1
  I  I115  1  0.00004184  0.83146874  0.50332379  1
  I  I116  1  -0.00002172  0.83456268  0.83846621  1
  I  I117  1  0.33006146  0.16188449  0.16957518  1
  I  I118  1  0.33070156  0.16714424  0.49286694  1
  I  I119  1  0.33620263  0.16390048  0.83446155  1
  I  I120  1  0.33327201  0.50004674  0.16879738  1
  I  I121  1  0.33688589  0.50389866  0.50452308  1
  I  I122  1  0.33759398  0.50146690  0.82622894  1
  I  I123  1  0.33035261  0.83804339  0.16301832  1
  I  I124  1  0.33692894  0.82751942  0.50496328  1
  I  I125  1  0.33415374  0.83340029  0.83385495  1
  I  I126  1  0.66961633  0.16137843  0.16490308  1
  I  I127  1  0.66665503  0.16539472  0.49885102  1
  I  I128  1  0.66306712  0.16388439  0.83335097  1
  I  I129  1  0.66681918  0.50006290  0.16492265  1
  I  I130  1  0.66506162  0.50400328  0.50339894  1
  I  I131  1  0.66293374  0.50225538  0.83190958  1
  I  I132  1  0.66965963  0.83712391  0.16295239  1
  I  I133  1  0.66318376  0.83215578  0.50470480  1
  I  I134  1  0.66585590  0.83301345  0.83437149  1
