# generated using pymatgen
data_Cs27Sn14Pb13I81
_symmetry_space_group_name_H-M   'P 1'
_cell_length_a   18.97489657
_cell_length_b   18.97029480
_cell_length_c   18.97942165
_cell_angle_alpha   89.99902656
_cell_angle_beta   89.99863953
_cell_angle_gamma   90.00173099
_symmetry_Int_Tables_number   1
_chemical_formula_structural   Cs27Sn14Pb13I81
_chemical_formula_sum   'Cs27 Sn14 Pb13 I81'
_cell_volume   6831.82087307
_cell_formula_units_Z   1
loop_
 _symmetry_equiv_pos_site_id
 _symmetry_equiv_pos_as_xyz
  1  'x, y, z'
loop_
 _atom_site_type_symbol
 _atom_site_label
 _atom_site_symmetry_multiplicity
 _atom_site_fract_x
 _atom_site_fract_y
 _atom_site_fract_z
 _atom_site_occupancy
  Cs  Cs0  1  -0.00351906  -0.00166054  0.00548147  1
  Cs  Cs1  1  -0.00179511  -0.00095470  0.32778559  1
  Cs  Cs2  1  0.00054842  -0.00071326  0.66550880  1
  Cs  Cs3  1  -0.00099000  0.33441890  0.00094494  1
  Cs  Cs4  1  -0.00123353  0.33370278  0.33351713  1
  Cs  Cs5  1  0.00027061  0.33440286  0.66546222  1
  Cs  Cs6  1  0.00282860  0.66479270  -0.00258886  1
  Cs  Cs7  1  0.00281036  0.66438645  0.33642173  1
  Cs  Cs8  1  0.00035799  0.66538289  0.66695668  1
  Cs  Cs9  1  0.33303908  0.00105889  -0.00078256  1
  Cs  Cs10  1  0.33477076  -0.00106283  0.33377443  1
  Cs  Cs11  1  0.33315328  0.00979845  0.66723581  1
  Cs  Cs12  1  0.33380393  0.33189220  -0.00047571  1
  Cs  Cs13  1  0.33554970  0.33263186  0.33404641  1
  Cs  Cs14  1  0.33374562  0.32489622  0.66619465  1
  Cs  Cs15  1  0.33230336  0.66700706  -0.00027067  1
  Cs  Cs16  1  0.33805428  0.66830859  0.33154206  1
  Cs  Cs17  1  0.33065340  0.66556328  0.66907037  1
  Cs  Cs18  1  0.67292099  0.00160428  0.00196333  1
  Cs  Cs19  1  0.66878793  -0.00899444  0.33207873  1
  Cs  Cs20  1  0.66615739  -0.00369389  0.66428642  1
  Cs  Cs21  1  0.66830253  0.33294366  0.00060676  1
  Cs  Cs22  1  0.66771700  0.33474015  0.33215349  1
  Cs  Cs23  1  0.66749798  0.33329654  0.66711124  1
  Cs  Cs24  1  0.66248954  0.66649155  -0.00370788  1
  Cs  Cs25  1  0.65385051  0.67135639  0.33650726  1
  Cs  Cs26  1  0.66711174  0.66959913  0.66735703  1
  Sn  Sn27  1  0.83350819  0.16730130  0.50079219  1
  Sn  Sn28  1  0.16709444  0.49998011  0.83300504  1
  Sn  Sn29  1  0.49959363  0.50008641  0.83297067  1
  Sn  Sn30  1  0.49868945  0.83315562  0.83334457  1
  Sn  Sn31  1  0.16768493  0.16770475  0.16659881  1
  Sn  Sn32  1  0.16646668  0.50041314  0.50016103  1
  Sn  Sn33  1  0.16621083  0.49909449  0.16681794  1
  Sn  Sn34  1  0.16758146  0.83298146  0.83224185  1
  Sn  Sn35  1  0.49941301  0.16695032  0.16674696  1
  Sn  Sn36  1  0.83327558  0.49922123  0.83325843  1
  Sn  Sn37  1  0.83360290  0.49954156  0.49977139  1
  Sn  Sn38  1  0.83352737  0.50028513  0.16706714  1
  Sn  Sn39  1  0.16649502  0.83268614  0.50107405  1
  Sn  Sn40  1  0.83381485  0.16738647  0.83205477  1
  Pb  Pb41  1  0.16657789  0.83245100  0.16644077  1
  Pb  Pb42  1  0.49961771  0.49973863  0.50303234  1
  Pb  Pb43  1  0.49976081  0.83611152  0.16351345  1
  Pb  Pb44  1  0.83350089  0.16844149  0.16714642  1
  Pb  Pb45  1  0.16421731  0.16651810  0.83528440  1
  Pb  Pb46  1  0.49635940  0.83334279  0.50319022  1
  Pb  Pb47  1  0.50258601  0.16646121  0.83469646  1
  Pb  Pb48  1  0.50355939  0.16673927  0.49714380  1
  Pb  Pb49  1  0.49959215  0.49873305  0.16441956  1
  Pb  Pb50  1  0.83576245  0.83231812  0.50001077  1
  Pb  Pb51  1  0.83345946  0.82828385  0.16682101  1
  Pb  Pb52  1  0.83402466  0.83278957  0.83339260  1
  Pb  Pb53  1  0.16466151  0.16686580  0.49754839  1
  I  I54  1  0.16996817  0.00254263  0.16615783  1
  I  I55  1  0.16563861  -0.00233054  0.50412787  1
  I  I56  1  0.17035922  -0.00267922  0.83007859  1
  I  I57  1  0.16596400  0.33517264  0.16562144  1
  I  I58  1  0.16403772  0.33674400  0.50291011  1
  I  I59  1  0.16856747  0.33677517  0.83121896  1
  I  I60  1  0.16106443  0.66279590  0.16561458  1
  I  I61  1  0.16011258  0.66466791  0.49985398  1
  I  I62  1  0.16492680  0.66475127  0.83514488  1
  I  I63  1  0.49408719  0.00393797  0.16472604  1
  I  I64  1  0.49991315  0.00000407  0.50235371  1
  I  I65  1  0.49548639  -0.00256423  0.83499347  1
  I  I66  1  0.49872630  0.33109308  0.16257142  1
  I  I67  1  0.49473555  0.33335350  0.50347068  1
  I  I68  1  0.49791234  0.33614760  0.83513016  1
  I  I69  1  0.50108361  0.66663271  0.16740698  1
  I  I70  1  0.50615639  0.66646798  0.49607518  1
  I  I71  1  0.50196007  0.66541480  0.83470435  1
  I  I72  1  0.83355048  0.00026113  0.16573375  1
  I  I73  1  0.83423472  0.00258497  0.50499836  1
  I  I74  1  0.83284884  0.00269785  0.83004768  1
  I  I75  1  0.83530015  0.33662847  0.16517062  1
  I  I76  1  0.83949586  0.33517040  0.50130156  1
  I  I77  1  0.83329023  0.33555821  0.83344543  1
  I  I78  1  0.84205446  0.66043434  0.16384182  1
  I  I79  1  0.83648704  0.66261509  0.50196183  1
  I  I80  1  0.83358778  0.66274351  0.83312436  1
  I  I81  1  0.16699618  0.17116228  0.00298295  1
  I  I82  1  0.16721492  0.17085750  0.32983223  1
  I  I83  1  0.16702588  0.16817578  0.66666583  1
  I  I84  1  0.16363750  0.50027082  -0.00076011  1
  I  I85  1  0.15835732  0.49969301  0.33346859  1
  I  I86  1  0.16300176  0.50564468  0.66722464  1
  I  I87  1  0.16997000  0.82950315  -0.00328138  1
  I  I88  1  0.16358062  0.83010609  0.33601888  1
  I  I89  1  0.16880627  0.82441473  0.66770082  1
  I  I90  1  0.49828934  0.16754329  0.00233831  1
  I  I91  1  0.49599317  0.16937046  0.32947604  1
  I  I92  1  0.49938767  0.16646785  0.66686127  1
  I  I93  1  0.50064624  0.50279486  -0.00372389  1
  I  I94  1  0.50106251  0.49836568  0.33328429  1
  I  I95  1  0.50098927  0.50321712  0.67129683  1
  I  I96  1  0.49297857  0.82763579  -0.00416810  1
  I  I97  1  0.50021292  0.83446826  0.33339635  1
  I  I98  1  0.50058327  0.82866714  0.67092284  1
  I  I99  1  0.83302879  0.17069968  -0.00195193  1
  I  I100  1  0.83441124  0.17203214  0.33563156  1
  I  I101  1  0.83394605  0.17557917  0.66716200  1
  I  I102  1  0.83639112  0.49561283  -0.00087486  1
  I  I103  1  0.84303531  0.49387422  0.33376131  1
  I  I104  1  0.83638392  0.49588631  0.66715320  1
  I  I105  1  0.83563687  0.83693950  -0.00029184  1
  I  I106  1  0.83624416  0.83780262  0.33351938  1
  I  I107  1  0.83111298  0.83119812  0.66687581  1
  I  I108  1  0.00216308  0.16873147  0.16616519  1
  I  I109  1  -0.00311242  0.16944255  0.50210879  1
  I  I110  1  -0.00350678  0.17176509  0.83261188  1
  I  I111  1  0.00088819  0.49377738  0.16221004  1
  I  I112  1  0.00026270  0.49999415  0.50352497  1
  I  I113  1  0.00030663  0.50031083  0.83404795  1
  I  I114  1  0.00037748  0.84133415  0.16321331  1
  I  I115  1  0.00361047  0.83079836  0.50774189  1
  I  I116  1  0.00340246  0.82922875  0.83014573  1
  I  I117  1  0.33205230  0.17319273  0.16486169  1
  I  I118  1  0.33308179  0.16677916  0.50044152  1
  I  I119  1  0.33311747  0.16895082  0.83389163  1
  I  I120  1  0.32994494  0.49829675  0.16628556  1
  I  I121  1  0.32954306  0.50489889  0.49844380  1
  I  I122  1  0.33215262  0.50548121  0.83502602  1
  I  I123  1  0.33302404  0.82937834  0.16862740  1
  I  I124  1  0.32855459  0.82563021  0.49979820  1
  I  I125  1  0.33215783  0.82414752  0.83096368  1
  I  I126  1  0.66521388  0.16871534  0.16451194  1
  I  I127  1  0.67147031  0.17455467  0.50292177  1
  I  I128  1  0.67036132  0.17167085  0.83367848  1
  I  I129  1  0.66940787  0.49667782  0.16532897  1
  I  I130  1  0.67001845  0.49477793  0.49931127  1
  I  I131  1  0.66764720  0.49991157  0.83468917  1
  I  I132  1  0.66654145  0.83562022  0.16486868  1
  I  I133  1  0.66656319  0.83389809  0.50011464  1
  I  I134  1  0.66445718  0.82965313  0.83543322  1
