# generated using pymatgen
data_Cs27Sn14Pb13I81
_symmetry_space_group_name_H-M   'P 1'
_cell_length_a   18.98130946
_cell_length_b   18.97814510
_cell_length_c   18.96618575
_cell_angle_alpha   89.99942119
_cell_angle_beta   90.00065778
_cell_angle_gamma   90.00090558
_symmetry_Int_Tables_number   1
_chemical_formula_structural   Cs27Sn14Pb13I81
_chemical_formula_sum   'Cs27 Sn14 Pb13 I81'
_cell_volume   6832.18994926
_cell_formula_units_Z   1
loop_
 _symmetry_equiv_pos_site_id
 _symmetry_equiv_pos_as_xyz
  1  'x, y, z'
loop_
 _atom_site_type_symbol
 _atom_site_label
 _atom_site_symmetry_multiplicity
 _atom_site_fract_x
 _atom_site_fract_y
 _atom_site_fract_z
 _atom_site_occupancy
  Cs  Cs0  1  -0.00163467  -0.00203611  0.00081818  1
  Cs  Cs1  1  -0.00227797  0.00162115  0.33196741  1
  Cs  Cs2  1  0.00902429  -0.00307238  0.66540622  1
  Cs  Cs3  1  -0.00229288  0.33669664  0.00302628  1
  Cs  Cs4  1  0.00078844  0.33341662  0.33702398  1
  Cs  Cs5  1  -0.00155695  0.33118019  0.65743946  1
  Cs  Cs6  1  -0.00105580  0.66583998  -0.00067787  1
  Cs  Cs7  1  0.00197380  0.66446488  0.33233949  1
  Cs  Cs8  1  0.00163644  0.67220827  0.66900293  1
  Cs  Cs9  1  0.33429528  0.00290699  -0.00006536  1
  Cs  Cs10  1  0.33647295  -0.00428447  0.33260303  1
  Cs  Cs11  1  0.32287424  0.00257511  0.66842876  1
  Cs  Cs12  1  0.33435621  0.33391974  -0.00100106  1
  Cs  Cs13  1  0.33194836  0.33633869  0.33236282  1
  Cs  Cs14  1  0.33323329  0.32900253  0.66936562  1
  Cs  Cs15  1  0.33644792  0.66249690  0.00160080  1
  Cs  Cs16  1  0.33379674  0.66866483  0.34207439  1
  Cs  Cs17  1  0.33455845  0.66876532  0.65902170  1
  Cs  Cs18  1  0.66707831  0.00071933  0.00171069  1
  Cs  Cs19  1  0.66635692  -0.00051415  0.33194598  1
  Cs  Cs20  1  0.66835574  0.00176626  0.66978477  1
  Cs  Cs21  1  0.66597610  0.33373919  0.00011104  1
  Cs  Cs22  1  0.66776419  0.33113930  0.33455714  1
  Cs  Cs23  1  0.66673296  0.33461902  0.66544628  1
  Cs  Cs24  1  0.66734551  0.66607927  -0.00086137  1
  Cs  Cs25  1  0.66394817  0.66940011  0.33563582  1
  Cs  Cs26  1  0.66601235  0.66438607  0.66808180  1
  Sn  Sn27  1  0.83218244  0.49994805  0.16638457  1
  Sn  Sn28  1  0.83396064  0.83299542  0.16757047  1
  Sn  Sn29  1  0.83297950  0.83340855  0.49930753  1
  Sn  Sn30  1  0.50093747  0.49945724  0.16643698  1
  Sn  Sn31  1  0.83367145  0.16743147  0.83387620  1
  Sn  Sn32  1  0.49996982  0.16764712  0.16759054  1
  Sn  Sn33  1  0.83367558  0.49878299  0.83395934  1
  Sn  Sn34  1  0.16629228  0.83356474  0.16603671  1
  Sn  Sn35  1  0.49986569  0.50101050  0.83409826  1
  Sn  Sn36  1  0.16656889  0.16599686  0.16625518  1
  Sn  Sn37  1  0.16644599  0.49982016  0.83327719  1
  Sn  Sn38  1  0.50012871  0.16650934  0.49917526  1
  Sn  Sn39  1  0.83350215  0.16707010  0.16596956  1
  Sn  Sn40  1  0.49985082  0.83291113  0.83354994  1
  Pb  Pb41  1  0.50159671  0.16715097  0.83391224  1
  Pb  Pb42  1  0.50024802  0.49785866  0.49987822  1
  Pb  Pb43  1  0.16315787  0.16897809  0.83600344  1
  Pb  Pb44  1  0.16410887  0.83344938  0.49691406  1
  Pb  Pb45  1  0.50201057  0.83618036  0.50321809  1
  Pb  Pb46  1  0.83319460  0.50232755  0.49986519  1
  Pb  Pb47  1  0.16951920  0.16664506  0.49668087  1
  Pb  Pb48  1  0.50014987  0.83298585  0.16544111  1
  Pb  Pb49  1  0.16954605  0.83111280  0.83622412  1
  Pb  Pb50  1  0.83225818  0.83328653  0.83395686  1
  Pb  Pb51  1  0.83197000  0.16468055  0.49991506  1
  Pb  Pb52  1  0.16660222  0.49991374  0.50374515  1
  Pb  Pb53  1  0.16687758  0.50013158  0.16569466  1
  I  I54  1  0.16335373  0.00056349  0.16623235  1
  I  I55  1  0.16704848  0.00005567  0.50470814  1
  I  I56  1  0.16737063  0.00015122  0.83193346  1
  I  I57  1  0.16519397  0.33082718  0.16455419  1
  I  I58  1  0.16523042  0.33301529  0.49675013  1
  I  I59  1  0.17370181  0.33660690  0.83740585  1
  I  I60  1  0.16200884  0.66883581  0.16376455  1
  I  I61  1  0.16757168  0.66694415  0.49640183  1
  I  I62  1  0.16004996  0.66336451  0.83766622  1
  I  I63  1  0.50254809  0.00263091  0.16775253  1
  I  I64  1  0.50256443  0.00344967  0.49227637  1
  I  I65  1  0.50464982  -0.00138911  0.83466725  1
  I  I66  1  0.50271076  0.33320469  0.16419505  1
  I  I67  1  0.50246000  0.33015550  0.49954016  1
  I  I68  1  0.49893928  0.33638966  0.83475089  1
  I  I69  1  0.50335776  0.66381366  0.16196539  1
  I  I70  1  0.50013278  0.66687818  0.49807365  1
  I  I71  1  0.50346413  0.66462046  0.84008751  1
  I  I72  1  0.83317134  0.00070333  0.16613311  1
  I  I73  1  0.83048000  -0.00286934  0.49510457  1
  I  I74  1  0.82835191  0.00220934  0.83760102  1
  I  I75  1  0.83226439  0.33317025  0.16112428  1
  I  I76  1  0.83246314  0.33318973  0.49893350  1
  I  I77  1  0.83027615  0.33428436  0.84184689  1
  I  I78  1  0.83360099  0.66621141  0.16548135  1
  I  I79  1  0.83233724  0.67003858  0.49542182  1
  I  I80  1  0.83384242  0.66355658  0.83677871  1
  I  I81  1  0.17267379  0.16287451  0.00401045  1
  I  I82  1  0.15973796  0.16481022  0.32833323  1
  I  I83  1  0.16737471  0.16819256  0.66698165  1
  I  I84  1  0.16673443  0.49989081  -0.00221478  1
  I  I85  1  0.16686797  0.50029595  0.33298271  1
  I  I86  1  0.16663488  0.50026140  0.67202141  1
  I  I87  1  0.15797315  0.83763238  0.00374444  1
  I  I88  1  0.16730482  0.83587190  0.32878009  1
  I  I89  1  0.16572796  0.83174372  0.66692088  1
  I  I90  1  0.49918427  0.16761356  0.00328884  1
  I  I91  1  0.50292332  0.17119665  0.33035893  1
  I  I92  1  0.50456974  0.16652234  0.66533415  1
  I  I93  1  0.50139256  0.49780175  0.00015220  1
  I  I94  1  0.50511409  0.49774179  0.32969918  1
  I  I95  1  0.50137026  0.50257232  0.67028058  1
  I  I96  1  0.50322404  0.83323471  -0.00224469  1
  I  I97  1  0.49799618  0.83098689  0.33318921  1
  I  I98  1  0.50406281  0.82682616  0.67072658  1
  I  I99  1  0.83021337  0.16518207  0.00191590  1
  I  I100  1  0.83472736  0.16893328  0.32949683  1
  I  I101  1  0.82856515  0.17067598  0.66937390  1
  I  I102  1  0.83212333  0.50114058  0.00062713  1
  I  I103  1  0.82890023  0.49691004  0.32936014  1
  I  I104  1  0.83184765  0.49639611  0.67039617  1
  I  I105  1  0.83565295  0.83366275  0.00332449  1
  I  I106  1  0.83580199  0.83446936  0.33060266  1
  I  I107  1  0.82856593  0.83324123  0.66524543  1
  I  I108  1  -0.00136602  0.16584490  0.16093315  1
  I  I109  1  0.00003677  0.16565798  0.50074224  1
  I  I110  1  -0.00480998  0.17005441  0.83889975  1
  I  I111  1  -0.00306686  0.49853451  0.16198867  1
  I  I112  1  -0.00036112  0.49871905  0.49794991  1
  I  I113  1  -0.00162389  0.49624676  0.83966499  1
  I  I114  1  -0.00162898  0.83643516  0.16950416  1
  I  I115  1  -0.00379135  0.83481271  0.50100458  1
  I  I116  1  0.00005219  0.83261459  0.83095314  1
  I  I117  1  0.33418374  0.16655530  0.17094119  1
  I  I118  1  0.33742396  0.16668749  0.49714566  1
  I  I119  1  0.33319102  0.16705829  0.83343413  1
  I  I120  1  0.33615854  0.49607758  0.16110272  1
  I  I121  1  0.33364705  0.50100403  0.49748065  1
  I  I122  1  0.33476648  0.50421965  0.83931967  1
  I  I123  1  0.33140571  0.83708300  0.16218945  1
  I  I124  1  0.33339705  0.83338563  0.49959157  1
  I  I125  1  0.33720856  0.82947155  0.83562077  1
  I  I126  1  0.66718512  0.16667950  0.16648047  1
  I  I127  1  0.66428867  0.16610520  0.49366841  1
  I  I128  1  0.66944469  0.17038453  0.83884511  1
  I  I129  1  0.66718703  0.49732434  0.15873984  1
  I  I130  1  0.66673812  0.50036566  0.50455858  1
  I  I131  1  0.66686853  0.50039268  0.83780877  1
  I  I132  1  0.66960191  0.83569821  0.16814650  1
  I  I133  1  0.66945925  0.83375513  0.49120068  1
  I  I134  1  0.66456522  0.82824501  0.83616107  1
