# generated using pymatgen
data_Cs27Sn14Pb13I81
_symmetry_space_group_name_H-M   'P 1'
_cell_length_a   18.98040437
_cell_length_b   18.96897360
_cell_length_c   18.97635981
_cell_angle_alpha   89.99922806
_cell_angle_beta   89.99995027
_cell_angle_gamma   89.99963637
_symmetry_Int_Tables_number   1
_chemical_formula_structural   Cs27Sn14Pb13I81
_chemical_formula_sum   'Cs27 Sn14 Pb13 I81'
_cell_volume   6832.22561159
_cell_formula_units_Z   1
loop_
 _symmetry_equiv_pos_site_id
 _symmetry_equiv_pos_as_xyz
  1  'x, y, z'
loop_
 _atom_site_type_symbol
 _atom_site_label
 _atom_site_symmetry_multiplicity
 _atom_site_fract_x
 _atom_site_fract_y
 _atom_site_fract_z
 _atom_site_occupancy
  Cs  Cs0  1  -0.00143998  0.00999932  0.00233729  1
  Cs  Cs1  1  0.00052044  -0.00098280  0.33332263  1
  Cs  Cs2  1  -0.00253115  0.00070962  0.66551953  1
  Cs  Cs3  1  -0.00377819  0.32901278  0.00101767  1
  Cs  Cs4  1  -0.00590404  0.33032724  0.33133937  1
  Cs  Cs5  1  0.00366381  0.33412201  0.66819827  1
  Cs  Cs6  1  0.00415418  0.66507024  -0.00280761  1
  Cs  Cs7  1  -0.00112879  0.66827310  0.33471439  1
  Cs  Cs8  1  0.00226705  0.66610843  0.66687397  1
  Cs  Cs9  1  0.33389297  0.00330517  0.00242913  1
  Cs  Cs10  1  0.33160482  -0.00090057  0.33177664  1
  Cs  Cs11  1  0.33551934  0.00766855  0.66671090  1
  Cs  Cs12  1  0.33330768  0.33933669  -0.00135117  1
  Cs  Cs13  1  0.33633150  0.33112759  0.33582044  1
  Cs  Cs14  1  0.33404325  0.32795854  0.66448556  1
  Cs  Cs15  1  0.33264950  0.66506816  0.00011508  1
  Cs  Cs16  1  0.33360166  0.66865317  0.33193643  1
  Cs  Cs17  1  0.32966738  0.66573582  0.66812256  1
  Cs  Cs18  1  0.66695743  0.00014133  -0.00717014  1
  Cs  Cs19  1  0.66763910  -0.00399408  0.33418573  1
  Cs  Cs20  1  0.66802309  -0.00091315  0.67328911  1
  Cs  Cs21  1  0.66879597  0.33260001  0.00356688  1
  Cs  Cs22  1  0.66821494  0.33523755  0.33385977  1
  Cs  Cs23  1  0.66250947  0.33383977  0.66123112  1
  Cs  Cs24  1  0.66484264  0.66754800  -0.00090165  1
  Cs  Cs25  1  0.66749741  0.66723750  0.33471670  1
  Cs  Cs26  1  0.66762845  0.66796238  0.66608027  1
  Sn  Sn27  1  0.16676008  0.50066551  0.83329989  1
  Sn  Sn28  1  0.83329069  0.83405239  0.49957691  1
  Sn  Sn29  1  0.16665183  0.83350129  0.83277281  1
  Sn  Sn30  1  0.83319858  0.50032582  0.83327720  1
  Sn  Sn31  1  0.83318510  0.16583412  0.50010890  1
  Sn  Sn32  1  0.16706537  0.83268611  0.50115691  1
  Sn  Sn33  1  0.50006245  0.16647240  0.16680475  1
  Sn  Sn34  1  0.16673806  0.50051359  0.49953967  1
  Sn  Sn35  1  0.49971332  0.83306783  0.49998734  1
  Sn  Sn36  1  0.50092415  0.83350946  0.16706647  1
  Sn  Sn37  1  0.49937380  0.50003759  0.16631123  1
  Sn  Sn38  1  0.50011186  0.50050004  0.83358797  1
  Sn  Sn39  1  0.83292700  0.83273090  0.16642317  1
  Sn  Sn40  1  0.16688304  0.50021652  0.16712972  1
  Pb  Pb41  1  0.16672818  0.16672103  0.83338058  1
  Pb  Pb42  1  0.50228215  0.16339729  0.49784681  1
  Pb  Pb43  1  0.83311762  0.50227608  0.16493765  1
  Pb  Pb44  1  0.16478836  0.16611533  0.49975486  1
  Pb  Pb45  1  0.49777723  0.50209875  0.49967299  1
  Pb  Pb46  1  0.50007004  0.16993701  0.83587672  1
  Pb  Pb47  1  0.83312586  0.16980397  0.83059674  1
  Pb  Pb48  1  0.83568343  0.50080606  0.50192678  1
  Pb  Pb49  1  0.16667204  0.83190972  0.16648919  1
  Pb  Pb50  1  0.83584093  0.83178879  0.83351516  1
  Pb  Pb51  1  0.83073219  0.16360170  0.16850799  1
  Pb  Pb52  1  0.16903785  0.17031331  0.16694346  1
  Pb  Pb53  1  0.49751040  0.83153749  0.83357219  1
  I  I54  1  0.16721226  -0.00014761  0.16655059  1
  I  I55  1  0.16838382  -0.00403468  0.50426349  1
  I  I56  1  0.16647099  -0.00333264  0.82741960  1
  I  I57  1  0.17073209  0.33889392  0.16526495  1
  I  I58  1  0.16553366  0.33654506  0.50182112  1
  I  I59  1  0.16704305  0.33774055  0.83258684  1
  I  I60  1  0.17233022  0.66365116  0.16584177  1
  I  I61  1  0.16444347  0.66733511  0.50115635  1
  I  I62  1  0.16660027  0.66508477  0.83206278  1
  I  I63  1  0.50418355  -0.00155427  0.17278974  1
  I  I64  1  0.49387797  -0.00481020  0.49445365  1
  I  I65  1  0.49832910  -0.00022178  0.83391289  1
  I  I66  1  0.49433341  0.33487183  0.16103415  1
  I  I67  1  0.50038171  0.33347556  0.49976763  1
  I  I68  1  0.49635130  0.33849276  0.83711911  1
  I  I69  1  0.49942228  0.66659404  0.16645882  1
  I  I70  1  0.50498621  0.67015394  0.49416732  1
  I  I71  1  0.50038743  0.66331926  0.83951535  1
  I  I72  1  0.83013560  -0.00446840  0.16758784  1
  I  I73  1  0.83584569  -0.00247786  0.49545590  1
  I  I74  1  0.83528616  -0.00020839  0.83543939  1
  I  I75  1  0.83330456  0.33347097  0.16749594  1
  I  I76  1  0.83538559  0.33180374  0.50239205  1
  I  I77  1  0.83740485  0.33792176  0.83378433  1
  I  I78  1  0.82774504  0.66996887  0.17430434  1
  I  I79  1  0.83213606  0.67005778  0.49711977  1
  I  I80  1  0.83263761  0.66374845  0.83131200  1
  I  I81  1  0.16547244  0.16439067  0.00023209  1
  I  I82  1  0.16646922  0.16701696  0.33334026  1
  I  I83  1  0.16729292  0.17180109  0.66646342  1
  I  I84  1  0.16873637  0.50482847  -0.00057465  1
  I  I85  1  0.17167960  0.50517642  0.33338376  1
  I  I86  1  0.16556806  0.50487206  0.66706477  1
  I  I87  1  0.16729818  0.82651139  -0.00219618  1
  I  I88  1  0.16635153  0.82854707  0.33610135  1
  I  I89  1  0.16561504  0.82373132  0.66537927  1
  I  I90  1  0.50082277  0.16019982  0.00390465  1
  I  I91  1  0.50003305  0.17359272  0.33012079  1
  I  I92  1  0.50054477  0.16749677  0.66639181  1
  I  I93  1  0.49480203  0.50210478  0.00097174  1
  I  I94  1  0.49527199  0.49905397  0.33015195  1
  I  I95  1  0.49933069  0.50276523  0.66904440  1
  I  I96  1  0.50362607  0.83400914  0.00326118  1
  I  I97  1  0.49884052  0.83057043  0.33271781  1
  I  I98  1  0.50291013  0.83025254  0.66400523  1
  I  I99  1  0.83319466  0.16598397  0.00017394  1
  I  I100  1  0.83399201  0.16664745  0.33629987  1
  I  I101  1  0.83303611  0.15783446  0.66302201  1
  I  I102  1  0.83796524  0.50285234  -0.00289209  1
  I  I103  1  0.83404639  0.49833611  0.33349907  1
  I  I104  1  0.83314233  0.50198559  0.66980228  1
  I  I105  1  0.82848322  0.82958083  0.00243650  1
  I  I106  1  0.83458525  0.83540257  0.33437464  1
  I  I107  1  0.83105166  0.83555178  0.66358413  1
  I  I108  1  -0.00042363  0.16676522  0.16693298  1
  I  I109  1  -0.00294039  0.16123996  0.49903951  1
  I  I110  1  -0.00014805  0.16934975  0.83451125  1
  I  I111  1  0.00261135  0.50362576  0.16569116  1
  I  I112  1  0.00376629  0.50563059  0.50004198  1
  I  I113  1  0.00151848  0.50443900  0.83245700  1
  I  I114  1  -0.00206689  0.82976529  0.17057087  1
  I  I115  1  0.00014267  0.83272176  0.49935855  1
  I  I116  1  0.00352233  0.82447946  0.82921634  1
  I  I117  1  0.33698214  0.15991109  0.16781915  1
  I  I118  1  0.33368307  0.16663971  0.49952607  1
  I  I119  1  0.33350753  0.16811406  0.83227400  1
  I  I120  1  0.33407279  0.50261239  0.16167305  1
  I  I121  1  0.32976621  0.50558417  0.50353234  1
  I  I122  1  0.33267235  0.50429717  0.83597095  1
  I  I123  1  0.33628723  0.83386214  0.16988415  1
  I  I124  1  0.33293962  0.82684658  0.49850012  1
  I  I125  1  0.32981203  0.82521134  0.82996594  1
  I  I126  1  0.66317497  0.17409523  0.16801515  1
  I  I127  1  0.66993165  0.16316893  0.49923757  1
  I  I128  1  0.66660603  0.16724992  0.83303599  1
  I  I129  1  0.66341651  0.49885068  0.16173398  1
  I  I130  1  0.66663073  0.50042537  0.50123814  1
  I  I131  1  0.66587290  0.50015061  0.83880537  1
  I  I132  1  0.66540903  0.83035052  0.17500361  1
  I  I133  1  0.66681473  0.83667819  0.49439779  1
  I  I134  1  0.66659056  0.83029301  0.83094234  1
