# generated using pymatgen
data_Cs27Sn13Pb14I81
_symmetry_space_group_name_H-M   'P 1'
_cell_length_a   18.97941987
_cell_length_b   18.97503211
_cell_length_c   18.97596583
_cell_angle_alpha   90.00059840
_cell_angle_beta   89.99996975
_cell_angle_gamma   89.99971949
_symmetry_Int_Tables_number   1
_chemical_formula_structural   Cs27Sn13Pb14I81
_chemical_formula_sum   'Cs27 Sn13 Pb14 I81'
_cell_volume   6833.91137704
_cell_formula_units_Z   1
loop_
 _symmetry_equiv_pos_site_id
 _symmetry_equiv_pos_as_xyz
  1  'x, y, z'
loop_
 _atom_site_type_symbol
 _atom_site_label
 _atom_site_symmetry_multiplicity
 _atom_site_fract_x
 _atom_site_fract_y
 _atom_site_fract_z
 _atom_site_occupancy
  Cs  Cs0  1  -0.00033683  -0.00187501  0.00156243  1
  Cs  Cs1  1  -0.00219221  -0.00101903  0.33461672  1
  Cs  Cs2  1  -0.00028643  0.00010378  0.66380172  1
  Cs  Cs3  1  -0.00240261  0.33383370  -0.00218267  1
  Cs  Cs4  1  0.00239005  0.33120833  0.33897626  1
  Cs  Cs5  1  0.00477988  0.33355672  0.66455982  1
  Cs  Cs6  1  0.00129066  0.66883291  0.00364029  1
  Cs  Cs7  1  0.00252330  0.67014288  0.32384253  1
  Cs  Cs8  1  0.00106478  0.66547804  0.66894894  1
  Cs  Cs9  1  0.33561428  0.00187916  -0.00011688  1
  Cs  Cs10  1  0.33532173  -0.00007783  0.33066434  1
  Cs  Cs11  1  0.33503805  -0.00251261  0.67026610  1
  Cs  Cs12  1  0.33185939  0.33216587  -0.00195807  1
  Cs  Cs13  1  0.33606597  0.33473997  0.33431726  1
  Cs  Cs14  1  0.32707509  0.33312485  0.66690601  1
  Cs  Cs15  1  0.32998868  0.66539126  0.00420405  1
  Cs  Cs16  1  0.33093700  0.66556885  0.33083373  1
  Cs  Cs17  1  0.33349346  0.66835140  0.66557312  1
  Cs  Cs18  1  0.66420749  0.00287459  -0.00162695  1
  Cs  Cs19  1  0.66639754  -0.00005903  0.33618437  1
  Cs  Cs20  1  0.66497157  -0.00380933  0.66529161  1
  Cs  Cs21  1  0.66727595  0.33342030  0.00015530  1
  Cs  Cs22  1  0.66428898  0.33349781  0.33320627  1
  Cs  Cs23  1  0.66737881  0.33609337  0.66638611  1
  Cs  Cs24  1  0.66900157  0.66192100  -0.00097769  1
  Cs  Cs25  1  0.66837185  0.66594542  0.33381370  1
  Cs  Cs26  1  0.66563544  0.66572259  0.66642346  1
  Sn  Sn27  1  0.16660637  0.16686286  0.16668444  1
  Sn  Sn28  1  0.83272278  0.49991251  0.83234570  1
  Sn  Sn29  1  0.83337251  0.16683190  0.16643852  1
  Sn  Sn30  1  0.50005415  0.16709193  0.50009955  1
  Sn  Sn31  1  0.50070720  0.49915452  0.50114541  1
  Sn  Sn32  1  0.16610838  0.83357527  0.83262970  1
  Sn  Sn33  1  0.50008784  0.16596285  0.16732473  1
  Sn  Sn34  1  0.50019169  0.49986849  0.83249682  1
  Sn  Sn35  1  0.83300702  0.50030990  0.50045584  1
  Sn  Sn36  1  0.83309712  0.16657267  0.83328918  1
  Sn  Sn37  1  0.50078278  0.83363944  0.16656165  1
  Sn  Sn38  1  0.16658171  0.83340765  0.50040722  1
  Sn  Sn39  1  0.83379388  0.83340983  0.83316532  1
  Pb  Pb40  1  0.50179553  0.16884162  0.83310335  1
  Pb  Pb41  1  0.50011319  0.49938563  0.16677935  1
  Pb  Pb42  1  0.83523306  0.83047382  0.50203021  1
  Pb  Pb43  1  0.83084223  0.83580548  0.16433345  1
  Pb  Pb44  1  0.16645503  0.49660534  0.16667481  1
  Pb  Pb45  1  0.83350145  0.49741807  0.16679908  1
  Pb  Pb46  1  0.16617200  0.50217410  0.83338173  1
  Pb  Pb47  1  0.16838995  0.83540249  0.16623006  1
  Pb  Pb48  1  0.16952498  0.16435192  0.49818667  1
  Pb  Pb49  1  0.49851616  0.83270575  0.49816746  1
  Pb  Pb50  1  0.16670822  0.50221342  0.49999389  1
  Pb  Pb51  1  0.50021490  0.83074439  0.83540642  1
  Pb  Pb52  1  0.83140967  0.16836568  0.50040117  1
  Pb  Pb53  1  0.16396055  0.16421411  0.83507058  1
  I  I54  1  0.16564736  0.00317232  0.16616983  1
  I  I55  1  0.16752968  -0.00319870  0.50419861  1
  I  I56  1  0.16267388  -0.00366432  0.83026664  1
  I  I57  1  0.17034531  0.32842618  0.16671396  1
  I  I58  1  0.16570771  0.33315432  0.49764008  1
  I  I59  1  0.16629176  0.33308088  0.83568302  1
  I  I60  1  0.16933644  0.66725450  0.16694823  1
  I  I61  1  0.16928324  0.66989582  0.50383895  1
  I  I62  1  0.16214697  0.67015848  0.83118731  1
  I  I63  1  0.49973535  0.00198609  0.17102440  1
  I  I64  1  0.49853045  0.00233690  0.49613673  1
  I  I65  1  0.50119275  0.00000464  0.83187939  1
  I  I66  1  0.50042151  0.32988199  0.16799055  1
  I  I67  1  0.50362688  0.33361014  0.49641492  1
  I  I68  1  0.50628429  0.33667325  0.83481076  1
  I  I69  1  0.49833731  0.66876306  0.16587933  1
  I  I70  1  0.50252654  0.66349705  0.50249147  1
  I  I71  1  0.50547648  0.66308306  0.82904844  1
  I  I72  1  0.83476901  0.00398852  0.16180035  1
  I  I73  1  0.83265544  -0.00005953  0.50073598  1
  I  I74  1  0.83774014  0.00012776  0.83943635  1
  I  I75  1  0.82964750  0.32919734  0.16042861  1
  I  I76  1  0.83171127  0.33633733  0.50482638  1
  I  I77  1  0.82745308  0.33362641  0.83549125  1
  I  I78  1  0.83150978  0.66680823  0.16602879  1
  I  I79  1  0.82562919  0.66257071  0.50577067  1
  I  I80  1  0.83282046  0.66613861  0.82839246  1
  I  I81  1  0.17288667  0.16405148  0.00312798  1
  I  I82  1  0.16153766  0.16357431  0.33009478  1
  I  I83  1  0.16679326  0.16725362  0.66667424  1
  I  I84  1  0.16809443  0.50354241  -0.00023982  1
  I  I85  1  0.16667607  0.50452396  0.33357421  1
  I  I86  1  0.16723771  0.49767335  0.66672294  1
  I  I87  1  0.16311437  0.83371492  -0.00260460  1
  I  I88  1  0.16976390  0.83359331  0.33512777  1
  I  I89  1  0.16408753  0.83312383  0.66754733  1
  I  I90  1  0.49888084  0.16422277  0.00276582  1
  I  I91  1  0.50181374  0.16851280  0.33236375  1
  I  I92  1  0.50238315  0.16872491  0.66414156  1
  I  I93  1  0.50505140  0.50062445  -0.00270153  1
  I  I94  1  0.50404664  0.49855661  0.33640759  1
  I  I95  1  0.50498662  0.49595220  0.66611634  1
  I  I96  1  0.49818185  0.83983183  0.00293558  1
  I  I97  1  0.49692439  0.83433320  0.33035274  1
  I  I98  1  0.50038802  0.83595285  0.66684445  1
  I  I99  1  0.83114727  0.16837117  -0.00015399  1
  I  I100  1  0.83417616  0.16874021  0.33076249  1
  I  I101  1  0.83100820  0.16526812  0.66965518  1
  I  I102  1  0.82886697  0.50093477  -0.00351670  1
  I  I103  1  0.82782629  0.49791149  0.33637473  1
  I  I104  1  0.82820304  0.49836439  0.66795589  1
  I  I105  1  0.83961106  0.82791360  -0.00389467  1
  I  I106  1  0.83501412  0.83285327  0.33325874  1
  I  I107  1  0.83323742  0.83875794  0.67052470  1
  I  I108  1  -0.00073835  0.16760494  0.16056392  1
  I  I109  1  -0.00006926  0.16801895  0.49822271  1
  I  I110  1  -0.00431924  0.17191892  0.83833312  1
  I  I111  1  -0.00032882  0.50050885  0.16629075  1
  I  I112  1  -0.00302121  0.49944138  0.50587066  1
  I  I113  1  -0.00378801  0.49730873  0.82914651  1
  I  I114  1  -0.00015267  0.83464744  0.16804585  1
  I  I115  1  0.00298025  0.83299887  0.50049993  1
  I  I116  1  -0.00088175  0.83166429  0.83049798  1
  I  I117  1  0.33456761  0.16240644  0.17128227  1
  I  I118  1  0.33748175  0.17304779  0.49434704  1
  I  I119  1  0.33343394  0.16685196  0.83494695  1
  I  I120  1  0.33375067  0.49934425  0.16624115  1
  I  I121  1  0.33679428  0.49678456  0.50341395  1
  I  I122  1  0.33615135  0.50094201  0.82991443  1
  I  I123  1  0.33610177  0.83909073  0.16463959  1
  I  I124  1  0.33080944  0.83251293  0.50615746  1
  I  I125  1  0.33119070  0.83180943  0.83149020  1
  I  I126  1  0.66616933  0.16337279  0.16575383  1
  I  I127  1  0.66348567  0.16742322  0.49376642  1
  I  I128  1  0.66998392  0.16251970  0.83954464  1
  I  I129  1  0.66666875  0.49845234  0.16578669  1
  I  I130  1  0.66586079  0.49689471  0.50426206  1
  I  I131  1  0.66774769  0.50227537  0.83011767  1
  I  I132  1  0.66325978  0.83913209  0.16637997  1
  I  I133  1  0.66664260  0.83486905  0.50005383  1
  I  I134  1  0.66954662  0.83462788  0.83606524  1
