# generated using pymatgen
data_Cs27Sn14Pb13I81
_symmetry_space_group_name_H-M   'P 1'
_cell_length_a   18.96473789
_cell_length_b   18.95678391
_cell_length_c   18.96143121
_cell_angle_alpha   90.00207889
_cell_angle_beta   90.00028228
_cell_angle_gamma   90.00006741
_symmetry_Int_Tables_number   1
_chemical_formula_structural   Cs27Sn14Pb13I81
_chemical_formula_sum   'Cs27 Sn14 Pb13 I81'
_cell_volume   6816.83243658
_cell_formula_units_Z   1
loop_
 _symmetry_equiv_pos_site_id
 _symmetry_equiv_pos_as_xyz
  1  'x, y, z'
loop_
 _atom_site_type_symbol
 _atom_site_label
 _atom_site_symmetry_multiplicity
 _atom_site_fract_x
 _atom_site_fract_y
 _atom_site_fract_z
 _atom_site_occupancy
  Cs  Cs0  1  0.00135520  -0.00152947  0.00135973  1
  Cs  Cs1  1  0.00056527  -0.00052099  0.33091393  1
  Cs  Cs2  1  0.00182031  0.00175381  0.66714784  1
  Cs  Cs3  1  0.00209940  0.33277937  -0.00108847  1
  Cs  Cs4  1  -0.00318189  0.33636644  0.33826887  1
  Cs  Cs5  1  -0.00049155  0.33596961  0.66326071  1
  Cs  Cs6  1  0.00020172  0.66817373  0.00227176  1
  Cs  Cs7  1  -0.00795507  0.66051944  0.32625799  1
  Cs  Cs8  1  0.00119946  0.66204742  0.66882633  1
  Cs  Cs9  1  0.33329915  0.00069220  0.00006040  1
  Cs  Cs10  1  0.33320203  0.00151878  0.33465097  1
  Cs  Cs11  1  0.33354806  -0.00077588  0.66584363  1
  Cs  Cs12  1  0.33479155  0.33356181  0.00118545  1
  Cs  Cs13  1  0.33506011  0.33151359  0.33374640  1
  Cs  Cs14  1  0.33288189  0.33387828  0.66586165  1
  Cs  Cs15  1  0.33337571  0.66566955  0.00036843  1
  Cs  Cs16  1  0.33408902  0.66482825  0.33073630  1
  Cs  Cs17  1  0.33451790  0.66769592  0.66721194  1
  Cs  Cs18  1  0.66494150  0.00224061  -0.00254640  1
  Cs  Cs19  1  0.66631500  -0.00211950  0.33632703  1
  Cs  Cs20  1  0.66867869  -0.00054291  0.66680525  1
  Cs  Cs21  1  0.66495168  0.33271606  -0.00072497  1
  Cs  Cs22  1  0.66600315  0.33513949  0.33182820  1
  Cs  Cs23  1  0.66762634  0.33109034  0.66858951  1
  Cs  Cs24  1  0.66590634  0.66530110  -0.00105287  1
  Cs  Cs25  1  0.67235238  0.66734487  0.33372610  1
  Cs  Cs26  1  0.66463176  0.66939202  0.66744123  1
  Sn  Sn27  1  0.83307814  0.16643793  0.16671671  1
  Sn  Sn28  1  0.49974473  0.49941150  0.50082102  1
  Sn  Sn29  1  0.16638615  0.83330861  0.50006414  1
  Sn  Sn30  1  0.16648386  0.16648743  0.16705855  1
  Sn  Sn31  1  0.49995254  0.83273629  0.83407135  1
  Sn  Sn32  1  0.16750046  0.16573430  0.50003866  1
  Sn  Sn33  1  0.16695466  0.16606631  0.83303276  1
  Sn  Sn34  1  0.49985420  0.83414163  0.16609770  1
  Sn  Sn35  1  0.49958600  0.16731551  0.49947281  1
  Sn  Sn36  1  0.83345641  0.83284255  0.83322213  1
  Sn  Sn37  1  0.50017787  0.16562623  0.16759611  1
  Sn  Sn38  1  0.83243797  0.50054652  0.83335810  1
  Sn  Sn39  1  0.50064272  0.50073450  0.83239162  1
  Sn  Sn40  1  0.16663943  0.83421217  0.83252605  1
  Pb  Pb41  1  0.16709715  0.50058138  0.83342458  1
  Pb  Pb42  1  0.83616552  0.16669317  0.83494268  1
  Pb  Pb43  1  0.83017805  0.50012271  0.50265767  1
  Pb  Pb44  1  0.49823646  0.16659432  0.83297211  1
  Pb  Pb45  1  0.83314896  0.49750557  0.16371933  1
  Pb  Pb46  1  0.50004967  0.50011157  0.16660968  1
  Pb  Pb47  1  0.16845759  0.83481484  0.16686414  1
  Pb  Pb48  1  0.83334983  0.16642042  0.49767474  1
  Pb  Pb49  1  0.83064440  0.83541738  0.16430655  1
  Pb  Pb50  1  0.16665226  0.49698304  0.16692902  1
  Pb  Pb51  1  0.83715264  0.83338131  0.50241169  1
  Pb  Pb52  1  0.16875161  0.50050239  0.49989139  1
  Pb  Pb53  1  0.49850319  0.83346339  0.49998729  1
  I  I54  1  0.16619583  0.00364523  0.16558304  1
  I  I55  1  0.17314775  0.00151449  0.50178841  1
  I  I56  1  0.16725964  -0.00044405  0.83308345  1
  I  I57  1  0.17108830  0.32760375  0.16486221  1
  I  I58  1  0.16888767  0.32974351  0.50043122  1
  I  I59  1  0.16703575  0.33033040  0.83387910  1
  I  I60  1  0.16927582  0.66713386  0.16580126  1
  I  I61  1  0.16971766  0.66991429  0.50875710  1
  I  I62  1  0.16728028  0.67028755  0.82820977  1
  I  I63  1  0.49922875  0.00133949  0.16545369  1
  I  I64  1  0.49693327  0.00277821  0.49855750  1
  I  I65  1  0.50166663  -0.00269746  0.83457949  1
  I  I66  1  0.49869749  0.32982848  0.16677432  1
  I  I67  1  0.49429324  0.33196992  0.50000810  1
  I  I68  1  0.50267813  0.33549310  0.83299603  1
  I  I69  1  0.49883893  0.66958056  0.16481482  1
  I  I70  1  0.49775219  0.66463667  0.50222865  1
  I  I71  1  0.49850724  0.66756543  0.83335076  1
  I  I72  1  0.83569245  0.00343547  0.16351265  1
  I  I73  1  0.82763220  0.00002459  0.50338466  1
  I  I74  1  0.83051576  -0.00281034  0.83515714  1
  I  I75  1  0.83137209  0.32930039  0.16433594  1
  I  I76  1  0.83754049  0.33316813  0.50265502  1
  I  I77  1  0.82887191  0.33566995  0.83566345  1
  I  I78  1  0.83174770  0.66690750  0.16784240  1
  I  I79  1  0.83300927  0.66675091  0.49710380  1
  I  I80  1  0.83398799  0.66742607  0.83301489  1
  I  I81  1  0.16710314  0.16330503  -0.00001720  1
  I  I82  1  0.16887706  0.16267657  0.33368723  1
  I  I83  1  0.17168937  0.16258797  0.66635530  1
  I  I84  1  0.16943400  0.49837778  -0.00038520  1
  I  I85  1  0.16968823  0.50131591  0.33366639  1
  I  I86  1  0.16519442  0.49428280  0.66687408  1
  I  I87  1  0.16582441  0.83757096  -0.00320097  1
  I  I88  1  0.17159936  0.83929780  0.33589168  1
  I  I89  1  0.16927486  0.84204498  0.66820678  1
  I  I90  1  0.49847922  0.16600996  0.00234938  1
  I  I91  1  0.49528997  0.16693907  0.33295418  1
  I  I92  1  0.49477205  0.16757458  0.66423373  1
  I  I93  1  0.50330400  0.50043541  -0.00320189  1
  I  I94  1  0.49670220  0.49774472  0.33599471  1
  I  I95  1  0.50266561  0.49963587  0.66770014  1
  I  I96  1  0.49795234  0.83405006  -0.00147709  1
  I  I97  1  0.49671719  0.83540598  0.33109627  1
  I  I98  1  0.50076931  0.83254506  0.66968840  1
  I  I99  1  0.83170168  0.16667794  0.00284658  1
  I  I100  1  0.83683425  0.16630736  0.32956530  1
  I  I101  1  0.83322707  0.16706690  0.66700339  1
  I  I102  1  0.82626356  0.50345630  -0.00420274  1
  I  I103  1  0.83324567  0.49891413  0.33325561  1
  I  I104  1  0.83265982  0.50197151  0.67079164  1
  I  I105  1  0.83851685  0.83040019  -0.00409427  1
  I  I106  1  0.83265529  0.83454472  0.33296917  1
  I  I107  1  0.82671698  0.83189301  0.67118173  1
  I  I108  1  0.00119643  0.16719708  0.16446456  1
  I  I109  1  0.00366965  0.16277152  0.50010379  1
  I  I110  1  0.00429242  0.16342188  0.83355196  1
  I  I111  1  -0.00026735  0.49925057  0.16452175  1
  I  I112  1  -0.00008383  0.49833162  0.50156277  1
  I  I113  1  -0.00238762  0.50188284  0.83512250  1
  I  I114  1  0.00003725  0.83586222  0.16534236  1
  I  I115  1  0.00523436  0.84213754  0.50508363  1
  I  I116  1  0.00083395  0.83419508  0.82880875  1
  I  I117  1  0.33366753  0.16307967  0.16729266  1
  I  I118  1  0.33319107  0.16699531  0.49591681  1
  I  I119  1  0.33015426  0.16333176  0.83685373  1
  I  I120  1  0.33387770  0.49834487  0.16314631  1
  I  I121  1  0.33689596  0.49757606  0.50729308  1
  I  I122  1  0.33654735  0.50256851  0.83020202  1
  I  I123  1  0.33658768  0.83910117  0.16072989  1
  I  I124  1  0.33066340  0.83619871  0.50659417  1
  I  I125  1  0.33352901  0.83365863  0.83336801  1
  I  I126  1  0.66510639  0.16363555  0.16964332  1
  I  I127  1  0.66320461  0.17046190  0.49608369  1
  I  I128  1  0.66656400  0.16477950  0.83410845  1
  I  I129  1  0.66632239  0.49630930  0.16797908  1
  I  I130  1  0.66198823  0.49379578  0.50135428  1
  I  I131  1  0.66543867  0.50693544  0.83010853  1
  I  I132  1  0.66249728  0.83931785  0.16231059  1
  I  I133  1  0.66646017  0.83385009  0.50060525  1
  I  I134  1  0.66569911  0.82898405  0.83815136  1
