# generated using pymatgen
data_Cs27Sn13Pb14I81
_symmetry_space_group_name_H-M   'P 1'
_cell_length_a   18.97280014
_cell_length_b   18.98203788
_cell_length_c   18.97721080
_cell_angle_alpha   90.00148864
_cell_angle_beta   89.99985510
_cell_angle_gamma   89.99926548
_symmetry_Int_Tables_number   1
_chemical_formula_structural   Cs27Sn13Pb14I81
_chemical_formula_sum   'Cs27 Sn13 Pb14 I81'
_cell_volume   6834.49845087
_cell_formula_units_Z   1
loop_
 _symmetry_equiv_pos_site_id
 _symmetry_equiv_pos_as_xyz
  1  'x, y, z'
loop_
 _atom_site_type_symbol
 _atom_site_label
 _atom_site_symmetry_multiplicity
 _atom_site_fract_x
 _atom_site_fract_y
 _atom_site_fract_z
 _atom_site_occupancy
  Cs  Cs0  1  0.00165970  0.00008475  0.00075486  1
  Cs  Cs1  1  -0.00038359  0.00112421  0.32686835  1
  Cs  Cs2  1  -0.00152721  -0.00082584  0.66671723  1
  Cs  Cs3  1  0.00063868  0.33490086  0.00102959  1
  Cs  Cs4  1  -0.00136493  0.33115248  0.33470597  1
  Cs  Cs5  1  0.00103880  0.33258798  0.66587194  1
  Cs  Cs6  1  -0.00395457  0.66482370  -0.00219364  1
  Cs  Cs7  1  0.00038523  0.66820136  0.33455320  1
  Cs  Cs8  1  0.00069341  0.66818072  0.66723430  1
  Cs  Cs9  1  0.33528046  -0.00004770  0.00106593  1
  Cs  Cs10  1  0.33172045  -0.00509265  0.33180761  1
  Cs  Cs11  1  0.33394479  0.00019377  0.66742827  1
  Cs  Cs12  1  0.33236462  0.33153510  0.00230606  1
  Cs  Cs13  1  0.33373092  0.33383665  0.33236008  1
  Cs  Cs14  1  0.33287816  0.33303296  0.66595223  1
  Cs  Cs15  1  0.33436542  0.66747377  0.00161988  1
  Cs  Cs16  1  0.33484472  0.67050672  0.33629303  1
  Cs  Cs17  1  0.33675415  0.66723482  0.66186012  1
  Cs  Cs18  1  0.66276545  -0.00516895  -0.00212418  1
  Cs  Cs19  1  0.66969724  0.00274381  0.33059043  1
  Cs  Cs20  1  0.67026320  0.00143149  0.66874571  1
  Cs  Cs21  1  0.66504404  0.33865348  -0.00113763  1
  Cs  Cs22  1  0.66638230  0.33074099  0.33430425  1
  Cs  Cs23  1  0.66394988  0.33440857  0.66677759  1
  Cs  Cs24  1  0.66944502  0.66609021  0.00127211  1
  Cs  Cs25  1  0.66495445  0.66908738  0.33247627  1
  Cs  Cs26  1  0.66292499  0.66423342  0.66615460  1
  Sn  Sn27  1  0.49986201  0.16750048  0.16755926  1
  Sn  Sn28  1  0.49913595  0.49913133  0.16695964  1
  Sn  Sn29  1  0.16738005  0.16699212  0.50039709  1
  Sn  Sn30  1  0.16619658  0.83338635  0.83298884  1
  Sn  Sn31  1  0.83417334  0.16649876  0.83345537  1
  Sn  Sn32  1  0.16726418  0.49991309  0.16710783  1
  Sn  Sn33  1  0.16601060  0.49939016  0.49988741  1
  Sn  Sn34  1  0.16578899  0.16652234  0.83261038  1
  Sn  Sn35  1  0.16673241  0.50009700  0.83305681  1
  Sn  Sn36  1  0.83396915  0.50084384  0.50009192  1
  Sn  Sn37  1  0.83439272  0.83391652  0.83208782  1
  Sn  Sn38  1  0.49881541  0.16657559  0.49922712  1
  Sn  Sn39  1  0.83368299  0.83257740  0.50067749  1
  Pb  Pb40  1  0.49959012  0.49827751  0.49807141  1
  Pb  Pb41  1  0.16647470  0.83009199  0.16367714  1
  Pb  Pb42  1  0.83361470  0.49985730  0.16964338  1
  Pb  Pb43  1  0.50024232  0.83308309  0.83298610  1
  Pb  Pb44  1  0.83042114  0.16690308  0.16285761  1
  Pb  Pb45  1  0.49969298  0.16675711  0.83335151  1
  Pb  Pb46  1  0.49685901  0.50002383  0.83579277  1
  Pb  Pb47  1  0.50321395  0.83681416  0.50014171  1
  Pb  Pb48  1  0.83389991  0.16662877  0.50153041  1
  Pb  Pb49  1  0.16495831  0.83380399  0.50175499  1
  Pb  Pb50  1  0.83523481  0.50000722  0.83109634  1
  Pb  Pb51  1  0.49988688  0.83319468  0.16685498  1
  Pb  Pb52  1  0.16805690  0.16835357  0.16673832  1
  Pb  Pb53  1  0.83359786  0.83337620  0.16621231  1
  I  I54  1  0.16847246  0.00006528  0.16679994  1
  I  I55  1  0.16944511  0.00315750  0.50520834  1
  I  I56  1  0.16273609  0.00097031  0.82813774  1
  I  I57  1  0.16872551  0.33653256  0.16216474  1
  I  I58  1  0.16482060  0.33383128  0.50463520  1
  I  I59  1  0.16317105  0.33305287  0.83260624  1
  I  I60  1  0.17323458  0.66166332  0.16862545  1
  I  I61  1  0.16432085  0.66366645  0.50058806  1
  I  I62  1  0.16234798  0.66629095  0.83470523  1
  I  I63  1  0.50086093  0.00334834  0.16941231  1
  I  I64  1  0.49387663  0.00476991  0.49435882  1
  I  I65  1  0.49611851  0.00023952  0.83617826  1
  I  I66  1  0.49555946  0.33336663  0.16980396  1
  I  I67  1  0.50096029  0.33035772  0.49895973  1
  I  I68  1  0.50233696  0.33321814  0.83196119  1
  I  I69  1  0.49557670  0.66321910  0.16565223  1
  I  I70  1  0.49812859  0.66660245  0.49848102  1
  I  I71  1  0.50050297  0.66644890  0.83567505  1
  I  I72  1  0.83145781  0.00026131  0.17205104  1
  I  I73  1  0.83189715  -0.00206577  0.50393334  1
  I  I74  1  0.84077147  -0.00021889  0.82695721  1
  I  I75  1  0.83479829  0.33342327  0.16665444  1
  I  I76  1  0.83501541  0.33542661  0.50096919  1
  I  I77  1  0.83712872  0.33091713  0.83187441  1
  I  I78  1  0.83088077  0.66638328  0.16197731  1
  I  I79  1  0.83931040  0.66617410  0.50509230  1
  I  I80  1  0.83804779  0.66931445  0.83179343  1
  I  I81  1  0.16457249  0.16753725  -0.00314635  1
  I  I82  1  0.16815742  0.17178648  0.33637360  1
  I  I83  1  0.16878227  0.17177058  0.66688135  1
  I  I84  1  0.17141843  0.49972138  -0.00065867  1
  I  I85  1  0.16625809  0.49422006  0.33443213  1
  I  I86  1  0.16115508  0.49834700  0.66637586  1
  I  I87  1  0.16071927  0.83542909  -0.00485966  1
  I  I88  1  0.16510599  0.83371039  0.33350787  1
  I  I89  1  0.16400039  0.82970490  0.67005749  1
  I  I90  1  0.50014584  0.17074375  0.00262350  1
  I  I91  1  0.49546630  0.17144782  0.33394856  1
  I  I92  1  0.49863234  0.16659311  0.66406204  1
  I  I93  1  0.49598095  0.49290214  0.00388549  1
  I  I94  1  0.49442240  0.49722180  0.33031103  1
  I  I95  1  0.49998442  0.49839370  0.66627095  1
  I  I96  1  0.50156789  0.83567249  -0.00004844  1
  I  I97  1  0.50131680  0.83172655  0.33363216  1
  I  I98  1  0.49798230  0.83441319  0.66642065  1
  I  I99  1  0.83962290  0.16131648  -0.00511142  1
  I  I100  1  0.83514639  0.16587277  0.33348156  1
  I  I101  1  0.83325860  0.16534195  0.66941611  1
  I  I102  1  0.83350301  0.50050394  -0.00020182  1
  I  I103  1  0.83920197  0.50468397  0.33764724  1
  I  I104  1  0.83864312  0.50021697  0.66325359  1
  I  I105  1  0.83684344  0.83741499  -0.00406756  1
  I  I106  1  0.83233466  0.82886430  0.33659260  1
  I  I107  1  0.83799916  0.83406732  0.66755707  1
  I  I108  1  0.00011755  0.16788916  0.16920752  1
  I  I109  1  0.00301082  0.16908845  0.50358553  1
  I  I110  1  0.00166310  0.16625327  0.82728530  1
  I  I111  1  0.00350564  0.50045277  0.16382178  1
  I  I112  1  0.00173488  0.49739324  0.49866489  1
  I  I113  1  0.00379751  0.49948430  0.83790432  1
  I  I114  1  0.00024804  0.83243496  0.16865083  1
  I  I115  1  -0.00296269  0.83318181  0.50335302  1
  I  I116  1  0.00024673  0.83408161  0.82944688  1
  I  I117  1  0.33603366  0.16985733  0.16538451  1
  I  I118  1  0.33175502  0.17321375  0.50301601  1
  I  I119  1  0.32967835  0.16697350  0.83243913  1
  I  I120  1  0.33226774  0.49509353  0.16652757  1
  I  I121  1  0.32985116  0.49738165  0.50258573  1
  I  I122  1  0.32805550  0.49859358  0.82767322  1
  I  I123  1  0.33301676  0.83485138  0.16428637  1
  I  I124  1  0.33316119  0.83087057  0.50150615  1
  I  I125  1  0.32957335  0.83442543  0.83450378  1
  I  I126  1  0.66249073  0.17335873  0.17353393  1
  I  I127  1  0.66477112  0.16681813  0.49776042  1
  I  I128  1  0.66942563  0.16068569  0.83284217  1
  I  I129  1  0.66378478  0.49598889  0.16795096  1
  I  I130  1  0.66907186  0.50191771  0.49894862  1
  I  I131  1  0.66688498  0.49977157  0.83364100  1
  I  I132  1  0.66668757  0.83112151  0.16396724  1
  I  I133  1  0.67115809  0.82726066  0.50696521  1
  I  I134  1  0.67060217  0.83987417  0.83054466  1
