# generated using pymatgen
data_Cs27Sn14Pb13I81
_symmetry_space_group_name_H-M   'P 1'
_cell_length_a   18.95809634
_cell_length_b   18.95865728
_cell_length_c   18.96666767
_cell_angle_alpha   89.99967895
_cell_angle_beta   90.00083944
_cell_angle_gamma   89.99968196
_symmetry_Int_Tables_number   1
_chemical_formula_structural   Cs27Sn14Pb13I81
_chemical_formula_sum   'Cs27 Sn14 Pb13 I81'
_cell_volume   6817.00066692
_cell_formula_units_Z   1
loop_
 _symmetry_equiv_pos_site_id
 _symmetry_equiv_pos_as_xyz
  1  'x, y, z'
loop_
 _atom_site_type_symbol
 _atom_site_label
 _atom_site_symmetry_multiplicity
 _atom_site_fract_x
 _atom_site_fract_y
 _atom_site_fract_z
 _atom_site_occupancy
  Cs  Cs0  1  -0.00156556  0.00023950  -0.00012962  1
  Cs  Cs1  1  -0.00226843  0.00111607  0.33362551  1
  Cs  Cs2  1  -0.00069403  0.00167183  0.66639008  1
  Cs  Cs3  1  0.00286178  0.33183942  -0.00215435  1
  Cs  Cs4  1  0.00309759  0.33671376  0.33441954  1
  Cs  Cs5  1  -0.00119991  0.33184502  0.66721507  1
  Cs  Cs6  1  -0.00127679  0.66844780  0.00141339  1
  Cs  Cs7  1  0.00072773  0.66005227  0.33269454  1
  Cs  Cs8  1  0.00295041  0.66726296  0.66537017  1
  Cs  Cs9  1  0.33482057  -0.00126289  0.00158319  1
  Cs  Cs10  1  0.33548480  0.00074744  0.33259318  1
  Cs  Cs11  1  0.33753682  -0.00822299  0.66457785  1
  Cs  Cs12  1  0.33213411  0.33232656  0.00188026  1
  Cs  Cs13  1  0.33170855  0.33162566  0.32882796  1
  Cs  Cs14  1  0.33345723  0.33365235  0.66816677  1
  Cs  Cs15  1  0.33476983  0.66808952  -0.00040695  1
  Cs  Cs16  1  0.33202058  0.66735381  0.33470752  1
  Cs  Cs17  1  0.33161166  0.67318369  0.66483226  1
  Cs  Cs18  1  0.66809025  0.00035395  -0.00045391  1
  Cs  Cs19  1  0.66739208  0.00042153  0.33531030  1
  Cs  Cs20  1  0.66537330  0.00060564  0.66510289  1
  Cs  Cs21  1  0.66553214  0.33335284  -0.00325549  1
  Cs  Cs22  1  0.66551098  0.33414529  0.33630996  1
  Cs  Cs23  1  0.66744074  0.33353162  0.66758007  1
  Cs  Cs24  1  0.66665809  0.66641869  0.00264711  1
  Cs  Cs25  1  0.66810595  0.66497142  0.32892230  1
  Cs  Cs26  1  0.66624237  0.66481462  0.66690906  1
  Sn  Sn27  1  0.49918208  0.83297963  0.16660416  1
  Sn  Sn28  1  0.16696175  0.83341221  0.16675548  1
  Sn  Sn29  1  0.83328880  0.83345813  0.83227360  1
  Sn  Sn30  1  0.83412820  0.16620000  0.50006697  1
  Sn  Sn31  1  0.49994049  0.50050745  0.16667736  1
  Sn  Sn32  1  0.16672494  0.49969143  0.83324460  1
  Sn  Sn33  1  0.83387094  0.50020763  0.83333720  1
  Sn  Sn34  1  0.83330373  0.16740070  0.16679164  1
  Sn  Sn35  1  0.16639677  0.16671170  0.83213670  1
  Sn  Sn36  1  0.83354380  0.83333909  0.50066490  1
  Sn  Sn37  1  0.83389217  0.16648316  0.83312979  1
  Sn  Sn38  1  0.49949466  0.50002625  0.83313108  1
  Sn  Sn39  1  0.16635425  0.16642112  0.50111193  1
  Sn  Sn40  1  0.49971259  0.49985355  0.50014990  1
  Pb  Pb41  1  0.83217283  0.49972115  0.50205606  1
  Pb  Pb42  1  0.83313460  0.83468250  0.16699101  1
  Pb  Pb43  1  0.16465812  0.16495180  0.16636255  1
  Pb  Pb44  1  0.16463408  0.83394979  0.83462303  1
  Pb  Pb45  1  0.50265992  0.83092479  0.83507632  1
  Pb  Pb46  1  0.50254202  0.83101379  0.49765288  1
  Pb  Pb47  1  0.49978668  0.16843588  0.50025633  1
  Pb  Pb48  1  0.16884250  0.50199277  0.16426087  1
  Pb  Pb49  1  0.16906939  0.49775850  0.50244078  1
  Pb  Pb50  1  0.16421478  0.83572922  0.49767263  1
  Pb  Pb51  1  0.83161936  0.49719056  0.16420810  1
  Pb  Pb52  1  0.50237304  0.16662295  0.16659374  1
  Pb  Pb53  1  0.49943901  0.16825281  0.83314540  1
  I  I54  1  0.17241546  -0.00272877  0.16403147  1
  I  I55  1  0.16483072  0.00385792  0.50687753  1
  I  I56  1  0.15996821  0.00317030  0.83212763  1
  I  I57  1  0.16738705  0.33327040  0.16762822  1
  I  I58  1  0.15911435  0.32975007  0.50024893  1
  I  I59  1  0.16208457  0.33311550  0.83125177  1
  I  I60  1  0.16595773  0.66976856  0.16487000  1
  I  I61  1  0.16595764  0.66668653  0.50022114  1
  I  I62  1  0.16596397  0.66405958  0.83628521  1
  I  I63  1  0.49804307  -0.00279411  0.16656319  1
  I  I64  1  0.49945559  -0.00026252  0.49763089  1
  I  I65  1  0.50062915  -0.00043300  0.83587069  1
  I  I66  1  0.50262631  0.33649611  0.16549369  1
  I  I67  1  0.50342139  0.33666412  0.49839776  1
  I  I68  1  0.50518021  0.33718704  0.83618089  1
  I  I69  1  0.49823782  0.66598404  0.16525542  1
  I  I70  1  0.50193020  0.66302935  0.50361150  1
  I  I71  1  0.49999549  0.66233665  0.83187593  1
  I  I72  1  0.83165668  0.00263878  0.16196849  1
  I  I73  1  0.83564227  0.00122987  0.50406421  1
  I  I74  1  0.83821932  0.00114769  0.83400222  1
  I  I75  1  0.83232059  0.32926358  0.16741646  1
  I  I76  1  0.83466378  0.33013217  0.50079898  1
  I  I77  1  0.83248299  0.33287466  0.83376420  1
  I  I78  1  0.83399372  0.66647392  0.16611774  1
  I  I79  1  0.83019816  0.66890606  0.50400352  1
  I  I80  1  0.83216123  0.66632899  0.82982571  1
  I  I81  1  0.16176600  0.17000514  -0.00313541  1
  I  I82  1  0.16196074  0.16461742  0.33571768  1
  I  I83  1  0.15726633  0.17164597  0.66769978  1
  I  I84  1  0.16725355  0.49334809  -0.00402659  1
  I  I85  1  0.16841668  0.49905129  0.33336331  1
  I  I86  1  0.16748529  0.49922732  0.67081235  1
  I  I87  1  0.16777893  0.83459664  0.00242428  1
  I  I88  1  0.16876216  0.83513338  0.33006307  1
  I  I89  1  0.16699961  0.83144329  0.66662544  1
  I  I90  1  0.50140141  0.16926819  -0.00007930  1
  I  I91  1  0.50109728  0.17035985  0.33334561  1
  I  I92  1  0.50469328  0.16987659  0.66674527  1
  I  I93  1  0.50146660  0.50361557  -0.00064230  1
  I  I94  1  0.50214761  0.50346665  0.33273611  1
  I  I95  1  0.50220943  0.49687333  0.66787820  1
  I  I96  1  0.49949264  0.82796457  0.00302638  1
  I  I97  1  0.49928227  0.82767687  0.32982534  1
  I  I98  1  0.49962412  0.83178829  0.66659182  1
  I  I99  1  0.83585437  0.16628793  -0.00175966  1
  I  I100  1  0.83527850  0.16041494  0.33458405  1
  I  I101  1  0.83693956  0.16659348  0.66742442  1
  I  I102  1  0.83085744  0.50104662  -0.00432550  1
  I  I103  1  0.83002172  0.50030503  0.33330953  1
  I  I104  1  0.83017526  0.49606916  0.67056506  1
  I  I105  1  0.83302541  0.83407825  -0.00255313  1
  I  I106  1  0.83217969  0.83963794  0.33562532  1
  I  I107  1  0.83342679  0.83766121  0.66749656  1
  I  I108  1  -0.00338878  0.16318402  0.16518906  1
  I  I109  1  -0.00154091  0.16357583  0.50127954  1
  I  I110  1  -0.00136198  0.17172464  0.83331921  1
  I  I111  1  0.00004911  0.50188794  0.16539502  1
  I  I112  1  0.00015045  0.50177899  0.50092610  1
  I  I113  1  -0.00061472  0.49815326  0.83328223  1
  I  I114  1  0.00156601  0.83693939  0.16502097  1
  I  I115  1  -0.00389960  0.83445312  0.50194376  1
  I  I116  1  -0.00374275  0.82951258  0.83377463  1
  I  I117  1  0.33317335  0.16767028  0.16668183  1
  I  I118  1  0.33018492  0.16961445  0.50429933  1
  I  I119  1  0.32969413  0.17219768  0.83025407  1
  I  I120  1  0.33716004  0.50004892  0.16419251  1
  I  I121  1  0.33702732  0.49829795  0.50159658  1
  I  I122  1  0.33340621  0.49390953  0.83462979  1
  I  I123  1  0.33400256  0.83005865  0.16522175  1
  I  I124  1  0.33336458  0.83434882  0.50029773  1
  I  I125  1  0.33339751  0.83331886  0.83396545  1
  I  I126  1  0.67061610  0.16479796  0.16544531  1
  I  I127  1  0.67022634  0.16441374  0.50096488  1
  I  I128  1  0.67026224  0.16763509  0.83298975  1
  I  I129  1  0.66334657  0.50623538  0.16414244  1
  I  I130  1  0.66407166  0.49824097  0.50230215  1
  I  I131  1  0.66696144  0.49966590  0.83382023  1
  I  I132  1  0.66449756  0.82947225  0.16605892  1
  I  I133  1  0.67047600  0.84038567  0.50234708  1
  I  I134  1  0.67104995  0.83505570  0.83284493  1
