# generated using pymatgen
data_Cs27Sn14Pb13I81
_symmetry_space_group_name_H-M   'P 1'
_cell_length_a   18.98566685
_cell_length_b   18.97017763
_cell_length_c   18.97037770
_cell_angle_alpha   89.99984925
_cell_angle_beta   89.99911918
_cell_angle_gamma   90.00055594
_symmetry_Int_Tables_number   1
_chemical_formula_structural   Cs27Sn14Pb13I81
_chemical_formula_sum   'Cs27 Sn14 Pb13 I81'
_cell_volume   6832.39916383
_cell_formula_units_Z   1
loop_
 _symmetry_equiv_pos_site_id
 _symmetry_equiv_pos_as_xyz
  1  'x, y, z'
loop_
 _atom_site_type_symbol
 _atom_site_label
 _atom_site_symmetry_multiplicity
 _atom_site_fract_x
 _atom_site_fract_y
 _atom_site_fract_z
 _atom_site_occupancy
  Cs  Cs0  1  -0.00059631  -0.00129280  -0.00054497  1
  Cs  Cs1  1  0.00080459  0.00093197  0.33235940  1
  Cs  Cs2  1  -0.00068301  0.00289004  0.66810766  1
  Cs  Cs3  1  0.00521304  0.33716802  -0.00187333  1
  Cs  Cs4  1  -0.00091008  0.33087612  0.33695134  1
  Cs  Cs5  1  0.00247068  0.33124828  0.66459773  1
  Cs  Cs6  1  -0.00665019  0.66334687  0.00907440  1
  Cs  Cs7  1  0.00344604  0.66864764  0.32634453  1
  Cs  Cs8  1  -0.00403308  0.66652184  0.66741765  1
  Cs  Cs9  1  0.33609928  0.00098811  -0.00387969  1
  Cs  Cs10  1  0.33364869  -0.00278546  0.33228254  1
  Cs  Cs11  1  0.33439074  -0.00240256  0.66907192  1
  Cs  Cs12  1  0.33344991  0.34193415  -0.00004897  1
  Cs  Cs13  1  0.33481475  0.33192131  0.33271433  1
  Cs  Cs14  1  0.33119573  0.33280417  0.66742959  1
  Cs  Cs15  1  0.33265863  0.66073515  0.00067735  1
  Cs  Cs16  1  0.32782858  0.67278483  0.33366926  1
  Cs  Cs17  1  0.33597136  0.67118124  0.66573085  1
  Cs  Cs18  1  0.66492715  -0.00086984  -0.00086561  1
  Cs  Cs19  1  0.66509442  0.00271637  0.33362073  1
  Cs  Cs20  1  0.66597291  -0.00026818  0.66730783  1
  Cs  Cs21  1  0.66217645  0.33804294  0.00367756  1
  Cs  Cs22  1  0.66589958  0.33097461  0.33417120  1
  Cs  Cs23  1  0.66714532  0.33249088  0.66417577  1
  Cs  Cs24  1  0.67319747  0.66202031  -0.00106713  1
  Cs  Cs25  1  0.66791864  0.66634424  0.33507609  1
  Cs  Cs26  1  0.66674860  0.66666917  0.66776853  1
  Sn  Sn27  1  0.16707136  0.16681690  0.49925732  1
  Sn  Sn28  1  0.16642486  0.16632679  0.16695093  1
  Sn  Sn29  1  0.50025787  0.83330160  0.16520863  1
  Sn  Sn30  1  0.49938236  0.83368421  0.83486875  1
  Sn  Sn31  1  0.49956741  0.49918959  0.50008092  1
  Sn  Sn32  1  0.49963794  0.16708148  0.50090809  1
  Sn  Sn33  1  0.83364183  0.83373413  0.49981435  1
  Sn  Sn34  1  0.16653800  0.83286060  0.83366803  1
  Sn  Sn35  1  0.50073484  0.16643355  0.83266718  1
  Sn  Sn36  1  0.16681017  0.49952652  0.50035704  1
  Sn  Sn37  1  0.83329660  0.16660679  0.50014553  1
  Sn  Sn38  1  0.83410569  0.16657444  0.16608789  1
  Sn  Sn39  1  0.83364168  0.50004744  0.49997441  1
  Sn  Sn40  1  0.83231108  0.16673225  0.83383820  1
  Pb  Pb41  1  0.16410303  0.83378422  0.50157324  1
  Pb  Pb42  1  0.83124805  0.83573780  0.16894371  1
  Pb  Pb43  1  0.49971798  0.16577360  0.16635486  1
  Pb  Pb44  1  0.83337846  0.49654583  0.83120936  1
  Pb  Pb45  1  0.16645066  0.50358300  0.83070204  1
  Pb  Pb46  1  0.16710409  0.16575980  0.83343363  1
  Pb  Pb47  1  0.50000844  0.49992591  0.83103555  1
  Pb  Pb48  1  0.16849349  0.83582331  0.16375061  1
  Pb  Pb49  1  0.50167931  0.83363246  0.50054363  1
  Pb  Pb50  1  0.16673357  0.49718335  0.16942957  1
  Pb  Pb51  1  0.83326949  0.49673161  0.16940359  1
  Pb  Pb52  1  0.50000476  0.50342263  0.17005035  1
  Pb  Pb53  1  0.83294879  0.83497129  0.83192027  1
  I  I54  1  0.16254790  0.00361720  0.17592549  1
  I  I55  1  0.16653059  0.00344410  0.49792211  1
  I  I56  1  0.16873144  -0.00179071  0.82944694  1
  I  I57  1  0.16383630  0.32891174  0.16711810  1
  I  I58  1  0.16269329  0.33172500  0.49740724  1
  I  I59  1  0.16667663  0.33324761  0.83501475  1
  I  I60  1  0.16851732  0.66681899  0.16819885  1
  I  I61  1  0.16748008  0.66414644  0.50347406  1
  I  I62  1  0.17514406  0.67122416  0.82940343  1
  I  I63  1  0.50056370  -0.00188535  0.16888620  1
  I  I64  1  0.50085602  0.00314678  0.50071655  1
  I  I65  1  0.50001879  0.00090780  0.82960858  1
  I  I66  1  0.50011996  0.33328826  0.16475168  1
  I  I67  1  0.50403491  0.33144179  0.50443517  1
  I  I68  1  0.50439998  0.32985082  0.83032478  1
  I  I69  1  0.49983895  0.67110087  0.16194101  1
  I  I70  1  0.50118366  0.66433577  0.49939645  1
  I  I71  1  0.49500762  0.66984606  0.83412464  1
  I  I72  1  0.83627968  0.00392064  0.17151606  1
  I  I73  1  0.83251067  0.00221194  0.50031050  1
  I  I74  1  0.83220811  0.00346094  0.82809813  1
  I  I75  1  0.83489706  0.32844884  0.16952820  1
  I  I76  1  0.83304968  0.33173862  0.50001577  1
  I  I77  1  0.82789737  0.32800785  0.83035072  1
  I  I78  1  0.83203013  0.66668497  0.16901832  1
  I  I79  1  0.83134435  0.66619046  0.50180667  1
  I  I80  1  0.83259937  0.66664459  0.82896472  1
  I  I81  1  0.16261589  0.16184181  0.00225441  1
  I  I82  1  0.16331163  0.16964251  0.33530913  1
  I  I83  1  0.16396909  0.16920392  0.66352980  1
  I  I84  1  0.16785444  0.49808113  0.00015159  1
  I  I85  1  0.16601273  0.49996447  0.33806488  1
  I  I86  1  0.16595549  0.49063121  0.66212047  1
  I  I87  1  0.16816312  0.83882218  -0.00382986  1
  I  I88  1  0.16781932  0.83158643  0.33335569  1
  I  I89  1  0.17433905  0.83645455  0.66894865  1
  I  I90  1  0.50354155  0.16204020  -0.00284260  1
  I  I91  1  0.50283111  0.16837847  0.33644083  1
  I  I92  1  0.50308515  0.16413977  0.66555595  1
  I  I93  1  0.49910113  0.49657070  0.00004892  1
  I  I94  1  0.50176678  0.49286081  0.33833828  1
  I  I95  1  0.50114539  0.50036325  0.66245825  1
  I  I96  1  0.49632496  0.84338781  -0.00145825  1
  I  I97  1  0.50282882  0.83431646  0.33209713  1
  I  I98  1  0.49773930  0.83521300  0.66904054  1
  I  I99  1  0.83328108  0.16284513  -0.00025474  1
  I  I100  1  0.83330369  0.16708992  0.33532877  1
  I  I101  1  0.83297869  0.16654437  0.66490566  1
  I  I102  1  0.83311122  0.50005236  0.00023216  1
  I  I103  1  0.83270850  0.49757030  0.33822058  1
  I  I104  1  0.83256156  0.49772305  0.66209800  1
  I  I105  1  0.83476654  0.83643033  0.00005954  1
  I  I106  1  0.83138720  0.83578841  0.33722271  1
  I  I107  1  0.83085753  0.83644217  0.66351601  1
  I  I108  1  -0.00054281  0.16556330  0.17222456  1
  I  I109  1  -0.00083659  0.16868123  0.50015393  1
  I  I110  1  -0.00229716  0.16441476  0.82904379  1
  I  I111  1  -0.00002225  0.50378574  0.16842116  1
  I  I112  1  -0.00031785  0.49493314  0.50133628  1
  I  I113  1  -0.00006539  0.49926843  0.82884228  1
  I  I114  1  -0.00008252  0.83272782  0.16647625  1
  I  I115  1  -0.00357247  0.83563998  0.50280837  1
  I  I116  1  0.00175959  0.83715653  0.82753708  1
  I  I117  1  0.33107801  0.16401048  0.17215529  1
  I  I118  1  0.33356237  0.17292307  0.49993068  1
  I  I119  1  0.33618650  0.16312140  0.82866848  1
  I  I120  1  0.33339728  0.49650072  0.16960420  1
  I  I121  1  0.33338686  0.49188170  0.50047229  1
  I  I122  1  0.33333634  0.49466192  0.82977331  1
  I  I123  1  0.33628585  0.83741866  0.16912691  1
  I  I124  1  0.33334730  0.83306470  0.49860490  1
  I  I125  1  0.33490070  0.84117485  0.83366149  1
  I  I126  1  0.66901630  0.16465908  0.17100368  1
  I  I127  1  0.66723150  0.16836555  0.50010693  1
  I  I128  1  0.66615941  0.16009456  0.82785220  1
  I  I129  1  0.66663371  0.49717926  0.17002359  1
  I  I130  1  0.66689698  0.49639380  0.50013495  1
  I  I131  1  0.66661888  0.50476071  0.82985484  1
  I  I132  1  0.66364497  0.83725216  0.16161988  1
  I  I133  1  0.66948288  0.83519298  0.50156842  1
  I  I134  1  0.66369136  0.83709205  0.83425238  1
