# generated using pymatgen
data_Cs27Sn14Pb13I81
_symmetry_space_group_name_H-M   'P 1'
_cell_length_a   18.96997739
_cell_length_b   18.97984931
_cell_length_c   18.97930414
_cell_angle_alpha   89.99986626
_cell_angle_beta   90.00059050
_cell_angle_gamma   90.00146572
_symmetry_Int_Tables_number   1
_chemical_formula_structural   Cs27Sn14Pb13I81
_chemical_formula_sum   'Cs27 Sn14 Pb13 I81'
_cell_volume   6833.44744028
_cell_formula_units_Z   1
loop_
 _symmetry_equiv_pos_site_id
 _symmetry_equiv_pos_as_xyz
  1  'x, y, z'
loop_
 _atom_site_type_symbol
 _atom_site_label
 _atom_site_symmetry_multiplicity
 _atom_site_fract_x
 _atom_site_fract_y
 _atom_site_fract_z
 _atom_site_occupancy
  Cs  Cs0  1  0.00080691  -0.00328255  -0.00227212  1
  Cs  Cs1  1  -0.00236231  -0.00076194  0.33638156  1
  Cs  Cs2  1  -0.00128676  0.00204299  0.66850436  1
  Cs  Cs3  1  0.00271493  0.33301757  0.00143421  1
  Cs  Cs4  1  0.00368444  0.33895425  0.33051894  1
  Cs  Cs5  1  -0.00209519  0.33224008  0.66745320  1
  Cs  Cs6  1  -0.00018983  0.67005405  0.00299092  1
  Cs  Cs7  1  0.00254381  0.66223585  0.33040636  1
  Cs  Cs8  1  0.00037454  0.66658102  0.66657233  1
  Cs  Cs9  1  0.33259283  -0.00141105  0.00058574  1
  Cs  Cs10  1  0.33692617  0.00306150  0.33852063  1
  Cs  Cs11  1  0.33119624  -0.00080022  0.66099409  1
  Cs  Cs12  1  0.33291707  0.32963819  0.00007680  1
  Cs  Cs13  1  0.32688676  0.32728515  0.33051383  1
  Cs  Cs14  1  0.32885161  0.33377764  0.66940655  1
  Cs  Cs15  1  0.33638066  0.66859789  -0.00200254  1
  Cs  Cs16  1  0.33099864  0.66856406  0.33441209  1
  Cs  Cs17  1  0.33364802  0.66747269  0.66695944  1
  Cs  Cs18  1  0.66724342  -0.00166511  -0.00002168  1
  Cs  Cs19  1  0.66395498  0.00351804  0.33534393  1
  Cs  Cs20  1  0.66874474  0.00007523  0.66576822  1
  Cs  Cs21  1  0.66529880  0.33391302  -0.00198297  1
  Cs  Cs22  1  0.66741479  0.33176480  0.33389329  1
  Cs  Cs23  1  0.66800733  0.33633210  0.66786463  1
  Cs  Cs24  1  0.66416975  0.66861738  0.00149170  1
  Cs  Cs25  1  0.66691615  0.66568318  0.33191533  1
  Cs  Cs26  1  0.66626967  0.66290416  0.66734646  1
  Sn  Sn27  1  0.50018438  0.49976129  0.49841129  1
  Sn  Sn28  1  0.16767830  0.83359396  0.16627556  1
  Sn  Sn29  1  0.50071608  0.16524811  0.83308116  1
  Sn  Sn30  1  0.83255826  0.50021779  0.50051019  1
  Sn  Sn31  1  0.49913763  0.83283738  0.16640039  1
  Sn  Sn32  1  0.83240960  0.16753067  0.83384418  1
  Sn  Sn33  1  0.83300387  0.16732259  0.49984478  1
  Sn  Sn34  1  0.83433237  0.49969951  0.83340410  1
  Sn  Sn35  1  0.83337772  0.16675335  0.16618331  1
  Sn  Sn36  1  0.16757696  0.83240786  0.83385511  1
  Sn  Sn37  1  0.49944792  0.83463008  0.83344292  1
  Sn  Sn38  1  0.83308624  0.83254050  0.49996623  1
  Sn  Sn39  1  0.16532618  0.50105671  0.83353055  1
  Sn  Sn40  1  0.49999741  0.50016152  0.16818540  1
  Pb  Pb41  1  0.16669595  0.50004920  0.50217862  1
  Pb  Pb42  1  0.83156643  0.49826172  0.16627743  1
  Pb  Pb43  1  0.16979669  0.50209219  0.16385338  1
  Pb  Pb44  1  0.83309801  0.83295461  0.83194881  1
  Pb  Pb45  1  0.16424119  0.83320714  0.50015102  1
  Pb  Pb46  1  0.16375659  0.16684717  0.49993763  1
  Pb  Pb47  1  0.83282905  0.83520112  0.16919118  1
  Pb  Pb48  1  0.50199519  0.83149316  0.50006859  1
  Pb  Pb49  1  0.50158213  0.16632090  0.16478416  1
  Pb  Pb50  1  0.16405380  0.16335678  0.16654445  1
  Pb  Pb51  1  0.50013289  0.50012131  0.83334577  1
  Pb  Pb52  1  0.50184775  0.16974522  0.50286865  1
  Pb  Pb53  1  0.16653710  0.16605766  0.83336073  1
  I  I54  1  0.17261914  -0.00443821  0.15790256  1
  I  I55  1  0.16401480  -0.00029235  0.50282100  1
  I  I56  1  0.16639552  -0.00326737  0.83758851  1
  I  I57  1  0.16730457  0.33348007  0.16600491  1
  I  I58  1  0.16591354  0.33370817  0.50248259  1
  I  I59  1  0.16612321  0.33579322  0.83101134  1
  I  I60  1  0.16532463  0.66996154  0.16449270  1
  I  I61  1  0.16175754  0.66667081  0.49946701  1
  I  I62  1  0.16662128  0.66732805  0.83601954  1
  I  I63  1  0.49805926  -0.00308409  0.16322052  1
  I  I64  1  0.50239464  0.00018975  0.49814242  1
  I  I65  1  0.50161842  -0.00096272  0.83946746  1
  I  I66  1  0.50416360  0.33565222  0.16787406  1
  I  I67  1  0.50730685  0.33748138  0.49669706  1
  I  I68  1  0.50231128  0.33162906  0.83302294  1
  I  I69  1  0.49892468  0.66752131  0.16306847  1
  I  I70  1  0.50806099  0.66375201  0.50226845  1
  I  I71  1  0.49972779  0.66899950  0.83429078  1
  I  I72  1  0.83204536  0.00306509  0.16504511  1
  I  I73  1  0.83490030  0.00079693  0.50077872  1
  I  I74  1  0.83261670  0.00245465  0.83151790  1
  I  I75  1  0.83018197  0.33028571  0.16971247  1
  I  I76  1  0.82849950  0.33374351  0.50274843  1
  I  I77  1  0.83228552  0.33318045  0.82838521  1
  I  I78  1  0.83452836  0.66679912  0.16705294  1
  I  I79  1  0.82955878  0.66517712  0.50626291  1
  I  I80  1  0.83339477  0.66405489  0.82747701  1
  I  I81  1  0.16260964  0.16969401  -0.00024714  1
  I  I82  1  0.16556645  0.16501336  0.33302810  1
  I  I83  1  0.16550016  0.16435510  0.66714004  1
  I  I84  1  0.16071755  0.50135489  -0.00399463  1
  I  I85  1  0.16343217  0.50171240  0.33297772  1
  I  I86  1  0.16767724  0.50621909  0.67036738  1
  I  I87  1  0.16926129  0.82937878  -0.00114609  1
  I  I88  1  0.16960912  0.83429769  0.33038681  1
  I  I89  1  0.17039827  0.82982970  0.67008379  1
  I  I90  1  0.50741964  0.16848193  -0.00320907  1
  I  I91  1  0.50271743  0.16410917  0.33352481  1
  I  I92  1  0.50599736  0.16192119  0.67082058  1
  I  I93  1  0.50061284  0.50145809  0.00166298  1
  I  I94  1  0.50830574  0.50665057  0.33340524  1
  I  I95  1  0.50287552  0.49991762  0.66499996  1
  I  I96  1  0.49785025  0.83049968  -0.00045105  1
  I  I97  1  0.49753691  0.83061261  0.33056498  1
  I  I98  1  0.49721794  0.83527018  0.66969590  1
  I  I99  1  0.82918529  0.17101326  -0.00151239  1
  I  I100  1  0.83367489  0.16497039  0.33420150  1
  I  I101  1  0.82955866  0.16756047  0.66711888  1
  I  I102  1  0.83479015  0.49502352  -0.00310314  1
  I  I103  1  0.83045592  0.49903744  0.33612957  1
  I  I104  1  0.83090581  0.49598776  0.66670262  1
  I  I105  1  0.83349335  0.83406258  0.00009960  1
  I  I106  1  0.83345564  0.83306724  0.33695275  1
  I  I107  1  0.83298514  0.83707185  0.66407627  1
  I  I108  1  -0.00435786  0.16646148  0.16450724  1
  I  I109  1  -0.00552250  0.16848431  0.50482102  1
  I  I110  1  -0.00356785  0.16732814  0.83131063  1
  I  I111  1  0.00013899  0.50038935  0.16892879  1
  I  I112  1  -0.00370618  0.49880597  0.50277649  1
  I  I113  1  -0.00147214  0.49937295  0.82704680  1
  I  I114  1  0.00210286  0.83627235  0.16209508  1
  I  I115  1  -0.00404318  0.83247892  0.50095526  1
  I  I116  1  0.00214493  0.83250263  0.83613916  1
  I  I117  1  0.33352651  0.16968871  0.16354489  1
  I  I118  1  0.33391650  0.16745349  0.50169398  1
  I  I119  1  0.33614347  0.16788833  0.83515569  1
  I  I120  1  0.33774363  0.50072876  0.17085152  1
  I  I121  1  0.33636936  0.50260910  0.49908341  1
  I  I122  1  0.33156424  0.50090740  0.83334778  1
  I  I123  1  0.33433027  0.82849707  0.16102055  1
  I  I124  1  0.33353954  0.83088413  0.50081124  1
  I  I125  1  0.33381647  0.83198840  0.83713735  1
  I  I126  1  0.66973738  0.16420483  0.16827311  1
  I  I127  1  0.67047649  0.16423315  0.49865388  1
  I  I128  1  0.66812889  0.16716916  0.83311623  1
  I  I129  1  0.66377220  0.50688967  0.16443158  1
  I  I130  1  0.66826517  0.50018560  0.50376939  1
  I  I131  1  0.66914586  0.49859708  0.83132337  1
  I  I132  1  0.66363372  0.83053861  0.16176933  1
  I  I133  1  0.67005750  0.83556229  0.50097270  1
  I  I134  1  0.66407848  0.83374828  0.83684365  1
