# generated using pymatgen
data_Cs27Sn13Pb14I81
_symmetry_space_group_name_H-M   'P 1'
_cell_length_a   18.97834732
_cell_length_b   18.98613375
_cell_length_c   18.96957595
_cell_angle_alpha   90.00066153
_cell_angle_beta   89.99972303
_cell_angle_gamma   89.99986469
_symmetry_Int_Tables_number   1
_chemical_formula_structural   Cs27Sn13Pb14I81
_chemical_formula_sum   'Cs27 Sn13 Pb14 I81'
_cell_volume   6835.22080860
_cell_formula_units_Z   1
loop_
 _symmetry_equiv_pos_site_id
 _symmetry_equiv_pos_as_xyz
  1  'x, y, z'
loop_
 _atom_site_type_symbol
 _atom_site_label
 _atom_site_symmetry_multiplicity
 _atom_site_fract_x
 _atom_site_fract_y
 _atom_site_fract_z
 _atom_site_occupancy
  Cs  Cs0  1  -0.00239951  0.00040867  0.00019324  1
  Cs  Cs1  1  -0.00187916  -0.00162439  0.32858012  1
  Cs  Cs2  1  0.00141737  0.00161483  0.66820700  1
  Cs  Cs3  1  0.00104665  0.33403742  0.00060746  1
  Cs  Cs4  1  0.00182252  0.33073899  0.33266127  1
  Cs  Cs5  1  0.00012317  0.33242074  0.66792401  1
  Cs  Cs6  1  0.00308717  0.66548652  -0.00012305  1
  Cs  Cs7  1  -0.00172748  0.67143630  0.33401984  1
  Cs  Cs8  1  -0.00141437  0.66588895  0.66551455  1
  Cs  Cs9  1  0.33424956  -0.00018106  -0.00129104  1
  Cs  Cs10  1  0.33297917  0.00041059  0.33473125  1
  Cs  Cs11  1  0.33173742  0.00054100  0.66673607  1
  Cs  Cs12  1  0.33270195  0.33479578  0.00123146  1
  Cs  Cs13  1  0.33380395  0.33308979  0.33400021  1
  Cs  Cs14  1  0.33219399  0.33176597  0.66413681  1
  Cs  Cs15  1  0.33472193  0.66382014  0.00003247  1
  Cs  Cs16  1  0.33100821  0.66641704  0.33045377  1
  Cs  Cs17  1  0.33689508  0.66872234  0.66916627  1
  Cs  Cs18  1  0.66794394  0.00085055  -0.00053786  1
  Cs  Cs19  1  0.66853363  -0.00311624  0.33467453  1
  Cs  Cs20  1  0.66634892  -0.00049160  0.66771063  1
  Cs  Cs21  1  0.66690905  0.33314029  0.00181806  1
  Cs  Cs22  1  0.66409218  0.33489174  0.33195435  1
  Cs  Cs23  1  0.66891931  0.33701554  0.66390215  1
  Cs  Cs24  1  0.66218095  0.66340914  -0.00092999  1
  Cs  Cs25  1  0.67019925  0.66629237  0.33727443  1
  Cs  Cs26  1  0.66375323  0.66178449  0.66089455  1
  Sn  Sn27  1  0.16659251  0.16594321  0.83294208  1
  Sn  Sn28  1  0.49993064  0.16612719  0.16608981  1
  Sn  Sn29  1  0.83409772  0.16645920  0.50048337  1
  Sn  Sn30  1  0.50006949  0.16681165  0.83385778  1
  Sn  Sn31  1  0.16577721  0.83414082  0.83264092  1
  Sn  Sn32  1  0.50085005  0.49995727  0.16676839  1
  Sn  Sn33  1  0.83348473  0.83333973  0.83318412  1
  Sn  Sn34  1  0.83328226  0.49996368  0.16644543  1
  Sn  Sn35  1  0.16543682  0.16621798  0.50061270  1
  Sn  Sn36  1  0.50010983  0.83362317  0.16674719  1
  Sn  Sn37  1  0.16660882  0.83369278  0.50086495  1
  Sn  Sn38  1  0.16658638  0.50011750  0.50032839  1
  Sn  Sn39  1  0.83339893  0.16612356  0.83265000  1
  Pb  Pb40  1  0.83548262  0.83567079  0.50252518  1
  Pb  Pb41  1  0.50001604  0.83515723  0.83469019  1
  Pb  Pb42  1  0.16662032  0.50013650  0.83101632  1
  Pb  Pb43  1  0.16646795  0.49998105  0.16889325  1
  Pb  Pb44  1  0.83110642  0.83110299  0.16383391  1
  Pb  Pb45  1  0.49766563  0.83340675  0.49786346  1
  Pb  Pb46  1  0.49997157  0.49700114  0.83506110  1
  Pb  Pb47  1  0.16830709  0.83359838  0.16574032  1
  Pb  Pb48  1  0.50017194  0.16657011  0.50041978  1
  Pb  Pb49  1  0.83559828  0.49753994  0.49784854  1
  Pb  Pb50  1  0.83341037  0.50001647  0.83496492  1
  Pb  Pb51  1  0.49774809  0.50006853  0.49762615  1
  Pb  Pb52  1  0.83118219  0.16784597  0.16654629  1
  Pb  Pb53  1  0.16882025  0.16648087  0.16633430  1
  I  I54  1  0.16951766  0.00011680  0.17184404  1
  I  I55  1  0.16464499  0.00085910  0.50460250  1
  I  I56  1  0.16721734  0.00105794  0.82596508  1
  I  I57  1  0.16971637  0.33316555  0.16701973  1
  I  I58  1  0.16393033  0.33165630  0.50260683  1
  I  I59  1  0.16623393  0.32970092  0.83022296  1
  I  I60  1  0.17005327  0.66674646  0.16675754  1
  I  I61  1  0.16889082  0.66745824  0.50213014  1
  I  I62  1  0.16226816  0.67015945  0.83040500  1
  I  I63  1  0.49741133  0.00086244  0.16224489  1
  I  I64  1  0.49754112  0.00030576  0.49512857  1
  I  I65  1  0.49944840  0.00350771  0.83997048  1
  I  I66  1  0.50336102  0.33301133  0.16263620  1
  I  I67  1  0.49653427  0.33300002  0.49749976  1
  I  I68  1  0.49916978  0.32832787  0.83879606  1
  I  I69  1  0.50250647  0.66631079  0.16748595  1
  I  I70  1  0.49816439  0.66672077  0.49857565  1
  I  I71  1  0.49865200  0.66687688  0.83640085  1
  I  I72  1  0.83140948  -0.00003400  0.16844240  1
  I  I73  1  0.83802048  0.00376405  0.49951674  1
  I  I74  1  0.83433490  0.00158064  0.83115902  1
  I  I75  1  0.82709505  0.33554187  0.16554647  1
  I  I76  1  0.83871562  0.32955871  0.50635605  1
  I  I77  1  0.83415664  0.32953102  0.83112064  1
  I  I78  1  0.82786860  0.66350844  0.16611146  1
  I  I79  1  0.83511819  0.66676636  0.49986764  1
  I  I80  1  0.83978127  0.66978317  0.83704566  1
  I  I81  1  0.16432956  0.16187253  -0.00372806  1
  I  I82  1  0.16390555  0.16637567  0.33676200  1
  I  I83  1  0.16878717  0.16655176  0.66698150  1
  I  I84  1  0.16762845  0.49974764  0.00002654  1
  I  I85  1  0.16818387  0.49847782  0.33689048  1
  I  I86  1  0.16541447  0.49804312  0.66308577  1
  I  I87  1  0.16422588  0.83933147  -0.00381127  1
  I  I88  1  0.16978230  0.83408308  0.33628392  1
  I  I89  1  0.16405177  0.83508245  0.66712657  1
  I  I90  1  0.49960603  0.16702841  -0.00038875  1
  I  I91  1  0.49914218  0.16815916  0.33047033  1
  I  I92  1  0.49880978  0.16490160  0.66993523  1
  I  I93  1  0.50182774  0.50189388  0.00373858  1
  I  I94  1  0.50294527  0.49556864  0.32911219  1
  I  I95  1  0.49931625  0.49883502  0.66651336  1
  I  I96  1  0.49739071  0.83168030  0.00290331  1
  I  I97  1  0.49820880  0.83655030  0.32933357  1
  I  I98  1  0.50068663  0.83571930  0.66695857  1
  I  I99  1  0.83574896  0.16456933  -0.00330521  1
  I  I100  1  0.83763741  0.16931776  0.33584360  1
  I  I101  1  0.83250135  0.16388713  0.66785239  1
  I  I102  1  0.82895194  0.49720896  0.00297030  1
  I  I103  1  0.82796979  0.49813383  0.33009753  1
  I  I104  1  0.83462411  0.50065615  0.66642903  1
  I  I105  1  0.84077769  0.84179253  -0.00379732  1
  I  I106  1  0.83404971  0.83417639  0.33335433  1
  I  I107  1  0.83400904  0.83542185  0.67060057  1
  I  I108  1  -0.00021193  0.16991193  0.16505399  1
  I  I109  1  0.00120707  0.16779723  0.50756844  1
  I  I110  1  0.00027327  0.16301587  0.82804797  1
  I  I111  1  -0.00257660  0.49845618  0.16712158  1
  I  I112  1  0.00348620  0.50122658  0.49700641  1
  I  I113  1  0.00008170  0.49556254  0.83839857  1
  I  I114  1  -0.00022175  0.83068827  0.16845222  1
  I  I115  1  0.00386603  0.83108371  0.49971588  1
  I  I116  1  0.00090770  0.84170156  0.83071059  1
  I  I117  1  0.33712836  0.16988894  0.16321795  1
  I  I118  1  0.32996179  0.16673425  0.50224185  1
  I  I119  1  0.33242586  0.16309647  0.83360716  1
  I  I120  1  0.33644012  0.49950499  0.16804509  1
  I  I121  1  0.32954260  0.49560854  0.49801047  1
  I  I122  1  0.33320198  0.50017054  0.83621520  1
  I  I123  1  0.33647407  0.83101545  0.16539531  1
  I  I124  1  0.32890653  0.83722413  0.50614993  1
  I  I125  1  0.33028550  0.83793544  0.83057669  1
  I  I126  1  0.66309645  0.16573046  0.16263832  1
  I  I127  1  0.66953434  0.16739017  0.50277292  1
  I  I128  1  0.66727223  0.16255088  0.83453189  1
  I  I129  1  0.66546751  0.49840324  0.16574587  1
  I  I130  1  0.66699761  0.49786726  0.50035652  1
  I  I131  1  0.66669639  0.50038670  0.83209733  1
  I  I132  1  0.66316467  0.83693239  0.16426928  1
  I  I133  1  0.66708748  0.83509159  0.50005568  1
  I  I134  1  0.66918827  0.83945369  0.83777813  1
