# generated using pymatgen
data_Cs27Sn13Pb14I81
_symmetry_space_group_name_H-M   'P 1'
_cell_length_a   18.97943338
_cell_length_b   18.97464368
_cell_length_c   18.97533555
_cell_angle_alpha   90.00063751
_cell_angle_beta   89.99861147
_cell_angle_gamma   90.00078811
_symmetry_Int_Tables_number   1
_chemical_formula_structural   Cs27Sn13Pb14I81
_chemical_formula_sum   'Cs27 Sn13 Pb14 I81'
_cell_volume   6833.54936270
_cell_formula_units_Z   1
loop_
 _symmetry_equiv_pos_site_id
 _symmetry_equiv_pos_as_xyz
  1  'x, y, z'
loop_
 _atom_site_type_symbol
 _atom_site_label
 _atom_site_symmetry_multiplicity
 _atom_site_fract_x
 _atom_site_fract_y
 _atom_site_fract_z
 _atom_site_occupancy
  Cs  Cs0  1  -0.00013956  0.00300347  -0.00009847  1
  Cs  Cs1  1  -0.00009838  0.00024433  0.33554367  1
  Cs  Cs2  1  -0.00004129  -0.00081863  0.66624177  1
  Cs  Cs3  1  -0.00373137  0.32857081  0.00043279  1
  Cs  Cs4  1  -0.00039562  0.33445622  0.33413084  1
  Cs  Cs5  1  -0.00203587  0.33285228  0.66631248  1
  Cs  Cs6  1  0.00338060  0.66787330  0.00085135  1
  Cs  Cs7  1  0.00030656  0.66531114  0.33512324  1
  Cs  Cs8  1  0.00142286  0.66899266  0.66430861  1
  Cs  Cs9  1  0.33198153  -0.00015482  -0.00229868  1
  Cs  Cs10  1  0.33492972  0.00298720  0.33359736  1
  Cs  Cs11  1  0.33318170  -0.00098703  0.66730482  1
  Cs  Cs12  1  0.33212241  0.33297140  0.00026082  1
  Cs  Cs13  1  0.34063377  0.32934415  0.33537980  1
  Cs  Cs14  1  0.33514091  0.33247494  0.66522270  1
  Cs  Cs15  1  0.33205197  0.66698029  -0.00139429  1
  Cs  Cs16  1  0.33134620  0.66604862  0.33289659  1
  Cs  Cs17  1  0.33179934  0.66823490  0.66817259  1
  Cs  Cs18  1  0.66984260  0.00033028  0.00436046  1
  Cs  Cs19  1  0.66386484  0.00034081  0.33079303  1
  Cs  Cs20  1  0.66698499  -0.00050159  0.66566115  1
  Cs  Cs21  1  0.67638177  0.34190978  0.00226628  1
  Cs  Cs22  1  0.65579273  0.33995179  0.32927235  1
  Cs  Cs23  1  0.66601620  0.34014402  0.66821594  1
  Cs  Cs24  1  0.66551317  0.66098572  0.00781033  1
  Cs  Cs25  1  0.66855973  0.66303183  0.32275273  1
  Cs  Cs26  1  0.66667306  0.66559835  0.66787492  1
  Sn  Sn27  1  0.50012753  0.16592283  0.83348135  1
  Sn  Sn28  1  0.16652990  0.49952862  0.83385121  1
  Sn  Sn29  1  0.83290555  0.83344640  0.83295971  1
  Sn  Sn30  1  0.50035427  0.83320508  0.50058055  1
  Sn  Sn31  1  0.83277116  0.83399089  0.50077726  1
  Sn  Sn32  1  0.16677785  0.50024291  0.16606495  1
  Sn  Sn33  1  0.16686385  0.83424983  0.49975534  1
  Sn  Sn34  1  0.16652461  0.83362985  0.83337272  1
  Sn  Sn35  1  0.50063299  0.83427156  0.83270639  1
  Sn  Sn36  1  0.83324963  0.16614750  0.50003788  1
  Sn  Sn37  1  0.16666674  0.83309599  0.16683800  1
  Sn  Sn38  1  0.16732158  0.16668992  0.83219408  1
  Sn  Sn39  1  0.16587808  0.16574079  0.50107499  1
  Pb  Pb40  1  0.49997969  0.16638096  0.16240121  1
  Pb  Pb41  1  0.83336424  0.16642381  0.17069329  1
  Pb  Pb42  1  0.49644674  0.50010715  0.16621714  1
  Pb  Pb43  1  0.83608076  0.83366492  0.16701307  1
  Pb  Pb44  1  0.49724873  0.83363863  0.16610593  1
  Pb  Pb45  1  0.49986871  0.50383780  0.50039298  1
  Pb  Pb46  1  0.50041638  0.16472263  0.50216458  1
  Pb  Pb47  1  0.16669177  0.16676647  0.16695114  1
  Pb  Pb48  1  0.83680430  0.50003312  0.16681835  1
  Pb  Pb49  1  0.83643206  0.50336182  0.83302990  1
  Pb  Pb50  1  0.16679018  0.49941521  0.50006882  1
  Pb  Pb51  1  0.49776584  0.50028042  0.83326181  1
  Pb  Pb52  1  0.83297141  0.16466013  0.83154975  1
  Pb  Pb53  1  0.83335105  0.50021543  0.50005311  1
  I  I54  1  0.16662753  -0.00301718  0.16428385  1
  I  I55  1  0.16604859  -0.00154305  0.50264285  1
  I  I56  1  0.16742243  -0.00129476  0.83304136  1
  I  I57  1  0.16604518  0.33607684  0.16216641  1
  I  I58  1  0.16167658  0.32974705  0.50321280  1
  I  I59  1  0.17183677  0.33233751  0.83335064  1
  I  I60  1  0.16672643  0.66813974  0.16306466  1
  I  I61  1  0.16605316  0.67029794  0.50245274  1
  I  I62  1  0.16666865  0.66867406  0.83355516  1
  I  I63  1  0.49658382  -0.00035612  0.16909518  1
  I  I64  1  0.49801017  -0.00367412  0.50254495  1
  I  I65  1  0.49262703  -0.00158914  0.82909314  1
  I  I66  1  0.49640731  0.33326417  0.16820304  1
  I  I67  1  0.49883575  0.33290983  0.50076591  1
  I  I68  1  0.49311816  0.33018063  0.83231113  1
  I  I69  1  0.50080727  0.66712339  0.16583053  1
  I  I70  1  0.49699731  0.67247167  0.50788070  1
  I  I71  1  0.49790530  0.67059185  0.82897687  1
  I  I72  1  0.83694689  -0.00036954  0.16361660  1
  I  I73  1  0.83676560  -0.00173689  0.50449495  1
  I  I74  1  0.83912704  -0.00372089  0.83101305  1
  I  I75  1  0.83687720  0.33327917  0.16589524  1
  I  I76  1  0.84220750  0.32982254  0.50082373  1
  I  I77  1  0.83346978  0.33319210  0.83188714  1
  I  I78  1  0.83257374  0.66711798  0.16852587  1
  I  I79  1  0.83631977  0.67110262  0.50421484  1
  I  I80  1  0.83369946  0.67188405  0.82609325  1
  I  I81  1  0.17059092  0.16362830  -0.00342911  1
  I  I82  1  0.16244597  0.16277181  0.33679491  1
  I  I83  1  0.16673236  0.16317167  0.66724201  1
  I  I84  1  0.16758992  0.50581768  -0.00115644  1
  I  I85  1  0.16559162  0.50586046  0.33081418  1
  I  I86  1  0.16700529  0.50379502  0.66972289  1
  I  I87  1  0.16694128  0.83252806  -0.00181402  1
  I  I88  1  0.16636921  0.83249398  0.33461622  1
  I  I89  1  0.16664046  0.83304400  0.66720153  1
  I  I90  1  0.48979676  0.15756285  -0.00570229  1
  I  I91  1  0.49855744  0.16565411  0.33372608  1
  I  I92  1  0.49563415  0.16324641  0.67004964  1
  I  I93  1  0.50017822  0.50267857  -0.00045458  1
  I  I94  1  0.49760993  0.50047147  0.33331489  1
  I  I95  1  0.49674299  0.49842293  0.66703831  1
  I  I96  1  0.49850355  0.83658413  -0.00388454  1
  I  I97  1  0.49925945  0.83335007  0.33645606  1
  I  I98  1  0.49475356  0.83645590  0.66743421  1
  I  I99  1  0.83437468  0.16501196  -0.00033345  1
  I  I100  1  0.84346790  0.15724052  0.33898069  1
  I  I101  1  0.83735069  0.16256966  0.66355338  1
  I  I102  1  0.83205194  0.50148670  -0.00033157  1
  I  I103  1  0.83698166  0.50283676  0.33346109  1
  I  I104  1  0.83646516  0.49925716  0.66677366  1
  I  I105  1  0.83443914  0.83317398  -0.00316546  1
  I  I106  1  0.83424630  0.83678743  0.33710954  1
  I  I107  1  0.83866198  0.83624066  0.66637718  1
  I  I108  1  0.00053450  0.16633027  0.16147195  1
  I  I109  1  0.00177134  0.15828420  0.50554998  1
  I  I110  1  0.00329757  0.16580058  0.83226046  1
  I  I111  1  0.00470152  0.50584589  0.16281542  1
  I  I112  1  0.00045570  0.50471274  0.49992718  1
  I  I113  1  0.00485458  0.49969389  0.83663624  1
  I  I114  1  0.00448715  0.82956332  0.16587570  1
  I  I115  1  0.00123102  0.83622494  0.50273212  1
  I  I116  1  0.00166619  0.83251553  0.83106160  1
  I  I117  1  0.33285487  0.16672971  0.17205168  1
  I  I118  1  0.33040035  0.16300058  0.50136924  1
  I  I119  1  0.33111809  0.16193769  0.82836069  1
  I  I120  1  0.32859874  0.50602919  0.16198439  1
  I  I121  1  0.33282477  0.49993701  0.49947776  1
  I  I122  1  0.32913350  0.50536113  0.83644591  1
  I  I123  1  0.32884882  0.82960281  0.16627968  1
  I  I124  1  0.33192331  0.83603227  0.50267038  1
  I  I125  1  0.33172815  0.83316377  0.83120431  1
  I  I126  1  0.66662253  0.16541654  0.16702314  1
  I  I127  1  0.66926291  0.15986647  0.50154318  1
  I  I128  1  0.66399954  0.15945007  0.83131150  1
  I  I129  1  0.66661817  0.49974928  0.16727180  1
  I  I130  1  0.66661378  0.49812671  0.50055527  1
  I  I131  1  0.66682748  0.49932516  0.83293599  1
  I  I132  1  0.66667660  0.83295411  0.16671022  1
  I  I133  1  0.66708646  0.83799814  0.50953602  1
  I  I134  1  0.66619526  0.83944743  0.82409590  1
