# generated using pymatgen
data_Cs27Sn14Pb13I81
_symmetry_space_group_name_H-M   'P 1'
_cell_length_a   18.95781905
_cell_length_b   18.96234039
_cell_length_c   18.96060275
_cell_angle_alpha   90.00088589
_cell_angle_beta   90.00008540
_cell_angle_gamma   90.00205665
_symmetry_Int_Tables_number   1
_chemical_formula_structural   Cs27Sn14Pb13I81
_chemical_formula_sum   'Cs27 Sn14 Pb13 I81'
_cell_volume   6816.04502912
_cell_formula_units_Z   1
loop_
 _symmetry_equiv_pos_site_id
 _symmetry_equiv_pos_as_xyz
  1  'x, y, z'
loop_
 _atom_site_type_symbol
 _atom_site_label
 _atom_site_symmetry_multiplicity
 _atom_site_fract_x
 _atom_site_fract_y
 _atom_site_fract_z
 _atom_site_occupancy
  Cs  Cs0  1  0.00020978  0.00211600  -0.00164342  1
  Cs  Cs1  1  0.00041168  -0.00328553  0.33708348  1
  Cs  Cs2  1  0.00164239  -0.00085779  0.66662118  1
  Cs  Cs3  1  0.00242465  0.33240512  0.00163776  1
  Cs  Cs4  1  -0.00139938  0.33486790  0.32943502  1
  Cs  Cs5  1  0.00026985  0.33239996  0.66750741  1
  Cs  Cs6  1  0.00066495  0.66412746  -0.00043921  1
  Cs  Cs7  1  -0.00874015  0.66908990  0.33401303  1
  Cs  Cs8  1  0.00191639  0.66961028  0.66704671  1
  Cs  Cs9  1  0.33338009  0.00094281  0.00287125  1
  Cs  Cs10  1  0.33292501  0.00099500  0.32834031  1
  Cs  Cs11  1  0.33164352  -0.00119712  0.66679230  1
  Cs  Cs12  1  0.32986618  0.33272679  0.00386678  1
  Cs  Cs13  1  0.33254392  0.33169292  0.33210192  1
  Cs  Cs14  1  0.33447340  0.33500698  0.66639210  1
  Cs  Cs15  1  0.33342496  0.66584045  -0.00071405  1
  Cs  Cs16  1  0.33564838  0.66754304  0.33850541  1
  Cs  Cs17  1  0.33340404  0.66556295  0.66616994  1
  Cs  Cs18  1  0.66629122  -0.00104190  0.00010948  1
  Cs  Cs19  1  0.66789857  0.00131375  0.33046261  1
  Cs  Cs20  1  0.66644291  0.00507114  0.66835732  1
  Cs  Cs21  1  0.66719968  0.33211511  -0.00316603  1
  Cs  Cs22  1  0.66904137  0.33468283  0.34042754  1
  Cs  Cs23  1  0.66583337  0.33195420  0.66552470  1
  Cs  Cs24  1  0.66601148  0.66825053  0.00036257  1
  Cs  Cs25  1  0.66984270  0.66632750  0.32916249  1
  Cs  Cs26  1  0.66284946  0.66432568  0.66915236  1
  Sn  Sn27  1  0.16661187  0.83267011  0.16592173  1
  Sn  Sn28  1  0.50019192  0.83309467  0.50065769  1
  Sn  Sn29  1  0.49917761  0.50090230  0.49984129  1
  Sn  Sn30  1  0.16674513  0.49934846  0.49996526  1
  Sn  Sn31  1  0.83287760  0.49991917  0.83312795  1
  Sn  Sn32  1  0.50045509  0.50046750  0.83367155  1
  Sn  Sn33  1  0.83427782  0.16673457  0.83416640  1
  Sn  Sn34  1  0.16623888  0.16609464  0.83261520  1
  Sn  Sn35  1  0.49982504  0.49975019  0.16657553  1
  Sn  Sn36  1  0.49982450  0.83283905  0.83253353  1
  Sn  Sn37  1  0.83323601  0.83332752  0.83320489  1
  Sn  Sn38  1  0.16687962  0.16775865  0.50078441  1
  Sn  Sn39  1  0.83313103  0.16668849  0.16599992  1
  Sn  Sn40  1  0.16697284  0.83408277  0.83444770  1
  Pb  Pb41  1  0.49950574  0.16660172  0.83348382  1
  Pb  Pb42  1  0.16831686  0.83316119  0.50036312  1
  Pb  Pb43  1  0.83114606  0.49808752  0.16392339  1
  Pb  Pb44  1  0.49854964  0.83169210  0.16631234  1
  Pb  Pb45  1  0.82957510  0.83335796  0.50272853  1
  Pb  Pb46  1  0.83599692  0.16659225  0.50051304  1
  Pb  Pb47  1  0.49754771  0.16647705  0.50003171  1
  Pb  Pb48  1  0.16827708  0.50263514  0.16990063  1
  Pb  Pb49  1  0.83306754  0.50020509  0.50251293  1
  Pb  Pb50  1  0.50281292  0.16941907  0.16672970  1
  Pb  Pb51  1  0.83551197  0.83513713  0.16415743  1
  Pb  Pb52  1  0.16487370  0.16501640  0.16658838  1
  Pb  Pb53  1  0.16697823  0.50001222  0.83207041  1
  I  I54  1  0.16779470  -0.00285925  0.16636648  1
  I  I55  1  0.16720992  0.00198634  0.50197700  1
  I  I56  1  0.16387558  -0.00033099  0.83084361  1
  I  I57  1  0.16703080  0.33345237  0.16481854  1
  I  I58  1  0.17223613  0.33341215  0.50612995  1
  I  I59  1  0.16363804  0.33094076  0.83065865  1
  I  I60  1  0.16723632  0.67019550  0.15887084  1
  I  I61  1  0.17081445  0.66435138  0.50141508  1
  I  I62  1  0.16477449  0.66942268  0.83464996  1
  I  I63  1  0.49943818  -0.00020732  0.16700785  1
  I  I64  1  0.49867817  -0.00310360  0.50666676  1
  I  I65  1  0.50180172  -0.00337486  0.82855636  1
  I  I66  1  0.49837814  0.33763267  0.16548907  1
  I  I67  1  0.49853356  0.33686236  0.50164201  1
  I  I68  1  0.50337390  0.33668296  0.83146785  1
  I  I69  1  0.49944450  0.66365194  0.16596268  1
  I  I70  1  0.49309874  0.66549072  0.50279745  1
  I  I71  1  0.50239587  0.66664250  0.83237259  1
  I  I72  1  0.83336284  0.00299582  0.16031326  1
  I  I73  1  0.83378134  -0.00001601  0.50201093  1
  I  I74  1  0.83390644  -0.00000728  0.83653522  1
  I  I75  1  0.83464337  0.33030584  0.15970377  1
  I  I76  1  0.82909261  0.33340292  0.50340503  1
  I  I77  1  0.83293380  0.33302347  0.83628494  1
  I  I78  1  0.83372187  0.66664337  0.16592846  1
  I  I79  1  0.83993127  0.66671028  0.50071001  1
  I  I80  1  0.83258778  0.66704736  0.83170919  1
  I  I81  1  0.16451457  0.16436488  -0.00310657  1
  I  I82  1  0.16648353  0.16861626  0.33585713  1
  I  I83  1  0.16164082  0.16426080  0.66814623  1
  I  I84  1  0.16799912  0.49789863  -0.00006684  1
  I  I85  1  0.17298061  0.49491932  0.33773761  1
  I  I86  1  0.17208160  0.50055151  0.66421506  1
  I  I87  1  0.16898285  0.83881475  -0.00279288  1
  I  I88  1  0.17014362  0.83405657  0.33172880  1
  I  I89  1  0.16511637  0.83461972  0.66986977  1
  I  I90  1  0.49557035  0.16718332  -0.00024862  1
  I  I91  1  0.49969279  0.16549819  0.33344848  1
  I  I92  1  0.50394768  0.17033385  0.66694317  1
  I  I93  1  0.50487900  0.50409178  -0.00159242  1
  I  I94  1  0.49437277  0.50330521  0.33464375  1
  I  I95  1  0.49985369  0.50419265  0.66713054  1
  I  I96  1  0.50147350  0.82925158  -0.00360360  1
  I  I97  1  0.49551979  0.82893097  0.33583647  1
  I  I98  1  0.49774285  0.82544354  0.66838359  1
  I  I99  1  0.83892769  0.16703349  -0.00275679  1
  I  I100  1  0.83375173  0.16743345  0.33092497  1
  I  I101  1  0.83487596  0.16627099  0.67054754  1
  I  I102  1  0.82880870  0.50240995  -0.00451378  1
  I  I103  1  0.83258693  0.49711636  0.33320328  1
  I  I104  1  0.82790058  0.49748299  0.67103056  1
  I  I105  1  0.82807696  0.83152166  -0.00454934  1
  I  I106  1  0.83466921  0.83568305  0.33312804  1
  I  I107  1  0.83981263  0.83593912  0.67152043  1
  I  I108  1  -0.00278908  0.16706106  0.16292099  1
  I  I109  1  0.00411267  0.17127340  0.50273470  1
  I  I110  1  -0.00000580  0.16402349  0.83286709  1
  I  I111  1  -0.00013825  0.49991813  0.16673233  1
  I  I112  1  0.00276025  0.49576461  0.50269569  1
  I  I113  1  -0.00226836  0.50187600  0.83103598  1
  I  I114  1  0.00348646  0.83350475  0.16268315  1
  I  I115  1  0.00016655  0.83322002  0.50026051  1
  I  I116  1  0.00034273  0.83389011  0.83760076  1
  I  I117  1  0.33305308  0.16633797  0.16615617  1
  I  I118  1  0.32950754  0.16798708  0.50675280  1
  I  I119  1  0.33005598  0.16366277  0.82913061  1
  I  I120  1  0.33644578  0.50000786  0.16024183  1
  I  I121  1  0.33454522  0.50007388  0.50356441  1
  I  I122  1  0.33633644  0.50328711  0.83328499  1
  I  I123  1  0.33064883  0.83449524  0.16060920  1
  I  I124  1  0.33618569  0.83096725  0.50651049  1
  I  I125  1  0.33341609  0.83277541  0.83265594  1
  I  I126  1  0.67057518  0.16513929  0.15836406  1
  I  I127  1  0.66674043  0.16731974  0.50050921  1
  I  I128  1  0.66959767  0.16472850  0.83709801  1
  I  I129  1  0.66299132  0.50114175  0.17129397  1
  I  I130  1  0.66301572  0.50387874  0.49895501  1
  I  I131  1  0.66575169  0.50232640  0.83172537  1
  I  I132  1  0.66673412  0.83365091  0.16673051  1
  I  I133  1  0.66157456  0.82623809  0.50404898  1
  I  I134  1  0.66631218  0.83261287  0.82866971  1
