# generated using pymatgen
data_Cs27Sn14Pb13I81
_symmetry_space_group_name_H-M   'P 1'
_cell_length_a   18.96097634
_cell_length_b   18.95885226
_cell_length_c   18.96194544
_cell_angle_alpha   90.00015254
_cell_angle_beta   90.00046492
_cell_angle_gamma   90.00090119
_symmetry_Int_Tables_number   1
_chemical_formula_structural   Cs27Sn14Pb13I81
_chemical_formula_sum   'Cs27 Sn14 Pb13 I81'
_cell_volume   6816.40884261
_cell_formula_units_Z   1
loop_
 _symmetry_equiv_pos_site_id
 _symmetry_equiv_pos_as_xyz
  1  'x, y, z'
loop_
 _atom_site_type_symbol
 _atom_site_label
 _atom_site_symmetry_multiplicity
 _atom_site_fract_x
 _atom_site_fract_y
 _atom_site_fract_z
 _atom_site_occupancy
  Cs  Cs0  1  0.00163470  0.00449780  -0.00028373  1
  Cs  Cs1  1  -0.00440186  0.00193625  0.33257742  1
  Cs  Cs2  1  -0.00054992  0.00019572  0.66760778  1
  Cs  Cs3  1  -0.00253281  0.32786707  0.00725337  1
  Cs  Cs4  1  0.00001228  0.33349869  0.32940052  1
  Cs  Cs5  1  -0.00130948  0.33046894  0.66615727  1
  Cs  Cs6  1  0.00048465  0.66603741  0.00275183  1
  Cs  Cs7  1  0.00108848  0.66514248  0.33264912  1
  Cs  Cs8  1  0.00196518  0.66857779  0.66543307  1
  Cs  Cs9  1  0.33298449  0.00104167  -0.00163037  1
  Cs  Cs10  1  0.33604641  -0.00281769  0.33606609  1
  Cs  Cs11  1  0.33252279  -0.00094457  0.66673775  1
  Cs  Cs12  1  0.33297980  0.33144420  0.00279251  1
  Cs  Cs13  1  0.33396610  0.33412335  0.33322475  1
  Cs  Cs14  1  0.33450939  0.33456448  0.66552081  1
  Cs  Cs15  1  0.33186650  0.66693020  -0.00264851  1
  Cs  Cs16  1  0.33295617  0.66760459  0.33517581  1
  Cs  Cs17  1  0.33133340  0.66704512  0.66606248  1
  Cs  Cs18  1  0.66558124  -0.00330103  0.00345024  1
  Cs  Cs19  1  0.66619483  -0.00047862  0.32940811  1
  Cs  Cs20  1  0.66767483  0.00083569  0.66643134  1
  Cs  Cs21  1  0.66771841  0.33815311  -0.00347643  1
  Cs  Cs22  1  0.66327972  0.33101604  0.33685648  1
  Cs  Cs23  1  0.66731344  0.33474187  0.66624350  1
  Cs  Cs24  1  0.67038405  0.66630602  -0.00066857  1
  Cs  Cs25  1  0.66630606  0.66921056  0.33158035  1
  Cs  Cs26  1  0.66789828  0.66468651  0.66817726  1
  Sn  Sn27  1  0.16648258  0.49906627  0.50088793  1
  Sn  Sn28  1  0.49983720  0.16599152  0.83309794  1
  Sn  Sn29  1  0.16630702  0.49982669  0.83312191  1
  Sn  Sn30  1  0.16741779  0.16751791  0.50022398  1
  Sn  Sn31  1  0.83362200  0.83326564  0.83252816  1
  Sn  Sn32  1  0.16635343  0.83265498  0.83425101  1
  Sn  Sn33  1  0.49966832  0.16755223  0.16670973  1
  Sn  Sn34  1  0.49997640  0.49967177  0.49930468  1
  Sn  Sn35  1  0.50009432  0.83380779  0.83289284  1
  Sn  Sn36  1  0.49899843  0.16718642  0.50020398  1
  Sn  Sn37  1  0.83312726  0.83251932  0.50061259  1
  Sn  Sn38  1  0.83342279  0.50095523  0.50013762  1
  Sn  Sn39  1  0.16691647  0.83333200  0.16594264  1
  Sn  Sn40  1  0.49979328  0.49974699  0.16727873  1
  Pb  Pb41  1  0.16856320  0.50127700  0.16686859  1
  Pb  Pb42  1  0.16475302  0.83349490  0.50039737  1
  Pb  Pb43  1  0.49836169  0.49997102  0.83307176  1
  Pb  Pb44  1  0.83684636  0.50174219  0.83147342  1
  Pb  Pb45  1  0.83012111  0.16687428  0.16655161  1
  Pb  Pb46  1  0.83036252  0.49999630  0.16942543  1
  Pb  Pb47  1  0.83604522  0.83324297  0.16636254  1
  Pb  Pb48  1  0.16839626  0.16691475  0.83156823  1
  Pb  Pb49  1  0.49823644  0.83286803  0.16421021  1
  Pb  Pb50  1  0.50220593  0.83316604  0.50206808  1
  Pb  Pb51  1  0.16897045  0.16431177  0.16963027  1
  Pb  Pb52  1  0.83303311  0.16690362  0.50002860  1
  Pb  Pb53  1  0.83049037  0.16427957  0.83342455  1
  I  I54  1  0.16876987  -0.00336374  0.16113168  1
  I  I55  1  0.17117654  0.00222426  0.49991924  1
  I  I56  1  0.16595306  -0.00298047  0.83474646  1
  I  I57  1  0.16645830  0.33316446  0.16428126  1
  I  I58  1  0.16669016  0.33470702  0.50546145  1
  I  I59  1  0.17090625  0.33597341  0.82892059  1
  I  I60  1  0.16990906  0.66925508  0.16681013  1
  I  I61  1  0.16957018  0.66393849  0.50101878  1
  I  I62  1  0.17005814  0.66771702  0.83039161  1
  I  I63  1  0.49841287  0.00257501  0.16963620  1
  I  I64  1  0.49662761  0.00278899  0.49831693  1
  I  I65  1  0.49810068  -0.00015635  0.83265537  1
  I  I66  1  0.49858047  0.33299819  0.16654481  1
  I  I67  1  0.50109785  0.33357456  0.50124767  1
  I  I68  1  0.49705923  0.33089174  0.83284797  1
  I  I69  1  0.49822980  0.66407910  0.17157593  1
  I  I70  1  0.49706135  0.66358978  0.49720027  1
  I  I71  1  0.50049543  0.66917712  0.83292692  1
  I  I72  1  0.83087995  -0.00034305  0.17037575  1
  I  I73  1  0.83415214  -0.00268694  0.50411376  1
  I  I74  1  0.83832558  -0.00451434  0.82581956  1
  I  I75  1  0.83761999  0.33359918  0.16803931  1
  I  I76  1  0.83245185  0.33651031  0.49956187  1
  I  I77  1  0.83209890  0.33353268  0.83124400  1
  I  I78  1  0.82952430  0.66673983  0.16613135  1
  I  I79  1  0.83324189  0.66611632  0.50417440  1
  I  I80  1  0.82733383  0.67030977  0.83075615  1
  I  I81  1  0.16890392  0.16775621  0.00006747  1
  I  I82  1  0.17167981  0.17086512  0.33761190  1
  I  I83  1  0.17310188  0.16587232  0.66342860  1
  I  I84  1  0.17073326  0.50485350  -0.00251094  1
  I  I85  1  0.16576812  0.49871998  0.33679560  1
  I  I86  1  0.17005678  0.50346603  0.66536964  1
  I  I87  1  0.16634676  0.82782443  -0.00217332  1
  I  I88  1  0.16623554  0.83329336  0.33187731  1
  I  I89  1  0.16849376  0.83217437  0.66940942  1
  I  I90  1  0.50029052  0.16566610  -0.00015713  1
  I  I91  1  0.49660346  0.17161042  0.33434015  1
  I  I92  1  0.49656371  0.16644363  0.66573226  1
  I  I93  1  0.49679150  0.49732121  0.00186848  1
  I  I94  1  0.49857247  0.49319914  0.33502863  1
  I  I95  1  0.50099457  0.49743404  0.66362301  1
  I  I96  1  0.50331392  0.83657817  -0.00398966  1
  I  I97  1  0.49976001  0.83554742  0.33344820  1
  I  I98  1  0.49479958  0.83643446  0.67020581  1
  I  I99  1  0.83353483  0.16432259  -0.00017786  1
  I  I100  1  0.83197405  0.16283241  0.33385092  1
  I  I101  1  0.83025348  0.16713020  0.66646756  1
  I  I102  1  0.83193529  0.50218414  -0.00014688  1
  I  I103  1  0.83842667  0.50645429  0.33818552  1
  I  I104  1  0.82744208  0.50181950  0.66292278  1
  I  I105  1  0.83034184  0.83405487  -0.00346534  1
  I  I106  1  0.83473429  0.83012605  0.33623016  1
  I  I107  1  0.83496738  0.82976016  0.66706832  1
  I  I108  1  0.00053996  0.16470467  0.16851309  1
  I  I109  1  0.00275848  0.16854205  0.50130003  1
  I  I110  1  0.00025520  0.16532031  0.82997603  1
  I  I111  1  0.00024558  0.50282175  0.16751385  1
  I  I112  1  0.00093889  0.50107072  0.50566750  1
  I  I113  1  0.00481920  0.50630566  0.82731405  1
  I  I114  1  0.00382000  0.83193979  0.16257956  1
  I  I115  1  -0.00292433  0.82992076  0.50487070  1
  I  I116  1  0.00072628  0.82767531  0.83206401  1
  I  I117  1  0.33718568  0.16991458  0.16485208  1
  I  I118  1  0.33462436  0.17319305  0.50039027  1
  I  I119  1  0.33681210  0.16070597  0.83373995  1
  I  I120  1  0.33664113  0.49721898  0.17226049  1
  I  I121  1  0.33349320  0.49564568  0.50012955  1
  I  I122  1  0.33063563  0.50658392  0.82715035  1
  I  I123  1  0.33059001  0.83320582  0.16228719  1
  I  I124  1  0.33332270  0.83174654  0.50095151  1
  I  I125  1  0.33291281  0.83354848  0.83722472  1
  I  I126  1  0.66137613  0.16764866  0.17104404  1
  I  I127  1  0.66296296  0.16929904  0.49999808  1
  I  I128  1  0.66170254  0.16304162  0.82992466  1
  I  I129  1  0.66199271  0.49718748  0.17011095  1
  I  I130  1  0.66559087  0.49973016  0.49602088  1
  I  I131  1  0.66662701  0.50111797  0.83272323  1
  I  I132  1  0.66637217  0.83411150  0.16602443  1
  I  I133  1  0.66991772  0.82990982  0.50516978  1
  I  I134  1  0.66634616  0.83820730  0.82831438  1
