# generated using pymatgen
data_Cs27Sn14Pb13I81
_symmetry_space_group_name_H-M   'P 1'
_cell_length_a   18.98259594
_cell_length_b   18.96700368
_cell_length_c   18.97766217
_cell_angle_alpha   90.00244435
_cell_angle_beta   89.99883038
_cell_angle_gamma   89.99888027
_symmetry_Int_Tables_number   1
_chemical_formula_structural   Cs27Sn14Pb13I81
_chemical_formula_sum   'Cs27 Sn14 Pb13 I81'
_cell_volume   6832.77378958
_cell_formula_units_Z   1
loop_
 _symmetry_equiv_pos_site_id
 _symmetry_equiv_pos_as_xyz
  1  'x, y, z'
loop_
 _atom_site_type_symbol
 _atom_site_label
 _atom_site_symmetry_multiplicity
 _atom_site_fract_x
 _atom_site_fract_y
 _atom_site_fract_z
 _atom_site_occupancy
  Cs  Cs0  1  -0.00336425  -0.00394800  -0.00412778  1
  Cs  Cs1  1  0.00446945  0.00041179  0.33710953  1
  Cs  Cs2  1  0.00127836  0.00029797  0.66866516  1
  Cs  Cs3  1  0.00199191  0.33308952  0.00199886  1
  Cs  Cs4  1  -0.00036768  0.33532949  0.33051347  1
  Cs  Cs5  1  -0.00121601  0.33208391  0.66712372  1
  Cs  Cs6  1  0.00138525  0.67279534  0.00226761  1
  Cs  Cs7  1  0.00017022  0.66478327  0.33218435  1
  Cs  Cs8  1  -0.00001157  0.66742662  0.66577246  1
  Cs  Cs9  1  0.33598618  0.00209828  0.00079767  1
  Cs  Cs10  1  0.33687601  0.00218728  0.33481962  1
  Cs  Cs11  1  0.33052750  -0.00140548  0.66547596  1
  Cs  Cs12  1  0.33057853  0.33314393  -0.00278992  1
  Cs  Cs13  1  0.33347760  0.33105078  0.33175151  1
  Cs  Cs14  1  0.33297401  0.33405934  0.67041995  1
  Cs  Cs15  1  0.33113668  0.66737657  0.00149327  1
  Cs  Cs16  1  0.33070583  0.66688374  0.33245931  1
  Cs  Cs17  1  0.33710145  0.66664586  0.66692870  1
  Cs  Cs18  1  0.66801283  -0.00336711  0.00222616  1
  Cs  Cs19  1  0.66056692  -0.00017749  0.33033599  1
  Cs  Cs20  1  0.66924262  0.00109915  0.66743536  1
  Cs  Cs21  1  0.66710789  0.33479815  -0.00055460  1
  Cs  Cs22  1  0.66737727  0.33271630  0.33273184  1
  Cs  Cs23  1  0.66861834  0.33464199  0.66686922  1
  Cs  Cs24  1  0.66690950  0.66703213  0.00060576  1
  Cs  Cs25  1  0.66777328  0.66582583  0.33665509  1
  Cs  Cs26  1  0.66312122  0.66427739  0.66338867  1
  Sn  Sn27  1  0.83248402  0.49953785  0.16644311  1
  Sn  Sn28  1  0.49980944  0.16544551  0.83306433  1
  Sn  Sn29  1  0.16713574  0.16731556  0.83421596  1
  Sn  Sn30  1  0.50007189  0.83457865  0.83262496  1
  Sn  Sn31  1  0.83253275  0.83288716  0.49992294  1
  Sn  Sn32  1  0.83345017  0.50033645  0.50006026  1
  Sn  Sn33  1  0.16675253  0.49965723  0.50095669  1
  Sn  Sn34  1  0.16535734  0.49970496  0.83262308  1
  Sn  Sn35  1  0.50061352  0.49988100  0.16764026  1
  Sn  Sn36  1  0.49976213  0.50019433  0.49881198  1
  Sn  Sn37  1  0.83426873  0.16705047  0.16676656  1
  Sn  Sn38  1  0.16561807  0.16672863  0.16572970  1
  Sn  Sn39  1  0.50101115  0.83259126  0.50098393  1
  Sn  Sn40  1  0.83466621  0.50010549  0.83358252  1
  Pb  Pb41  1  0.83337033  0.83317735  0.16957665  1
  Pb  Pb42  1  0.49985160  0.50010971  0.83330926  1
  Pb  Pb43  1  0.16643978  0.49898185  0.16636433  1
  Pb  Pb44  1  0.16892773  0.83326087  0.83326795  1
  Pb  Pb45  1  0.50005106  0.83044427  0.16719614  1
  Pb  Pb46  1  0.83320560  0.16662810  0.49737365  1
  Pb  Pb47  1  0.16660194  0.16925329  0.50051107  1
  Pb  Pb48  1  0.83364335  0.16846986  0.83532708  1
  Pb  Pb49  1  0.50010573  0.16686116  0.50265574  1
  Pb  Pb50  1  0.83087412  0.83027139  0.83086303  1
  Pb  Pb51  1  0.16697625  0.83061974  0.50011050  1
  Pb  Pb52  1  0.16661386  0.83759679  0.16661733  1
  Pb  Pb53  1  0.50018821  0.16907268  0.16432172  1
  I  I54  1  0.16063949  0.00578109  0.15998308  1
  I  I55  1  0.16666677  0.00000937  0.49891745  1
  I  I56  1  0.16931564  0.00329820  0.83843710  1
  I  I57  1  0.16571315  0.33115955  0.16510881  1
  I  I58  1  0.16621970  0.33777148  0.50143424  1
  I  I59  1  0.17031843  0.33381581  0.83304785  1
  I  I60  1  0.16706794  0.66629163  0.16631897  1
  I  I61  1  0.16686483  0.66202044  0.50578430  1
  I  I62  1  0.16457870  0.66319965  0.82871420  1
  I  I63  1  0.49932433  0.00020805  0.16893833  1
  I  I64  1  0.50512552  -0.00320632  0.50177526  1
  I  I65  1  0.49399015  0.00023635  0.82836646  1
  I  I66  1  0.50203553  0.33703500  0.17162892  1
  I  I67  1  0.50142894  0.33707331  0.49764118  1
  I  I68  1  0.49815102  0.33177404  0.83425086  1
  I  I69  1  0.50627896  0.66225732  0.16508666  1
  I  I70  1  0.50097249  0.66526607  0.50311890  1
  I  I71  1  0.50083581  0.66835621  0.83141827  1
  I  I72  1  0.83800833  0.00297114  0.16692045  1
  I  I73  1  0.82721730  -0.00308960  0.49829578  1
  I  I74  1  0.83514570  -0.00016894  0.83322759  1
  I  I75  1  0.83318516  0.33519796  0.16913711  1
  I  I76  1  0.83221086  0.33723585  0.50168464  1
  I  I77  1  0.83099466  0.33699300  0.82789369  1
  I  I78  1  0.82865803  0.66293807  0.16514952  1
  I  I79  1  0.83211906  0.66429916  0.49868329  1
  I  I80  1  0.83795825  0.66186203  0.83868490  1
  I  I81  1  0.16783107  0.17501618  -0.00104514  1
  I  I82  1  0.16216175  0.16871763  0.33057810  1
  I  I83  1  0.17149035  0.16924038  0.67009201  1
  I  I84  1  0.16554559  0.49713260  -0.00279234  1
  I  I85  1  0.16509834  0.49922985  0.33575993  1
  I  I86  1  0.16454008  0.49435393  0.66709445  1
  I  I87  1  0.16888637  0.82566944  -0.00032714  1
  I  I88  1  0.16888430  0.83237047  0.33366092  1
  I  I89  1  0.16468597  0.83834191  0.66659710  1
  I  I90  1  0.49825984  0.16383614  -0.00349225  1
  I  I91  1  0.49901101  0.16453605  0.33311763  1
  I  I92  1  0.49358896  0.16913718  0.67056684  1
  I  I93  1  0.50341310  0.49895510  0.00180196  1
  I  I94  1  0.50258116  0.50459681  0.33460578  1
  I  I95  1  0.50211083  0.50076005  0.66417314  1
  I  I96  1  0.49838184  0.83537553  -0.00268600  1
  I  I97  1  0.50437797  0.83063048  0.33687583  1
  I  I98  1  0.50303129  0.82933570  0.66569792  1
  I  I99  1  0.83377062  0.17432321  0.00314790  1
  I  I100  1  0.83880050  0.17383289  0.32948198  1
  I  I101  1  0.83359718  0.16821766  0.66680871  1
  I  I102  1  0.83146402  0.49395341  0.00038872  1
  I  I103  1  0.83271714  0.49997674  0.33378237  1
  I  I104  1  0.83271152  0.50375571  0.66606913  1
  I  I105  1  0.83220535  0.83196210  -0.00008789  1
  I  I106  1  0.82572546  0.82624439  0.33729241  1
  I  I107  1  0.83155077  0.82716739  0.66305750  1
  I  I108  1  -0.00013796  0.17517236  0.16193600  1
  I  I109  1  -0.00006557  0.16562113  0.50396490  1
  I  I110  1  0.00278708  0.17077697  0.83526178  1
  I  I111  1  -0.00281195  0.49733774  0.16977646  1
  I  I112  1  -0.00089236  0.50314658  0.49995130  1
  I  I113  1  0.00029289  0.49347620  0.82956679  1
  I  I114  1  -0.00029944  0.82708223  0.16884310  1
  I  I115  1  -0.00291124  0.82850384  0.49782629  1
  I  I116  1  -0.00029918  0.83579283  0.83184198  1
  I  I117  1  0.33109551  0.16930828  0.16418856  1
  I  I118  1  0.33335206  0.16728808  0.49466404  1
  I  I119  1  0.33250397  0.17038491  0.83874360  1
  I  I120  1  0.33547041  0.49897032  0.16939634  1
  I  I121  1  0.33402553  0.50317844  0.50056126  1
  I  I122  1  0.33116394  0.49875551  0.83051015  1
  I  I123  1  0.33367177  0.83078302  0.16898655  1
  I  I124  1  0.33685087  0.82865650  0.50389814  1
  I  I125  1  0.33688734  0.83105703  0.82618878  1
  I  I126  1  0.66910243  0.17018931  0.16632011  1
  I  I127  1  0.66660087  0.17201825  0.50058163  1
  I  I128  1  0.66439463  0.16568343  0.83392984  1
  I  I129  1  0.66782012  0.49434067  0.16876300  1
  I  I130  1  0.66680566  0.50392797  0.49981119  1
  I  I131  1  0.66873868  0.49967824  0.83155664  1
  I  I132  1  0.66664026  0.83868763  0.16366814  1
  I  I133  1  0.66590283  0.82307963  0.50406364  1
  I  I134  1  0.66305113  0.83792984  0.83185473  1
