# generated using pymatgen
data_Cs27Sn13Pb14I81
_symmetry_space_group_name_H-M   'P 1'
_cell_length_a   19.00164736
_cell_length_b   18.98098045
_cell_length_c   18.99185859
_cell_angle_alpha   89.99975686
_cell_angle_beta   90.00068378
_cell_angle_gamma   90.00135881
_symmetry_Int_Tables_number   1
_chemical_formula_structural   Cs27Sn13Pb14I81
_chemical_formula_sum   'Cs27 Sn13 Pb14 I81'
_cell_volume   6849.79168031
_cell_formula_units_Z   1
loop_
 _symmetry_equiv_pos_site_id
 _symmetry_equiv_pos_as_xyz
  1  'x, y, z'
loop_
 _atom_site_type_symbol
 _atom_site_label
 _atom_site_symmetry_multiplicity
 _atom_site_fract_x
 _atom_site_fract_y
 _atom_site_fract_z
 _atom_site_occupancy
  Cs  Cs0  1  0.00885914  0.00721451  -0.00746407  1
  Cs  Cs1  1  0.00106281  0.00120894  0.33223897  1
  Cs  Cs2  1  -0.00163669  0.00082783  0.67257137  1
  Cs  Cs3  1  -0.00057794  0.32854538  0.00565629  1
  Cs  Cs4  1  -0.00143158  0.33055504  0.32936421  1
  Cs  Cs5  1  0.00117828  0.33512305  0.66575628  1
  Cs  Cs6  1  -0.00152790  0.66684101  -0.00140077  1
  Cs  Cs7  1  -0.00371270  0.66665084  0.33694475  1
  Cs  Cs8  1  -0.00097631  0.66609787  0.66409429  1
  Cs  Cs9  1  0.32567772  -0.00604669  -0.00289052  1
  Cs  Cs10  1  0.33191413  -0.00163663  0.33091498  1
  Cs  Cs11  1  0.33417107  0.00531975  0.67080608  1
  Cs  Cs12  1  0.33313545  0.33406335  0.00158565  1
  Cs  Cs13  1  0.33445938  0.33444415  0.33333397  1
  Cs  Cs14  1  0.33449885  0.33526993  0.66639528  1
  Cs  Cs15  1  0.33467397  0.66970546  0.00198337  1
  Cs  Cs16  1  0.33331545  0.66733044  0.33453596  1
  Cs  Cs17  1  0.33221471  0.66312556  0.66318430  1
  Cs  Cs18  1  0.66457861  -0.00461090  -0.01295107  1
  Cs  Cs19  1  0.66694558  -0.00154480  0.33646775  1
  Cs  Cs20  1  0.66697510  0.00923478  0.67077457  1
  Cs  Cs21  1  0.66815774  0.33570422  0.00527645  1
  Cs  Cs22  1  0.66697179  0.33001309  0.33072056  1
  Cs  Cs23  1  0.66465775  0.32918050  0.66578076  1
  Cs  Cs24  1  0.66583533  0.66612195  0.00007615  1
  Cs  Cs25  1  0.66796168  0.66766736  0.33331726  1
  Cs  Cs26  1  0.66850926  0.66643848  0.66562958  1
  Sn  Sn27  1  0.83202396  0.50016112  0.50052099  1
  Sn  Sn28  1  0.50020696  0.16594967  0.16644866  1
  Sn  Sn29  1  0.83322037  0.50013487  0.83242195  1
  Sn  Sn30  1  0.50016328  0.50019973  0.83328854  1
  Sn  Sn31  1  0.16677265  0.16552827  0.49973727  1
  Sn  Sn32  1  0.49912397  0.49955436  0.16702850  1
  Sn  Sn33  1  0.50037914  0.83305992  0.50014877  1
  Sn  Sn34  1  0.50143204  0.50055603  0.49971267  1
  Sn  Sn35  1  0.16653629  0.50026878  0.83493233  1
  Sn  Sn36  1  0.16657013  0.83481084  0.49998485  1
  Sn  Sn37  1  0.16720453  0.50061829  0.16614359  1
  Sn  Sn38  1  0.83354231  0.83408503  0.16665471  1
  Sn  Sn39  1  0.83294951  0.83289957  0.49923778  1
  Pb  Pb40  1  0.16692084  0.16983028  0.83093439  1
  Pb  Pb41  1  0.83045011  0.16235957  0.16666831  1
  Pb  Pb42  1  0.83347630  0.83135920  0.83276066  1
  Pb  Pb43  1  0.16426889  0.83095367  0.16866916  1
  Pb  Pb44  1  0.83303323  0.50120977  0.16697872  1
  Pb  Pb45  1  0.83324223  0.17026548  0.83353123  1
  Pb  Pb46  1  0.16675754  0.83050382  0.83043332  1
  Pb  Pb47  1  0.83552500  0.16652566  0.49976572  1
  Pb  Pb48  1  0.49965684  0.16946707  0.83677413  1
  Pb  Pb49  1  0.16883678  0.16869962  0.16854151  1
  Pb  Pb50  1  0.50174345  0.83323975  0.16839698  1
  Pb  Pb51  1  0.16641029  0.50030314  0.49955622  1
  Pb  Pb52  1  0.49984960  0.83076235  0.83004679  1
  Pb  Pb53  1  0.49820706  0.16675269  0.49833469  1
  I  I54  1  0.16799427  -0.00018328  0.16723763  1
  I  I55  1  0.16711608  -0.00134519  0.49742026  1
  I  I56  1  0.16625060  0.00004704  0.83449498  1
  I  I57  1  0.16672947  0.33720490  0.16637537  1
  I  I58  1  0.16764287  0.33213084  0.50068544  1
  I  I59  1  0.16698013  0.33821968  0.83311673  1
  I  I60  1  0.17455654  0.66279603  0.16549560  1
  I  I61  1  0.16654537  0.66865853  0.50042663  1
  I  I62  1  0.16709316  0.66208057  0.83394701  1
  I  I63  1  0.50293642  0.00210966  0.17314976  1
  I  I64  1  0.50236879  -0.00299224  0.49601680  1
  I  I65  1  0.50077254  0.00003658  0.83317706  1
  I  I66  1  0.49661674  0.33638802  0.16920136  1
  I  I67  1  0.50169543  0.33707634  0.50218189  1
  I  I68  1  0.49953794  0.33840055  0.82554579  1
  I  I69  1  0.49737186  0.66307542  0.16524755  1
  I  I70  1  0.49797699  0.66511519  0.49816779  1
  I  I71  1  0.50025423  0.66185304  0.83886574  1
  I  I72  1  0.83185274  -0.00492079  0.17904744  1
  I  I73  1  0.83043927  -0.00369118  0.49474183  1
  I  I74  1  0.83292400  -0.00019219  0.83254512  1
  I  I75  1  0.83560549  0.33344953  0.16663767  1
  I  I76  1  0.83044463  0.33682155  0.50457911  1
  I  I77  1  0.83300548  0.33904836  0.82651777  1
  I  I78  1  0.83144918  0.66867229  0.17034155  1
  I  I79  1  0.83520143  0.66607791  0.50002374  1
  I  I80  1  0.83290972  0.66265049  0.83086605  1
  I  I81  1  0.16678832  0.16653687  -0.00000432  1
  I  I82  1  0.16716972  0.16663687  0.33633006  1
  I  I83  1  0.16784683  0.16446881  0.66308936  1
  I  I84  1  0.16971949  0.49963436  -0.00008402  1
  I  I85  1  0.17067579  0.50024864  0.33136301  1
  I  I86  1  0.16881815  0.50023720  0.66838670  1
  I  I87  1  0.16496016  0.83375441  0.00001077  1
  I  I88  1  0.16894420  0.83215341  0.33707447  1
  I  I89  1  0.16352810  0.83340948  0.66189042  1
  I  I90  1  0.50085560  0.17423754  0.00432318  1
  I  I91  1  0.49864242  0.17577251  0.33099047  1
  I  I92  1  0.49905342  0.16698050  0.66674211  1
  I  I93  1  0.49983099  0.49442890  0.00029709  1
  I  I94  1  0.49871861  0.50022665  0.33376302  1
  I  I95  1  0.49926050  0.50557363  0.66590763  1
  I  I96  1  0.50321368  0.83242348  0.00000189  1
  I  I97  1  0.49826485  0.82584226  0.33681842  1
  I  I98  1  0.50241049  0.82707107  0.66151766  1
  I  I99  1  0.83399260  0.16780051  0.00026243  1
  I  I100  1  0.83416241  0.17393448  0.33331428  1
  I  I101  1  0.83269983  0.16318446  0.66642000  1
  I  I102  1  0.83096324  0.50242572  -0.00217661  1
  I  I103  1  0.83142312  0.50300706  0.33626250  1
  I  I104  1  0.83205360  0.50600480  0.66547230  1
  I  I105  1  0.83062680  0.82894540  0.00239590  1
  I  I106  1  0.83306838  0.82505987  0.33571366  1
  I  I107  1  0.83435435  0.82898742  0.66278364  1
  I  I108  1  0.00011294  0.16933479  0.16827168  1
  I  I109  1  0.00331005  0.16594094  0.49898611  1
  I  I110  1  0.00027492  0.16904578  0.83317455  1
  I  I111  1  0.00201210  0.50259324  0.16500095  1
  I  I112  1  -0.00225577  0.50321259  0.50306189  1
  I  I113  1  -0.00014364  0.50145955  0.83089896  1
  I  I114  1  -0.00323766  0.82800261  0.17505266  1
  I  I115  1  -0.00064861  0.83020709  0.49596430  1
  I  I116  1  0.00005795  0.82834503  0.83074126  1
  I  I117  1  0.33644927  0.17087412  0.16953655  1
  I  I118  1  0.33056093  0.16492641  0.49887225  1
  I  I119  1  0.33332203  0.17033867  0.83108640  1
  I  I120  1  0.33449660  0.49698993  0.16533756  1
  I  I121  1  0.33577644  0.50258197  0.50173439  1
  I  I122  1  0.33381757  0.49976967  0.83166878  1
  I  I123  1  0.33338919  0.83359881  0.16932148  1
  I  I124  1  0.33372368  0.82975989  0.50002464  1
  I  I125  1  0.33333141  0.82977506  0.83261125  1
  I  I126  1  0.66314565  0.17921197  0.17035766  1
  I  I127  1  0.66651658  0.16542283  0.49934274  1
  I  I128  1  0.66625580  0.16758286  0.83137307  1
  I  I129  1  0.66376584  0.49798326  0.16501572  1
  I  I130  1  0.66606304  0.50740982  0.50242447  1
  I  I131  1  0.66630466  0.50098387  0.83253066  1
  I  I132  1  0.66935892  0.82897629  0.17484279  1
  I  I133  1  0.66686599  0.82505574  0.49461005  1
  I  I134  1  0.66666312  0.83014028  0.83288267  1
