# generated using pymatgen
data_Cs27Sn13Pb14I81
_symmetry_space_group_name_H-M   'P 1'
_cell_length_a   18.97292573
_cell_length_b   18.97926802
_cell_length_c   18.97980827
_cell_angle_alpha   90.00002326
_cell_angle_beta   90.00001516
_cell_angle_gamma   90.00020050
_symmetry_Int_Tables_number   1
_chemical_formula_structural   Cs27Sn13Pb14I81
_chemical_formula_sum   'Cs27 Sn13 Pb14 I81'
_cell_volume   6834.48172180
_cell_formula_units_Z   1
loop_
 _symmetry_equiv_pos_site_id
 _symmetry_equiv_pos_as_xyz
  1  'x, y, z'
loop_
 _atom_site_type_symbol
 _atom_site_label
 _atom_site_symmetry_multiplicity
 _atom_site_fract_x
 _atom_site_fract_y
 _atom_site_fract_z
 _atom_site_occupancy
  Cs  Cs0  1  -0.00541133  0.00108589  -0.00008767  1
  Cs  Cs1  1  -0.00433365  0.00328002  0.33091039  1
  Cs  Cs2  1  -0.00102292  0.00046456  0.66849810  1
  Cs  Cs3  1  0.00053410  0.33158713  0.00741055  1
  Cs  Cs4  1  0.00055511  0.33236771  0.32729990  1
  Cs  Cs5  1  0.00196715  0.33761708  0.66575839  1
  Cs  Cs6  1  -0.00163010  0.66749434  -0.00179161  1
  Cs  Cs7  1  -0.00132108  0.66512616  0.33328860  1
  Cs  Cs8  1  0.00207717  0.66421535  0.66703841  1
  Cs  Cs9  1  0.33274112  -0.00305799  0.00209547  1
  Cs  Cs10  1  0.33471742  -0.00163176  0.33127145  1
  Cs  Cs11  1  0.33300422  -0.00003656  0.66609478  1
  Cs  Cs12  1  0.33679133  0.33370673  0.00215386  1
  Cs  Cs13  1  0.33151418  0.33360280  0.33073243  1
  Cs  Cs14  1  0.33331588  0.33341876  0.66745937  1
  Cs  Cs15  1  0.33495605  0.66922179  -0.00060075  1
  Cs  Cs16  1  0.33375680  0.66826662  0.33371262  1
  Cs  Cs17  1  0.33126103  0.66681475  0.66705757  1
  Cs  Cs18  1  0.67160017  0.00083703  -0.00176103  1
  Cs  Cs19  1  0.66853607  0.00088101  0.34068345  1
  Cs  Cs20  1  0.67251094  0.00755462  0.66118799  1
  Cs  Cs21  1  0.66172126  0.33326812  -0.00149860  1
  Cs  Cs22  1  0.66968086  0.33360108  0.33270094  1
  Cs  Cs23  1  0.66513788  0.32894417  0.66864828  1
  Cs  Cs24  1  0.66520145  0.66599450  0.00316708  1
  Cs  Cs25  1  0.66907857  0.66736575  0.33348842  1
  Cs  Cs26  1  0.66947068  0.66639212  0.66393309  1
  Sn  Sn27  1  0.16682430  0.83307358  0.16650015  1
  Sn  Sn28  1  0.16618702  0.49963099  0.83309203  1
  Sn  Sn29  1  0.49990636  0.83364119  0.83312639  1
  Sn  Sn30  1  0.16705048  0.16678578  0.83306011  1
  Sn  Sn31  1  0.49942998  0.83468877  0.16603311  1
  Sn  Sn32  1  0.49964864  0.50002756  0.50020830  1
  Sn  Sn33  1  0.16676799  0.49979475  0.50046975  1
  Sn  Sn34  1  0.83403925  0.50013344  0.83286717  1
  Sn  Sn35  1  0.49979426  0.16538486  0.16671469  1
  Sn  Sn36  1  0.16733142  0.83358159  0.83344298  1
  Sn  Sn37  1  0.83376865  0.49995588  0.50115641  1
  Sn  Sn38  1  0.16704107  0.16670355  0.50053169  1
  Sn  Sn39  1  0.16685545  0.83370339  0.49988436  1
  Pb  Pb40  1  0.49765225  0.16371652  0.83480637  1
  Pb  Pb41  1  0.83657983  0.83131459  0.50027305  1
  Pb  Pb42  1  0.49984272  0.50085327  0.16910747  1
  Pb  Pb43  1  0.83263062  0.83332291  0.16662370  1
  Pb  Pb44  1  0.49847424  0.83202926  0.50036217  1
  Pb  Pb45  1  0.49965345  0.50208272  0.83137206  1
  Pb  Pb46  1  0.83619151  0.16989891  0.83327101  1
  Pb  Pb47  1  0.83319919  0.83133264  0.83314484  1
  Pb  Pb48  1  0.49752684  0.16898576  0.49818946  1
  Pb  Pb49  1  0.16681196  0.50265492  0.16610915  1
  Pb  Pb50  1  0.82961193  0.16652266  0.16658038  1
  Pb  Pb51  1  0.16791673  0.16400009  0.16640001  1
  Pb  Pb52  1  0.83649388  0.16966908  0.50022984  1
  Pb  Pb53  1  0.83341391  0.50010001  0.16609990  1
  I  I54  1  0.16971165  -0.00395588  0.16726579  1
  I  I55  1  0.16898880  -0.00053413  0.50314558  1
  I  I56  1  0.17220193  -0.00086815  0.82998270  1
  I  I57  1  0.16828525  0.33304400  0.16719137  1
  I  I58  1  0.16710322  0.33445307  0.50680518  1
  I  I59  1  0.16239595  0.33409023  0.82510595  1
  I  I60  1  0.17346987  0.67074436  0.16726490  1
  I  I61  1  0.16682872  0.66607897  0.50218604  1
  I  I62  1  0.16651083  0.66675685  0.83063155  1
  I  I63  1  0.49276348  -0.00155333  0.16352333  1
  I  I64  1  0.49736194  0.00002705  0.50059304  1
  I  I65  1  0.49211529  -0.00426316  0.83445905  1
  I  I66  1  0.49947291  0.33110508  0.16872185  1
  I  I67  1  0.49707508  0.33707742  0.49907445  1
  I  I68  1  0.49929327  0.33336782  0.83515079  1
  I  I69  1  0.49549818  0.67027353  0.16369739  1
  I  I70  1  0.49665041  0.66383546  0.49833800  1
  I  I71  1  0.49265410  0.66979444  0.83983684  1
  I  I72  1  0.83786397  -0.00013983  0.16602496  1
  I  I73  1  0.83369915  0.00034219  0.49849919  1
  I  I74  1  0.83447109  0.00017895  0.83506119  1
  I  I75  1  0.83321971  0.33341451  0.16759673  1
  I  I76  1  0.83481592  0.33787039  0.50411457  1
  I  I77  1  0.83750568  0.33800071  0.82784362  1
  I  I78  1  0.83156430  0.66663797  0.16765135  1
  I  I79  1  0.83557594  0.66279851  0.50339863  1
  I  I80  1  0.84035414  0.66327687  0.82875616  1
  I  I81  1  0.16806460  0.16807109  -0.00292842  1
  I  I82  1  0.16814125  0.16846690  0.33604813  1
  I  I83  1  0.16748932  0.16362505  0.66661219  1
  I  I84  1  0.16199266  0.49954748  -0.00375069  1
  I  I85  1  0.16578006  0.49980100  0.33684179  1
  I  I86  1  0.16621763  0.50394844  0.66607869  1
  I  I87  1  0.17118831  0.83220459  -0.00089954  1
  I  I88  1  0.17115415  0.83170093  0.33377026  1
  I  I89  1  0.17043171  0.83175103  0.66710293  1
  I  I90  1  0.49619128  0.16707032  0.00278603  1
  I  I91  1  0.49644931  0.16001170  0.33044493  1
  I  I92  1  0.50046209  0.16642721  0.66662779  1
  I  I93  1  0.50014007  0.49869191  -0.00017958  1
  I  I94  1  0.49815570  0.50203054  0.33720821  1
  I  I95  1  0.49772541  0.50235503  0.66349603  1
  I  I96  1  0.49022294  0.83468438  0.00006720  1
  I  I97  1  0.49421059  0.83439984  0.33072302  1
  I  I98  1  0.49327510  0.82880050  0.66934069  1
  I  I99  1  0.83735702  0.16961280  -0.00020374  1
  I  I100  1  0.83701871  0.16985006  0.33358815  1
  I  I101  1  0.82926711  0.16392176  0.66668808  1
  I  I102  1  0.83982889  0.50113634  -0.00366509  1
  I  I103  1  0.83490360  0.50062881  0.33687107  1
  I  I104  1  0.83657721  0.50173181  0.66608626  1
  I  I105  1  0.83834976  0.82935245  -0.00018829  1
  I  I106  1  0.83392287  0.82931004  0.33351186  1
  I  I107  1  0.83190838  0.83372168  0.66669362  1
  I  I108  1  0.00027053  0.16633205  0.16724161  1
  I  I109  1  0.00498709  0.16688854  0.50282447  1
  I  I110  1  0.00492801  0.16047619  0.83009734  1
  I  I111  1  0.00039303  0.50142486  0.17093079  1
  I  I112  1  0.00167312  0.50123744  0.50471855  1
  I  I113  1  0.00215535  0.50294905  0.82476206  1
  I  I114  1  0.00348102  0.83155105  0.16624196  1
  I  I115  1  0.00556009  0.83110394  0.50084481  1
  I  I116  1  0.00408836  0.83429316  0.83346029  1
  I  I117  1  0.33555077  0.16469794  0.16730630  1
  I  I118  1  0.32916058  0.16945092  0.50351742  1
  I  I119  1  0.32917369  0.17233309  0.82925842  1
  I  I120  1  0.33321739  0.49840567  0.16797123  1
  I  I121  1  0.33128707  0.50075640  0.50303142  1
  I  I122  1  0.32981469  0.49942722  0.82864042  1
  I  I123  1  0.33266282  0.83589336  0.16593302  1
  I  I124  1  0.32948948  0.82937911  0.50019994  1
  I  I125  1  0.33106929  0.83022442  0.83440210  1
  I  I126  1  0.66179669  0.16031751  0.16697913  1
  I  I127  1  0.66662751  0.16821150  0.49760258  1
  I  I128  1  0.66646488  0.16706567  0.83575207  1
  I  I129  1  0.66651829  0.50187053  0.16725335  1
  I  I130  1  0.66699089  0.50175241  0.50288807  1
  I  I131  1  0.66892995  0.50302794  0.82876322  1
  I  I132  1  0.66262704  0.83539234  0.16094695  1
  I  I133  1  0.66665073  0.82967312  0.49850948  1
  I  I134  1  0.66350081  0.82918650  0.84072316  1
