# generated using pymatgen
data_Cs27Sn14Pb13I81
_symmetry_space_group_name_H-M   'P 1'
_cell_length_a   18.97824734
_cell_length_b   18.98285331
_cell_length_c   18.96656140
_cell_angle_alpha   90.00074427
_cell_angle_beta   90.00081650
_cell_angle_gamma   90.00017653
_symmetry_Int_Tables_number   1
_chemical_formula_structural   Cs27Sn14Pb13I81
_chemical_formula_sum   'Cs27 Sn14 Pb13 I81'
_cell_volume   6832.91778537
_cell_formula_units_Z   1
loop_
 _symmetry_equiv_pos_site_id
 _symmetry_equiv_pos_as_xyz
  1  'x, y, z'
loop_
 _atom_site_type_symbol
 _atom_site_label
 _atom_site_symmetry_multiplicity
 _atom_site_fract_x
 _atom_site_fract_y
 _atom_site_fract_z
 _atom_site_occupancy
  Cs  Cs0  1  -0.00424710  0.00701349  -0.00210352  1
  Cs  Cs1  1  0.00153981  0.00006708  0.33578021  1
  Cs  Cs2  1  -0.00069111  -0.00079897  0.66226216  1
  Cs  Cs3  1  0.00009152  0.32416959  0.00061880  1
  Cs  Cs4  1  -0.00150853  0.33109673  0.33223769  1
  Cs  Cs5  1  0.00119440  0.33724900  0.66760327  1
  Cs  Cs6  1  -0.00219741  0.66808215  0.00324620  1
  Cs  Cs7  1  0.00064932  0.66745718  0.33274666  1
  Cs  Cs8  1  0.00147925  0.66496955  0.66594306  1
  Cs  Cs9  1  0.33293992  0.00077433  0.00035126  1
  Cs  Cs10  1  0.33402465  -0.00112962  0.33273149  1
  Cs  Cs11  1  0.33372307  -0.00121915  0.66547442  1
  Cs  Cs12  1  0.33083099  0.33189483  -0.00449002  1
  Cs  Cs13  1  0.33575697  0.33420874  0.33309868  1
  Cs  Cs14  1  0.33210192  0.34314962  0.67430982  1
  Cs  Cs15  1  0.33378134  0.66694024  0.00300091  1
  Cs  Cs16  1  0.33355138  0.66722902  0.33236644  1
  Cs  Cs17  1  0.33227117  0.66058522  0.66956560  1
  Cs  Cs18  1  0.67195392  -0.00110757  -0.01098911  1
  Cs  Cs19  1  0.66174393  0.00011685  0.33582321  1
  Cs  Cs20  1  0.66662553  0.00004561  0.66794980  1
  Cs  Cs21  1  0.66917213  0.33109086  -0.00051765  1
  Cs  Cs22  1  0.66512453  0.33334060  0.33332636  1
  Cs  Cs23  1  0.66586587  0.33513547  0.66715246  1
  Cs  Cs24  1  0.67018213  0.66938502  0.00034095  1
  Cs  Cs25  1  0.66554673  0.66621601  0.33186176  1
  Cs  Cs26  1  0.66649493  0.66502369  0.66901972  1
  Sn  Sn27  1  0.49960922  0.83395914  0.16719192  1
  Sn  Sn28  1  0.16775637  0.16661280  0.49993206  1
  Sn  Sn29  1  0.83290120  0.83297638  0.49956621  1
  Sn  Sn30  1  0.50014601  0.16589114  0.16704167  1
  Sn  Sn31  1  0.16731708  0.83364196  0.50003442  1
  Sn  Sn32  1  0.16667119  0.83355175  0.83361453  1
  Sn  Sn33  1  0.16701569  0.83307093  0.16645510  1
  Sn  Sn34  1  0.83326108  0.50016094  0.50032444  1
  Sn  Sn35  1  0.49912683  0.16642290  0.49995761  1
  Sn  Sn36  1  0.83303672  0.16681108  0.49968850  1
  Sn  Sn37  1  0.83365910  0.50023529  0.83311786  1
  Sn  Sn38  1  0.49918957  0.50005999  0.16686545  1
  Sn  Sn39  1  0.16710845  0.50017719  0.16707794  1
  Sn  Sn40  1  0.49962784  0.83350572  0.49967813  1
  Pb  Pb41  1  0.83363218  0.49995874  0.16676928  1
  Pb  Pb42  1  0.83011753  0.16616409  0.16914507  1
  Pb  Pb43  1  0.49977807  0.16653190  0.83248875  1
  Pb  Pb44  1  0.83593483  0.83168102  0.83038176  1
  Pb  Pb45  1  0.83341524  0.16893994  0.82996197  1
  Pb  Pb46  1  0.16873147  0.16601455  0.16879806  1
  Pb  Pb47  1  0.83325569  0.83374296  0.16871215  1
  Pb  Pb48  1  0.16476980  0.50018330  0.49797212  1
  Pb  Pb49  1  0.16441804  0.50225925  0.83686612  1
  Pb  Pb50  1  0.16684682  0.16399645  0.82993070  1
  Pb  Pb51  1  0.50195610  0.50022663  0.49847622  1
  Pb  Pb52  1  0.50224758  0.50029451  0.83714485  1
  Pb  Pb53  1  0.49777391  0.83322488  0.83311683  1
  I  I54  1  0.17058697  -0.00350545  0.16660689  1
  I  I55  1  0.16207932  -0.00145958  0.49820103  1
  I  I56  1  0.16639320  -0.00400232  0.83869764  1
  I  I57  1  0.16974966  0.33537330  0.16949188  1
  I  I58  1  0.16565761  0.33082371  0.49657605  1
  I  I59  1  0.16567766  0.33352202  0.83328033  1
  I  I60  1  0.17378858  0.66822484  0.16936072  1
  I  I61  1  0.16626186  0.67011042  0.50088412  1
  I  I62  1  0.16631711  0.66992296  0.82607833  1
  I  I63  1  0.49482334  -0.00104110  0.17386369  1
  I  I64  1  0.50403109  -0.00059846  0.49229724  1
  I  I65  1  0.50098309  -0.00021757  0.83752487  1
  I  I66  1  0.49776397  0.33311125  0.17235904  1
  I  I67  1  0.50145882  0.33061128  0.49477097  1
  I  I68  1  0.49986305  0.33349831  0.83211591  1
  I  I69  1  0.49601733  0.66764987  0.17130704  1
  I  I70  1  0.49985679  0.66986628  0.49568497  1
  I  I71  1  0.50065380  0.66675263  0.83134043  1
  I  I72  1  0.83593394  -0.00006512  0.16731681  1
  I  I73  1  0.83416992  -0.00031509  0.49763955  1
  I  I74  1  0.83369756  -0.00008186  0.83382635  1
  I  I75  1  0.83374926  0.33332244  0.16957543  1
  I  I76  1  0.83305270  0.33295678  0.50319769  1
  I  I77  1  0.83373346  0.33670146  0.82821399  1
  I  I78  1  0.82918804  0.66671258  0.17010549  1
  I  I79  1  0.83400631  0.66734174  0.50312171  1
  I  I80  1  0.83325170  0.66404866  0.82675937  1
  I  I81  1  0.16790072  0.16666660  0.00021011  1
  I  I82  1  0.16351987  0.16107419  0.33709901  1
  I  I83  1  0.16795590  0.16140974  0.66136270  1
  I  I84  1  0.16932484  0.50578678  0.00458434  1
  I  I85  1  0.16830906  0.50643400  0.33030988  1
  I  I86  1  0.16674685  0.50026541  0.66659615  1
  I  I87  1  0.17269449  0.82644115  0.00147591  1
  I  I88  1  0.16692791  0.83295931  0.33404485  1
  I  I89  1  0.16520041  0.83869250  0.66471733  1
  I  I90  1  0.49878739  0.16656378  0.00342281  1
  I  I91  1  0.50088339  0.16566285  0.33442691  1
  I  I92  1  0.50196201  0.16002262  0.66199051  1
  I  I93  1  0.49780362  0.50104071  0.00535766  1
  I  I94  1  0.49920947  0.50061291  0.33029645  1
  I  I95  1  0.49965167  0.49952642  0.66667350  1
  I  I96  1  0.49523841  0.83302418  0.00369968  1
  I  I97  1  0.49632636  0.83367791  0.33390626  1
  I  I98  1  0.50059218  0.83931740  0.66274310  1
  I  I99  1  0.83230175  0.16942626  -0.00018731  1
  I  I100  1  0.83616360  0.16989776  0.33788416  1
  I  I101  1  0.83036277  0.16250466  0.66145623  1
  I  I102  1  0.83242438  0.50212431  -0.00220893  1
  I  I103  1  0.83313888  0.49995928  0.33637734  1
  I  I104  1  0.83387533  0.50003749  0.66461223  1
  I  I105  1  0.83263308  0.82960917  -0.00024991  1
  I  I106  1  0.83784576  0.83020203  0.33763566  1
  I  I107  1  0.83244645  0.83634798  0.66170676  1
  I  I108  1  0.00023114  0.16844477  0.16813392  1
  I  I109  1  0.00006643  0.16280958  0.50090872  1
  I  I110  1  0.00008760  0.16685040  0.83365822  1
  I  I111  1  0.00277436  0.50714543  0.16820864  1
  I  I112  1  -0.00332100  0.50055011  0.50058848  1
  I  I113  1  -0.00297656  0.50174317  0.82783304  1
  I  I114  1  0.00354942  0.82617524  0.16869357  1
  I  I115  1  0.00067486  0.83576417  0.49997974  1
  I  I116  1  0.00368740  0.83179511  0.83402251  1
  I  I117  1  0.33670408  0.16674218  0.17432725  1
  I  I118  1  0.33399353  0.15700827  0.49470317  1
  I  I119  1  0.33318416  0.16807719  0.83056246  1
  I  I120  1  0.33369480  0.50221151  0.16873415  1
  I  I121  1  0.33334432  0.49939004  0.50041328  1
  I  I122  1  0.33301290  0.50025813  0.83161115  1
  I  I123  1  0.33333271  0.83190247  0.17192509  1
  I  I124  1  0.33312376  0.84100449  0.49837332  1
  I  I125  1  0.32994265  0.83234166  0.82795485  1
  I  I126  1  0.66184628  0.16834533  0.17350712  1
  I  I127  1  0.66627331  0.16402615  0.49561412  1
  I  I128  1  0.66674519  0.16635037  0.83291155  1
  I  I129  1  0.66372053  0.50095909  0.16800359  1
  I  I130  1  0.67008178  0.50049255  0.50042944  1
  I  I131  1  0.66993355  0.50072839  0.82848917  1
  I  I132  1  0.66299142  0.83108748  0.17249183  1
  I  I133  1  0.66607883  0.83551705  0.49466376  1
  I  I134  1  0.66694505  0.83244727  0.83409652  1
