# generated using pymatgen
data_Cs27Sn13Pb14I81
_symmetry_space_group_name_H-M   'P 1'
_cell_length_a   18.96890957
_cell_length_b   18.98145040
_cell_length_c   18.97916613
_cell_angle_alpha   90.00123900
_cell_angle_beta   90.00094204
_cell_angle_gamma   90.00022161
_symmetry_Int_Tables_number   1
_chemical_formula_structural   Cs27Sn13Pb14I81
_chemical_formula_sum   'Cs27 Sn13 Pb14 I81'
_cell_volume   6833.58951753
_cell_formula_units_Z   1
loop_
 _symmetry_equiv_pos_site_id
 _symmetry_equiv_pos_as_xyz
  1  'x, y, z'
loop_
 _atom_site_type_symbol
 _atom_site_label
 _atom_site_symmetry_multiplicity
 _atom_site_fract_x
 _atom_site_fract_y
 _atom_site_fract_z
 _atom_site_occupancy
  Cs  Cs0  1  -0.00129907  0.00038275  0.00758216  1
  Cs  Cs1  1  -0.00152981  0.00873125  0.32808712  1
  Cs  Cs2  1  0.00054748  -0.00016807  0.66527788  1
  Cs  Cs3  1  0.00624966  0.34044436  0.00461064  1
  Cs  Cs4  1  0.00500192  0.32625544  0.32809197  1
  Cs  Cs5  1  0.01140097  0.33192760  0.66685204  1
  Cs  Cs6  1  -0.01039722  0.65956211  0.00509052  1
  Cs  Cs7  1  0.00251914  0.66420247  0.32964020  1
  Cs  Cs8  1  -0.00163223  0.66727203  0.66842012  1
  Cs  Cs9  1  0.33300459  -0.00050730  -0.00022065  1
  Cs  Cs10  1  0.33435042  -0.00396404  0.33076037  1
  Cs  Cs11  1  0.33381713  -0.00228566  0.66770122  1
  Cs  Cs12  1  0.33267974  0.33209170  -0.00263496  1
  Cs  Cs13  1  0.33259996  0.33564403  0.33430073  1
  Cs  Cs14  1  0.33171790  0.33345081  0.66778174  1
  Cs  Cs15  1  0.33388126  0.66918277  0.00296207  1
  Cs  Cs16  1  0.33276302  0.66831702  0.33336427  1
  Cs  Cs17  1  0.33421329  0.66885099  0.66512781  1
  Cs  Cs18  1  0.66738114  -0.00140423  -0.00179833  1
  Cs  Cs19  1  0.66737335  0.00140574  0.33342718  1
  Cs  Cs20  1  0.66621998  0.00015948  0.66669163  1
  Cs  Cs21  1  0.66552163  0.33371844  -0.00056980  1
  Cs  Cs22  1  0.66650682  0.33264227  0.33382728  1
  Cs  Cs23  1  0.66493552  0.33224771  0.66616938  1
  Cs  Cs24  1  0.67261625  0.66714128  -0.00017813  1
  Cs  Cs25  1  0.66498287  0.66659133  0.33652467  1
  Cs  Cs26  1  0.66697832  0.66706908  0.66579547  1
  Sn  Sn27  1  0.49941898  0.83308432  0.83253258  1
  Sn  Sn28  1  0.50031658  0.49930319  0.16667293  1
  Sn  Sn29  1  0.50014856  0.50044730  0.83334089  1
  Sn  Sn30  1  0.16619226  0.83334680  0.50073008  1
  Sn  Sn31  1  0.50065892  0.49996461  0.50025005  1
  Sn  Sn32  1  0.50019902  0.83344162  0.50097830  1
  Sn  Sn33  1  0.16660645  0.83305338  0.83319642  1
  Sn  Sn34  1  0.50027972  0.16747885  0.16648458  1
  Sn  Sn35  1  0.50006183  0.16664459  0.50002107  1
  Sn  Sn36  1  0.83328903  0.16716054  0.83309917  1
  Sn  Sn37  1  0.50080005  0.16651632  0.83324779  1
  Sn  Sn38  1  0.83360851  0.83279495  0.50006719  1
  Sn  Sn39  1  0.83306136  0.49980478  0.50036549  1
  Pb  Pb40  1  0.16987423  0.16660264  0.16637843  1
  Pb  Pb41  1  0.50037602  0.83312956  0.16636189  1
  Pb  Pb42  1  0.16954323  0.50024788  0.16674808  1
  Pb  Pb43  1  0.16904958  0.50339954  0.83324484  1
  Pb  Pb44  1  0.83141731  0.49721943  0.83060633  1
  Pb  Pb45  1  0.83066282  0.16706738  0.16348842  1
  Pb  Pb46  1  0.83176050  0.16732751  0.50175147  1
  Pb  Pb47  1  0.16676692  0.16417151  0.83346147  1
  Pb  Pb48  1  0.83308314  0.83336162  0.17026195  1
  Pb  Pb49  1  0.16656359  0.50225058  0.50005113  1
  Pb  Pb50  1  0.83347429  0.83494852  0.83160636  1
  Pb  Pb51  1  0.16974457  0.16381944  0.50010502  1
  Pb  Pb52  1  0.16658668  0.83313432  0.16622101  1
  Pb  Pb53  1  0.83062531  0.49965165  0.16992513  1
  I  I54  1  0.16998335  -0.00017211  0.16743194  1
  I  I55  1  0.16745851  -0.00445364  0.50491367  1
  I  I56  1  0.17541262  -0.00365611  0.82727202  1
  I  I57  1  0.16582696  0.33334959  0.16717982  1
  I  I58  1  0.16709558  0.33328571  0.49934102  1
  I  I59  1  0.16806877  0.33340177  0.83366013  1
  I  I60  1  0.17142019  0.66680923  0.16798743  1
  I  I61  1  0.17332954  0.67047543  0.50392038  1
  I  I62  1  0.17361478  0.67131666  0.82688813  1
  I  I63  1  0.49963592  0.00284383  0.16738570  1
  I  I64  1  0.49989131  -0.00075400  0.50236025  1
  I  I65  1  0.49979937  -0.00010251  0.83052814  1
  I  I66  1  0.50057469  0.33326593  0.16732460  1
  I  I67  1  0.50507244  0.33374628  0.50169587  1
  I  I68  1  0.50462812  0.33309282  0.83113773  1
  I  I69  1  0.49926945  0.66366288  0.16786479  1
  I  I70  1  0.50019145  0.66717348  0.50179621  1
  I  I71  1  0.49518606  0.66701753  0.82989960  1
  I  I72  1  0.83065571  0.00033510  0.16879817  1
  I  I73  1  0.83100598  -0.00265750  0.50227554  1
  I  I74  1  0.82456427  0.00246968  0.82976559  1
  I  I75  1  0.83276559  0.33333430  0.16983295  1
  I  I76  1  0.82396630  0.33605392  0.50149107  1
  I  I77  1  0.82348748  0.32982194  0.83089484  1
  I  I78  1  0.83030044  0.66640716  0.16292593  1
  I  I79  1  0.82614352  0.66733876  0.50131515  1
  I  I80  1  0.83232845  0.66653495  0.83388624  1
  I  I81  1  0.16966147  0.16269751  -0.00030507  1
  I  I82  1  0.16736138  0.16368999  0.33347246  1
  I  I83  1  0.16967918  0.16831076  0.66669810  1
  I  I84  1  0.16853016  0.50222516  -0.00017658  1
  I  I85  1  0.17031413  0.50368932  0.33368903  1
  I  I86  1  0.17019492  0.49784241  0.66664303  1
  I  I87  1  0.17665569  0.83550180  -0.00364722  1
  I  I88  1  0.17060917  0.83239223  0.33690412  1
  I  I89  1  0.17069351  0.83365957  0.66594152  1
  I  I90  1  0.50306016  0.16898468  -0.00098832  1
  I  I91  1  0.49914153  0.16836042  0.33419828  1
  I  I92  1  0.50339265  0.16754150  0.66683693  1
  I  I93  1  0.49779051  0.49676583  -0.00069129  1
  I  I94  1  0.50322203  0.49771545  0.33456744  1
  I  I95  1  0.50314421  0.49872438  0.66616426  1
  I  I96  1  0.49468247  0.83415309  -0.00356273  1
  I  I97  1  0.49926358  0.83357711  0.33692851  1
  I  I98  1  0.49951855  0.83373809  0.66578467  1
  I  I99  1  0.82505925  0.16364007  -0.00418493  1
  I  I100  1  0.83134875  0.16508285  0.33348025  1
  I  I101  1  0.82369684  0.16526471  0.66927563  1
  I  I102  1  0.83164983  0.49990801  -0.00020596  1
  I  I103  1  0.82528992  0.50526167  0.33792699  1
  I  I104  1  0.82442363  0.50530503  0.66292097  1
  I  I105  1  0.83262876  0.83500225  -0.00032431  1
  I  I106  1  0.82976022  0.83071248  0.33895860  1
  I  I107  1  0.83077249  0.83062757  0.66329351  1
  I  I108  1  -0.00021821  0.16534489  0.16618512  1
  I  I109  1  -0.00003459  0.16651850  0.50239261  1
  I  I110  1  -0.00271501  0.16340146  0.82980483  1
  I  I111  1  -0.00039681  0.50112641  0.16760763  1
  I  I112  1  -0.00313542  0.50600078  0.50165041  1
  I  I113  1  -0.00024047  0.49896747  0.83125797  1
  I  I114  1  -0.00004144  0.83368140  0.16524561  1
  I  I115  1  -0.00013227  0.82756672  0.50587018  1
  I  I116  1  0.00251258  0.83725505  0.82631854  1
  I  I117  1  0.33864006  0.16979403  0.16435522  1
  I  I118  1  0.33890101  0.16858711  0.50312028  1
  I  I119  1  0.33764895  0.16840665  0.83326280  1
  I  I120  1  0.33858060  0.49647360  0.17007891  1
  I  I121  1  0.33755065  0.50006873  0.49972472  1
  I  I122  1  0.33857054  0.49421892  0.82994258  1
  I  I123  1  0.33389790  0.83342187  0.17125612  1
  I  I124  1  0.33527910  0.83384391  0.50357314  1
  I  I125  1  0.33586862  0.83498229  0.82534925  1
  I  I126  1  0.66204159  0.16987356  0.16975557  1
  I  I127  1  0.66241461  0.16219583  0.49896225  1
  I  I128  1  0.66316308  0.16381810  0.83282211  1
  I  I129  1  0.66205266  0.49644064  0.16482502  1
  I  I130  1  0.66392914  0.50546510  0.49990699  1
  I  I131  1  0.66203803  0.50503764  0.83463122  1
  I  I132  1  0.66607648  0.83383718  0.16589737  1
  I  I133  1  0.66485766  0.83245407  0.50354672  1
  I  I134  1  0.66309556  0.83256893  0.82940336  1
