# generated using pymatgen
data_Cs27Sn14Pb13I81
_symmetry_space_group_name_H-M   'P 1'
_cell_length_a   18.97877260
_cell_length_b   18.96851419
_cell_length_c   18.97896723
_cell_angle_alpha   90.00116354
_cell_angle_beta   89.99969685
_cell_angle_gamma   89.99817970
_symmetry_Int_Tables_number   1
_chemical_formula_structural   Cs27Sn14Pb13I81
_chemical_formula_sum   'Cs27 Sn14 Pb13 I81'
_cell_volume   6832.41144779
_cell_formula_units_Z   1
loop_
 _symmetry_equiv_pos_site_id
 _symmetry_equiv_pos_as_xyz
  1  'x, y, z'
loop_
 _atom_site_type_symbol
 _atom_site_label
 _atom_site_symmetry_multiplicity
 _atom_site_fract_x
 _atom_site_fract_y
 _atom_site_fract_z
 _atom_site_occupancy
  Cs  Cs0  1  0.00131915  -0.00132674  0.00039109  1
  Cs  Cs1  1  -0.00011491  0.00158752  0.33200377  1
  Cs  Cs2  1  -0.00098967  0.00109396  0.66698551  1
  Cs  Cs3  1  -0.00005589  0.33425188  -0.00034542  1
  Cs  Cs4  1  -0.00009599  0.33453505  0.33349629  1
  Cs  Cs5  1  -0.00248123  0.33147871  0.66616671  1
  Cs  Cs6  1  0.00131331  0.66647596  -0.00154634  1
  Cs  Cs7  1  0.00588910  0.66370481  0.33680260  1
  Cs  Cs8  1  -0.00029299  0.66903433  0.66748930  1
  Cs  Cs9  1  0.33228642  0.00118959  -0.00076717  1
  Cs  Cs10  1  0.33520810  -0.00243495  0.33305247  1
  Cs  Cs11  1  0.33209005  0.00099601  0.66750351  1
  Cs  Cs12  1  0.33580270  0.33106408  -0.00481807  1
  Cs  Cs13  1  0.33153554  0.33556850  0.33471277  1
  Cs  Cs14  1  0.33757045  0.33010265  0.66878144  1
  Cs  Cs15  1  0.33145775  0.66649751  -0.00236269  1
  Cs  Cs16  1  0.33049683  0.66714867  0.33493639  1
  Cs  Cs17  1  0.33286466  0.66936529  0.66782199  1
  Cs  Cs18  1  0.66703547  -0.00270901  0.01286976  1
  Cs  Cs19  1  0.66341751  -0.00513474  0.32455199  1
  Cs  Cs20  1  0.67166841  -0.00312494  0.66377085  1
  Cs  Cs21  1  0.66437557  0.33412046  0.00106846  1
  Cs  Cs22  1  0.66773287  0.33271130  0.33528738  1
  Cs  Cs23  1  0.66707540  0.33514867  0.66487042  1
  Cs  Cs24  1  0.66700506  0.66595559  -0.00136213  1
  Cs  Cs25  1  0.66423689  0.66854484  0.33279401  1
  Cs  Cs26  1  0.66809397  0.66579720  0.66785328  1
  Sn  Sn27  1  0.83265166  0.49990389  0.16694533  1
  Sn  Sn28  1  0.83264391  0.49956020  0.49984892  1
  Sn  Sn29  1  0.16609838  0.50018989  0.83289721  1
  Sn  Sn30  1  0.83427205  0.49895481  0.83323727  1
  Sn  Sn31  1  0.50070016  0.16692687  0.49999817  1
  Sn  Sn32  1  0.16662234  0.83399102  0.16609441  1
  Sn  Sn33  1  0.50059311  0.49944893  0.49916449  1
  Sn  Sn34  1  0.16661401  0.16679867  0.49914926  1
  Sn  Sn35  1  0.16673064  0.16632720  0.16733954  1
  Sn  Sn36  1  0.16748514  0.83269758  0.83394114  1
  Sn  Sn37  1  0.49983922  0.83386101  0.83325251  1
  Sn  Sn38  1  0.50042949  0.49973115  0.16749516  1
  Sn  Sn39  1  0.83273477  0.16723795  0.83344059  1
  Sn  Sn40  1  0.83266378  0.16712849  0.50032507  1
  Pb  Pb41  1  0.16661164  0.83623248  0.50041369  1
  Pb  Pb42  1  0.50054551  0.50103439  0.83275950  1
  Pb  Pb43  1  0.50006136  0.83296726  0.50194253  1
  Pb  Pb44  1  0.83629904  0.82981200  0.16686906  1
  Pb  Pb45  1  0.50377784  0.16379318  0.83125495  1
  Pb  Pb46  1  0.83329597  0.83324353  0.49955199  1
  Pb  Pb47  1  0.83359108  0.83362618  0.83349171  1
  Pb  Pb48  1  0.83503038  0.16870278  0.16708156  1
  Pb  Pb49  1  0.16689241  0.49779207  0.50292529  1
  Pb  Pb50  1  0.49745420  0.83052522  0.16450372  1
  Pb  Pb51  1  0.16504522  0.16647138  0.83322696  1
  Pb  Pb52  1  0.16694533  0.49968584  0.16472895  1
  Pb  Pb53  1  0.49748034  0.16901830  0.16904431  1
  I  I54  1  0.16612250  0.00013107  0.16423747  1
  I  I55  1  0.16606764  0.00453755  0.50158470  1
  I  I56  1  0.16871623  -0.00236702  0.83412959  1
  I  I57  1  0.16562385  0.33114969  0.16993533  1
  I  I58  1  0.16569408  0.32985076  0.49479687  1
  I  I59  1  0.16378212  0.33548174  0.83411964  1
  I  I60  1  0.16626340  0.66847048  0.16234485  1
  I  I61  1  0.16647883  0.66634671  0.49787677  1
  I  I62  1  0.16469847  0.66671924  0.83891188  1
  I  I63  1  0.50094992  -0.00001877  0.16732831  1
  I  I64  1  0.49981370  0.00323251  0.50347997  1
  I  I65  1  0.49183642  -0.00338094  0.83105772  1
  I  I66  1  0.50148860  0.33698126  0.16588890  1
  I  I67  1  0.50067281  0.33377897  0.49749384  1
  I  I68  1  0.49610606  0.33320000  0.83533376  1
  I  I69  1  0.50235783  0.66269862  0.17326822  1
  I  I70  1  0.50525861  0.66302544  0.49763278  1
  I  I71  1  0.49906809  0.66880164  0.83191244  1
  I  I72  1  0.83303025  0.00011840  0.16594036  1
  I  I73  1  0.83457043  0.00400396  0.50729426  1
  I  I74  1  0.83462348  0.00300904  0.82569200  1
  I  I75  1  0.83343333  0.33696440  0.16619833  1
  I  I76  1  0.83322877  0.33370963  0.50156967  1
  I  I77  1  0.83995669  0.33486305  0.83183706  1
  I  I78  1  0.83117682  0.66149472  0.16509064  1
  I  I79  1  0.82857062  0.66239090  0.50191625  1
  I  I80  1  0.83455101  0.66333681  0.83239618  1
  I  I81  1  0.16385896  0.16619681  0.00188370  1
  I  I82  1  0.16410477  0.16203299  0.33384734  1
  I  I83  1  0.16737025  0.16779721  0.66411958  1
  I  I84  1  0.16277502  0.49948813  -0.00305303  1
  I  I85  1  0.16449018  0.50261176  0.33351136  1
  I  I86  1  0.16283845  0.50486869  0.67067187  1
  I  I87  1  0.17014447  0.83508133  -0.00086115  1
  I  I88  1  0.16555697  0.83434568  0.33065085  1
  I  I89  1  0.16974501  0.82979803  0.66989877  1
  I  I90  1  0.49874097  0.16781573  0.00005174  1
  I  I91  1  0.50552474  0.16755910  0.33734453  1
  I  I92  1  0.49357579  0.17452609  0.66308834  1
  I  I93  1  0.50249304  0.50315764  0.00171726  1
  I  I94  1  0.50716810  0.49651772  0.33423570  1
  I  I95  1  0.50259815  0.49728151  0.66383149  1
  I  I96  1  0.49842405  0.83098801  -0.00319940  1
  I  I97  1  0.49868042  0.83458107  0.33308017  1
  I  I98  1  0.49253048  0.83055263  0.66967565  1
  I  I99  1  0.83730702  0.17121683  -0.00227583  1
  I  I100  1  0.83353376  0.17171252  0.33658362  1
  I  I101  1  0.83648880  0.17426236  0.66572770  1
  I  I102  1  0.83402249  0.49657796  -0.00076142  1
  I  I103  1  0.82951754  0.49574177  0.33420736  1
  I  I104  1  0.83312892  0.49604518  0.66651514  1
  I  I105  1  0.83118415  0.83413754  -0.00001305  1
  I  I106  1  0.83487530  0.83451572  0.33303833  1
  I  I107  1  0.83582836  0.82971540  0.66686062  1
  I  I108  1  0.00296919  0.16574708  0.17165542  1
  I  I109  1  -0.00075427  0.17040879  0.50062006  1
  I  I110  1  -0.00272769  0.16725986  0.82742507  1
  I  I111  1  -0.00241583  0.49984137  0.16867427  1
  I  I112  1  -0.00287095  0.49611650  0.49729261  1
  I  I113  1  -0.00097645  0.50231152  0.83402972  1
  I  I114  1  0.00404378  0.83577097  0.15871580  1
  I  I115  1  0.00023722  0.83199328  0.50254996  1
  I  I116  1  0.00294229  0.83136669  0.83734783  1
  I  I117  1  0.32954624  0.16558033  0.17058730  1
  I  I118  1  0.33353837  0.17081573  0.49569810  1
  I  I119  1  0.33347595  0.16917012  0.83210906  1
  I  I120  1  0.33551782  0.50036938  0.17049032  1
  I  I121  1  0.33598294  0.49603309  0.49639320  1
  I  I122  1  0.33129846  0.50279565  0.83449000  1
  I  I123  1  0.32973741  0.83505199  0.16442035  1
  I  I124  1  0.33319920  0.83247493  0.49930525  1
  I  I125  1  0.33165169  0.82658495  0.83613770  1
  I  I126  1  0.66661517  0.16536471  0.16588871  1
  I  I127  1  0.66739302  0.17271373  0.50740754  1
  I  I128  1  0.67134599  0.17398942  0.82778148  1
  I  I129  1  0.66734933  0.49893032  0.16455006  1
  I  I130  1  0.66737956  0.49237147  0.50190202  1
  I  I131  1  0.66973353  0.49843308  0.83314712  1
  I  I132  1  0.66644892  0.83497971  0.16496247  1
  I  I133  1  0.66655121  0.83706145  0.50365044  1
  I  I134  1  0.66458762  0.83150417  0.83019169  1
