# generated using pymatgen
data_Cs27Sn13Pb14I81
_symmetry_space_group_name_H-M   'P 1'
_cell_length_a   18.98036688
_cell_length_b   18.96572589
_cell_length_c   18.98453733
_cell_angle_alpha   89.99853748
_cell_angle_beta   89.99874163
_cell_angle_gamma   89.99905900
_symmetry_Int_Tables_number   1
_chemical_formula_structural   Cs27Sn13Pb14I81
_chemical_formula_sum   'Cs27 Sn13 Pb14 I81'
_cell_volume   6833.98607139
_cell_formula_units_Z   1
loop_
 _symmetry_equiv_pos_site_id
 _symmetry_equiv_pos_as_xyz
  1  'x, y, z'
loop_
 _atom_site_type_symbol
 _atom_site_label
 _atom_site_symmetry_multiplicity
 _atom_site_fract_x
 _atom_site_fract_y
 _atom_site_fract_z
 _atom_site_occupancy
  Cs  Cs0  1  -0.00236259  -0.00147062  -0.00056898  1
  Cs  Cs1  1  -0.00174683  -0.00265452  0.33418478  1
  Cs  Cs2  1  -0.00021861  -0.00035868  0.66582505  1
  Cs  Cs3  1  -0.00049299  0.33321594  0.00088020  1
  Cs  Cs4  1  0.00360946  0.33922180  0.34133478  1
  Cs  Cs5  1  -0.00030136  0.33094740  0.66115838  1
  Cs  Cs6  1  0.00005663  0.66713533  0.00015563  1
  Cs  Cs7  1  0.00074484  0.66549123  0.33320072  1
  Cs  Cs8  1  0.00166193  0.66797941  0.66816245  1
  Cs  Cs9  1  0.33308679  0.00891331  0.00081337  1
  Cs  Cs10  1  0.33634911  0.00271044  0.33244858  1
  Cs  Cs11  1  0.33969830  0.00598628  0.66644309  1
  Cs  Cs12  1  0.33276057  0.32635987  0.00020583  1
  Cs  Cs13  1  0.32665827  0.32754325  0.33229703  1
  Cs  Cs14  1  0.33079063  0.32960378  0.66829229  1
  Cs  Cs15  1  0.33321674  0.66632814  0.00022013  1
  Cs  Cs16  1  0.33309771  0.66731860  0.33359563  1
  Cs  Cs17  1  0.33491954  0.66635100  0.66636541  1
  Cs  Cs18  1  0.66929059  0.00028418  -0.00088099  1
  Cs  Cs19  1  0.66662235  0.00144395  0.33376393  1
  Cs  Cs20  1  0.66069741  -0.00139683  0.66530809  1
  Cs  Cs21  1  0.66739942  0.33448605  0.00008782  1
  Cs  Cs22  1  0.66985435  0.33231873  0.33638341  1
  Cs  Cs23  1  0.66934096  0.33382035  0.66413768  1
  Cs  Cs24  1  0.66692911  0.66616011  -0.00073496  1
  Cs  Cs25  1  0.66590576  0.66585241  0.33159768  1
  Cs  Cs26  1  0.66291962  0.66796304  0.66971671  1
  Sn  Sn27  1  0.16683792  0.83305275  0.16649207  1
  Sn  Sn28  1  0.49996770  0.83284979  0.16612145  1
  Sn  Sn29  1  0.16649455  0.83305735  0.50022097  1
  Sn  Sn30  1  0.83366612  0.49920007  0.83354653  1
  Sn  Sn31  1  0.49975628  0.49998171  0.49957915  1
  Sn  Sn32  1  0.16676110  0.50055584  0.83375009  1
  Sn  Sn33  1  0.83318769  0.83369342  0.16738383  1
  Sn  Sn34  1  0.49989870  0.50025905  0.16690898  1
  Sn  Sn35  1  0.83346798  0.83279949  0.49943831  1
  Sn  Sn36  1  0.49965521  0.50019525  0.83357873  1
  Sn  Sn37  1  0.83382889  0.16664223  0.16640891  1
  Sn  Sn38  1  0.16706150  0.83315722  0.83330423  1
  Sn  Sn39  1  0.83338013  0.16733149  0.83388452  1
  Pb  Pb40  1  0.49975806  0.83187789  0.49779713  1
  Pb  Pb41  1  0.16398738  0.16665833  0.83335105  1
  Pb  Pb42  1  0.50298609  0.16981010  0.83341323  1
  Pb  Pb43  1  0.83335249  0.16408267  0.49992535  1
  Pb  Pb44  1  0.83467000  0.83321030  0.83331306  1
  Pb  Pb45  1  0.83171281  0.50296017  0.50267703  1
  Pb  Pb46  1  0.16315401  0.16406695  0.16680637  1
  Pb  Pb47  1  0.50013223  0.17011553  0.49971381  1
  Pb  Pb48  1  0.16901804  0.50175678  0.16464046  1
  Pb  Pb49  1  0.16652339  0.16339848  0.50000761  1
  Pb  Pb50  1  0.50262023  0.16697994  0.16666721  1
  Pb  Pb51  1  0.49701372  0.83185289  0.83596345  1
  Pb  Pb52  1  0.83192864  0.50024845  0.16527159  1
  Pb  Pb53  1  0.16887486  0.50226620  0.50239167  1
  I  I54  1  0.17227972  -0.00509369  0.16341092  1
  I  I55  1  0.16240319  -0.00544993  0.50251161  1
  I  I56  1  0.16326051  -0.00336382  0.83420344  1
  I  I57  1  0.16778117  0.33340696  0.16436251  1
  I  I58  1  0.16783895  0.33380527  0.50152944  1
  I  I59  1  0.17002610  0.33671707  0.83369465  1
  I  I60  1  0.16128422  0.67066593  0.16782981  1
  I  I61  1  0.16293260  0.67049907  0.49763915  1
  I  I62  1  0.16391151  0.66680372  0.83383999  1
  I  I63  1  0.49767672  -0.00335074  0.16748694  1
  I  I64  1  0.50004102  -0.00036048  0.49897638  1
  I  I65  1  0.50011067  0.00000906  0.83413870  1
  I  I66  1  0.50255074  0.33678216  0.16468283  1
  I  I67  1  0.50208194  0.33846000  0.49908667  1
  I  I68  1  0.49415017  0.33846363  0.83684554  1
  I  I69  1  0.50266078  0.66712874  0.16588301  1
  I  I70  1  0.50051356  0.66394891  0.50299387  1
  I  I71  1  0.50575798  0.66324172  0.83213286  1
  I  I72  1  0.83192435  -0.00185735  0.16356874  1
  I  I73  1  0.83691331  -0.00415025  0.50056871  1
  I  I74  1  0.83673638  0.00180306  0.83519723  1
  I  I75  1  0.82913879  0.33115154  0.16190737  1
  I  I76  1  0.83117986  0.33369865  0.49797844  1
  I  I77  1  0.83328496  0.33415500  0.83987394  1
  I  I78  1  0.83457503  0.67002833  0.16814402  1
  I  I79  1  0.83723075  0.67072487  0.49423482  1
  I  I80  1  0.83136518  0.66406893  0.83353476  1
  I  I81  1  0.16790367  0.16418284  0.00003807  1
  I  I82  1  0.16508274  0.16683255  0.33319097  1
  I  I83  1  0.16415993  0.16476602  0.66695204  1
  I  I84  1  0.16745075  0.50690835  -0.00365303  1
  I  I85  1  0.16807356  0.50136057  0.33340908  1
  I  I86  1  0.16807023  0.50663370  0.67056310  1
  I  I87  1  0.16529705  0.82825303  0.00023187  1
  I  I88  1  0.16524204  0.83403358  0.33276272  1
  I  I89  1  0.15955064  0.82784421  0.66686931  1
  I  I90  1  0.49904357  0.16781390  0.00001852  1
  I  I91  1  0.50294784  0.16780023  0.33296371  1
  I  I92  1  0.50267240  0.16572380  0.66683050  1
  I  I93  1  0.50117856  0.50547985  -0.00027045  1
  I  I94  1  0.50197855  0.50668917  0.33250089  1
  I  I95  1  0.50072647  0.50075148  0.66771289  1
  I  I96  1  0.50294849  0.82689865  0.00401414  1
  I  I97  1  0.49724052  0.82705529  0.32974557  1
  I  I98  1  0.50117061  0.83118412  0.66676778  1
  I  I99  1  0.83277525  0.16344358  0.00012143  1
  I  I100  1  0.83139297  0.16201762  0.33033786  1
  I  I101  1  0.83403088  0.17087171  0.66956386  1
  I  I102  1  0.83084700  0.50217628  -0.00314161  1
  I  I103  1  0.83049445  0.49792490  0.33345670  1
  I  I104  1  0.83135270  0.49612666  0.67091814  1
  I  I105  1  0.83388832  0.83374982  0.00265691  1
  I  I106  1  0.83710573  0.83803960  0.33180351  1
  I  I107  1  0.83844466  0.83200241  0.66467604  1
  I  I108  1  -0.00463025  0.16061479  0.16072396  1
  I  I109  1  -0.00035493  0.16962647  0.50050378  1
  I  I110  1  -0.00369248  0.17154808  0.83804830  1
  I  I111  1  0.00005221  0.50129385  0.16361042  1
  I  I112  1  0.00015194  0.49937374  0.50157007  1
  I  I113  1  0.00001767  0.50158772  0.83449590  1
  I  I114  1  -0.00018394  0.83805982  0.16672948  1
  I  I115  1  0.00014922  0.83281456  0.49543507  1
  I  I116  1  0.00266242  0.82777764  0.83730133  1
  I  I117  1  0.33324824  0.16588606  0.16673107  1
  I  I118  1  0.33334898  0.16402609  0.50058455  1
  I  I119  1  0.33327975  0.16659430  0.83293590  1
  I  I120  1  0.33735018  0.50695254  0.16469985  1
  I  I121  1  0.33668964  0.50453626  0.50162136  1
  I  I122  1  0.33347442  0.50785185  0.83299946  1
  I  I123  1  0.33319590  0.82615871  0.16662443  1
  I  I124  1  0.33056496  0.83028361  0.49965746  1
  I  I125  1  0.32889315  0.82661874  0.83176305  1
  I  I126  1  0.67028675  0.16011014  0.16210946  1
  I  I127  1  0.66702977  0.16344736  0.50064666  1
  I  I128  1  0.67082982  0.16986354  0.83775251  1
  I  I129  1  0.66365616  0.50631242  0.16318563  1
  I  I130  1  0.66376761  0.50341775  0.50213291  1
  I  I131  1  0.66641925  0.49597655  0.83380268  1
  I  I132  1  0.66733452  0.83289377  0.17105183  1
  I  I133  1  0.66905547  0.83207388  0.49588230  1
  I  I134  1  0.66654053  0.83218522  0.83315320  1
