# generated using pymatgen
data_Cs27Sn13Pb14I81
_symmetry_space_group_name_H-M   'P 1'
_cell_length_a   18.98489321
_cell_length_b   18.97231147
_cell_length_c   18.97576446
_cell_angle_alpha   89.99962887
_cell_angle_beta   90.00097525
_cell_angle_gamma   90.00089000
_symmetry_Int_Tables_number   1
_chemical_formula_structural   Cs27Sn13Pb14I81
_chemical_formula_sum   'Cs27 Sn13 Pb14 I81'
_cell_volume   6834.82949782
_cell_formula_units_Z   1
loop_
 _symmetry_equiv_pos_site_id
 _symmetry_equiv_pos_as_xyz
  1  'x, y, z'
loop_
 _atom_site_type_symbol
 _atom_site_label
 _atom_site_symmetry_multiplicity
 _atom_site_fract_x
 _atom_site_fract_y
 _atom_site_fract_z
 _atom_site_occupancy
  Cs  Cs0  1  -0.00016767  0.00119434  -0.00186652  1
  Cs  Cs1  1  -0.00367116  -0.00087175  0.33587325  1
  Cs  Cs2  1  0.00011595  0.00316769  0.66617100  1
  Cs  Cs3  1  -0.00013954  0.33255079  -0.00112327  1
  Cs  Cs4  1  -0.00167706  0.33392881  0.33461616  1
  Cs  Cs5  1  0.00148817  0.32782429  0.66667535  1
  Cs  Cs6  1  0.00177007  0.66580604  0.00025188  1
  Cs  Cs7  1  -0.00515952  0.66585971  0.32767289  1
  Cs  Cs8  1  0.00278038  0.66789295  0.66848312  1
  Cs  Cs9  1  0.33515221  0.00004543  0.00026757  1
  Cs  Cs10  1  0.33504191  0.00027660  0.33438022  1
  Cs  Cs11  1  0.33308599  -0.00147403  0.66579244  1
  Cs  Cs12  1  0.33450816  0.33332220  0.00092988  1
  Cs  Cs13  1  0.33293207  0.33251698  0.33331854  1
  Cs  Cs14  1  0.33242150  0.33555910  0.66552116  1
  Cs  Cs15  1  0.33176020  0.66595679  0.00352435  1
  Cs  Cs16  1  0.33166289  0.66617541  0.32896468  1
  Cs  Cs17  1  0.33144703  0.66805408  0.66739507  1
  Cs  Cs18  1  0.66456746  0.00145245  -0.00016562  1
  Cs  Cs19  1  0.66570747  -0.00182372  0.33319701  1
  Cs  Cs20  1  0.66617663  -0.00116942  0.66694037  1
  Cs  Cs21  1  0.66481458  0.33160052  -0.00087047  1
  Cs  Cs22  1  0.66826984  0.33905382  0.33525904  1
  Cs  Cs23  1  0.66686781  0.33727667  0.66459734  1
  Cs  Cs24  1  0.66634059  0.66526283  0.00128664  1
  Cs  Cs25  1  0.67642710  0.65971804  0.32818787  1
  Cs  Cs26  1  0.66713372  0.66533481  0.66669850  1
  Sn  Sn27  1  0.49967825  0.16613669  0.83255215  1
  Sn  Sn28  1  0.49964713  0.83328625  0.50033981  1
  Sn  Sn29  1  0.83308564  0.16628358  0.16672049  1
  Sn  Sn30  1  0.16738021  0.83236374  0.50049030  1
  Sn  Sn31  1  0.49986242  0.83399058  0.83261791  1
  Sn  Sn32  1  0.83333382  0.83278599  0.83316036  1
  Sn  Sn33  1  0.50009838  0.16632068  0.16706654  1
  Sn  Sn34  1  0.16680770  0.83285896  0.83269873  1
  Sn  Sn35  1  0.49982622  0.16611821  0.50029861  1
  Sn  Sn36  1  0.16590917  0.50057934  0.83246992  1
  Sn  Sn37  1  0.83429502  0.50052891  0.83304308  1
  Sn  Sn38  1  0.16653178  0.16610576  0.16670360  1
  Sn  Sn39  1  0.16681430  0.50124551  0.50066284  1
  Pb  Pb40  1  0.49939751  0.50101423  0.83320219  1
  Pb  Pb41  1  0.83319780  0.83319930  0.50223209  1
  Pb  Pb42  1  0.49997621  0.49750742  0.16686987  1
  Pb  Pb43  1  0.16892714  0.16652405  0.83470470  1
  Pb  Pb44  1  0.49785962  0.50160491  0.50011312  1
  Pb  Pb45  1  0.16663487  0.83558357  0.16700331  1
  Pb  Pb46  1  0.16843706  0.16610470  0.49801009  1
  Pb  Pb47  1  0.83358465  0.49757928  0.16352046  1
  Pb  Pb48  1  0.50005515  0.83467510  0.16726141  1
  Pb  Pb49  1  0.83334712  0.83546728  0.16366513  1
  Pb  Pb50  1  0.16662065  0.49775545  0.16648577  1
  Pb  Pb51  1  0.83669045  0.50025586  0.50295328  1
  Pb  Pb52  1  0.83007966  0.16656390  0.49764253  1
  Pb  Pb53  1  0.83085188  0.16672843  0.83443065  1
  I  I54  1  0.16857615  0.00368885  0.16522285  1
  I  I55  1  0.16899706  -0.00314865  0.50397722  1
  I  I56  1  0.16443642  -0.00320314  0.83057594  1
  I  I57  1  0.16882909  0.32962170  0.16584122  1
  I  I58  1  0.16790125  0.33549322  0.50336295  1
  I  I59  1  0.16322051  0.33594348  0.83097636  1
  I  I60  1  0.16667589  0.66673434  0.16618240  1
  I  I61  1  0.17367668  0.66775051  0.50574257  1
  I  I62  1  0.16788497  0.66755042  0.83022407  1
  I  I63  1  0.49953165  0.00375271  0.16522937  1
  I  I64  1  0.49392071  -0.00008617  0.50073968  1
  I  I65  1  0.49990409  -0.00056175  0.83417129  1
  I  I66  1  0.49927785  0.32796893  0.16489055  1
  I  I67  1  0.49869430  0.33054275  0.49935305  1
  I  I68  1  0.50020211  0.33060637  0.83513259  1
  I  I69  1  0.49942858  0.66697344  0.16536065  1
  I  I70  1  0.49702497  0.67075494  0.50922833  1
  I  I71  1  0.50045401  0.67050147  0.82732327  1
  I  I72  1  0.83227452  0.00373606  0.16395815  1
  I  I73  1  0.83885028  -0.00006052  0.50245893  1
  I  I74  1  0.83558732  -0.00287897  0.83534536  1
  I  I75  1  0.83187317  0.32948530  0.16393280  1
  I  I76  1  0.83347656  0.33335912  0.50234836  1
  I  I77  1  0.83728976  0.33579103  0.83588362  1
  I  I78  1  0.83331165  0.66652298  0.16826486  1
  I  I79  1  0.82668214  0.66674984  0.49684818  1
  I  I80  1  0.83190011  0.66747508  0.83274068  1
  I  I81  1  0.16997347  0.16672432  0.00262571  1
  I  I82  1  0.16972721  0.16710669  0.33017234  1
  I  I83  1  0.16829116  0.16762566  0.66660503  1
  I  I84  1  0.16350190  0.50334524  -0.00354576  1
  I  I85  1  0.16998463  0.50278126  0.33640235  1
  I  I86  1  0.16378029  0.50285977  0.66774839  1
  I  I87  1  0.16771819  0.83047667  -0.00367145  1
  I  I88  1  0.17321663  0.83110785  0.33697062  1
  I  I89  1  0.16815323  0.83032854  0.66779586  1
  I  I90  1  0.50012424  0.16318149  -0.00018061  1
  I  I91  1  0.49874698  0.16236191  0.33347819  1
  I  I92  1  0.49913102  0.16209807  0.66694026  1
  I  I93  1  0.49767471  0.49881560  -0.00044152  1
  I  I94  1  0.49711348  0.49894313  0.33368292  1
  I  I95  1  0.50248591  0.49156234  0.66685120  1
  I  I96  1  0.49927102  0.83779849  -0.00348340  1
  I  I97  1  0.49241209  0.83979464  0.33707806  1
  I  I98  1  0.49875432  0.84280643  0.66768521  1
  I  I99  1  0.83045469  0.16645997  0.00247487  1
  I  I100  1  0.83288143  0.16653202  0.32944183  1
  I  I101  1  0.83225701  0.16706560  0.66685814  1
  I  I102  1  0.84005597  0.50420889  -0.00424047  1
  I  I103  1  0.83362732  0.49830261  0.33328414  1
  I  I104  1  0.83299506  0.50230082  0.67089856  1
  I  I105  1  0.83328297  0.83023746  -0.00493568  1
  I  I106  1  0.83345142  0.83523302  0.33336356  1
  I  I107  1  0.83266765  0.83157672  0.67083071  1
  I  I108  1  0.00008765  0.16688177  0.16432765  1
  I  I109  1  0.00019544  0.16660361  0.49735051  1
  I  I110  1  0.00010318  0.16463840  0.83699787  1
  I  I111  1  0.00018940  0.49500461  0.16840625  1
  I  I112  1  0.00469123  0.50511368  0.50094412  1
  I  I113  1  0.00098044  0.50715089  0.83091844  1
  I  I114  1  0.00010994  0.83886707  0.16689691  1
  I  I115  1  0.00347746  0.83038022  0.50381773  1
  I  I116  1  0.00088443  0.82922157  0.83092440  1
  I  I117  1  0.33449745  0.16673474  0.16606636  1
  I  I118  1  0.33659316  0.16556392  0.49797180  1
  I  I119  1  0.33697156  0.16343025  0.83635730  1
  I  I120  1  0.33296539  0.49649740  0.16313062  1
  I  I121  1  0.32994565  0.49947318  0.50800651  1
  I  I122  1  0.33004756  0.50156215  0.82993477  1
  I  I123  1  0.33332756  0.83691753  0.16144311  1
  I  I124  1  0.33335176  0.83510918  0.50858643  1
  I  I125  1  0.33325416  0.83436135  0.82975104  1
  I  I126  1  0.66549566  0.16589336  0.16464311  1
  I  I127  1  0.66159586  0.16043062  0.49947222  1
  I  I128  1  0.66279373  0.16314620  0.83626585  1
  I  I129  1  0.66697215  0.49781174  0.16518299  1
  I  I130  1  0.66681151  0.49813099  0.50027184  1
  I  I131  1  0.66894721  0.50169795  0.83581778  1
  I  I132  1  0.66659464  0.83726645  0.16612542  1
  I  I133  1  0.66314808  0.84097510  0.50495082  1
  I  I134  1  0.66576537  0.83477839  0.83053636  1
