# generated using pymatgen
data_Cs27Sn13Pb14I81
_symmetry_space_group_name_H-M   'P 1'
_cell_length_a   18.98396654
_cell_length_b   18.96986411
_cell_length_c   18.97917224
_cell_angle_alpha   90.00085693
_cell_angle_beta   89.99969991
_cell_angle_gamma   89.99905739
_symmetry_Int_Tables_number   1
_chemical_formula_structural   Cs27Sn13Pb14I81
_chemical_formula_sum   'Cs27 Sn13 Pb14 I81'
_cell_volume   6834.84148005
_cell_formula_units_Z   1
loop_
 _symmetry_equiv_pos_site_id
 _symmetry_equiv_pos_as_xyz
  1  'x, y, z'
loop_
 _atom_site_type_symbol
 _atom_site_label
 _atom_site_symmetry_multiplicity
 _atom_site_fract_x
 _atom_site_fract_y
 _atom_site_fract_z
 _atom_site_occupancy
  Cs  Cs0  1  0.00407280  0.00231357  -0.00084102  1
  Cs  Cs1  1  -0.00378562  0.00276152  0.33255970  1
  Cs  Cs2  1  -0.00241914  -0.00132461  0.66957976  1
  Cs  Cs3  1  -0.00344354  0.33139806  0.00413443  1
  Cs  Cs4  1  -0.00182831  0.33038752  0.32888015  1
  Cs  Cs5  1  0.00442998  0.33370100  0.66583492  1
  Cs  Cs6  1  -0.00168178  0.66588184  0.00073980  1
  Cs  Cs7  1  0.00161640  0.66580877  0.33380927  1
  Cs  Cs8  1  -0.00057438  0.66936911  0.66516717  1
  Cs  Cs9  1  0.33362696  -0.00184010  -0.00186001  1
  Cs  Cs10  1  0.33494342  -0.00158891  0.33299570  1
  Cs  Cs11  1  0.32908177  0.00343154  0.66728542  1
  Cs  Cs12  1  0.33396007  0.33276628  0.00056999  1
  Cs  Cs13  1  0.33401841  0.33505819  0.33460253  1
  Cs  Cs14  1  0.33390198  0.33401337  0.66457521  1
  Cs  Cs15  1  0.33530813  0.66903546  0.00145274  1
  Cs  Cs16  1  0.33264152  0.66587731  0.33293900  1
  Cs  Cs17  1  0.33243164  0.66375912  0.66482131  1
  Cs  Cs18  1  0.66200083  -0.00067214  -0.00059532  1
  Cs  Cs19  1  0.66803297  -0.00052542  0.33595468  1
  Cs  Cs20  1  0.67318710  0.00256958  0.66408634  1
  Cs  Cs21  1  0.66891337  0.33334386  -0.00226025  1
  Cs  Cs22  1  0.66673408  0.33195377  0.33237002  1
  Cs  Cs23  1  0.66425907  0.33211687  0.66998228  1
  Cs  Cs24  1  0.66596313  0.66712979  -0.00638385  1
  Cs  Cs25  1  0.66564695  0.66750357  0.33308407  1
  Cs  Cs26  1  0.66947400  0.66703557  0.67114950  1
  Sn  Sn27  1  0.83301001  0.16683887  0.83350411  1
  Sn  Sn28  1  0.16567290  0.83249741  0.16772030  1
  Sn  Sn29  1  0.49969511  0.49946364  0.16703730  1
  Sn  Sn30  1  0.16744234  0.83273323  0.49890632  1
  Sn  Sn31  1  0.83314529  0.49977550  0.49979692  1
  Sn  Sn32  1  0.16675839  0.50024306  0.83390231  1
  Sn  Sn33  1  0.49935332  0.83239898  0.50029093  1
  Sn  Sn34  1  0.83413861  0.83285994  0.16651146  1
  Sn  Sn35  1  0.16738038  0.50069574  0.16659902  1
  Sn  Sn36  1  0.16638845  0.50058689  0.49953361  1
  Sn  Sn37  1  0.50052187  0.50101327  0.49929577  1
  Sn  Sn38  1  0.49963089  0.16758793  0.16606908  1
  Sn  Sn39  1  0.50043002  0.16683365  0.83402199  1
  Pb  Pb40  1  0.16696838  0.16911902  0.83351828  1
  Pb  Pb41  1  0.16905300  0.16640473  0.16688883  1
  Pb  Pb42  1  0.16649801  0.16617835  0.49963267  1
  Pb  Pb43  1  0.83052247  0.16418261  0.16491654  1
  Pb  Pb44  1  0.16684185  0.83082230  0.83330331  1
  Pb  Pb45  1  0.49830632  0.49864597  0.83338670  1
  Pb  Pb46  1  0.49947710  0.83272032  0.16813494  1
  Pb  Pb47  1  0.83595372  0.49830602  0.83098105  1
  Pb  Pb48  1  0.83342853  0.16954517  0.50196157  1
  Pb  Pb49  1  0.49987244  0.16673534  0.49989310  1
  Pb  Pb50  1  0.83374489  0.83137759  0.49847531  1
  Pb  Pb51  1  0.83347332  0.83548676  0.83617328  1
  Pb  Pb52  1  0.49981421  0.83602741  0.82939852  1
  Pb  Pb53  1  0.83285986  0.50152219  0.16818007  1
  I  I54  1  0.16419999  -0.00351436  0.17155021  1
  I  I55  1  0.17269651  -0.00410222  0.49554867  1
  I  I56  1  0.16650765  0.00003091  0.83263080  1
  I  I57  1  0.16873476  0.33698006  0.16811768  1
  I  I58  1  0.16854668  0.33758085  0.50005422  1
  I  I59  1  0.16740946  0.33724433  0.83147736  1
  I  I60  1  0.16906934  0.66548238  0.16788559  1
  I  I61  1  0.16793628  0.66533460  0.49940412  1
  I  I62  1  0.16724757  0.66270661  0.83217737  1
  I  I63  1  0.50028200  0.00190297  0.16438504  1
  I  I64  1  0.49484969  -0.00295921  0.49912198  1
  I  I65  1  0.50228419  0.00408696  0.84012463  1
  I  I66  1  0.49464887  0.33493384  0.16933867  1
  I  I67  1  0.49804606  0.33689660  0.49930460  1
  I  I68  1  0.50240272  0.33065325  0.83269474  1
  I  I69  1  0.49801158  0.66361390  0.17014992  1
  I  I70  1  0.49803170  0.66496622  0.49346516  1
  I  I71  1  0.49906673  0.66649406  0.83621883  1
  I  I72  1  0.83906162  -0.00357935  0.16804896  1
  I  I73  1  0.83259860  -0.00028864  0.50012102  1
  I  I74  1  0.82905500  0.00350303  0.83182447  1
  I  I75  1  0.83567237  0.33338177  0.16715984  1
  I  I76  1  0.83371676  0.33785521  0.49856480  1
  I  I77  1  0.82863622  0.33059818  0.83362589  1
  I  I78  1  0.83333437  0.66931113  0.16821707  1
  I  I79  1  0.83373186  0.66336570  0.49994761  1
  I  I80  1  0.83413850  0.66643856  0.83290310  1
  I  I81  1  0.16574484  0.16720949  0.00021848  1
  I  I82  1  0.16857930  0.17141225  0.33308623  1
  I  I83  1  0.16946754  0.16800743  0.66674629  1
  I  I84  1  0.17203180  0.50311053  0.00170011  1
  I  I85  1  0.16843737  0.50432405  0.33348031  1
  I  I86  1  0.16694918  0.50197969  0.66492948  1
  I  I87  1  0.16311884  0.82949730  0.00343583  1
  I  I88  1  0.16745486  0.82473454  0.33342748  1
  I  I89  1  0.17099737  0.82916650  0.66313306  1
  I  I90  1  0.50337110  0.17261438  0.00073152  1
  I  I91  1  0.49842175  0.16856681  0.33072158  1
  I  I92  1  0.50366116  0.16696840  0.66913555  1
  I  I93  1  0.49494612  0.49779685  0.00302158  1
  I  I94  1  0.49528830  0.49752729  0.33357359  1
  I  I95  1  0.49813993  0.50150585  0.66343926  1
  I  I96  1  0.49997937  0.83173610  0.00010000  1
  I  I97  1  0.49870574  0.83379906  0.33610059  1
  I  I98  1  0.49412797  0.82678519  0.66144658  1
  I  I99  1  0.83152260  0.16813306  -0.00279579  1
  I  I100  1  0.83235881  0.16617809  0.33300536  1
  I  I101  1  0.82556523  0.16651618  0.66983744  1
  I  I102  1  0.83397969  0.50020595  0.00003077  1
  I  I103  1  0.83704678  0.50079436  0.33625717  1
  I  I104  1  0.83226942  0.50029074  0.66286122  1
  I  I105  1  0.83900583  0.83149418  0.00417412  1
  I  I106  1  0.83450000  0.83341034  0.33069683  1
  I  I107  1  0.83350096  0.83403836  0.66645908  1
  I  I108  1  -0.00010511  0.16899345  0.16463005  1
  I  I109  1  -0.00008880  0.16713672  0.50312372  1
  I  I110  1  -0.00238892  0.16808401  0.83173895  1
  I  I111  1  0.00315166  0.50225666  0.16784484  1
  I  I112  1  0.00169159  0.50349923  0.50114197  1
  I  I113  1  0.00389756  0.49749129  0.83374084  1
  I  I114  1  0.00195377  0.82757434  0.17204009  1
  I  I115  1  0.00324158  0.82798766  0.49817399  1
  I  I116  1  0.00021055  0.83645007  0.82859051  1
  I  I117  1  0.33700393  0.16676851  0.16052083  1
  I  I118  1  0.33352909  0.17029755  0.50342322  1
  I  I119  1  0.33624964  0.16762368  0.83656368  1
  I  I120  1  0.33285813  0.50105895  0.17089287  1
  I  I121  1  0.33312453  0.50322100  0.49957223  1
  I  I122  1  0.33047391  0.49720592  0.82876844  1
  I  I123  1  0.33051437  0.83206269  0.16911045  1
  I  I124  1  0.33257974  0.82565709  0.49407392  1
  I  I125  1  0.33332260  0.83686122  0.83823692  1
  I  I126  1  0.66272488  0.17156773  0.16575882  1
  I  I127  1  0.66640192  0.16594276  0.49826449  1
  I  I128  1  0.66564267  0.16849906  0.83705490  1
  I  I129  1  0.66352014  0.49776077  0.17224862  1
  I  I130  1  0.66511354  0.50321355  0.49484971  1
  I  I131  1  0.66662696  0.49997574  0.83272157  1
  I  I132  1  0.66799733  0.83452957  0.16921444  1
  I  I133  1  0.66421524  0.82958911  0.49750365  1
  I  I134  1  0.66655508  0.83010497  0.83451335  1
