# generated using pymatgen
data_Cs27Sn14Pb13I81
_symmetry_space_group_name_H-M   'P 1'
_cell_length_a   18.97449007
_cell_length_b   18.98539159
_cell_length_c   18.96786614
_cell_angle_alpha   89.99965445
_cell_angle_beta   89.99722701
_cell_angle_gamma   89.99903464
_symmetry_Int_Tables_number   1
_chemical_formula_structural   Cs27Sn14Pb13I81
_chemical_formula_sum   'Cs27 Sn14 Pb13 I81'
_cell_volume   6832.94850983
_cell_formula_units_Z   1
loop_
 _symmetry_equiv_pos_site_id
 _symmetry_equiv_pos_as_xyz
  1  'x, y, z'
loop_
 _atom_site_type_symbol
 _atom_site_label
 _atom_site_symmetry_multiplicity
 _atom_site_fract_x
 _atom_site_fract_y
 _atom_site_fract_z
 _atom_site_occupancy
  Cs  Cs0  1  0.00040588  -0.00200424  0.00181928  1
  Cs  Cs1  1  -0.00022873  -0.00155634  0.33193406  1
  Cs  Cs2  1  0.00254164  0.00021520  0.66706632  1
  Cs  Cs3  1  0.00182809  0.33796368  -0.00274118  1
  Cs  Cs4  1  -0.00341890  0.33153558  0.33409375  1
  Cs  Cs5  1  -0.00417076  0.33298806  0.66924046  1
  Cs  Cs6  1  0.00164596  0.66642507  0.00056068  1
  Cs  Cs7  1  -0.00183246  0.66934215  0.33245457  1
  Cs  Cs8  1  0.00117411  0.66652478  0.66720933  1
  Cs  Cs9  1  0.33385114  0.00422392  -0.00052125  1
  Cs  Cs10  1  0.33198829  0.00127626  0.33479472  1
  Cs  Cs11  1  0.33157067  -0.00036880  0.66511731  1
  Cs  Cs12  1  0.34051025  0.34122966  0.00714953  1
  Cs  Cs13  1  0.33530446  0.33224801  0.33163951  1
  Cs  Cs14  1  0.33003323  0.33282125  0.66366050  1
  Cs  Cs15  1  0.33364581  0.65633602  -0.00090026  1
  Cs  Cs16  1  0.33393831  0.66650777  0.33581511  1
  Cs  Cs17  1  0.33310273  0.66730928  0.66509624  1
  Cs  Cs18  1  0.66554762  0.00050923  -0.00207440  1
  Cs  Cs19  1  0.66857853  -0.00254996  0.33366625  1
  Cs  Cs20  1  0.66555235  0.00022138  0.66982316  1
  Cs  Cs21  1  0.65983492  0.33157519  -0.00464904  1
  Cs  Cs22  1  0.66787032  0.33430705  0.33333480  1
  Cs  Cs23  1  0.67661584  0.33113364  0.67229372  1
  Cs  Cs24  1  0.66504331  0.66782860  0.00042618  1
  Cs  Cs25  1  0.66830534  0.66848246  0.33365144  1
  Cs  Cs26  1  0.66515837  0.66767247  0.66763147  1
  Sn  Sn27  1  0.50003080  0.83359556  0.16728322  1
  Sn  Sn28  1  0.16685440  0.49990942  0.49974834  1
  Sn  Sn29  1  0.16659061  0.83340501  0.50044912  1
  Sn  Sn30  1  0.49991668  0.49964944  0.50022793  1
  Sn  Sn31  1  0.16710785  0.16663631  0.50049256  1
  Sn  Sn32  1  0.16709577  0.16609932  0.83322285  1
  Sn  Sn33  1  0.49994343  0.83356488  0.49920086  1
  Sn  Sn34  1  0.83325591  0.49999284  0.16646004  1
  Sn  Sn35  1  0.49997340  0.16672022  0.50014050  1
  Sn  Sn36  1  0.83254000  0.83343250  0.16617848  1
  Sn  Sn37  1  0.83336275  0.83354321  0.50063594  1
  Sn  Sn38  1  0.83343815  0.16666514  0.16630758  1
  Sn  Sn39  1  0.83421288  0.83349646  0.83340344  1
  Sn  Sn40  1  0.16633025  0.83417715  0.83283264  1
  Pb  Pb41  1  0.83332761  0.50284602  0.83622752  1
  Pb  Pb42  1  0.83323292  0.50229925  0.49882925  1
  Pb  Pb43  1  0.50229803  0.50249020  0.16932854  1
  Pb  Pb44  1  0.50215381  0.16425056  0.16910959  1
  Pb  Pb45  1  0.49681184  0.16660699  0.83055058  1
  Pb  Pb46  1  0.16502424  0.16673945  0.16653912  1
  Pb  Pb47  1  0.83577731  0.16424146  0.83605328  1
  Pb  Pb48  1  0.83356383  0.16429716  0.49888466  1
  Pb  Pb49  1  0.50002563  0.49984074  0.82977219  1
  Pb  Pb50  1  0.16673031  0.49994021  0.83085810  1
  Pb  Pb51  1  0.49890032  0.83329161  0.83333451  1
  Pb  Pb52  1  0.16748842  0.83330590  0.16615661  1
  Pb  Pb53  1  0.16454976  0.49993652  0.16982102  1
  I  I54  1  0.16320893  -0.00027322  0.17189811  1
  I  I55  1  0.16875420  -0.00086738  0.50328267  1
  I  I56  1  0.16198524  -0.00123645  0.82357310  1
  I  I57  1  0.16301783  0.33330702  0.16691043  1
  I  I58  1  0.17363628  0.33269103  0.50238162  1
  I  I59  1  0.16547032  0.33032423  0.82732681  1
  I  I60  1  0.16359007  0.66696477  0.16665095  1
  I  I61  1  0.16869919  0.66814366  0.50277839  1
  I  I62  1  0.16231561  0.67003524  0.82920150  1
  I  I63  1  0.50633932  -0.00373115  0.17333466  1
  I  I64  1  0.49722232  -0.00119201  0.49607718  1
  I  I65  1  0.50297107  -0.00027225  0.83160293  1
  I  I66  1  0.50219499  0.33339678  0.16819968  1
  I  I67  1  0.49074797  0.33316260  0.49981244  1
  I  I68  1  0.49908443  0.33305628  0.83369777  1
  I  I69  1  0.50605636  0.67047321  0.17285697  1
  I  I70  1  0.49746922  0.66807839  0.49615165  1
  I  I71  1  0.49856719  0.66712374  0.83182486  1
  I  I72  1  0.83044474  -0.00202698  0.16794689  1
  I  I73  1  0.83355911  -0.00425323  0.49656052  1
  I  I74  1  0.83479230  -0.00404921  0.83431477  1
  I  I75  1  0.83687330  0.33326808  0.17134719  1
  I  I76  1  0.83334644  0.33324380  0.49609775  1
  I  I77  1  0.83493581  0.33307534  0.83423279  1
  I  I78  1  0.82998893  0.66871414  0.16799130  1
  I  I79  1  0.83393187  0.67094345  0.49702622  1
  I  I80  1  0.83992986  0.67146181  0.83361897  1
  I  I81  1  0.16164577  0.15778601  -0.00316199  1
  I  I82  1  0.16914109  0.16465593  0.33711188  1
  I  I83  1  0.17003746  0.16446458  0.66473377  1
  I  I84  1  0.16501937  0.50080731  -0.00006854  1
  I  I85  1  0.17062429  0.50199805  0.33816420  1
  I  I86  1  0.16973362  0.50193885  0.66239149  1
  I  I87  1  0.16170241  0.83931854  -0.00323994  1
  I  I88  1  0.16401420  0.83412008  0.33682777  1
  I  I89  1  0.16322982  0.83352127  0.66481111  1
  I  I90  1  0.49957912  0.16439668  0.00021077  1
  I  I91  1  0.49255427  0.16735976  0.33737842  1
  I  I92  1  0.49997522  0.16159540  0.66191662  1
  I  I93  1  0.50044624  0.50217399  0.00053796  1
  I  I94  1  0.49555170  0.49938421  0.33735640  1
  I  I95  1  0.49608497  0.50633807  0.66124727  1
  I  I96  1  0.50564274  0.83379699  0.00278623  1
  I  I97  1  0.50394181  0.83304021  0.33537053  1
  I  I98  1  0.50280714  0.83288773  0.66279740  1
  I  I99  1  0.83539343  0.16265546  0.00387347  1
  I  I100  1  0.83558419  0.16237600  0.33096173  1
  I  I101  1  0.83089887  0.16548080  0.66681654  1
  I  I102  1  0.83452567  0.50310963  0.00430054  1
  I  I103  1  0.83406290  0.50437403  0.33086402  1
  I  I104  1  0.83302972  0.50135321  0.66661070  1
  I  I105  1  0.83377530  0.83336098  0.00085771  1
  I  I106  1  0.83314418  0.83309261  0.33336263  1
  I  I107  1  0.83365187  0.83329751  0.66582371  1
  I  I108  1  -0.00320193  0.16127541  0.17075593  1
  I  I109  1  0.00314379  0.16643929  0.50167274  1
  I  I110  1  0.00338270  0.16425023  0.82426624  1
  I  I111  1  -0.00354563  0.50520571  0.16943057  1
  I  I112  1  0.00270471  0.50062788  0.49817895  1
  I  I113  1  0.00002804  0.49885636  0.83084831  1
  I  I114  1  -0.00324015  0.83336554  0.17009324  1
  I  I115  1  0.00028657  0.83322890  0.49914663  1
  I  I116  1  0.00005806  0.83649953  0.82997988  1
  I  I117  1  0.33359832  0.16419429  0.16538417  1
  I  I118  1  0.33257238  0.16175809  0.50279198  1
  I  I119  1  0.32882654  0.15642391  0.83108157  1
  I  I120  1  0.33378997  0.50184416  0.16465498  1
  I  I121  1  0.33304188  0.50565261  0.50013285  1
  I  I122  1  0.33304468  0.50412430  0.83726033  1
  I  I123  1  0.33631410  0.83406685  0.17264815  1
  I  I124  1  0.33319550  0.83305422  0.49980076  1
  I  I125  1  0.32978638  0.83730089  0.82807630  1
  I  I126  1  0.67024074  0.16650133  0.16977831  1
  I  I127  1  0.66420260  0.16579768  0.49574866  1
  I  I128  1  0.66678096  0.16582623  0.83249636  1
  I  I129  1  0.67008177  0.50062518  0.17113998  1
  I  I130  1  0.66399410  0.50163723  0.49678445  1
  I  I131  1  0.66693050  0.50203972  0.83006826  1
  I  I132  1  0.66822031  0.83301468  0.17142158  1
  I  I133  1  0.66658309  0.83280450  0.49824894  1
  I  I134  1  0.66931647  0.83216880  0.83112858  1
