# generated using pymatgen
data_Cs27Sn14Pb13I81
_symmetry_space_group_name_H-M   'P 1'
_cell_length_a   18.95727096
_cell_length_b   18.96619252
_cell_length_c   18.95743639
_cell_angle_alpha   90.00127467
_cell_angle_beta   90.00044187
_cell_angle_gamma   90.00006655
_symmetry_Int_Tables_number   1
_chemical_formula_structural   Cs27Sn14Pb13I81
_chemical_formula_sum   'Cs27 Sn14 Pb13 I81'
_cell_volume   6816.09413143
_cell_formula_units_Z   1
loop_
 _symmetry_equiv_pos_site_id
 _symmetry_equiv_pos_as_xyz
  1  'x, y, z'
loop_
 _atom_site_type_symbol
 _atom_site_label
 _atom_site_symmetry_multiplicity
 _atom_site_fract_x
 _atom_site_fract_y
 _atom_site_fract_z
 _atom_site_occupancy
  Cs  Cs0  1  -0.00096449  0.00122262  0.00000024  1
  Cs  Cs1  1  0.00292529  0.00059291  0.33331267  1
  Cs  Cs2  1  -0.00235216  -0.00042098  0.66639977  1
  Cs  Cs3  1  0.00262067  0.33197215  -0.00200085  1
  Cs  Cs4  1  -0.00072685  0.32762513  0.33136982  1
  Cs  Cs5  1  -0.00271742  0.33886646  0.66948793  1
  Cs  Cs6  1  0.00148614  0.66675192  0.00333100  1
  Cs  Cs7  1  -0.00221922  0.66912635  0.33206441  1
  Cs  Cs8  1  0.00408377  0.66166575  0.66404793  1
  Cs  Cs9  1  0.33414735  -0.00018842  0.00102273  1
  Cs  Cs10  1  0.33148064  0.00102945  0.33252676  1
  Cs  Cs11  1  0.33495772  -0.00133362  0.66523506  1
  Cs  Cs12  1  0.33237323  0.33255454  -0.00040409  1
  Cs  Cs13  1  0.33679599  0.33008125  0.33888898  1
  Cs  Cs14  1  0.33383425  0.33606897  0.66385196  1
  Cs  Cs15  1  0.33268984  0.66749617  -0.00102673  1
  Cs  Cs16  1  0.33507164  0.66703981  0.33358444  1
  Cs  Cs17  1  0.32832471  0.66550071  0.66771302  1
  Cs  Cs18  1  0.66584607  -0.00074220  -0.00281811  1
  Cs  Cs19  1  0.66612835  -0.00016915  0.33388688  1
  Cs  Cs20  1  0.66684589  -0.00013647  0.66939646  1
  Cs  Cs21  1  0.66570275  0.33341493  0.00045992  1
  Cs  Cs22  1  0.66463224  0.33567761  0.33386545  1
  Cs  Cs23  1  0.66797321  0.33213655  0.66582281  1
  Cs  Cs24  1  0.66706048  0.66883983  0.00298912  1
  Cs  Cs25  1  0.66777808  0.66477761  0.33057960  1
  Cs  Cs26  1  0.66656232  0.66913453  0.66746187  1
  Sn  Sn27  1  0.83306232  0.16652874  0.49915744  1
  Sn  Sn28  1  0.50084261  0.16600091  0.16604160  1
  Sn  Sn29  1  0.49902712  0.16754300  0.83386493  1
  Sn  Sn30  1  0.83243027  0.83332547  0.49997546  1
  Sn  Sn31  1  0.50097597  0.49932959  0.83366059  1
  Sn  Sn32  1  0.83217604  0.16646694  0.16714493  1
  Sn  Sn33  1  0.49944560  0.83403977  0.16742462  1
  Sn  Sn34  1  0.83207442  0.50038028  0.83339349  1
  Sn  Sn35  1  0.16750947  0.83247514  0.16577521  1
  Sn  Sn36  1  0.16651143  0.83451636  0.83409250  1
  Sn  Sn37  1  0.16712172  0.50037679  0.16716193  1
  Sn  Sn38  1  0.83302130  0.50013743  0.50034472  1
  Sn  Sn39  1  0.50071566  0.83331321  0.49910302  1
  Sn  Sn40  1  0.16771071  0.16570518  0.83308176  1
  Pb  Pb41  1  0.83326872  0.83558230  0.16837214  1
  Pb  Pb42  1  0.49809072  0.49984081  0.16489171  1
  Pb  Pb43  1  0.83625663  0.83052538  0.83096965  1
  Pb  Pb44  1  0.49847086  0.83340514  0.83351944  1
  Pb  Pb45  1  0.16428360  0.49976661  0.49650923  1
  Pb  Pb46  1  0.83291786  0.16805833  0.83336807  1
  Pb  Pb47  1  0.16399116  0.16685208  0.50359379  1
  Pb  Pb48  1  0.16733112  0.16622103  0.16528972  1
  Pb  Pb49  1  0.16686360  0.83340273  0.49952528  1
  Pb  Pb50  1  0.50210084  0.50273722  0.50249417  1
  Pb  Pb51  1  0.16686424  0.49992523  0.83468508  1
  Pb  Pb52  1  0.83503562  0.49759695  0.16668092  1
  Pb  Pb53  1  0.50188691  0.16485667  0.50025305  1
  I  I54  1  0.16758424  -0.00270434  0.16439871  1
  I  I55  1  0.16306975  -0.00004713  0.49683225  1
  I  I56  1  0.17126509  0.00002427  0.83907929  1
  I  I57  1  0.16422029  0.33474495  0.16337642  1
  I  I58  1  0.16541427  0.33329139  0.49940756  1
  I  I59  1  0.16655599  0.33117511  0.83610280  1
  I  I60  1  0.17012869  0.66843877  0.16021835  1
  I  I61  1  0.16426562  0.66679545  0.50535628  1
  I  I62  1  0.16675281  0.66887126  0.83533097  1
  I  I63  1  0.49830488  0.00001244  0.16472026  1
  I  I64  1  0.50580379  -0.00310783  0.50105807  1
  I  I65  1  0.49771655  0.00254386  0.83449153  1
  I  I66  1  0.50215221  0.33038624  0.16369644  1
  I  I67  1  0.50137618  0.33334413  0.49785308  1
  I  I68  1  0.49821314  0.33214050  0.83882914  1
  I  I69  1  0.49755515  0.66951774  0.16846568  1
  I  I70  1  0.50527782  0.67062787  0.49532812  1
  I  I71  1  0.50206249  0.66462935  0.83269905  1
  I  I72  1  0.83452742  0.00351674  0.17081804  1
  I  I73  1  0.83034753  -0.00000295  0.49568676  1
  I  I74  1  0.83236627  -0.00009893  0.83190704  1
  I  I75  1  0.83009791  0.32969040  0.17118228  1
  I  I76  1  0.83502984  0.33325888  0.50092072  1
  I  I77  1  0.83486823  0.33593111  0.82851739  1
  I  I78  1  0.83239135  0.66677240  0.16746635  1
  I  I79  1  0.83035116  0.66676419  0.50499729  1
  I  I80  1  0.82879472  0.66266248  0.82920031  1
  I  I81  1  0.16501672  0.16593431  -0.00270161  1
  I  I82  1  0.16742270  0.16650845  0.33320989  1
  I  I83  1  0.17168944  0.16116157  0.67165256  1
  I  I84  1  0.16384876  0.50177176  0.00225775  1
  I  I85  1  0.16569970  0.50676024  0.32882268  1
  I  I86  1  0.16703851  0.50068167  0.66679903  1
  I  I87  1  0.17220786  0.83288279  0.00082671  1
  I  I88  1  0.16718817  0.82961871  0.33009511  1
  I  I89  1  0.16663002  0.83675913  0.66924338  1
  I  I90  1  0.50248002  0.16422556  0.00031072  1
  I  I91  1  0.50199781  0.16428120  0.33056205  1
  I  I92  1  0.49796076  0.16850586  0.66959380  1
  I  I93  1  0.50569198  0.50041432  -0.00326704  1
  I  I94  1  0.49991514  0.49818818  0.33333223  1
  I  I95  1  0.50023485  0.49497155  0.67058322  1
  I  I96  1  0.49689003  0.83455524  0.00268439  1
  I  I97  1  0.49789369  0.83850732  0.33209326  1
  I  I98  1  0.50303530  0.83356727  0.66467188  1
  I  I99  1  0.83314628  0.16862215  0.00217302  1
  I  I100  1  0.82917214  0.16878874  0.33333168  1
  I  I101  1  0.83409762  0.16542994  0.66422405  1
  I  I102  1  0.83202915  0.49706212  -0.00239340  1
  I  I103  1  0.83616954  0.50147840  0.33607131  1
  I  I104  1  0.83111602  0.49734975  0.66648713  1
  I  I105  1  0.83168252  0.83342889  -0.00000609  1
  I  I106  1  0.83395210  0.82903064  0.33666054  1
  I  I107  1  0.82807462  0.83904342  0.66285942  1
  I  I108  1  -0.00191986  0.16724681  0.16901102  1
  I  I109  1  -0.00453304  0.16351368  0.49413513  1
  I  I110  1  0.00191497  0.16498169  0.83383605  1
  I  I111  1  0.00283207  0.50476851  0.16438705  1
  I  I112  1  -0.00428485  0.50258266  0.50809060  1
  I  I113  1  -0.00217149  0.49954941  0.82989648  1
  I  I114  1  0.00256581  0.83122284  0.16439844  1
  I  I115  1  -0.00300840  0.83321866  0.50071398  1
  I  I116  1  0.00403753  0.83852311  0.83855187  1
  I  I117  1  0.33627503  0.16522015  0.16310951  1
  I  I118  1  0.33370239  0.16438786  0.49734298  1
  I  I119  1  0.33441650  0.16848135  0.84014584  1
  I  I120  1  0.33038348  0.50048838  0.16197575  1
  I  I121  1  0.33368820  0.50211151  0.50205265  1
  I  I122  1  0.33562951  0.49910424  0.83619952  1
  I  I123  1  0.33380665  0.83546268  0.16842339  1
  I  I124  1  0.33611424  0.83426520  0.49931978  1
  I  I125  1  0.33054016  0.83221117  0.83285292  1
  I  I126  1  0.66562580  0.16209608  0.16408373  1
  I  I127  1  0.67020025  0.16816977  0.50089838  1
  I  I128  1  0.66396465  0.16889854  0.83446429  1
  I  I129  1  0.66661163  0.50176476  0.16705297  1
  I  I130  1  0.67048346  0.49774869  0.50053291  1
  I  I131  1  0.66654407  0.49394071  0.83023861  1
  I  I132  1  0.66383947  0.83547149  0.16859236  1
  I  I133  1  0.66692076  0.83338298  0.49527938  1
  I  I134  1  0.66671917  0.83498589  0.83487307  1
