# generated using pymatgen
data_Cs27Sn13Pb14I81
_symmetry_space_group_name_H-M   'P 1'
_cell_length_a   18.97665576
_cell_length_b   18.97712790
_cell_length_c   18.97674353
_cell_angle_alpha   90.00072257
_cell_angle_beta   90.00350726
_cell_angle_gamma   90.00143719
_symmetry_Int_Tables_number   1
_chemical_formula_structural   Cs27Sn13Pb14I81
_chemical_formula_sum   'Cs27 Sn13 Pb14 I81'
_cell_volume   6833.95085469
_cell_formula_units_Z   1
loop_
 _symmetry_equiv_pos_site_id
 _symmetry_equiv_pos_as_xyz
  1  'x, y, z'
loop_
 _atom_site_type_symbol
 _atom_site_label
 _atom_site_symmetry_multiplicity
 _atom_site_fract_x
 _atom_site_fract_y
 _atom_site_fract_z
 _atom_site_occupancy
  Cs  Cs0  1  -0.00506444  0.00296452  0.00130629  1
  Cs  Cs1  1  -0.00331990  -0.00253272  0.33016302  1
  Cs  Cs2  1  0.00260371  0.00234608  0.66846789  1
  Cs  Cs3  1  -0.00180802  0.32763227  -0.00187109  1
  Cs  Cs4  1  -0.00027391  0.34082371  0.33482298  1
  Cs  Cs5  1  0.00048585  0.33483774  0.66796462  1
  Cs  Cs6  1  0.00134583  0.66856695  0.00016218  1
  Cs  Cs7  1  0.00006902  0.66492145  0.33410902  1
  Cs  Cs8  1  -0.00049271  0.66340907  0.66492199  1
  Cs  Cs9  1  0.33288092  0.00016881  0.00130143  1
  Cs  Cs10  1  0.33506199  -0.00066676  0.33356743  1
  Cs  Cs11  1  0.33348958  0.00192475  0.66638687  1
  Cs  Cs12  1  0.33486767  0.33503828  0.00268605  1
  Cs  Cs13  1  0.33267884  0.33407874  0.33245594  1
  Cs  Cs14  1  0.33005348  0.32425799  0.66367493  1
  Cs  Cs15  1  0.33409121  0.66406371  -0.00020073  1
  Cs  Cs16  1  0.33285853  0.66720502  0.33143516  1
  Cs  Cs17  1  0.33460783  0.66918431  0.66980013  1
  Cs  Cs18  1  0.67233994  -0.00021805  0.00022512  1
  Cs  Cs19  1  0.66669382  0.00084491  0.33322831  1
  Cs  Cs20  1  0.66421107  -0.00176296  0.66436631  1
  Cs  Cs21  1  0.66694387  0.33481034  -0.00147017  1
  Cs  Cs22  1  0.66610637  0.33292248  0.33355251  1
  Cs  Cs23  1  0.66898721  0.33753010  0.66544713  1
  Cs  Cs24  1  0.66608230  0.66519865  -0.00946945  1
  Cs  Cs25  1  0.66612162  0.66678520  0.33416580  1
  Cs  Cs26  1  0.66681430  0.66421723  0.67179423  1
  Sn  Sn27  1  0.16725537  0.16598209  0.16719195  1
  Sn  Sn28  1  0.49971145  0.83386176  0.16686480  1
  Sn  Sn29  1  0.16671376  0.83343584  0.49990961  1
  Sn  Sn30  1  0.83319807  0.83404489  0.49996713  1
  Sn  Sn31  1  0.83301916  0.50044739  0.16634481  1
  Sn  Sn32  1  0.49945910  0.16572292  0.16573491  1
  Sn  Sn33  1  0.83365360  0.16618385  0.49989385  1
  Sn  Sn34  1  0.50006455  0.83215193  0.49933216  1
  Sn  Sn35  1  0.50020045  0.16626888  0.83449310  1
  Sn  Sn36  1  0.16704647  0.50016130  0.83342265  1
  Sn  Sn37  1  0.16678802  0.83285344  0.83364522  1
  Sn  Sn38  1  0.49929812  0.50095853  0.49975924  1
  Sn  Sn39  1  0.16742774  0.83417901  0.16650801  1
  Pb  Pb40  1  0.16511960  0.50036087  0.16496736  1
  Pb  Pb41  1  0.83299036  0.16838342  0.16851454  1
  Pb  Pb42  1  0.50126293  0.16605700  0.49923059  1
  Pb  Pb43  1  0.16427770  0.16426922  0.49712941  1
  Pb  Pb44  1  0.16912012  0.50238456  0.50193964  1
  Pb  Pb45  1  0.83586305  0.50001082  0.83599207  1
  Pb  Pb46  1  0.16820972  0.16602754  0.83567731  1
  Pb  Pb47  1  0.49756314  0.49737274  0.83062182  1
  Pb  Pb48  1  0.83046059  0.16649818  0.83046079  1
  Pb  Pb49  1  0.50159176  0.50048851  0.16786812  1
  Pb  Pb50  1  0.83282476  0.83147115  0.16824308  1
  Pb  Pb51  1  0.83154645  0.50065584  0.49887809  1
  Pb  Pb52  1  0.49813028  0.83499010  0.83369838  1
  Pb  Pb53  1  0.83634333  0.83347748  0.83017160  1
  I  I54  1  0.17001482  -0.00146216  0.16560633  1
  I  I55  1  0.17250804  -0.00423366  0.50507913  1
  I  I56  1  0.16866664  -0.00309615  0.83029240  1
  I  I57  1  0.16985732  0.33076776  0.16431265  1
  I  I58  1  0.16654312  0.33324254  0.50079747  1
  I  I59  1  0.16841368  0.33514297  0.83534045  1
  I  I60  1  0.16951164  0.67033346  0.16874030  1
  I  I61  1  0.16183183  0.67102237  0.49454634  1
  I  I62  1  0.16756392  0.66837439  0.83481488  1
  I  I63  1  0.49596462  -0.00062998  0.16987227  1
  I  I64  1  0.49847187  -0.00329569  0.49914941  1
  I  I65  1  0.49650838  0.00263046  0.83166910  1
  I  I66  1  0.49688820  0.33047996  0.16572700  1
  I  I67  1  0.50365683  0.33480198  0.50041494  1
  I  I68  1  0.49734296  0.32984803  0.83814241  1
  I  I69  1  0.49584653  0.67008314  0.17084595  1
  I  I70  1  0.50152666  0.66915985  0.49438193  1
  I  I71  1  0.50040285  0.66677807  0.83490248  1
  I  I72  1  0.83391552  -0.00019870  0.16717836  1
  I  I73  1  0.83068942  -0.00151929  0.49792433  1
  I  I74  1  0.83627732  -0.00004994  0.83643874  1
  I  I75  1  0.83394925  0.33569452  0.17077209  1
  I  I76  1  0.82936648  0.33142733  0.49752504  1
  I  I77  1  0.83636268  0.33323099  0.83021876  1
  I  I78  1  0.83460750  0.66429427  0.17094882  1
  I  I79  1  0.83565973  0.66994157  0.49753460  1
  I  I80  1  0.83019939  0.66680368  0.83163348  1
  I  I81  1  0.16726555  0.16138906  0.00354266  1
  I  I82  1  0.17384440  0.16252277  0.32930089  1
  I  I83  1  0.16784582  0.16610189  0.66658682  1
  I  I84  1  0.16661149  0.50657137  -0.00258766  1
  I  I85  1  0.16577983  0.49998835  0.33329463  1
  I  I86  1  0.16683174  0.50487657  0.66971036  1
  I  I87  1  0.17231644  0.83243807  0.00115221  1
  I  I88  1  0.16751714  0.83810960  0.33312744  1
  I  I89  1  0.16644309  0.82827705  0.66600273  1
  I  I90  1  0.49573112  0.16202393  0.00183267  1
  I  I91  1  0.49793672  0.16525711  0.33043255  1
  I  I92  1  0.50129555  0.16692891  0.66801521  1
  I  I93  1  0.50120840  0.50176528  -0.00015726  1
  I  I94  1  0.50049397  0.49999420  0.33591614  1
  I  I95  1  0.50183221  0.50616065  0.66293471  1
  I  I96  1  0.49484657  0.83546290  0.00321311  1
  I  I97  1  0.49558996  0.83548845  0.33358008  1
  I  I98  1  0.49935490  0.83207533  0.66367240  1
  I  I99  1  0.83503076  0.16881850  0.00027551  1
  I  I100  1  0.83046044  0.16216648  0.33605332  1
  I  I101  1  0.83187874  0.16281570  0.66255862  1
  I  I102  1  0.83160845  0.49946128  0.00352399  1
  I  I103  1  0.83473565  0.49957681  0.33130225  1
  I  I104  1  0.83292052  0.49949043  0.66661699  1
  I  I105  1  0.83329140  0.83163253  0.00007973  1
  I  I106  1  0.83694316  0.83588636  0.33650343  1
  I  I107  1  0.83088122  0.83596983  0.66169537  1
  I  I108  1  0.00257787  0.16250278  0.16781210  1
  I  I109  1  -0.00325745  0.16184040  0.49827953  1
  I  I110  1  0.00025623  0.16713929  0.83402875  1
  I  I111  1  -0.00238661  0.49996061  0.16847474  1
  I  I112  1  0.00018971  0.50027866  0.49994687  1
  I  I113  1  0.00372880  0.50406609  0.83188071  1
  I  I114  1  0.00316747  0.83594202  0.16743809  1
  I  I115  1  0.00061755  0.83843724  0.49958639  1
  I  I116  1  0.00482055  0.83083074  0.83518953  1
  I  I117  1  0.33395054  0.16315138  0.16407903  1
  I  I118  1  0.33325436  0.16704799  0.50180988  1
  I  I119  1  0.33602798  0.16635518  0.83271512  1
  I  I120  1  0.33334133  0.49938433  0.16692579  1
  I  I121  1  0.33689889  0.50384314  0.49822353  1
  I  I122  1  0.33018944  0.50596085  0.83518988  1
  I  I123  1  0.33303259  0.83667509  0.17193777  1
  I  I124  1  0.33353651  0.82862980  0.49889182  1
  I  I125  1  0.32999348  0.83101053  0.82901632  1
  I  I126  1  0.66344744  0.16302044  0.16531038  1
  I  I127  1  0.66886673  0.16093085  0.49795858  1
  I  I128  1  0.66262497  0.16622463  0.84062247  1
  I  I129  1  0.66902213  0.49912556  0.16994499  1
  I  I130  1  0.66375540  0.50480269  0.49900299  1
  I  I131  1  0.66631155  0.49870302  0.83286686  1
  I  I132  1  0.66336194  0.83729349  0.17308163  1
  I  I133  1  0.66559942  0.83442493  0.49388324  1
  I  I134  1  0.66645307  0.83434601  0.83346031  1
