# generated using pymatgen
data_Cs27Sn14Pb13I81
_symmetry_space_group_name_H-M   'P 1'
_cell_length_a   18.98281051
_cell_length_b   18.96769732
_cell_length_c   18.97748748
_cell_angle_alpha   89.99856285
_cell_angle_beta   89.99947707
_cell_angle_gamma   90.00010160
_symmetry_Int_Tables_number   1
_chemical_formula_structural   Cs27Sn14Pb13I81
_chemical_formula_sum   'Cs27 Sn14 Pb13 I81'
_cell_volume   6833.03800990
_cell_formula_units_Z   1
loop_
 _symmetry_equiv_pos_site_id
 _symmetry_equiv_pos_as_xyz
  1  'x, y, z'
loop_
 _atom_site_type_symbol
 _atom_site_label
 _atom_site_symmetry_multiplicity
 _atom_site_fract_x
 _atom_site_fract_y
 _atom_site_fract_z
 _atom_site_occupancy
  Cs  Cs0  1  -0.00123239  -0.00219735  -0.00152192  1
  Cs  Cs1  1  0.00220944  -0.00608892  0.33497745  1
  Cs  Cs2  1  0.00219931  0.00131595  0.66759824  1
  Cs  Cs3  1  0.00145204  0.33543524  -0.00024056  1
  Cs  Cs4  1  0.00278757  0.33330197  0.33256270  1
  Cs  Cs5  1  0.00563367  0.33368198  0.66903631  1
  Cs  Cs6  1  -0.00356950  0.66804559  0.00111878  1
  Cs  Cs7  1  -0.00472081  0.67241776  0.33377294  1
  Cs  Cs8  1  -0.00428180  0.66397558  0.66810546  1
  Cs  Cs9  1  0.33645774  -0.00078633  -0.00007071  1
  Cs  Cs10  1  0.33226901  -0.00166989  0.33414479  1
  Cs  Cs11  1  0.33087982  -0.00017434  0.66609317  1
  Cs  Cs12  1  0.33240434  0.33412437  0.00273012  1
  Cs  Cs13  1  0.33205565  0.33323230  0.33067888  1
  Cs  Cs14  1  0.32811776  0.33636728  0.66779319  1
  Cs  Cs15  1  0.33351172  0.66783197  -0.00017585  1
  Cs  Cs16  1  0.33241526  0.66590209  0.33463032  1
  Cs  Cs17  1  0.33786789  0.66391702  0.66539588  1
  Cs  Cs18  1  0.66452652  0.00150745  -0.00216640  1
  Cs  Cs19  1  0.66610286  0.00344047  0.33441584  1
  Cs  Cs20  1  0.66663356  0.00056774  0.67022948  1
  Cs  Cs21  1  0.66620824  0.33081878  0.00158163  1
  Cs  Cs22  1  0.66703980  0.33064889  0.33259773  1
  Cs  Cs23  1  0.66652465  0.33573160  0.66493951  1
  Cs  Cs24  1  0.66805731  0.66695721  -0.00056188  1
  Cs  Cs25  1  0.67415162  0.66583424  0.34229026  1
  Cs  Cs26  1  0.66557568  0.65932968  0.65866876  1
  Sn  Sn27  1  0.50007110  0.16662251  0.50038754  1
  Sn  Sn28  1  0.83262547  0.16644993  0.83316159  1
  Sn  Sn29  1  0.16664327  0.50024379  0.49874332  1
  Sn  Sn30  1  0.16712457  0.83320784  0.83339409  1
  Sn  Sn31  1  0.49976832  0.16646922  0.16664101  1
  Sn  Sn32  1  0.83306476  0.16660617  0.50031270  1
  Sn  Sn33  1  0.83230505  0.83405679  0.83325402  1
  Sn  Sn34  1  0.16724182  0.49992170  0.16771849  1
  Sn  Sn35  1  0.49987824  0.50059072  0.16670278  1
  Sn  Sn36  1  0.50044329  0.83385542  0.83391713  1
  Sn  Sn37  1  0.50036346  0.83295514  0.16665072  1
  Sn  Sn38  1  0.50026433  0.16642159  0.83295212  1
  Sn  Sn39  1  0.83376315  0.16643950  0.16661983  1
  Sn  Sn40  1  0.16667514  0.16660888  0.16645211  1
  Pb  Pb41  1  0.16859439  0.83293328  0.16518995  1
  Pb  Pb42  1  0.83602910  0.49677572  0.49980208  1
  Pb  Pb43  1  0.16679392  0.83032858  0.50278035  1
  Pb  Pb44  1  0.16695684  0.16517316  0.83585088  1
  Pb  Pb45  1  0.83317237  0.83630671  0.50305489  1
  Pb  Pb46  1  0.16681110  0.50297907  0.83449729  1
  Pb  Pb47  1  0.16671167  0.16769960  0.49754901  1
  Pb  Pb48  1  0.50011171  0.49964849  0.83570623  1
  Pb  Pb49  1  0.49835412  0.49696400  0.49694852  1
  Pb  Pb50  1  0.83332970  0.49800521  0.16667217  1
  Pb  Pb51  1  0.83017100  0.83600963  0.16487321  1
  Pb  Pb52  1  0.50000259  0.83563653  0.50019599  1
  Pb  Pb53  1  0.83293743  0.49923878  0.83344109  1
  I  I54  1  0.16763331  0.00277937  0.16472032  1
  I  I55  1  0.16630404  0.00012817  0.49909130  1
  I  I56  1  0.16705293  -0.00267209  0.83578342  1
  I  I57  1  0.17142263  0.33257792  0.16865929  1
  I  I58  1  0.16688346  0.33561440  0.49871381  1
  I  I59  1  0.16621191  0.33337788  0.83201299  1
  I  I60  1  0.17305452  0.66378682  0.16826652  1
  I  I61  1  0.16794464  0.66263329  0.49168306  1
  I  I62  1  0.16734339  0.67093452  0.83532863  1
  I  I63  1  0.49987241  0.00171066  0.16503629  1
  I  I64  1  0.50273312  0.00416054  0.49491428  1
  I  I65  1  0.50056178  0.00083999  0.83866063  1
  I  I66  1  0.49926671  0.33144940  0.16653069  1
  I  I67  1  0.50427169  0.32876400  0.50097457  1
  I  I68  1  0.50517969  0.32942058  0.83444316  1
  I  I69  1  0.49225681  0.66686574  0.15889930  1
  I  I70  1  0.49817939  0.66627841  0.50093520  1
  I  I71  1  0.49967358  0.67012295  0.83889500  1
  I  I72  1  0.83470744  0.00467220  0.16860766  1
  I  I73  1  0.83014693  0.00457163  0.49651689  1
  I  I74  1  0.83240344  0.00132359  0.83408555  1
  I  I75  1  0.82838760  0.32886823  0.16352978  1
  I  I76  1  0.82791416  0.32860183  0.50216531  1
  I  I77  1  0.82832864  0.32870711  0.83393275  1
  I  I78  1  0.83390574  0.66713845  0.16377924  1
  I  I79  1  0.83441071  0.66660282  0.50188770  1
  I  I80  1  0.83385257  0.67005586  0.83508291  1
  I  I81  1  0.16764328  0.17271594  0.00392908  1
  I  I82  1  0.16791734  0.16810283  0.32935999  1
  I  I83  1  0.16677908  0.16827050  0.66678287  1
  I  I84  1  0.17087183  0.49552790  0.00362251  1
  I  I85  1  0.17195253  0.49359162  0.33153795  1
  I  I86  1  0.16542742  0.49993749  0.66458214  1
  I  I87  1  0.16530796  0.83287916  -0.00285599  1
  I  I88  1  0.16858723  0.83571240  0.33309047  1
  I  I89  1  0.16957239  0.83488116  0.67098654  1
  I  I90  1  0.50218445  0.16617714  0.00076109  1
  I  I91  1  0.50286624  0.16712867  0.33175305  1
  I  I92  1  0.50710488  0.16105341  0.66769613  1
  I  I93  1  0.49289038  0.49427476  0.00380441  1
  I  I94  1  0.49750968  0.49925643  0.32885460  1
  I  I95  1  0.49798195  0.50021235  0.66631002  1
  I  I96  1  0.49936832  0.83879075  -0.00046561  1
  I  I97  1  0.49739277  0.83586942  0.33015445  1
  I  I98  1  0.49957231  0.83893646  0.67047696  1
  I  I99  1  0.83004962  0.16341853  -0.00009941  1
  I  I100  1  0.82876679  0.16945935  0.33269720  1
  I  I101  1  0.82598773  0.16251478  0.66752305  1
  I  I102  1  0.83680074  0.49700812  0.00021226  1
  I  I103  1  0.83067091  0.49836233  0.33319287  1
  I  I104  1  0.83602249  0.49826030  0.66652420  1
  I  I105  1  0.83563990  0.83933018  -0.00333947  1
  I  I106  1  0.83314632  0.83414526  0.33328751  1
  I  I107  1  0.83129457  0.83949089  0.67140171  1
  I  I108  1  -0.00006747  0.17262846  0.16579204  1
  I  I109  1  -0.00273706  0.16868069  0.50118165  1
  I  I110  1  -0.00274297  0.16260755  0.83307668  1
  I  I111  1  0.00326870  0.49399016  0.16908598  1
  I  I112  1  0.00361811  0.49783855  0.49325271  1
  I  I113  1  0.00011101  0.49950328  0.83491096  1
  I  I114  1  -0.00027605  0.83364911  0.16387142  1
  I  I115  1  -0.00004444  0.83615398  0.50094709  1
  I  I116  1  -0.00076104  0.83798663  0.83272733  1
  I  I117  1  0.33482581  0.16769336  0.16628865  1
  I  I118  1  0.33614565  0.16762963  0.49991763  1
  I  I119  1  0.33653361  0.16258780  0.83372368  1
  I  I120  1  0.33361539  0.49342197  0.16902663  1
  I  I121  1  0.33065608  0.49699661  0.49861024  1
  I  I122  1  0.33339229  0.49928921  0.83124563  1
  I  I123  1  0.33664200  0.83935137  0.15968563  1
  I  I124  1  0.33345584  0.83726873  0.50315844  1
  I  I125  1  0.33492796  0.83743823  0.83792012  1
  I  I126  1  0.66553878  0.16672769  0.16627620  1
  I  I127  1  0.66622417  0.16634544  0.49544322  1
  I  I128  1  0.66608269  0.15905305  0.83823902  1
  I  I129  1  0.66342790  0.49771550  0.16368965  1
  I  I130  1  0.66660530  0.50160983  0.49987235  1
  I  I131  1  0.66639993  0.50360922  0.83517416  1
  I  I132  1  0.66207279  0.83369366  0.16035619  1
  I  I133  1  0.66656829  0.82961399  0.50022264  1
  I  I134  1  0.66581950  0.84067763  0.83929401  1
