# generated using pymatgen
data_Cs27Sn14Pb13I81
_symmetry_space_group_name_H-M   'P 1'
_cell_length_a   18.97672373
_cell_length_b   18.98246543
_cell_length_c   18.96958393
_cell_angle_alpha   89.99995041
_cell_angle_beta   90.00109452
_cell_angle_gamma   90.00028924
_symmetry_Int_Tables_number   1
_chemical_formula_structural   Cs27Sn14Pb13I81
_chemical_formula_sum   'Cs27 Sn14 Pb13 I81'
_cell_volume   6833.31841290
_cell_formula_units_Z   1
loop_
 _symmetry_equiv_pos_site_id
 _symmetry_equiv_pos_as_xyz
  1  'x, y, z'
loop_
 _atom_site_type_symbol
 _atom_site_label
 _atom_site_symmetry_multiplicity
 _atom_site_fract_x
 _atom_site_fract_y
 _atom_site_fract_z
 _atom_site_occupancy
  Cs  Cs0  1  0.00033825  0.00141123  0.00022478  1
  Cs  Cs1  1  -0.00334522  -0.00499178  0.32830818  1
  Cs  Cs2  1  0.00201367  -0.00045849  0.66810407  1
  Cs  Cs3  1  -0.00468088  0.33115799  -0.00192344  1
  Cs  Cs4  1  0.00424549  0.33755214  0.33710275  1
  Cs  Cs5  1  0.00206070  0.33404393  0.66490908  1
  Cs  Cs6  1  0.00078730  0.66672764  -0.00122885  1
  Cs  Cs7  1  0.00132494  0.66712851  0.33716935  1
  Cs  Cs8  1  0.00124573  0.66694638  0.66496756  1
  Cs  Cs9  1  0.32932879  0.00040946  0.00437153  1
  Cs  Cs10  1  0.33462415  0.00731695  0.32919420  1
  Cs  Cs11  1  0.33365705  -0.00252368  0.66602578  1
  Cs  Cs12  1  0.33069900  0.33456740  0.00532152  1
  Cs  Cs13  1  0.32725616  0.32822675  0.32817780  1
  Cs  Cs14  1  0.33322295  0.33148364  0.66467378  1
  Cs  Cs15  1  0.33458134  0.66596098  0.00210738  1
  Cs  Cs16  1  0.33183251  0.66464377  0.32633350  1
  Cs  Cs17  1  0.33561161  0.66943412  0.66801288  1
  Cs  Cs18  1  0.66833911  0.00010495  -0.00167341  1
  Cs  Cs19  1  0.66715577  0.00086351  0.33110368  1
  Cs  Cs20  1  0.66535623  -0.00030164  0.66706001  1
  Cs  Cs21  1  0.66932274  0.33403877  -0.00155190  1
  Cs  Cs22  1  0.66555536  0.32939641  0.33160196  1
  Cs  Cs23  1  0.66646613  0.33431587  0.66770115  1
  Cs  Cs24  1  0.66508734  0.66434363  -0.00201154  1
  Cs  Cs25  1  0.66797448  0.67020331  0.33516634  1
  Cs  Cs26  1  0.66454529  0.66658562  0.66725330  1
  Sn  Sn27  1  0.83322182  0.16798796  0.16666530  1
  Sn  Sn28  1  0.83361454  0.50013962  0.83353279  1
  Sn  Sn29  1  0.50029771  0.16673441  0.83317341  1
  Sn  Sn30  1  0.49968721  0.83364957  0.83320103  1
  Sn  Sn31  1  0.83332678  0.83302441  0.83300024  1
  Sn  Sn32  1  0.49987576  0.50029028  0.50034645  1
  Sn  Sn33  1  0.83254092  0.16676683  0.83280104  1
  Sn  Sn34  1  0.16700090  0.83226128  0.83275185  1
  Sn  Sn35  1  0.49870213  0.83249990  0.50061787  1
  Sn  Sn36  1  0.49947530  0.49960526  0.83253429  1
  Sn  Sn37  1  0.83296084  0.49966755  0.16640438  1
  Sn  Sn38  1  0.16815499  0.83357956  0.50074653  1
  Sn  Sn39  1  0.16686350  0.50066841  0.83294519  1
  Sn  Sn40  1  0.83351596  0.16666280  0.50040791  1
  Pb  Pb41  1  0.16673656  0.83312221  0.16664789  1
  Pb  Pb42  1  0.83123650  0.49830870  0.50033874  1
  Pb  Pb43  1  0.16349527  0.50018586  0.16382595  1
  Pb  Pb44  1  0.83314098  0.83262338  0.16386762  1
  Pb  Pb45  1  0.50145227  0.16653819  0.50190357  1
  Pb  Pb46  1  0.16327491  0.16681556  0.16661632  1
  Pb  Pb47  1  0.16693848  0.16663159  0.83322194  1
  Pb  Pb48  1  0.50007951  0.83324538  0.16691210  1
  Pb  Pb49  1  0.16406560  0.16353842  0.50032009  1
  Pb  Pb50  1  0.50235203  0.16682527  0.16336890  1
  Pb  Pb51  1  0.50240537  0.50001563  0.16684868  1
  Pb  Pb52  1  0.16982890  0.50209662  0.50238069  1
  Pb  Pb53  1  0.83283137  0.83513200  0.50243340  1
  I  I54  1  0.16363117  -0.00013484  0.16336894  1
  I  I55  1  0.17326112  -0.00439357  0.51006447  1
  I  I56  1  0.16559622  -0.00340708  0.82995363  1
  I  I57  1  0.16898532  0.33366316  0.16509502  1
  I  I58  1  0.16667053  0.33346911  0.50096928  1
  I  I59  1  0.16549924  0.33638458  0.83459567  1
  I  I60  1  0.16269318  0.66654897  0.16742146  1
  I  I61  1  0.16440241  0.67010934  0.50378501  1
  I  I62  1  0.16462175  0.66725802  0.83024337  1
  I  I63  1  0.50348013  0.00012931  0.16643885  1
  I  I64  1  0.49810505  -0.00307767  0.50589574  1
  I  I65  1  0.50459318  -0.00078070  0.82962945  1
  I  I66  1  0.49942999  0.33340412  0.16702952  1
  I  I67  1  0.50483232  0.33582241  0.50675367  1
  I  I68  1  0.50475672  0.33416279  0.82946469  1
  I  I69  1  0.50382532  0.66652649  0.16161396  1
  I  I70  1  0.49912944  0.66729653  0.50987337  1
  I  I71  1  0.50338899  0.66668403  0.83026402  1
  I  I72  1  0.83323746  0.00291269  0.16543155  1
  I  I73  1  0.83172785  0.00304902  0.50075863  1
  I  I74  1  0.83062945  0.00039265  0.83313507  1
  I  I75  1  0.83229884  0.33302124  0.15867067  1
  I  I76  1  0.83032593  0.33041822  0.50574837  1
  I  I77  1  0.83065392  0.33323228  0.83464793  1
  I  I78  1  0.83282773  0.66348146  0.16016414  1
  I  I79  1  0.83505180  0.66682256  0.49897112  1
  I  I80  1  0.83124590  0.66619843  0.83803650  1
  I  I81  1  0.16553122  0.16375201  -0.00056721  1
  I  I82  1  0.16619786  0.16475503  0.33355263  1
  I  I83  1  0.16136300  0.16884084  0.66708053  1
  I  I84  1  0.17214699  0.50661131  -0.00485148  1
  I  I85  1  0.16568635  0.50192163  0.33355441  1
  I  I86  1  0.15930824  0.50120535  0.67076549  1
  I  I87  1  0.16647091  0.83042901  -0.00415893  1
  I  I88  1  0.17024440  0.83457027  0.33677975  1
  I  I89  1  0.16667742  0.83001080  0.66869637  1
  I  I90  1  0.50604434  0.16644635  -0.00526544  1
  I  I91  1  0.50312418  0.16544614  0.33341175  1
  I  I92  1  0.50787326  0.16665974  0.67039237  1
  I  I93  1  0.49896079  0.50109953  -0.00413268  1
  I  I94  1  0.50400404  0.50687217  0.33652913  1
  I  I95  1  0.50358189  0.50132516  0.66924407  1
  I  I96  1  0.50059047  0.83240332  -0.00456013  1
  I  I97  1  0.49621925  0.82791052  0.33724185  1
  I  I98  1  0.50030919  0.83274362  0.66865118  1
  I  I99  1  0.82959471  0.16731664  -0.00172178  1
  I  I100  1  0.83372242  0.17073812  0.33301320  1
  I  I101  1  0.82951115  0.16619460  0.66867129  1
  I  I102  1  0.83197209  0.49566171  -0.00284304  1
  I  I103  1  0.83049819  0.49421200  0.33105119  1
  I  I104  1  0.83436553  0.49928001  0.67052294  1
  I  I105  1  0.83315124  0.83782440  -0.00507652  1
  I  I106  1  0.83388926  0.83472734  0.33356811  1
  I  I107  1  0.83294433  0.83268913  0.67105587  1
  I  I108  1  -0.00512277  0.16927001  0.16065394  1
  I  I109  1  -0.00435072  0.16685489  0.50441333  1
  I  I110  1  -0.00364640  0.16621520  0.83491626  1
  I  I111  1  -0.00451246  0.49509652  0.16067481  1
  I  I112  1  0.00000647  0.50013111  0.50012842  1
  I  I113  1  -0.00097324  0.50232797  0.83840243  1
  I  I114  1  -0.00028726  0.83479580  0.16651661  1
  I  I115  1  0.00198208  0.83618938  0.50524158  1
  I  I116  1  -0.00013989  0.83135085  0.83031712  1
  I  I117  1  0.33345204  0.16549802  0.16547876  1
  I  I118  1  0.33348212  0.16827827  0.50277892  1
  I  I119  1  0.33659945  0.16644636  0.83108384  1
  I  I120  1  0.33329187  0.50102535  0.16532632  1
  I  I121  1  0.33773430  0.50043691  0.50785511  1
  I  I122  1  0.33425053  0.50283878  0.82815956  1
  I  I123  1  0.33335180  0.83297442  0.16042156  1
  I  I124  1  0.33426378  0.82944193  0.51188250  1
  I  I125  1  0.33391110  0.83085974  0.82930488  1
  I  I126  1  0.67066781  0.17035298  0.16763482  1
  I  I127  1  0.66969080  0.16428993  0.49970893  1
  I  I128  1  0.66803963  0.16602914  0.83362692  1
  I  I129  1  0.67027281  0.49571353  0.15816965  1
  I  I130  1  0.66362383  0.50681339  0.50755692  1
  I  I131  1  0.66685014  0.50169868  0.83400391  1
  I  I132  1  0.66692865  0.83402838  0.16716255  1
  I  I133  1  0.66362623  0.83081317  0.50509556  1
  I  I134  1  0.66644150  0.83218494  0.83054017  1
