# generated using pymatgen
data_Cs27Sn13Pb14I81
_symmetry_space_group_name_H-M   'P 1'
_cell_length_a   18.97972919
_cell_length_b   18.97620614
_cell_length_c   18.97710239
_cell_angle_alpha   90.00237897
_cell_angle_beta   89.99894266
_cell_angle_gamma   89.99962961
_symmetry_Int_Tables_number   1
_chemical_formula_structural   Cs27Sn13Pb14I81
_chemical_formula_sum   'Cs27 Sn13 Pb14 I81'
_cell_volume   6834.85493122
_cell_formula_units_Z   1
loop_
 _symmetry_equiv_pos_site_id
 _symmetry_equiv_pos_as_xyz
  1  'x, y, z'
loop_
 _atom_site_type_symbol
 _atom_site_label
 _atom_site_symmetry_multiplicity
 _atom_site_fract_x
 _atom_site_fract_y
 _atom_site_fract_z
 _atom_site_occupancy
  Cs  Cs0  1  -0.00190861  -0.00059982  -0.00017345  1
  Cs  Cs1  1  0.00063837  -0.00137681  0.33290562  1
  Cs  Cs2  1  -0.00104106  -0.00449003  0.66706931  1
  Cs  Cs3  1  0.00032123  0.33470202  0.00082406  1
  Cs  Cs4  1  0.00183845  0.33095396  0.33371069  1
  Cs  Cs5  1  0.00244695  0.33491920  0.66552605  1
  Cs  Cs6  1  0.00110055  0.66607914  0.00140963  1
  Cs  Cs7  1  -0.00130587  0.66857750  0.33075300  1
  Cs  Cs8  1  -0.00040987  0.66707812  0.66713338  1
  Cs  Cs9  1  0.34093468  0.00147516  -0.00220576  1
  Cs  Cs10  1  0.33189166  0.00031086  0.33111818  1
  Cs  Cs11  1  0.33587824  -0.00282161  0.66968015  1
  Cs  Cs12  1  0.33320554  0.33308187  0.00009258  1
  Cs  Cs13  1  0.33169434  0.33239173  0.33538736  1
  Cs  Cs14  1  0.32945153  0.33508553  0.66486438  1
  Cs  Cs15  1  0.33098600  0.66740541  0.00106642  1
  Cs  Cs16  1  0.33996337  0.66637682  0.33387896  1
  Cs  Cs17  1  0.33524300  0.66732449  0.66505996  1
  Cs  Cs18  1  0.65933075  0.01033718  -0.00791707  1
  Cs  Cs19  1  0.66634789  -0.00146782  0.33467141  1
  Cs  Cs20  1  0.66479002  0.00240521  0.66966717  1
  Cs  Cs21  1  0.66476140  0.32887477  -0.00049679  1
  Cs  Cs22  1  0.66659866  0.33347784  0.33272169  1
  Cs  Cs23  1  0.66733415  0.33169789  0.66731632  1
  Cs  Cs24  1  0.66645400  0.66536079  0.00337630  1
  Cs  Cs25  1  0.66491011  0.66752193  0.33301059  1
  Cs  Cs26  1  0.66778597  0.66746705  0.66468784  1
  Sn  Sn27  1  0.49994335  0.50039341  0.83325317  1
  Sn  Sn28  1  0.83355379  0.83317573  0.16679872  1
  Sn  Sn29  1  0.16591686  0.50070992  0.16648490  1
  Sn  Sn30  1  0.83296566  0.16649854  0.49993213  1
  Sn  Sn31  1  0.83377184  0.50002040  0.49955604  1
  Sn  Sn32  1  0.16668048  0.49937534  0.83395162  1
  Sn  Sn33  1  0.16594945  0.83240202  0.16751291  1
  Sn  Sn34  1  0.16603253  0.83285450  0.49912014  1
  Sn  Sn35  1  0.83415745  0.83332436  0.49933688  1
  Sn  Sn36  1  0.83423281  0.50046587  0.16680770  1
  Sn  Sn37  1  0.83317050  0.50010142  0.83367476  1
  Sn  Sn38  1  0.16595275  0.16700931  0.83347864  1
  Sn  Sn39  1  0.50025488  0.16690829  0.49959165  1
  Pb  Pb40  1  0.50032373  0.83047701  0.83338661  1
  Pb  Pb41  1  0.50277916  0.49813768  0.50193622  1
  Pb  Pb42  1  0.83305447  0.83129051  0.83414858  1
  Pb  Pb43  1  0.16656378  0.83272445  0.83411517  1
  Pb  Pb44  1  0.83545944  0.16921936  0.83092309  1
  Pb  Pb45  1  0.49996301  0.16691591  0.16945413  1
  Pb  Pb46  1  0.16647306  0.16626538  0.16437633  1
  Pb  Pb47  1  0.16485896  0.50220435  0.49944623  1
  Pb  Pb48  1  0.50066344  0.83330707  0.16664928  1
  Pb  Pb49  1  0.50005003  0.49988926  0.16471013  1
  Pb  Pb50  1  0.49753056  0.16935021  0.83104437  1
  Pb  Pb51  1  0.50060294  0.83538959  0.49992446  1
  Pb  Pb52  1  0.83336162  0.16638572  0.16878782  1
  Pb  Pb53  1  0.16616857  0.16394029  0.50181674  1
  I  I54  1  0.16154343  -0.00367216  0.17034997  1
  I  I55  1  0.16108528  -0.00374500  0.49615771  1
  I  I56  1  0.16693762  0.00211353  0.83094987  1
  I  I57  1  0.16227389  0.33671970  0.16402639  1
  I  I58  1  0.16588858  0.33346042  0.49864354  1
  I  I59  1  0.16622781  0.33576032  0.83690784  1
  I  I60  1  0.16191030  0.66587217  0.16357395  1
  I  I61  1  0.16090427  0.66998402  0.50214658  1
  I  I62  1  0.16583312  0.66299698  0.83419966  1
  I  I63  1  0.49916154  -0.00008549  0.16544649  1
  I  I64  1  0.50582424  0.00308263  0.50194018  1
  I  I65  1  0.49776737  0.00070708  0.83290332  1
  I  I66  1  0.50018871  0.33376939  0.16669344  1
  I  I67  1  0.50482581  0.33037636  0.50120566  1
  I  I68  1  0.50323907  0.33697168  0.83259364  1
  I  I69  1  0.50000698  0.66645527  0.16662492  1
  I  I70  1  0.50028399  0.66656083  0.50182714  1
  I  I71  1  0.49699881  0.66206132  0.83200009  1
  I  I72  1  0.83962600  -0.00366385  0.17334853  1
  I  I73  1  0.83378229  -0.00095227  0.49496606  1
  I  I74  1  0.83535683  0.00028344  0.83281042  1
  I  I75  1  0.83738886  0.33693762  0.16702078  1
  I  I76  1  0.82875061  0.33413714  0.50126942  1
  I  I77  1  0.83173753  0.33788376  0.83389841  1
  I  I78  1  0.83739751  0.66560718  0.17088314  1
  I  I79  1  0.83825552  0.66651121  0.50089036  1
  I  I80  1  0.83701062  0.66234111  0.82796032  1
  I  I81  1  0.16675746  0.16833484  -0.00351341  1
  I  I82  1  0.16764718  0.16944425  0.33354271  1
  I  I83  1  0.16614892  0.17393227  0.66941051  1
  I  I84  1  0.16220831  0.50162038  -0.00016266  1
  I  I85  1  0.16155695  0.50146330  0.33031977  1
  I  I86  1  0.16547329  0.49760942  0.66925878  1
  I  I87  1  0.16106963  0.83103934  0.00344842  1
  I  I88  1  0.16202318  0.82934097  0.33293747  1
  I  I89  1  0.16224020  0.83378023  0.66420994  1
  I  I90  1  0.49917700  0.16627669  -0.00065072  1
  I  I91  1  0.50380193  0.16736605  0.33761383  1
  I  I92  1  0.50569752  0.16683578  0.66364326  1
  I  I93  1  0.50411715  0.49889698  -0.00341917  1
  I  I94  1  0.49954625  0.49872537  0.33349122  1
  I  I95  1  0.49809411  0.49913143  0.66996231  1
  I  I96  1  0.49910443  0.83455559  0.00012862  1
  I  I97  1  0.49921346  0.83303797  0.33346275  1
  I  I98  1  0.49860182  0.83311006  0.66633186  1
  I  I99  1  0.83405908  0.16612813  -0.00023869  1
  I  I100  1  0.83111117  0.17179699  0.33725162  1
  I  I101  1  0.83031892  0.16584251  0.66271016  1
  I  I102  1  0.83463737  0.50556876  0.00035842  1
  I  I103  1  0.83806701  0.50017022  0.33317614  1
  I  I104  1  0.83339442  0.49959436  0.66656644  1
  I  I105  1  0.84017048  0.82651995  0.00383109  1
  I  I106  1  0.83751711  0.82840126  0.33412661  1
  I  I107  1  0.83762293  0.83203658  0.66343591  1
  I  I108  1  -0.00004828  0.16781825  0.16895246  1
  I  I109  1  -0.00306063  0.16894077  0.50152723  1
  I  I110  1  0.00297450  0.17303841  0.83109569  1
  I  I111  1  -0.00054192  0.50369460  0.16165747  1
  I  I112  1  -0.00366716  0.49521900  0.50514165  1
  I  I113  1  -0.00001585  0.49626865  0.83351606  1
  I  I114  1  -0.00019524  0.82790099  0.17203063  1
  I  I115  1  -0.00133950  0.83530646  0.49705939  1
  I  I116  1  -0.00004357  0.83225359  0.83067103  1
  I  I117  1  0.33291764  0.16702799  0.16906521  1
  I  I118  1  0.33514798  0.16554745  0.50275172  1
  I  I119  1  0.32998517  0.17212974  0.83081044  1
  I  I120  1  0.32973506  0.50415220  0.16162861  1
  I  I121  1  0.33319134  0.49958579  0.50079357  1
  I  I122  1  0.33188210  0.49583042  0.83783345  1
  I  I123  1  0.32969563  0.82824827  0.17093087  1
  I  I124  1  0.33043390  0.83467063  0.49682900  1
  I  I125  1  0.33290869  0.83186693  0.83189773  1
  I  I126  1  0.66702325  0.16722274  0.16361388  1
  I  I127  1  0.66846068  0.16588859  0.50082701  1
  I  I128  1  0.66672137  0.16775572  0.83387563  1
  I  I129  1  0.67054229  0.50448084  0.16697777  1
  I  I130  1  0.67148990  0.50503405  0.49946459  1
  I  I131  1  0.66795478  0.50191935  0.83183980  1
  I  I132  1  0.67089206  0.82605516  0.17337168  1
  I  I133  1  0.67064931  0.83028633  0.49584946  1
  I  I134  1  0.66704603  0.83193880  0.83216060  1
