# generated using pymatgen
data_Cs27Sn13Pb14I81
_symmetry_space_group_name_H-M   'P 1'
_cell_length_a   18.98578808
_cell_length_b   18.97744447
_cell_length_c   18.97215490
_cell_angle_alpha   89.99917303
_cell_angle_beta   89.99922330
_cell_angle_gamma   90.00030917
_symmetry_Int_Tables_number   1
_chemical_formula_structural   Cs27Sn13Pb14I81
_chemical_formula_sum   'Cs27 Sn13 Pb14 I81'
_cell_volume   6835.70039992
_cell_formula_units_Z   1
loop_
 _symmetry_equiv_pos_site_id
 _symmetry_equiv_pos_as_xyz
  1  'x, y, z'
loop_
 _atom_site_type_symbol
 _atom_site_label
 _atom_site_symmetry_multiplicity
 _atom_site_fract_x
 _atom_site_fract_y
 _atom_site_fract_z
 _atom_site_occupancy
  Cs  Cs0  1  0.00076342  0.00143010  -0.00169381  1
  Cs  Cs1  1  0.00023320  0.00012407  0.33384677  1
  Cs  Cs2  1  -0.00127266  0.00157652  0.66735215  1
  Cs  Cs3  1  0.00093084  0.33229419  -0.00286201  1
  Cs  Cs4  1  0.00026158  0.33247594  0.33364941  1
  Cs  Cs5  1  -0.00131293  0.33186929  0.66857547  1
  Cs  Cs6  1  -0.00022701  0.66663903  0.00347320  1
  Cs  Cs7  1  0.00556070  0.66798334  0.32486395  1
  Cs  Cs8  1  -0.00085397  0.66651467  0.66695024  1
  Cs  Cs9  1  0.33833719  -0.00089244  0.00094919  1
  Cs  Cs10  1  0.33216427  -0.00246018  0.33204618  1
  Cs  Cs11  1  0.33475957  -0.00234970  0.66614737  1
  Cs  Cs12  1  0.33542593  0.33269503  -0.00034415  1
  Cs  Cs13  1  0.33518066  0.33665211  0.33214783  1
  Cs  Cs14  1  0.33362076  0.33431778  0.66698387  1
  Cs  Cs15  1  0.33159481  0.66990944  0.00073908  1
  Cs  Cs16  1  0.32758602  0.66494262  0.33653709  1
  Cs  Cs17  1  0.33494900  0.66821717  0.66279306  1
  Cs  Cs18  1  0.66275620  -0.00173217  0.00240871  1
  Cs  Cs19  1  0.66739234  0.00265501  0.33133777  1
  Cs  Cs20  1  0.66832830  -0.00125512  0.66646371  1
  Cs  Cs21  1  0.66490529  0.33350415  0.00075986  1
  Cs  Cs22  1  0.66494409  0.33220079  0.33197310  1
  Cs  Cs23  1  0.66834619  0.33367554  0.66684782  1
  Cs  Cs24  1  0.66821197  0.66912874  0.00280140  1
  Cs  Cs25  1  0.66406415  0.66452026  0.32631214  1
  Cs  Cs26  1  0.66644055  0.66687523  0.66722717  1
  Sn  Sn27  1  0.83443149  0.16691172  0.16735239  1
  Sn  Sn28  1  0.83331811  0.83265870  0.50026563  1
  Sn  Sn29  1  0.50023829  0.16730867  0.83209736  1
  Sn  Sn30  1  0.16654292  0.50102545  0.83288448  1
  Sn  Sn31  1  0.83432080  0.83241158  0.83244464  1
  Sn  Sn32  1  0.83331453  0.50089664  0.83254680  1
  Sn  Sn33  1  0.16575603  0.16685425  0.16743102  1
  Sn  Sn34  1  0.83361248  0.50051482  0.50024926  1
  Sn  Sn35  1  0.16563131  0.83254351  0.83282786  1
  Sn  Sn36  1  0.50004366  0.16665441  0.50121504  1
  Sn  Sn37  1  0.50024839  0.49938668  0.83304317  1
  Sn  Sn38  1  0.16673069  0.16688329  0.49941701  1
  Sn  Sn39  1  0.83342259  0.16679599  0.49937018  1
  Pb  Pb40  1  0.16890612  0.16640478  0.83316435  1
  Pb  Pb41  1  0.16429074  0.83538270  0.50208047  1
  Pb  Pb42  1  0.83337231  0.83586043  0.16666197  1
  Pb  Pb43  1  0.16651733  0.83591149  0.16410598  1
  Pb  Pb44  1  0.50043060  0.83260466  0.83316091  1
  Pb  Pb45  1  0.49965302  0.83293887  0.16740587  1
  Pb  Pb46  1  0.16426917  0.49797522  0.50211955  1
  Pb  Pb47  1  0.83341889  0.49750777  0.16655431  1
  Pb  Pb48  1  0.83139676  0.16642598  0.83339063  1
  Pb  Pb49  1  0.49980128  0.50007588  0.16424804  1
  Pb  Pb50  1  0.50266002  0.83516738  0.49986091  1
  Pb  Pb51  1  0.49968031  0.16676906  0.16733336  1
  Pb  Pb52  1  0.50229158  0.49828704  0.50184121  1
  Pb  Pb53  1  0.16658553  0.49747000  0.16412135  1
  I  I54  1  0.16208612  0.00415025  0.16815566  1
  I  I55  1  0.16401605  0.00399096  0.50000495  1
  I  I56  1  0.16191707  -0.00199123  0.83314339  1
  I  I57  1  0.16215368  0.32924371  0.16787068  1
  I  I58  1  0.16359541  0.32940796  0.50010304  1
  I  I59  1  0.16359281  0.33551886  0.83331494  1
  I  I60  1  0.16710358  0.66669007  0.16690923  1
  I  I61  1  0.16586775  0.66660605  0.49999494  1
  I  I62  1  0.16726776  0.66612395  0.83291699  1
  I  I63  1  0.50131395  0.00096731  0.16148614  1
  I  I64  1  0.50228958  0.00460766  0.50743483  1
  I  I65  1  0.49994223  0.00260475  0.83082988  1
  I  I66  1  0.50100282  0.33281588  0.16609148  1
  I  I67  1  0.50290315  0.32944092  0.50280676  1
  I  I68  1  0.50030063  0.33323169  0.82984465  1
  I  I69  1  0.50269077  0.66638878  0.16289890  1
  I  I70  1  0.50163103  0.66639586  0.50272154  1
  I  I71  1  0.50070216  0.66334783  0.83416693  1
  I  I72  1  0.83620661  0.00403323  0.16983842  1
  I  I73  1  0.83328982  0.00111703  0.50138999  1
  I  I74  1  0.83690362  -0.00227325  0.83047518  1
  I  I75  1  0.83633090  0.32935630  0.16982104  1
  I  I76  1  0.83334646  0.33235711  0.50161928  1
  I  I77  1  0.83563417  0.33581903  0.83069735  1
  I  I78  1  0.83230699  0.66663495  0.16862968  1
  I  I79  1  0.83272657  0.66645847  0.50921007  1
  I  I80  1  0.83192060  0.66603918  0.82557186  1
  I  I81  1  0.16244989  0.16701876  0.00178056  1
  I  I82  1  0.16624598  0.16636558  0.33436345  1
  I  I83  1  0.16275428  0.16694691  0.66417508  1
  I  I84  1  0.16338890  0.50039261  -0.00475867  1
  I  I85  1  0.16472089  0.50002439  0.33364780  1
  I  I86  1  0.16773426  0.49942407  0.67065506  1
  I  I87  1  0.16004153  0.83166707  -0.00434765  1
  I  I88  1  0.16526174  0.83370660  0.33354322  1
  I  I89  1  0.16438576  0.83314133  0.67030248  1
  I  I90  1  0.50010589  0.17007663  -0.00270084  1
  I  I91  1  0.50206198  0.16558415  0.33676208  1
  I  I92  1  0.50073790  0.17009006  0.66639823  1
  I  I93  1  0.50337813  0.49115883  -0.00535087  1
  I  I94  1  0.50323899  0.49673324  0.33392105  1
  I  I95  1  0.49887472  0.49650621  0.67049085  1
  I  I96  1  0.50260231  0.83799139  -0.00087189  1
  I  I97  1  0.50334843  0.83832912  0.33392372  1
  I  I98  1  0.49858492  0.83478220  0.66686181  1
  I  I99  1  0.83661411  0.16699889  0.00195658  1
  I  I100  1  0.83146948  0.16634513  0.33540571  1
  I  I101  1  0.83568282  0.16676584  0.66377463  1
  I  I102  1  0.83287055  0.50267564  -0.00382868  1
  I  I103  1  0.83290472  0.50039284  0.33666862  1
  I  I104  1  0.83342978  0.49677165  0.66768681  1
  I  I105  1  0.83594463  0.82993441  -0.00346068  1
  I  I106  1  0.83193734  0.83331717  0.33671133  1
  I  I107  1  0.83667898  0.83647477  0.66731126  1
  I  I108  1  -0.00058180  0.16670206  0.17373461  1
  I  I109  1  -0.00120268  0.16656745  0.49585189  1
  I  I110  1  -0.00006137  0.16875637  0.83196708  1
  I  I111  1  -0.00015170  0.49912827  0.16311123  1
  I  I112  1  -0.00401400  0.49562809  0.50747829  1
  I  I113  1  -0.00082062  0.50305070  0.82980871  1
  I  I114  1  -0.00018723  0.83387944  0.16676373  1
  I  I115  1  -0.00398284  0.83760538  0.50380407  1
  I  I116  1  -0.00111582  0.82765205  0.82994732  1
  I  I117  1  0.33048963  0.16648698  0.16803965  1
  I  I118  1  0.33324523  0.16699819  0.50146610  1
  I  I119  1  0.33647919  0.17019854  0.83037610  1
  I  I120  1  0.33312357  0.49507267  0.16452955  1
  I  I121  1  0.33321923  0.49642932  0.50253692  1
  I  I122  1  0.33326710  0.49743743  0.83508305  1
  I  I123  1  0.33279927  0.83897026  0.16179174  1
  I  I124  1  0.33299426  0.83680519  0.50240915  1
  I  I125  1  0.33072863  0.83226889  0.83498839  1
  I  I126  1  0.66925531  0.16649352  0.16956520  1
  I  I127  1  0.66802854  0.16657444  0.50069313  1
  I  I128  1  0.66376537  0.17005235  0.83000051  1
  I  I129  1  0.66700814  0.49627017  0.16419785  1
  I  I130  1  0.67080211  0.49644841  0.50718955  1
  I  I131  1  0.66765921  0.49846932  0.82895531  1
  I  I132  1  0.66729158  0.83741404  0.16270239  1
  I  I133  1  0.67148112  0.83693373  0.50910957  1
  I  I134  1  0.67001389  0.83186956  0.82944971  1
