# generated using pymatgen
data_Cs27Sn14Pb13I81
_symmetry_space_group_name_H-M   'P 1'
_cell_length_a   18.96271046
_cell_length_b   18.97361224
_cell_length_c   18.99221736
_cell_angle_alpha   89.99999994
_cell_angle_beta   90.00000002
_cell_angle_gamma   90.00252885
_symmetry_Int_Tables_number   1
_chemical_formula_structural   Cs27Sn14Pb13I81
_chemical_formula_sum   'Cs27 Sn14 Pb13 I81'
_cell_volume   6833.23105931
_cell_formula_units_Z   1
loop_
 _symmetry_equiv_pos_site_id
 _symmetry_equiv_pos_as_xyz
  1  'x, y, z'
loop_
 _atom_site_type_symbol
 _atom_site_label
 _atom_site_symmetry_multiplicity
 _atom_site_fract_x
 _atom_site_fract_y
 _atom_site_fract_z
 _atom_site_occupancy
  Cs  Cs0  1  -0.00206188  0.00069645  0.00104269  1
  Cs  Cs1  1  -0.00206207  0.00069657  0.33229050  1
  Cs  Cs2  1  -0.00134745  0.00672581  0.66666662  1
  Cs  Cs3  1  0.00165619  0.33372756  0.00007054  1
  Cs  Cs4  1  0.00165610  0.33372736  0.33326277  1
  Cs  Cs5  1  0.00218917  0.32863190  0.66666669  1
  Cs  Cs6  1  0.00003443  0.66592332  -0.00131362  1
  Cs  Cs7  1  0.00003443  0.66592327  0.33464688  1
  Cs  Cs8  1  0.00403779  0.66615333  0.66666666  1
  Cs  Cs9  1  0.33380629  -0.00364670  0.00641082  1
  Cs  Cs10  1  0.33380633  -0.00364687  0.32692252  1
  Cs  Cs11  1  0.33411959  -0.00193301  0.66666661  1
  Cs  Cs12  1  0.33357068  0.33139393  0.00011610  1
  Cs  Cs13  1  0.33357069  0.33139389  0.33321696  1
  Cs  Cs14  1  0.33520979  0.33301751  0.66666661  1
  Cs  Cs15  1  0.32471824  0.67392804  -0.00385221  1
  Cs  Cs16  1  0.32471821  0.67392793  0.33718551  1
  Cs  Cs17  1  0.32631958  0.67487796  0.66666661  1
  Cs  Cs18  1  0.66640824  -0.00170554  0.00123365  1
  Cs  Cs19  1  0.66640830  -0.00170544  0.33209968  1
  Cs  Cs20  1  0.66650870  0.00202035  0.66666676  1
  Cs  Cs21  1  0.66495121  0.33664790  -0.00147921  1
  Cs  Cs22  1  0.66495121  0.33664785  0.33481270  1
  Cs  Cs23  1  0.66470261  0.33351814  0.66666672  1
  Cs  Cs24  1  0.66815437  0.66342183  -0.00026558  1
  Cs  Cs25  1  0.66815438  0.66342190  0.33359910  1
  Cs  Cs26  1  0.66600345  0.66450358  0.66666659  1
  Sn  Sn27  1  0.83298405  0.50052624  0.83288318  1
  Sn  Sn28  1  0.16836715  0.16695265  0.50038438  1
  Sn  Sn29  1  0.83281674  0.83230365  0.83281571  1
  Sn  Sn30  1  0.16836714  0.16695263  0.83294895  1
  Sn  Sn31  1  0.49911268  0.16705523  0.50043027  1
  Sn  Sn32  1  0.83281677  0.83230365  0.50051765  1
  Sn  Sn33  1  0.83298407  0.50052622  0.50045017  1
  Sn  Sn34  1  0.50015626  0.49980631  0.50015136  1
  Sn  Sn35  1  0.49969257  0.50044438  0.16666664  1
  Sn  Sn36  1  0.49911272  0.16705527  0.83290306  1
  Sn  Sn37  1  0.50015630  0.49980634  0.83318196  1
  Sn  Sn38  1  0.83290676  0.49981972  0.16666669  1
  Sn  Sn39  1  0.83277365  0.83269188  0.16666666  1
  Sn  Sn40  1  0.83261477  0.16758710  0.16666666  1
  Pb  Pb41  1  0.83242233  0.16730332  0.49809461  1
  Pb  Pb42  1  0.16345326  0.83680440  0.50014658  1
  Pb  Pb43  1  0.50209473  0.83303995  0.83328184  1
  Pb  Pb44  1  0.50225681  0.82925582  0.16666669  1
  Pb  Pb45  1  0.50214113  0.16843662  0.16666667  1
  Pb  Pb46  1  0.16369320  0.83314415  0.16666668  1
  Pb  Pb47  1  0.83242231  0.16730332  0.83523878  1
  Pb  Pb48  1  0.16740810  0.49999094  0.16666666  1
  Pb  Pb49  1  0.16723748  0.49792882  0.83319379  1
  Pb  Pb50  1  0.50209472  0.83303995  0.50005150  1
  Pb  Pb51  1  0.16723749  0.49792882  0.50013951  1
  Pb  Pb52  1  0.16453783  0.16695294  0.16666668  1
  Pb  Pb53  1  0.16345326  0.83680440  0.83318671  1
  I  I54  1  0.16356715  0.00025990  0.16666652  1
  I  I55  1  0.17021102  0.00460162  0.50474205  1
  I  I56  1  0.17021089  0.00460166  0.82859154  1
  I  I57  1  0.15964798  0.33319998  0.16666656  1
  I  I58  1  0.16324362  0.33002684  0.50384758  1
  I  I59  1  0.16324358  0.33002684  0.82948597  1
  I  I60  1  0.16538224  0.66661173  0.16666699  1
  I  I61  1  0.16856299  0.66690757  0.49888551  1
  I  I62  1  0.16856282  0.66690758  0.83444764  1
  I  I63  1  0.50284222  -0.00011031  0.16666654  1
  I  I64  1  0.49896219  0.00329202  0.50559492  1
  I  I65  1  0.49896197  0.00329201  0.82773856  1
  I  I66  1  0.50859321  0.33650388  0.16666674  1
  I  I67  1  0.50355570  0.33399766  0.50072693  1
  I  I68  1  0.50355568  0.33399763  0.83260641  1
  I  I69  1  0.50859828  0.66118319  0.16666676  1
  I  I70  1  0.50488780  0.66283240  0.50020953  1
  I  I71  1  0.50488799  0.66283238  0.83312371  1
  I  I72  1  0.83540745  -0.00045125  0.16666686  1
  I  I73  1  0.83458855  -0.00200178  0.49900949  1
  I  I74  1  0.83458874  -0.00200177  0.83432368  1
  I  I75  1  0.83077750  0.33490263  0.16666664  1
  I  I76  1  0.83267677  0.33645822  0.49997739  1
  I  I77  1  0.83267678  0.33645821  0.83335589  1
  I  I78  1  0.82937925  0.66576649  0.16666665  1
  I  I79  1  0.82799054  0.66525873  0.49575763  1
  I  I80  1  0.82799047  0.66525876  0.83757576  1
  I  I81  1  0.16889217  0.16756203  -0.00294908  1
  I  I82  1  0.16889228  0.16756209  0.33628240  1
  I  I83  1  0.16711577  0.16777514  0.66666671  1
  I  I84  1  0.16435946  0.49624976  -0.00015076  1
  I  I85  1  0.16435918  0.49624946  0.33348408  1
  I  I86  1  0.16266333  0.50014578  0.66666665  1
  I  I87  1  0.16456439  0.83572052  -0.00029421  1
  I  I88  1  0.16456441  0.83572097  0.33362756  1
  I  I89  1  0.16290684  0.83115289  0.66666669  1
  I  I90  1  0.49822717  0.17116432  -0.00285470  1
  I  I91  1  0.49822702  0.17116418  0.33618804  1
  I  I92  1  0.49812306  0.17444458  0.66666668  1
  I  I93  1  0.50972668  0.49395199  -0.00068711  1
  I  I94  1  0.50972699  0.49395196  0.33402042  1
  I  I95  1  0.50945176  0.49341070  0.66666665  1
  I  I96  1  0.50359705  0.83596605  -0.00003125  1
  I  I97  1  0.50359702  0.83596644  0.33336458  1
  I  I98  1  0.50515972  0.83038028  0.66666663  1
  I  I99  1  0.83396079  0.16658859  0.00290360  1
  I  I100  1  0.83396086  0.16658869  0.33042978  1
  I  I101  1  0.83483863  0.16509934  0.66666670  1
  I  I102  1  0.82818867  0.50175687  -0.00003979  1
  I  I103  1  0.82818853  0.50175692  0.33337312  1
  I  I104  1  0.82760746  0.50637641  0.66666666  1
  I  I105  1  0.83328837  0.83124531  0.00009421  1
  I  I106  1  0.83328843  0.83124516  0.33323909  1
  I  I107  1  0.83281656  0.82735171  0.66666666  1
  I  I108  1  -0.00403885  0.16818029  0.16666671  1
  I  I109  1  0.00137949  0.16561186  0.50305954  1
  I  I110  1  0.00137950  0.16561194  0.83027370  1
  I  I111  1  -0.00443319  0.50063607  0.16666657  1
  I  I112  1  -0.00349468  0.50254668  0.49855962  1
  I  I113  1  -0.00349467  0.50254663  0.83477380  1
  I  I114  1  -0.00542967  0.83128281  0.16666655  1
  I  I115  1  -0.00496334  0.82796559  0.49856450  1
  I  I116  1  -0.00496334  0.82796554  0.83476891  1
  I  I117  1  0.33372530  0.16929514  0.16666659  1
  I  I118  1  0.33465127  0.17439589  0.50401282  1
  I  I119  1  0.33465126  0.17439595  0.82932067  1
  I  I120  1  0.33739768  0.49548682  0.16666693  1
  I  I121  1  0.33717676  0.49615007  0.49960767  1
  I  I122  1  0.33717674  0.49615010  0.83372553  1
  I  I123  1  0.33358582  0.83309562  0.16666664  1
  I  I124  1  0.33319963  0.82986174  0.50027372  1
  I  I125  1  0.33319961  0.82986161  0.83305960  1
  I  I126  1  0.67038270  0.16465721  0.16666674  1
  I  I127  1  0.66385950  0.16817594  0.50428896  1
  I  I128  1  0.66385950  0.16817579  0.82904424  1
  I  I129  1  0.66835980  0.49951616  0.16666645  1
  I  I130  1  0.66737625  0.49729514  0.49957509  1
  I  I131  1  0.66737625  0.49729499  0.83375838  1
  I  I132  1  0.67115094  0.83654111  0.16666662  1
  I  I133  1  0.67077547  0.83504415  0.49914007  1
  I  I134  1  0.67077546  0.83504460  0.83419323  1
