# generated using pymatgen
data_Cs27Sn13Pb14I81
_symmetry_space_group_name_H-M   'P 1'
_cell_length_a   18.97270626
_cell_length_b   18.98646930
_cell_length_c   18.97739950
_cell_angle_alpha   89.99976801
_cell_angle_beta   89.99950252
_cell_angle_gamma   89.99925937
_symmetry_Int_Tables_number   1
_chemical_formula_structural   Cs27Sn13Pb14I81
_chemical_formula_sum   'Cs27 Sn13 Pb14 I81'
_cell_volume   6836.12813480
_cell_formula_units_Z   1
loop_
 _symmetry_equiv_pos_site_id
 _symmetry_equiv_pos_as_xyz
  1  'x, y, z'
loop_
 _atom_site_type_symbol
 _atom_site_label
 _atom_site_symmetry_multiplicity
 _atom_site_fract_x
 _atom_site_fract_y
 _atom_site_fract_z
 _atom_site_occupancy
  Cs  Cs0  1  0.00173147  -0.00151986  0.00074073  1
  Cs  Cs1  1  -0.00155676  -0.00080203  0.33411995  1
  Cs  Cs2  1  -0.00140140  0.00166825  0.66524962  1
  Cs  Cs3  1  0.00047094  0.33238567  0.00140898  1
  Cs  Cs4  1  0.00025628  0.33709143  0.33209911  1
  Cs  Cs5  1  0.00019818  0.33138013  0.66724637  1
  Cs  Cs6  1  -0.00051767  0.66809456  0.00118851  1
  Cs  Cs7  1  -0.00074680  0.66432311  0.33273645  1
  Cs  Cs8  1  0.00089415  0.66744261  0.66734990  1
  Cs  Cs9  1  0.33233951  0.00233053  0.00111121  1
  Cs  Cs10  1  0.33551892  0.00182026  0.33357232  1
  Cs  Cs11  1  0.33421933  -0.00062027  0.66487199  1
  Cs  Cs12  1  0.33354685  0.32862365  0.00141681  1
  Cs  Cs13  1  0.33366130  0.33455601  0.33139964  1
  Cs  Cs14  1  0.33199440  0.33388266  0.66778874  1
  Cs  Cs15  1  0.33406598  0.66768630  -0.00014797  1
  Cs  Cs16  1  0.33447461  0.66440114  0.33400243  1
  Cs  Cs17  1  0.33323417  0.66716784  0.66684252  1
  Cs  Cs18  1  0.66534961  0.00204325  -0.00318865  1
  Cs  Cs19  1  0.66597926  0.00175879  0.33934124  1
  Cs  Cs20  1  0.66619654  0.00162561  0.66249859  1
  Cs  Cs21  1  0.66564260  0.33436352  -0.00555796  1
  Cs  Cs22  1  0.66698286  0.33548459  0.33393046  1
  Cs  Cs23  1  0.66743149  0.32918849  0.67307507  1
  Cs  Cs24  1  0.66649774  0.66507947  -0.00042454  1
  Cs  Cs25  1  0.66629942  0.66537574  0.33241742  1
  Cs  Cs26  1  0.66463379  0.67088474  0.67226920  1
  Sn  Sn27  1  0.83241392  0.49984925  0.16722630  1
  Sn  Sn28  1  0.83308254  0.16671738  0.16676902  1
  Sn  Sn29  1  0.50146926  0.50004601  0.49979016  1
  Sn  Sn30  1  0.16650572  0.50005105  0.83373751  1
  Sn  Sn31  1  0.16659001  0.16610267  0.50010429  1
  Sn  Sn32  1  0.83266954  0.83369056  0.16685464  1
  Sn  Sn33  1  0.16638345  0.16626052  0.83253316  1
  Sn  Sn34  1  0.16651857  0.83404194  0.49961621  1
  Sn  Sn35  1  0.50017277  0.83277918  0.16686919  1
  Sn  Sn36  1  0.16651430  0.83341061  0.83321276  1
  Sn  Sn37  1  0.83196325  0.50030936  0.50003853  1
  Sn  Sn38  1  0.50077343  0.50068122  0.16739915  1
  Sn  Sn39  1  0.16700444  0.83304014  0.16721533  1
  Pb  Pb40  1  0.49780274  0.16955432  0.49986178  1
  Pb  Pb41  1  0.16688825  0.50196849  0.16469092  1
  Pb  Pb42  1  0.49800280  0.83348149  0.83559198  1
  Pb  Pb43  1  0.50301667  0.16679615  0.16680442  1
  Pb  Pb44  1  0.16660504  0.50003485  0.50166523  1
  Pb  Pb45  1  0.83505340  0.83115945  0.49812620  1
  Pb  Pb46  1  0.49768982  0.50003988  0.83365648  1
  Pb  Pb47  1  0.83545132  0.16639069  0.83532974  1
  Pb  Pb48  1  0.83541760  0.50015920  0.83342763  1
  Pb  Pb49  1  0.83535220  0.16902596  0.49812624  1
  Pb  Pb50  1  0.16502949  0.16421971  0.16712001  1
  Pb  Pb51  1  0.83499844  0.83350359  0.83525860  1
  Pb  Pb52  1  0.49771433  0.16635233  0.83311525  1
  Pb  Pb53  1  0.49802705  0.83126489  0.49791004  1
  I  I54  1  0.16675412  -0.00406609  0.16224133  1
  I  I55  1  0.16605463  -0.00084900  0.50368801  1
  I  I56  1  0.16634878  -0.00055016  0.83454800  1
  I  I57  1  0.16608776  0.33335564  0.16578994  1
  I  I58  1  0.16631382  0.33139147  0.50547652  1
  I  I59  1  0.16635904  0.33292798  0.82798953  1
  I  I60  1  0.16257958  0.67021677  0.16718030  1
  I  I61  1  0.16648526  0.66915564  0.50000602  1
  I  I62  1  0.16650442  0.66761810  0.83391085  1
  I  I63  1  0.49779546  -0.00327121  0.16478076  1
  I  I64  1  0.49889935  -0.00018024  0.49825852  1
  I  I65  1  0.49644127  -0.00023962  0.83726856  1
  I  I66  1  0.50270864  0.33681442  0.16999344  1
  I  I67  1  0.49958057  0.33768155  0.49135471  1
  I  I68  1  0.49523040  0.33362348  0.83678018  1
  I  I69  1  0.50263469  0.66642857  0.16986663  1
  I  I70  1  0.49959256  0.66327821  0.49657988  1
  I  I71  1  0.49493238  0.66658370  0.83245242  1
  I  I72  1  0.83722194  -0.00107883  0.16446032  1
  I  I73  1  0.83501420  -0.00005781  0.49724889  1
  I  I74  1  0.83771386  -0.00005304  0.83698381  1
  I  I75  1  0.83109182  0.33472041  0.17044169  1
  I  I76  1  0.83417798  0.33701250  0.49234946  1
  I  I77  1  0.83847033  0.33348902  0.83706604  1
  I  I78  1  0.83452846  0.66653519  0.17000984  1
  I  I79  1  0.83435820  0.66316369  0.49271139  1
  I  I80  1  0.83889584  0.66662060  0.83609208  1
  I  I81  1  0.16484956  0.16626835  -0.00234741  1
  I  I82  1  0.16509312  0.16262660  0.33583157  1
  I  I83  1  0.16633746  0.16256816  0.66696979  1
  I  I84  1  0.16621891  0.49973969  -0.00306862  1
  I  I85  1  0.16645801  0.49998588  0.33317951  1
  I  I86  1  0.16665438  0.50432156  0.66941975  1
  I  I87  1  0.16598729  0.83263455  0.00052575  1
  I  I88  1  0.16591840  0.83724849  0.33274978  1
  I  I89  1  0.16669391  0.83294714  0.66669610  1
  I  I90  1  0.49674014  0.16910565  0.00042823  1
  I  I91  1  0.49469587  0.16516939  0.33309305  1
  I  I92  1  0.50111312  0.16943049  0.66638303  1
  I  I93  1  0.50343976  0.50427576  0.00354154  1
  I  I94  1  0.50194139  0.50408279  0.33208563  1
  I  I95  1  0.50138076  0.49896667  0.66373060  1
  I  I96  1  0.49813779  0.82599045  0.00462408  1
  I  I97  1  0.49655686  0.83081469  0.32933468  1
  I  I98  1  0.49600706  0.83024104  0.66634579  1
  I  I99  1  0.83651464  0.16933103  0.00394817  1
  I  I100  1  0.83760473  0.16438438  0.32993602  1
  I  I101  1  0.83455590  0.16997625  0.66639319  1
  I  I102  1  0.83087766  0.50091376  0.00380281  1
  I  I103  1  0.83206918  0.50039860  0.33167555  1
  I  I104  1  0.83215796  0.49949121  0.66361073  1
  I  I105  1  0.83684640  0.82939299  0.00484398  1
  I  I106  1  0.83787665  0.83422291  0.32911963  1
  I  I107  1  0.83731341  0.83016471  0.66628736  1
  I  I108  1  -0.00275323  0.16849978  0.16615294  1
  I  I109  1  0.00366406  0.16502329  0.50344703  1
  I  I110  1  0.00437117  0.16656273  0.83042895  1
  I  I111  1  -0.00279372  0.50110625  0.16972641  1
  I  I112  1  -0.00199870  0.50023309  0.49488983  1
  I  I113  1  0.00375905  0.50089798  0.83371676  1
  I  I114  1  0.00026886  0.83272548  0.16558376  1
  I  I115  1  0.00394107  0.83349379  0.49761023  1
  I  I116  1  0.00457022  0.83261510  0.83679252  1
  I  I117  1  0.33321102  0.16720201  0.16548019  1
  I  I118  1  0.32912762  0.16461426  0.50273667  1
  I  I119  1  0.32829264  0.16710851  0.83252074  1
  I  I120  1  0.33595900  0.50489839  0.16990708  1
  I  I121  1  0.33527214  0.50034298  0.49572275  1
  I  I122  1  0.32941876  0.50071703  0.83306077  1
  I  I123  1  0.33276539  0.82798450  0.16569411  1
  I  I124  1  0.32920271  0.83370098  0.49781524  1
  I  I125  1  0.32858314  0.83260476  0.83635092  1
  I  I126  1  0.67090325  0.16250502  0.16767841  1
  I  I127  1  0.66691563  0.16533668  0.49811531  1
  I  I128  1  0.66702556  0.16842892  0.83544723  1
  I  I129  1  0.66721820  0.50515862  0.17039947  1
  I  I130  1  0.66689956  0.50022115  0.49238224  1
  I  I131  1  0.66661624  0.49962640  0.83385511  1
  I  I132  1  0.66708650  0.83080700  0.16696981  1
  I  I133  1  0.66661335  0.83434025  0.49802991  1
  I  I134  1  0.66653776  0.83163379  0.83540738  1
