# generated using pymatgen
data_Cs27Sn13Pb14I81
_symmetry_space_group_name_H-M   'P 1'
_cell_length_a   18.99292604
_cell_length_b   18.98334124
_cell_length_c   18.99763026
_cell_angle_alpha   90.00117912
_cell_angle_beta   89.99938375
_cell_angle_gamma   90.00070402
_symmetry_Int_Tables_number   1
_chemical_formula_structural   Cs27Sn13Pb14I81
_chemical_formula_sum   'Cs27 Sn13 Pb14 I81'
_cell_volume   6849.58031705
_cell_formula_units_Z   1
loop_
 _symmetry_equiv_pos_site_id
 _symmetry_equiv_pos_as_xyz
  1  'x, y, z'
loop_
 _atom_site_type_symbol
 _atom_site_label
 _atom_site_symmetry_multiplicity
 _atom_site_fract_x
 _atom_site_fract_y
 _atom_site_fract_z
 _atom_site_occupancy
  Cs  Cs0  1  0.00190788  -0.00221358  -0.00044371  1
  Cs  Cs1  1  0.00095478  -0.00102156  0.33282344  1
  Cs  Cs2  1  -0.00045871  -0.00143223  0.66787348  1
  Cs  Cs3  1  0.00229478  0.33672307  -0.00647098  1
  Cs  Cs4  1  -0.00061885  0.33465063  0.33420090  1
  Cs  Cs5  1  -0.00311663  0.33320049  0.67172631  1
  Cs  Cs6  1  -0.00001371  0.66691409  -0.00031196  1
  Cs  Cs7  1  -0.00056768  0.66573644  0.33465479  1
  Cs  Cs8  1  -0.00066547  0.66887500  0.66471258  1
  Cs  Cs9  1  0.33203148  0.00209433  -0.00128576  1
  Cs  Cs10  1  0.32989748  0.00150250  0.33577545  1
  Cs  Cs11  1  0.33221633  -0.00193755  0.66573237  1
  Cs  Cs12  1  0.32849948  0.33685188  0.00083042  1
  Cs  Cs13  1  0.33291973  0.33281716  0.33232560  1
  Cs  Cs14  1  0.33237149  0.33313529  0.66736487  1
  Cs  Cs15  1  0.33779704  0.65725394  -0.00025146  1
  Cs  Cs16  1  0.33907763  0.66254615  0.33737234  1
  Cs  Cs17  1  0.34475559  0.67063441  0.66253274  1
  Cs  Cs18  1  0.66384792  -0.00336000  0.00457083  1
  Cs  Cs19  1  0.66898261  0.00257126  0.32793771  1
  Cs  Cs20  1  0.66862296  0.00235385  0.66815079  1
  Cs  Cs21  1  0.66888230  0.33396755  -0.00236306  1
  Cs  Cs22  1  0.66817895  0.33114909  0.33529013  1
  Cs  Cs23  1  0.67114661  0.33409574  0.66777053  1
  Cs  Cs24  1  0.66013941  0.67040368  -0.00108307  1
  Cs  Cs25  1  0.66496975  0.66652203  0.33118777  1
  Cs  Cs26  1  0.66123303  0.66428573  0.66879626  1
  Sn  Sn27  1  0.16659102  0.83288305  0.83442015  1
  Sn  Sn28  1  0.16673005  0.16765088  0.49960513  1
  Sn  Sn29  1  0.83384133  0.83338219  0.83253513  1
  Sn  Sn30  1  0.49920771  0.16659143  0.50016937  1
  Sn  Sn31  1  0.49984094  0.16665443  0.83343924  1
  Sn  Sn32  1  0.83438648  0.50107036  0.49913418  1
  Sn  Sn33  1  0.49944825  0.16675810  0.16644581  1
  Sn  Sn34  1  0.16583753  0.49929181  0.50033039  1
  Sn  Sn35  1  0.83433193  0.16779381  0.16641986  1
  Sn  Sn36  1  0.16618261  0.16624519  0.16717199  1
  Sn  Sn37  1  0.16693349  0.83310035  0.16590882  1
  Sn  Sn38  1  0.83325599  0.83251435  0.50052489  1
  Sn  Sn39  1  0.83364091  0.49937958  0.16717116  1
  Pb  Pb40  1  0.83346083  0.50285657  0.83336973  1
  Pb  Pb41  1  0.49992305  0.49671187  0.83331252  1
  Pb  Pb42  1  0.50368694  0.83652032  0.49962190  1
  Pb  Pb43  1  0.49956688  0.83537752  0.83349545  1
  Pb  Pb44  1  0.50063145  0.49711537  0.49987416  1
  Pb  Pb45  1  0.50310008  0.49697658  0.16684210  1
  Pb  Pb46  1  0.16814469  0.16514527  0.83316316  1
  Pb  Pb47  1  0.83151394  0.16409270  0.83675995  1
  Pb  Pb48  1  0.16536832  0.83326687  0.49975651  1
  Pb  Pb49  1  0.49605802  0.83542363  0.16686576  1
  Pb  Pb50  1  0.16665099  0.50364472  0.82955432  1
  Pb  Pb51  1  0.16476344  0.49992596  0.16852750  1
  Pb  Pb52  1  0.83406838  0.16680166  0.49862052  1
  Pb  Pb53  1  0.83496287  0.83296720  0.16667815  1
  I  I54  1  0.16431462  0.00179591  0.16929430  1
  I  I55  1  0.16942148  0.00277481  0.49842183  1
  I  I56  1  0.16299546  -0.00265880  0.83238260  1
  I  I57  1  0.16964788  0.32988841  0.16966126  1
  I  I58  1  0.16545685  0.33198679  0.49318373  1
  I  I59  1  0.16881579  0.33347818  0.83572841  1
  I  I60  1  0.16109019  0.66920194  0.16410189  1
  I  I61  1  0.16169239  0.66439408  0.49972019  1
  I  I62  1  0.16080511  0.67144753  0.84037135  1
  I  I63  1  0.50758466  0.00442825  0.16719427  1
  I  I64  1  0.49355899  0.00459692  0.49923882  1
  I  I65  1  0.50051303  0.00342116  0.83384623  1
  I  I66  1  0.49378167  0.32836371  0.16759363  1
  I  I67  1  0.50113719  0.32897785  0.49854217  1
  I  I68  1  0.50028043  0.32835531  0.83345327  1
  I  I69  1  0.50090273  0.66645225  0.16562319  1
  I  I70  1  0.49630159  0.66654145  0.50118584  1
  I  I71  1  0.50043520  0.66696849  0.83288701  1
  I  I72  1  0.83072886  0.00273690  0.16753651  1
  I  I73  1  0.83328306  -0.00195373  0.50200171  1
  I  I74  1  0.83723247  -0.00329791  0.82700170  1
  I  I75  1  0.83332547  0.33239526  0.17421187  1
  I  I76  1  0.83323307  0.33556283  0.49635820  1
  I  I77  1  0.83084196  0.33316596  0.83091288  1
  I  I78  1  0.83747997  0.66431747  0.16883899  1
  I  I79  1  0.84131815  0.66592657  0.49732657  1
  I  I80  1  0.83788692  0.67065100  0.83417171  1
  I  I81  1  0.16750248  0.16356001  0.00304428  1
  I  I82  1  0.17093002  0.16389411  0.33282390  1
  I  I83  1  0.17155205  0.16825939  0.66360849  1
  I  I84  1  0.16552134  0.49738724  -0.00011012  1
  I  I85  1  0.16384948  0.50004386  0.33637242  1
  I  I86  1  0.15872938  0.49217082  0.66176914  1
  I  I87  1  0.15890738  0.84234517  0.00047228  1
  I  I88  1  0.16372387  0.83731572  0.33113181  1
  I  I89  1  0.16305492  0.83455791  0.66851361  1
  I  I90  1  0.50127552  0.16481997  0.00104706  1
  I  I91  1  0.49948170  0.16658445  0.33296854  1
  I  I92  1  0.49488173  0.16565431  0.66586024  1
  I  I93  1  0.50172414  0.49833738  0.00028626  1
  I  I94  1  0.49823669  0.49839655  0.33342041  1
  I  I95  1  0.50175319  0.49748066  0.66627217  1
  I  I96  1  0.50675089  0.83769062  0.00016885  1
  I  I97  1  0.50066189  0.83617951  0.33331410  1
  I  I98  1  0.49525336  0.83737204  0.66651095  1
  I  I99  1  0.83439716  0.17106706  0.00488626  1
  I  I100  1  0.82913138  0.16468844  0.33059616  1
  I  I101  1  0.83190896  0.16823363  0.66682523  1
  I  I102  1  0.83329728  0.49480031  0.00293181  1
  I  I103  1  0.83726471  0.50153783  0.33419732  1
  I  I104  1  0.83681887  0.50112276  0.66336198  1
  I  I105  1  0.83587793  0.83560896  -0.00192744  1
  I  I106  1  0.83541582  0.83331466  0.33541908  1
  I  I107  1  0.84007452  0.83007135  0.66624022  1
  I  I108  1  0.00080386  0.16501556  0.17365568  1
  I  I109  1  0.00277755  0.16642738  0.49397803  1
  I  I110  1  -0.00008007  0.16677948  0.83293829  1
  I  I111  1  -0.00303075  0.49368597  0.16992149  1
  I  I112  1  -0.00065995  0.49750403  0.49519941  1
  I  I113  1  0.00003882  0.49559416  0.83496975  1
  I  I114  1  0.00254136  0.84133443  0.16616670  1
  I  I115  1  -0.00254598  0.83536379  0.50069861  1
  I  I116  1  -0.00001956  0.83570176  0.83311045  1
  I  I117  1  0.33272826  0.16009945  0.16812838  1
  I  I118  1  0.33234791  0.17119319  0.49481263  1
  I  I119  1  0.33602807  0.16322338  0.83681314  1
  I  I120  1  0.33319395  0.50065125  0.16777374  1
  I  I121  1  0.33056315  0.49814316  0.49998097  1
  I  I122  1  0.33301042  0.50280595  0.83273708  1
  I  I123  1  0.32804165  0.83972016  0.16142032  1
  I  I124  1  0.33330899  0.83077284  0.50092856  1
  I  I125  1  0.33027345  0.83624401  0.83693381  1
  I  I126  1  0.66677296  0.17084273  0.16794286  1
  I  I127  1  0.66468487  0.16539517  0.49834539  1
  I  I128  1  0.66362287  0.16446534  0.83102509  1
  I  I129  1  0.67115634  0.49595181  0.17391278  1
  I  I130  1  0.67019576  0.50284632  0.49631017  1
  I  I131  1  0.66699239  0.50194997  0.83124340  1
  I  I132  1  0.66672172  0.83465189  0.16628190  1
  I  I133  1  0.67166479  0.82796155  0.50584163  1
  I  I134  1  0.66941099  0.83480079  0.82899750  1
