# generated using pymatgen
data_Cs27Sn13Pb14I81
_symmetry_space_group_name_H-M   'P 1'
_cell_length_a   19.00341053
_cell_length_b   18.98325975
_cell_length_c   18.98937819
_cell_angle_alpha   89.99938500
_cell_angle_beta   89.99894935
_cell_angle_gamma   89.99928035
_symmetry_Int_Tables_number   1
_chemical_formula_structural   Cs27Sn13Pb14I81
_chemical_formula_sum   'Cs27 Sn13 Pb14 I81'
_cell_volume   6850.35510257
_cell_formula_units_Z   1
loop_
 _symmetry_equiv_pos_site_id
 _symmetry_equiv_pos_as_xyz
  1  'x, y, z'
loop_
 _atom_site_type_symbol
 _atom_site_label
 _atom_site_symmetry_multiplicity
 _atom_site_fract_x
 _atom_site_fract_y
 _atom_site_fract_z
 _atom_site_occupancy
  Cs  Cs0  1  0.00048222  -0.00562729  0.00399303  1
  Cs  Cs1  1  0.00114544  -0.00346594  0.33133683  1
  Cs  Cs2  1  0.00022037  0.00406751  0.66560718  1
  Cs  Cs3  1  -0.00159257  0.33518128  -0.00143936  1
  Cs  Cs4  1  0.00075094  0.33535039  0.33719649  1
  Cs  Cs5  1  0.00194971  0.33101443  0.66423810  1
  Cs  Cs6  1  -0.00905715  0.67420114  -0.00558090  1
  Cs  Cs7  1  -0.00127328  0.66633360  0.33134586  1
  Cs  Cs8  1  0.00262878  0.66881793  0.67254563  1
  Cs  Cs9  1  0.32986728  0.00353700  0.00729545  1
  Cs  Cs10  1  0.33191279  -0.00391249  0.32907797  1
  Cs  Cs11  1  0.33429733  -0.00486933  0.66551316  1
  Cs  Cs12  1  0.33361467  0.33159248  0.00151312  1
  Cs  Cs13  1  0.33406810  0.33511829  0.33238009  1
  Cs  Cs14  1  0.33201331  0.33395671  0.66665318  1
  Cs  Cs15  1  0.33430627  0.66498022  -0.00929523  1
  Cs  Cs16  1  0.33488534  0.66420640  0.33559314  1
  Cs  Cs17  1  0.33434316  0.67430233  0.67178883  1
  Cs  Cs18  1  0.66755024  0.00148489  0.00056893  1
  Cs  Cs19  1  0.66588237  0.00089676  0.33478092  1
  Cs  Cs20  1  0.66597104  0.00143122  0.66584811  1
  Cs  Cs21  1  0.66736502  0.33355722  0.00013823  1
  Cs  Cs22  1  0.66587009  0.33462556  0.33492357  1
  Cs  Cs23  1  0.66619977  0.33125232  0.66442321  1
  Cs  Cs24  1  0.67390088  0.66848787  -0.00392560  1
  Cs  Cs25  1  0.66586997  0.66561621  0.33212400  1
  Cs  Cs26  1  0.66360366  0.67057238  0.67137090  1
  Sn  Sn27  1  0.49838777  0.16717663  0.50047214  1
  Sn  Sn28  1  0.16694852  0.16708775  0.83272182  1
  Sn  Sn29  1  0.49937977  0.50126624  0.16694532  1
  Sn  Sn30  1  0.83358631  0.16707681  0.83471711  1
  Sn  Sn31  1  0.49994365  0.83150261  0.16667582  1
  Sn  Sn32  1  0.83355176  0.16721358  0.16625053  1
  Sn  Sn33  1  0.16695549  0.50024129  0.16672887  1
  Sn  Sn34  1  0.49950202  0.16705274  0.83239505  1
  Sn  Sn35  1  0.16833944  0.16712107  0.50026429  1
  Sn  Sn36  1  0.83327630  0.83185663  0.49991853  1
  Sn  Sn37  1  0.49962328  0.49957561  0.49982299  1
  Sn  Sn38  1  0.16723243  0.49960414  0.49950539  1
  Sn  Sn39  1  0.83324825  0.50158604  0.50023022  1
  Pb  Pb40  1  0.50002718  0.83680294  0.83669319  1
  Pb  Pb41  1  0.83329441  0.49758396  0.82995301  1
  Pb  Pb42  1  0.16906307  0.82904409  0.16690835  1
  Pb  Pb43  1  0.50008272  0.49788192  0.83325758  1
  Pb  Pb44  1  0.16661917  0.49815618  0.83327771  1
  Pb  Pb45  1  0.16679180  0.83681932  0.83346020  1
  Pb  Pb46  1  0.83121517  0.83544419  0.16879526  1
  Pb  Pb47  1  0.83323886  0.49851907  0.16835253  1
  Pb  Pb48  1  0.83317988  0.83641223  0.83046001  1
  Pb  Pb49  1  0.50127464  0.16765563  0.16730602  1
  Pb  Pb50  1  0.16435869  0.16883181  0.16729819  1
  Pb  Pb51  1  0.16454509  0.83282750  0.49978826  1
  Pb  Pb52  1  0.50152846  0.83313517  0.49861459  1
  Pb  Pb53  1  0.83349695  0.16714079  0.50008750  1
  I  I54  1  0.16699711  0.00009543  0.16616611  1
  I  I55  1  0.16852874  0.00343897  0.50529351  1
  I  I56  1  0.16622178  0.00564449  0.82610925  1
  I  I57  1  0.17413842  0.33628431  0.16919123  1
  I  I58  1  0.16432773  0.33323708  0.50028072  1
  I  I59  1  0.16650822  0.32953591  0.83085918  1
  I  I60  1  0.16675435  0.66129365  0.17729086  1
  I  I61  1  0.16912598  0.66270153  0.49450528  1
  I  I62  1  0.16665113  0.66648501  0.83233164  1
  I  I63  1  0.50435648  -0.00111107  0.16632943  1
  I  I64  1  0.49926620  0.00322205  0.50224479  1
  I  I65  1  0.50127521  0.00504212  0.82684608  1
  I  I66  1  0.49777154  0.33619314  0.16857419  1
  I  I67  1  0.50271101  0.33339512  0.49763498  1
  I  I68  1  0.50045449  0.32936676  0.83383546  1
  I  I69  1  0.49674374  0.66480925  0.17625975  1
  I  I70  1  0.49821614  0.66317789  0.49652340  1
  I  I71  1  0.49985213  0.66678404  0.83016042  1
  I  I72  1  0.83128584  0.00348321  0.16581704  1
  I  I73  1  0.83220539  -0.00119775  0.50030270  1
  I  I74  1  0.83294504  0.00472407  0.83404937  1
  I  I75  1  0.83005355  0.33061241  0.16546430  1
  I  I76  1  0.83303234  0.33560973  0.49988802  1
  I  I77  1  0.83289642  0.32908805  0.83485009  1
  I  I78  1  0.83504245  0.66649949  0.16701028  1
  I  I79  1  0.83272934  0.66510573  0.49631313  1
  I  I80  1  0.83347348  0.66685453  0.83505685  1
  I  I81  1  0.16955916  0.16815346  -0.00247617  1
  I  I82  1  0.16937909  0.16906051  0.33664389  1
  I  I83  1  0.16396159  0.17283509  0.66556514  1
  I  I84  1  0.17377088  0.49629519  0.00301330  1
  I  I85  1  0.16738386  0.49259634  0.33505114  1
  I  I86  1  0.16621295  0.49617940  0.66293907  1
  I  I87  1  0.16639704  0.83484440  0.00032736  1
  I  I88  1  0.16530338  0.84194746  0.33335711  1
  I  I89  1  0.16701664  0.82907173  0.66643438  1
  I  I90  1  0.49891845  0.16597071  -0.00225292  1
  I  I91  1  0.49872346  0.16792049  0.33642326  1
  I  I92  1  0.50302012  0.17222896  0.66541272  1
  I  I93  1  0.49448716  0.50106116  0.00333078  1
  I  I94  1  0.49984772  0.49651126  0.33459446  1
  I  I95  1  0.50012373  0.49598377  0.66296019  1
  I  I96  1  0.50121609  0.82747934  0.00418229  1
  I  I97  1  0.50193393  0.83586429  0.33090804  1
  I  I98  1  0.50148353  0.83188262  0.66681452  1
  I  I99  1  0.83148954  0.16726125  -0.00072620  1
  I  I100  1  0.83165915  0.16691557  0.33200151  1
  I  I101  1  0.83309625  0.16679046  0.66867327  1
  I  I102  1  0.83324122  0.49891236  -0.00004924  1
  I  I103  1  0.83299669  0.49803505  0.33671073  1
  I  I104  1  0.83317252  0.50048762  0.66142382  1
  I  I105  1  0.83267842  0.83359811  -0.00009303  1
  I  I106  1  0.83285863  0.83403090  0.33638846  1
  I  I107  1  0.83148924  0.83067747  0.66284996  1
  I  I108  1  -0.00316684  0.16847427  0.16456801  1
  I  I109  1  0.00223488  0.17005805  0.50295806  1
  I  I110  1  0.00027337  0.16801150  0.83050549  1
  I  I111  1  0.00243766  0.49367825  0.17315427  1
  I  I112  1  0.00072223  0.49696219  0.49564535  1
  I  I113  1  -0.00002853  0.49546649  0.83348274  1
  I  I114  1  -0.00010505  0.83472303  0.16732188  1
  I  I115  1  -0.00332491  0.83252369  0.49902026  1
  I  I116  1  -0.00029024  0.83490554  0.83387462  1
  I  I117  1  0.33322923  0.16425469  0.16355687  1
  I  I118  1  0.33366915  0.17444238  0.50741253  1
  I  I119  1  0.33340443  0.16778270  0.82809574  1
  I  I120  1  0.33408130  0.50126422  0.17615363  1
  I  I121  1  0.33364211  0.49208664  0.49405284  1
  I  I122  1  0.33340140  0.49657813  0.83064101  1
  I  I123  1  0.33684352  0.83761538  0.16947967  1
  I  I124  1  0.33339506  0.83312835  0.49912930  1
  I  I125  1  0.33369925  0.83436073  0.83130306  1
  I  I126  1  0.66894390  0.16827323  0.16419873  1
  I  I127  1  0.66445166  0.16947846  0.50203453  1
  I  I128  1  0.66640101  0.16698789  0.83208759  1
  I  I129  1  0.66371556  0.50044960  0.17231477  1
  I  I130  1  0.66568687  0.49700603  0.49534720  1
  I  I131  1  0.66662364  0.49505431  0.83365927  1
  I  I132  1  0.66370192  0.82735464  0.16850571  1
  I  I133  1  0.66927919  0.83207768  0.49826690  1
  I  I134  1  0.66662672  0.83670677  0.83271874  1
