# generated using pymatgen
data_Cs27Sn13Pb14I81
_symmetry_space_group_name_H-M   'P 1'
_cell_length_a   18.97490676
_cell_length_b   18.98027711
_cell_length_c   18.97495042
_cell_angle_alpha   89.99878970
_cell_angle_beta   90.00105581
_cell_angle_gamma   89.99909217
_symmetry_Int_Tables_number   1
_chemical_formula_structural   Cs27Sn13Pb14I81
_chemical_formula_sum   'Cs27 Sn13 Pb14 I81'
_cell_volume   6833.80919921
_cell_formula_units_Z   1
loop_
 _symmetry_equiv_pos_site_id
 _symmetry_equiv_pos_as_xyz
  1  'x, y, z'
loop_
 _atom_site_type_symbol
 _atom_site_label
 _atom_site_symmetry_multiplicity
 _atom_site_fract_x
 _atom_site_fract_y
 _atom_site_fract_z
 _atom_site_occupancy
  Cs  Cs0  1  0.00038028  0.00526412  -0.00162506  1
  Cs  Cs1  1  -0.00155727  -0.00152720  0.33423143  1
  Cs  Cs2  1  0.00403032  0.00148594  0.66558184  1
  Cs  Cs3  1  0.00151768  0.33294706  -0.00110764  1
  Cs  Cs4  1  -0.00172537  0.33309647  0.33298091  1
  Cs  Cs5  1  0.00178868  0.33448967  0.66774530  1
  Cs  Cs6  1  -0.00378770  0.66434444  0.00187297  1
  Cs  Cs7  1  0.00105395  0.66773005  0.33378113  1
  Cs  Cs8  1  -0.00185930  0.66558934  0.66528676  1
  Cs  Cs9  1  0.33617741  -0.00167249  -0.00123455  1
  Cs  Cs10  1  0.33269939  -0.00445082  0.33066617  1
  Cs  Cs11  1  0.32912006  -0.00069374  0.66840560  1
  Cs  Cs12  1  0.33088766  0.33454388  -0.00167550  1
  Cs  Cs13  1  0.34057923  0.33661638  0.33238687  1
  Cs  Cs14  1  0.33330565  0.33328263  0.66776799  1
  Cs  Cs15  1  0.33471392  0.66753291  0.00714724  1
  Cs  Cs16  1  0.33260568  0.66627746  0.32552951  1
  Cs  Cs17  1  0.33314511  0.66593920  0.66503983  1
  Cs  Cs18  1  0.66320901  -0.00275048  0.00124278  1
  Cs  Cs19  1  0.66867876  0.00820468  0.33335581  1
  Cs  Cs20  1  0.66606191  -0.00225838  0.66617096  1
  Cs  Cs21  1  0.66748613  0.33139088  -0.00016401  1
  Cs  Cs22  1  0.66131151  0.32666583  0.33415466  1
  Cs  Cs23  1  0.66398440  0.33376194  0.66481943  1
  Cs  Cs24  1  0.66964672  0.67208843  -0.00381285  1
  Cs  Cs25  1  0.66829500  0.66515969  0.33586315  1
  Cs  Cs26  1  0.66809696  0.66815791  0.66797682  1
  Sn  Sn27  1  0.83323368  0.50020534  0.16788883  1
  Sn  Sn28  1  0.16673096  0.16793208  0.49827095  1
  Sn  Sn29  1  0.83199550  0.16662872  0.83282241  1
  Sn  Sn30  1  0.50068098  0.83308011  0.49984259  1
  Sn  Sn31  1  0.83378864  0.50019079  0.49899878  1
  Sn  Sn32  1  0.16634096  0.83143043  0.83360771  1
  Sn  Sn33  1  0.16625339  0.49922870  0.50030572  1
  Sn  Sn34  1  0.83358763  0.83287654  0.16756244  1
  Sn  Sn35  1  0.49921659  0.49980408  0.83327621  1
  Sn  Sn36  1  0.50131517  0.16730090  0.83290448  1
  Sn  Sn37  1  0.16750086  0.50156093  0.83285377  1
  Sn  Sn38  1  0.16686325  0.16698514  0.16836011  1
  Sn  Sn39  1  0.83246947  0.83281028  0.49925758  1
  Pb  Pb40  1  0.16625869  0.83244137  0.50091166  1
  Pb  Pb41  1  0.49782241  0.83283784  0.83178006  1
  Pb  Pb42  1  0.16493056  0.49843863  0.16702531  1
  Pb  Pb43  1  0.49699967  0.16676623  0.16409023  1
  Pb  Pb44  1  0.16721704  0.16740708  0.83305332  1
  Pb  Pb45  1  0.50315709  0.83326337  0.16976352  1
  Pb  Pb46  1  0.83531779  0.83557128  0.83283129  1
  Pb  Pb47  1  0.83495425  0.16697725  0.50190583  1
  Pb  Pb48  1  0.83340716  0.49843765  0.83280968  1
  Pb  Pb49  1  0.83463758  0.16676974  0.16481868  1
  Pb  Pb50  1  0.16414823  0.83537144  0.16394204  1
  Pb  Pb51  1  0.49995339  0.50169254  0.50161952  1
  Pb  Pb52  1  0.49689001  0.16439878  0.50210405  1
  Pb  Pb53  1  0.50357403  0.50013115  0.16360105  1
  I  I54  1  0.16346748  0.00315314  0.16976397  1
  I  I55  1  0.16621321  0.00178965  0.50086476  1
  I  I56  1  0.16542784  -0.00121752  0.83230169  1
  I  I57  1  0.16219564  0.33073969  0.16348932  1
  I  I58  1  0.16031847  0.33454000  0.50444291  1
  I  I59  1  0.16692616  0.33595289  0.83202494  1
  I  I60  1  0.16693848  0.66661662  0.16760564  1
  I  I61  1  0.16459739  0.66363073  0.50493730  1
  I  I62  1  0.17037199  0.66497161  0.82650330  1
  I  I63  1  0.50132059  -0.00000816  0.16322445  1
  I  I64  1  0.50539871  -0.00320451  0.50310856  1
  I  I65  1  0.50093295  0.00223753  0.83189032  1
  I  I66  1  0.50309172  0.33342310  0.16904359  1
  I  I67  1  0.50203230  0.33336258  0.50060121  1
  I  I68  1  0.49728415  0.33354023  0.83188916  1
  I  I69  1  0.49559299  0.66669872  0.16362843  1
  I  I70  1  0.50024064  0.66934996  0.50474735  1
  I  I71  1  0.49772102  0.66394007  0.83110478  1
  I  I72  1  0.83576022  -0.00253350  0.16984190  1
  I  I73  1  0.83186213  -0.00266575  0.49767367  1
  I  I74  1  0.83177619  0.00317468  0.83373855  1
  I  I75  1  0.83600654  0.33596711  0.16863522  1
  I  I76  1  0.83701967  0.33637535  0.49812106  1
  I  I77  1  0.83580619  0.33080770  0.83384440  1
  I  I78  1  0.83545152  0.66651843  0.16890079  1
  I  I79  1  0.83608757  0.66628878  0.49775991  1
  I  I80  1  0.83200772  0.66664427  0.83398345  1
  I  I81  1  0.16511322  0.16592909  0.00131144  1
  I  I82  1  0.16333703  0.17064846  0.33441247  1
  I  I83  1  0.16589127  0.16699301  0.66473796  1
  I  I84  1  0.16809688  0.50040921  -0.00285412  1
  I  I85  1  0.16336257  0.49786548  0.33649727  1
  I  I86  1  0.16366043  0.49730602  0.66657188  1
  I  I87  1  0.16584083  0.83070042  -0.00392382  1
  I  I88  1  0.16859267  0.83279585  0.33322075  1
  I  I89  1  0.16451204  0.83585701  0.66891322  1
  I  I90  1  0.50135614  0.16904329  -0.00421721  1
  I  I91  1  0.50091523  0.16556884  0.33361316  1
  I  I92  1  0.50088521  0.17027255  0.67004265  1
  I  I93  1  0.49357566  0.49606032  -0.00455909  1
  I  I94  1  0.49694826  0.50188724  0.33346281  1
  I  I95  1  0.50014362  0.49656672  0.66973084  1
  I  I96  1  0.50017650  0.83431419  -0.00007145  1
  I  I97  1  0.49799486  0.83244497  0.33762833  1
  I  I98  1  0.50673231  0.83339976  0.66417689  1
  I  I99  1  0.83451927  0.16725738  -0.00309975  1
  I  I100  1  0.83449204  0.16619427  0.33355643  1
  I  I101  1  0.83413467  0.16679968  0.66968851  1
  I  I102  1  0.83368243  0.50266843  0.00183212  1
  I  I103  1  0.84073889  0.50461269  0.33463295  1
  I  I104  1  0.83531620  0.50344892  0.66383372  1
  I  I105  1  0.83676508  0.82977075  0.00206291  1
  I  I106  1  0.83123692  0.82974677  0.33435556  1
  I  I107  1  0.83149869  0.82944312  0.66365585  1
  I  I108  1  0.00247848  0.16653753  0.16541894  1
  I  I109  1  0.00298391  0.16536486  0.50166569  1
  I  I110  1  -0.00119964  0.16620816  0.83375482  1
  I  I111  1  -0.00301268  0.50275857  0.16483471  1
  I  I112  1  0.00003889  0.50199988  0.50342803  1
  I  I113  1  0.00256302  0.50070446  0.83196761  1
  I  I114  1  -0.00349507  0.83004033  0.17335538  1
  I  I115  1  -0.00278011  0.83253210  0.49815645  1
  I  I116  1  0.00299862  0.83043190  0.83059723  1
  I  I117  1  0.32906967  0.16696400  0.16794167  1
  I  I118  1  0.32895220  0.17113986  0.50055048  1
  I  I119  1  0.33532781  0.16742626  0.83291944  1
  I  I120  1  0.33330203  0.49831067  0.16822347  1
  I  I121  1  0.33028964  0.49720931  0.50462803  1
  I  I122  1  0.33202664  0.49664116  0.82696417  1
  I  I123  1  0.33316745  0.83526002  0.16696616  1
  I  I124  1  0.33477804  0.83523218  0.50588811  1
  I  I125  1  0.33002681  0.83627712  0.82956363  1
  I  I126  1  0.66669465  0.16633439  0.16555863  1
  I  I127  1  0.66656903  0.16824415  0.50091329  1
  I  I128  1  0.66629809  0.17209772  0.83329302  1
  I  I129  1  0.67161560  0.50272316  0.17153202  1
  I  I130  1  0.66973518  0.50316125  0.49906021  1
  I  I131  1  0.66461400  0.49641601  0.83342884  1
  I  I132  1  0.67118579  0.83003000  0.16419696  1
  I  I133  1  0.66846893  0.82763952  0.49915296  1
  I  I134  1  0.66684385  0.83246341  0.83456177  1
