# generated using pymatgen
data_Cs27Sn13Pb14I81
_symmetry_space_group_name_H-M   'P 1'
_cell_length_a   18.98172899
_cell_length_b   18.97075211
_cell_length_c   18.97689236
_cell_angle_alpha   90.00182833
_cell_angle_beta   89.99922186
_cell_angle_gamma   89.99804531
_symmetry_Int_Tables_number   1
_chemical_formula_structural   Cs27Sn13Pb14I81
_chemical_formula_sum   'Cs27 Sn13 Pb14 I81'
_cell_volume   6833.53481476
_cell_formula_units_Z   1
loop_
 _symmetry_equiv_pos_site_id
 _symmetry_equiv_pos_as_xyz
  1  'x, y, z'
loop_
 _atom_site_type_symbol
 _atom_site_label
 _atom_site_symmetry_multiplicity
 _atom_site_fract_x
 _atom_site_fract_y
 _atom_site_fract_z
 _atom_site_occupancy
  Cs  Cs0  1  -0.00251004  -0.00158708  -0.00206893  1
  Cs  Cs1  1  0.00150656  0.00074018  0.33316827  1
  Cs  Cs2  1  -0.00015922  0.00146341  0.66876642  1
  Cs  Cs3  1  0.00364779  0.33038679  -0.00664109  1
  Cs  Cs4  1  -0.00203706  0.33535373  0.33623678  1
  Cs  Cs5  1  0.00235880  0.33425428  0.66748349  1
  Cs  Cs6  1  -0.00291824  0.67085523  0.01217923  1
  Cs  Cs7  1  -0.00042464  0.65986777  0.32682111  1
  Cs  Cs8  1  -0.00040740  0.66420444  0.66465900  1
  Cs  Cs9  1  0.33374018  -0.00011891  0.00090257  1
  Cs  Cs10  1  0.33335258  0.00038822  0.33445500  1
  Cs  Cs11  1  0.33360575  -0.00142191  0.66541969  1
  Cs  Cs12  1  0.33715232  0.34132146  -0.00256381  1
  Cs  Cs13  1  0.33418078  0.33070985  0.33112756  1
  Cs  Cs14  1  0.33195677  0.33552148  0.66926270  1
  Cs  Cs15  1  0.33207798  0.66187320  -0.00001392  1
  Cs  Cs16  1  0.32832576  0.66996914  0.33243473  1
  Cs  Cs17  1  0.33513599  0.66819403  0.66770140  1
  Cs  Cs18  1  0.66785787  -0.00077460  -0.00138367  1
  Cs  Cs19  1  0.66415393  0.00285445  0.33636903  1
  Cs  Cs20  1  0.66649847  -0.00115444  0.66600199  1
  Cs  Cs21  1  0.66116160  0.33606013  0.00185542  1
  Cs  Cs22  1  0.66768163  0.33222474  0.33120032  1
  Cs  Cs23  1  0.66700525  0.33439634  0.66646984  1
  Cs  Cs24  1  0.66957948  0.66469936  0.00018824  1
  Cs  Cs25  1  0.67027351  0.66508796  0.33512518  1
  Cs  Cs26  1  0.66533048  0.66690095  0.66674541  1
  Sn  Sn27  1  0.83492997  0.83391172  0.50003846  1
  Sn  Sn28  1  0.83362168  0.16589424  0.49962564  1
  Sn  Sn29  1  0.16703498  0.83335526  0.83283829  1
  Sn  Sn30  1  0.49961927  0.49886650  0.49975268  1
  Sn  Sn31  1  0.50014954  0.83349220  0.16555390  1
  Sn  Sn32  1  0.83369839  0.50017247  0.83319705  1
  Sn  Sn33  1  0.16651754  0.16588875  0.49950189  1
  Sn  Sn34  1  0.83435737  0.16630845  0.16706582  1
  Sn  Sn35  1  0.49931166  0.83407492  0.83454993  1
  Sn  Sn36  1  0.16504880  0.83408752  0.50077231  1
  Sn  Sn37  1  0.16586636  0.16638586  0.16706503  1
  Sn  Sn38  1  0.49998834  0.16587543  0.83254304  1
  Sn  Sn39  1  0.49978584  0.16790574  0.50108077  1
  Pb  Pb40  1  0.83337944  0.49643141  0.16397663  1
  Pb  Pb41  1  0.50004075  0.50333458  0.16985729  1
  Pb  Pb42  1  0.50120164  0.50061312  0.83164946  1
  Pb  Pb43  1  0.83095314  0.16805711  0.83303431  1
  Pb  Pb44  1  0.16819491  0.83535582  0.16694901  1
  Pb  Pb45  1  0.16903889  0.49987318  0.50002566  1
  Pb  Pb46  1  0.49983376  0.16546353  0.16667778  1
  Pb  Pb47  1  0.83108146  0.83576818  0.16971696  1
  Pb  Pb48  1  0.83174672  0.49945705  0.50109659  1
  Pb  Pb49  1  0.83341615  0.83172002  0.83131732  1
  Pb  Pb50  1  0.16379615  0.50397073  0.83328012  1
  Pb  Pb51  1  0.16665515  0.49617535  0.16680003  1
  Pb  Pb52  1  0.16911071  0.16494748  0.83323320  1
  Pb  Pb53  1  0.49971474  0.83376977  0.50028135  1
  I  I54  1  0.16437153  0.00327218  0.16968992  1
  I  I55  1  0.16889046  0.00077794  0.50001786  1
  I  I56  1  0.16818897  -0.00303594  0.83066568  1
  I  I57  1  0.16452234  0.32781695  0.17393117  1
  I  I58  1  0.16421130  0.32946187  0.49611177  1
  I  I59  1  0.16794719  0.33324129  0.83357248  1
  I  I60  1  0.16862131  0.66711784  0.16711983  1
  I  I61  1  0.16547142  0.67021542  0.50451735  1
  I  I62  1  0.17545172  0.67177765  0.82538280  1
  I  I63  1  0.49986987  -0.00226434  0.16781139  1
  I  I64  1  0.50055223  0.00284919  0.50073597  1
  I  I65  1  0.49828251  -0.00031072  0.83010863  1
  I  I66  1  0.49991391  0.33314179  0.16416486  1
  I  I67  1  0.50092845  0.33056086  0.50535010  1
  I  I68  1  0.50192360  0.33078015  0.83088434  1
  I  I69  1  0.49932166  0.67118184  0.16196219  1
  I  I70  1  0.50132139  0.66538099  0.50046733  1
  I  I71  1  0.49758376  0.66996069  0.83395776  1
  I  I72  1  0.83619389  0.00366191  0.16743441  1
  I  I73  1  0.83051317  0.00124020  0.49812870  1
  I  I74  1  0.83329557  0.00003037  0.83417877  1
  I  I75  1  0.83461194  0.32859321  0.17525703  1
  I  I76  1  0.83448576  0.32962797  0.49771352  1
  I  I77  1  0.82994482  0.33543318  0.83109620  1
  I  I78  1  0.83155211  0.66687128  0.16781424  1
  I  I79  1  0.83366933  0.66924557  0.50323604  1
  I  I80  1  0.82996894  0.66441778  0.82868125  1
  I  I81  1  0.16263826  0.16415975  0.00229573  1
  I  I82  1  0.16906733  0.16051933  0.33537840  1
  I  I83  1  0.16463585  0.16427430  0.66341053  1
  I  I84  1  0.16791039  0.49904447  -0.00021454  1
  I  I85  1  0.16719152  0.50609813  0.33370348  1
  I  I86  1  0.16666772  0.49534544  0.66664324  1
  I  I87  1  0.17007014  0.83493286  -0.00242385  1
  I  I88  1  0.16693136  0.83625615  0.33646549  1
  I  I89  1  0.16975223  0.83937664  0.66548393  1
  I  I90  1  0.50082609  0.16334700  -0.00241133  1
  I  I91  1  0.50032185  0.16744621  0.33645021  1
  I  I92  1  0.50070700  0.16404982  0.66530279  1
  I  I93  1  0.50138047  0.49688534  -0.00008934  1
  I  I94  1  0.50197845  0.49369914  0.33760130  1
  I  I95  1  0.50167889  0.49986933  0.66387129  1
  I  I96  1  0.49533468  0.84024073  -0.00174613  1
  I  I97  1  0.50021982  0.83443497  0.33208104  1
  I  I98  1  0.49930687  0.83454706  0.66881199  1
  I  I99  1  0.83624552  0.16858546  0.00237634  1
  I  I100  1  0.83079755  0.16297518  0.33522201  1
  I  I101  1  0.83454468  0.16423664  0.66328860  1
  I  I102  1  0.83052601  0.50105430  -0.00339830  1
  I  I103  1  0.83145939  0.50207232  0.33331175  1
  I  I104  1  0.83064180  0.49837550  0.66858594  1
  I  I105  1  0.83475782  0.83328389  0.00016132  1
  I  I106  1  0.83599767  0.83436703  0.33777789  1
  I  I107  1  0.83121539  0.83983314  0.66325749  1
  I  I108  1  0.00000944  0.16588263  0.17493310  1
  I  I109  1  -0.00002444  0.16153230  0.49533068  1
  I  I110  1  0.00007338  0.16686766  0.83196485  1
  I  I111  1  -0.00021095  0.50492030  0.16730543  1
  I  I112  1  -0.00002616  0.49841947  0.50193713  1
  I  I113  1  -0.00339763  0.49706604  0.82965005  1
  I  I114  1  -0.00007456  0.83303387  0.16375510  1
  I  I115  1  0.00075060  0.84187426  0.50642297  1
  I  I116  1  0.00264075  0.83268747  0.82953760  1
  I  I117  1  0.33115265  0.16323716  0.17165344  1
  I  I118  1  0.33323785  0.16528355  0.49910793  1
  I  I119  1  0.33702335  0.16480403  0.82907045  1
  I  I120  1  0.33365969  0.49745509  0.16587705  1
  I  I121  1  0.33698505  0.49665357  0.50209501  1
  I  I122  1  0.33332698  0.49821414  0.83246215  1
  I  I123  1  0.33594927  0.83758210  0.16896369  1
  I  I124  1  0.33103015  0.83661621  0.50056129  1
  I  I125  1  0.33419372  0.83781674  0.82961008  1
  I  I126  1  0.66866507  0.16475598  0.17069196  1
  I  I127  1  0.66666137  0.16543604  0.49960185  1
  I  I128  1  0.66307220  0.16089968  0.82897399  1
  I  I129  1  0.66660226  0.49745459  0.16677524  1
  I  I130  1  0.66386009  0.49749167  0.50187828  1
  I  I131  1  0.66860397  0.50103923  0.83086756  1
  I  I132  1  0.66346050  0.83668597  0.16239057  1
  I  I133  1  0.66835824  0.83665107  0.49984632  1
  I  I134  1  0.66378304  0.83585540  0.83416489  1
