# generated using pymatgen
data_Cs27Sn14Pb13I81
_symmetry_space_group_name_H-M   'P 1'
_cell_length_a   18.97029417
_cell_length_b   18.97431821
_cell_length_c   18.98091545
_cell_angle_alpha   90.00069396
_cell_angle_beta   90.00074047
_cell_angle_gamma   89.99962532
_symmetry_Int_Tables_number   1
_chemical_formula_structural   Cs27Sn14Pb13I81
_chemical_formula_sum   'Cs27 Sn14 Pb13 I81'
_cell_volume   6832.15011014
_cell_formula_units_Z   1
loop_
 _symmetry_equiv_pos_site_id
 _symmetry_equiv_pos_as_xyz
  1  'x, y, z'
loop_
 _atom_site_type_symbol
 _atom_site_label
 _atom_site_symmetry_multiplicity
 _atom_site_fract_x
 _atom_site_fract_y
 _atom_site_fract_z
 _atom_site_occupancy
  Cs  Cs0  1  -0.00334512  0.00294430  0.00212538  1
  Cs  Cs1  1  0.00084761  0.00223784  0.33244196  1
  Cs  Cs2  1  -0.00060929  0.00205881  0.66409848  1
  Cs  Cs3  1  -0.00055856  0.33303301  0.00040629  1
  Cs  Cs4  1  0.00138398  0.33207003  0.33254356  1
  Cs  Cs5  1  0.00164729  0.33332274  0.66646193  1
  Cs  Cs6  1  -0.00008419  0.66462419  -0.00188325  1
  Cs  Cs7  1  -0.00071399  0.66775050  0.33695204  1
  Cs  Cs8  1  0.00109411  0.66805691  0.66512988  1
  Cs  Cs9  1  0.33672219  -0.00630249  -0.00042823  1
  Cs  Cs10  1  0.33223568  -0.00589480  0.33322323  1
  Cs  Cs11  1  0.34420223  -0.00442672  0.66738035  1
  Cs  Cs12  1  0.33127313  0.33431448  0.00064225  1
  Cs  Cs13  1  0.33141900  0.33371505  0.33324147  1
  Cs  Cs14  1  0.33159957  0.33186282  0.66592763  1
  Cs  Cs15  1  0.33479352  0.67400741  -0.00121785  1
  Cs  Cs16  1  0.34084443  0.67271037  0.33095689  1
  Cs  Cs17  1  0.32894463  0.67681336  0.67231518  1
  Cs  Cs18  1  0.67030417  0.00106380  -0.00154880  1
  Cs  Cs19  1  0.66742031  0.00068489  0.33493908  1
  Cs  Cs20  1  0.65955297  0.00012866  0.66793992  1
  Cs  Cs21  1  0.66778018  0.33400156  0.00020544  1
  Cs  Cs22  1  0.66420225  0.33618644  0.33340857  1
  Cs  Cs23  1  0.66385418  0.33380300  0.66605633  1
  Cs  Cs24  1  0.66718461  0.66402426  0.00165284  1
  Cs  Cs25  1  0.66062639  0.66318341  0.34045747  1
  Cs  Cs26  1  0.66851517  0.66394602  0.65829367  1
  Sn  Sn27  1  0.16599471  0.16716045  0.50013218  1
  Sn  Sn28  1  0.16601657  0.49974044  0.16756400  1
  Sn  Sn29  1  0.83247529  0.49990324  0.83375262  1
  Sn  Sn30  1  0.50046059  0.49956705  0.83339510  1
  Sn  Sn31  1  0.49974791  0.16694552  0.16654999  1
  Sn  Sn32  1  0.83323063  0.16715268  0.16698037  1
  Sn  Sn33  1  0.83368176  0.16718336  0.50010323  1
  Sn  Sn34  1  0.16639619  0.16659235  0.83338891  1
  Sn  Sn35  1  0.83353619  0.83322193  0.83390055  1
  Sn  Sn36  1  0.83412285  0.50020015  0.16648445  1
  Sn  Sn37  1  0.16685898  0.49953391  0.49875453  1
  Sn  Sn38  1  0.83364228  0.83262619  0.16633804  1
  Sn  Sn39  1  0.16696116  0.16727063  0.16641895  1
  Sn  Sn40  1  0.83396671  0.16689591  0.83277670  1
  Pb  Pb41  1  0.16638049  0.83394500  0.49981662  1
  Pb  Pb42  1  0.49572727  0.49960957  0.50308864  1
  Pb  Pb43  1  0.16358298  0.83727850  0.83356970  1
  Pb  Pb44  1  0.50377792  0.83618479  0.16647190  1
  Pb  Pb45  1  0.16404260  0.83301046  0.16659916  1
  Pb  Pb46  1  0.83507585  0.49762035  0.49988005  1
  Pb  Pb47  1  0.50023929  0.83329102  0.49991345  1
  Pb  Pb48  1  0.50013232  0.16828438  0.83552642  1
  Pb  Pb49  1  0.49958770  0.49830956  0.16514448  1
  Pb  Pb50  1  0.16618221  0.49847227  0.83381924  1
  Pb  Pb51  1  0.83342986  0.83633399  0.49996719  1
  Pb  Pb52  1  0.50386491  0.83002369  0.83369459  1
  Pb  Pb53  1  0.49930118  0.16699949  0.49718168  1
  I  I54  1  0.16548034  0.00393730  0.16760602  1
  I  I55  1  0.16117627  0.00435461  0.49793463  1
  I  I56  1  0.16150650  0.00562879  0.83452556  1
  I  I57  1  0.16156757  0.33195164  0.16696342  1
  I  I58  1  0.16209242  0.33174732  0.49891529  1
  I  I59  1  0.16058513  0.33012534  0.83390923  1
  I  I60  1  0.16157261  0.66300807  0.17077517  1
  I  I61  1  0.16600653  0.66342243  0.49610271  1
  I  I62  1  0.16712268  0.66669336  0.83233344  1
  I  I63  1  0.49799872  0.00441497  0.16569184  1
  I  I64  1  0.49916282  0.00069260  0.50093815  1
  I  I65  1  0.49933539  -0.00008402  0.83361509  1
  I  I66  1  0.50524996  0.33037340  0.16521068  1
  I  I67  1  0.50315771  0.33326408  0.50060321  1
  I  I68  1  0.50748137  0.33572012  0.83495825  1
  I  I69  1  0.49920549  0.66661969  0.16568885  1
  I  I70  1  0.50059776  0.66599694  0.49858584  1
  I  I71  1  0.50222502  0.66237620  0.83533522  1
  I  I72  1  0.83331474  0.00192940  0.16391105  1
  I  I73  1  0.84022578  0.00479118  0.49838750  1
  I  I74  1  0.83898627  0.00153789  0.83701394  1
  I  I75  1  0.83426280  0.33247823  0.16347391  1
  I  I76  1  0.83583930  0.32939699  0.49987819  1
  I  I77  1  0.83350151  0.33269480  0.83685138  1
  I  I78  1  0.83917980  0.66539193  0.15783013  1
  I  I79  1  0.83484377  0.66635478  0.50031953  1
  I  I80  1  0.82888979  0.66576262  0.84156584  1
  I  I81  1  0.16239574  0.17135658  0.00086201  1
  I  I82  1  0.16248239  0.17073281  0.33250992  1
  I  I83  1  0.15702514  0.17218076  0.66655881  1
  I  I84  1  0.16437090  0.49410253  0.00285074  1
  I  I85  1  0.15949668  0.48976046  0.33188829  1
  I  I86  1  0.16638240  0.49384974  0.66483036  1
  I  I87  1  0.16869998  0.83212670  0.00004582  1
  I  I88  1  0.16317974  0.83820597  0.33305204  1
  I  I89  1  0.16359332  0.83104055  0.66684910  1
  I  I90  1  0.50124333  0.16835113  0.00321827  1
  I  I91  1  0.50280702  0.16829526  0.32927997  1
  I  I92  1  0.50023839  0.16683748  0.66686667  1
  I  I93  1  0.50142932  0.49720525  -0.00259226  1
  I  I94  1  0.50298858  0.49912445  0.33330270  1
  I  I95  1  0.50872813  0.49751681  0.67061992  1
  I  I96  1  0.49675174  0.83385316  0.00000148  1
  I  I97  1  0.50206526  0.83338600  0.33274774  1
  I  I98  1  0.50144579  0.83501531  0.66731496  1
  I  I99  1  0.83538630  0.16643546  0.00037246  1
  I  I100  1  0.83576918  0.16582501  0.33186855  1
  I  I101  1  0.84077440  0.16698880  0.66764834  1
  I  I102  1  0.83518200  0.49570688  0.00049752  1
  I  I103  1  0.83556410  0.49924253  0.33011357  1
  I  I104  1  0.83115382  0.49988060  0.66958527  1
  I  I105  1  0.83395499  0.83880184  0.00019536  1
  I  I106  1  0.83439890  0.83513008  0.33011484  1
  I  I107  1  0.83388579  0.83278430  0.66993432  1
  I  I108  1  -0.00080247  0.16665644  0.16641894  1
  I  I109  1  -0.00002257  0.16956032  0.49675848  1
  I  I110  1  -0.00150195  0.16893257  0.83716678  1
  I  I111  1  -0.00108758  0.49451853  0.16380413  1
  I  I112  1  0.00300257  0.49645131  0.50087736  1
  I  I113  1  -0.00335923  0.50079499  0.83495656  1
  I  I114  1  -0.00402613  0.83918965  0.16243367  1
  I  I115  1  -0.00031593  0.83186927  0.50084497  1
  I  I116  1  -0.00436943  0.82761456  0.83767318  1
  I  I117  1  0.33173040  0.17338148  0.16643453  1
  I  I118  1  0.32940106  0.17110020  0.50063255  1
  I  I119  1  0.33050851  0.17123477  0.83345880  1
  I  I120  1  0.33005523  0.49265442  0.16849641  1
  I  I121  1  0.32805877  0.48972795  0.49394258  1
  I  I122  1  0.33475790  0.49465438  0.83304182  1
  I  I123  1  0.33342965  0.83372893  0.16782332  1
  I  I124  1  0.33302998  0.83566101  0.50050023  1
  I  I125  1  0.33351297  0.83283340  0.83174813  1
  I  I126  1  0.66900530  0.16632988  0.16567429  1
  I  I127  1  0.66972818  0.16528817  0.50024323  1
  I  I128  1  0.67049085  0.16459723  0.83400743  1
  I  I129  1  0.67009745  0.49800741  0.16340377  1
  I  I130  1  0.66660549  0.49925595  0.49789611  1
  I  I131  1  0.66959616  0.49731202  0.83987939  1
  I  I132  1  0.67189607  0.83403855  0.16129375  1
  I  I133  1  0.66743773  0.83510916  0.49964545  1
  I  I134  1  0.67162684  0.84190365  0.83854885  1
