# generated using pymatgen
data_Cs27Sn14Pb13I81
_symmetry_space_group_name_H-M   'P 1'
_cell_length_a   18.96454391
_cell_length_b   18.98025304
_cell_length_c   18.98109780
_cell_angle_alpha   89.99975379
_cell_angle_beta   90.00158993
_cell_angle_gamma   89.99777976
_symmetry_Int_Tables_number   1
_chemical_formula_structural   Cs27Sn14Pb13I81
_chemical_formula_sum   'Cs27 Sn14 Pb13 I81'
_cell_volume   6832.28111189
_cell_formula_units_Z   1
loop_
 _symmetry_equiv_pos_site_id
 _symmetry_equiv_pos_as_xyz
  1  'x, y, z'
loop_
 _atom_site_type_symbol
 _atom_site_label
 _atom_site_symmetry_multiplicity
 _atom_site_fract_x
 _atom_site_fract_y
 _atom_site_fract_z
 _atom_site_occupancy
  Cs  Cs0  1  0.00048502  -0.00166687  -0.00037419  1
  Cs  Cs1  1  -0.00049746  -0.00201272  0.33479371  1
  Cs  Cs2  1  -0.00234898  -0.00127228  0.66605281  1
  Cs  Cs3  1  -0.00026873  0.33305713  -0.00171962  1
  Cs  Cs4  1  -0.00028607  0.33746952  0.33532183  1
  Cs  Cs5  1  0.00048198  0.33435435  0.66710008  1
  Cs  Cs6  1  -0.00123139  0.66835977  0.00229782  1
  Cs  Cs7  1  0.00139550  0.66617799  0.33109065  1
  Cs  Cs8  1  0.00069192  0.66685779  0.66691209  1
  Cs  Cs9  1  0.33457174  0.00291114  0.00476619  1
  Cs  Cs10  1  0.33267288  0.00210230  0.32876070  1
  Cs  Cs11  1  0.33369971  0.00148480  0.66665834  1
  Cs  Cs12  1  0.33224307  0.32849081  -0.00305620  1
  Cs  Cs13  1  0.33439464  0.33058924  0.33339933  1
  Cs  Cs14  1  0.33300757  0.33437501  0.66806557  1
  Cs  Cs15  1  0.33871143  0.66787773  -0.00453163  1
  Cs  Cs16  1  0.33149300  0.66754845  0.33594789  1
  Cs  Cs17  1  0.33878597  0.66380533  0.66786869  1
  Cs  Cs18  1  0.66732931  0.00058970  -0.00211682  1
  Cs  Cs19  1  0.66727433  -0.00149427  0.33657830  1
  Cs  Cs20  1  0.66853823  0.00188152  0.66570137  1
  Cs  Cs21  1  0.66956484  0.33383710  0.00410400  1
  Cs  Cs22  1  0.66626738  0.33658724  0.32932878  1
  Cs  Cs23  1  0.66749192  0.32950092  0.66643834  1
  Cs  Cs24  1  0.66454838  0.66481666  0.00145141  1
  Cs  Cs25  1  0.65707732  0.66338638  0.33377562  1
  Cs  Cs26  1  0.65876825  0.66782554  0.66564788  1
  Sn  Sn27  1  0.16589173  0.83223349  0.16635915  1
  Sn  Sn28  1  0.16585775  0.50024119  0.49951020  1
  Sn  Sn29  1  0.83403925  0.16555782  0.16622041  1
  Sn  Sn30  1  0.49925561  0.16670458  0.50056918  1
  Sn  Sn31  1  0.16624169  0.83316861  0.50027110  1
  Sn  Sn32  1  0.83290651  0.16656047  0.83405745  1
  Sn  Sn33  1  0.83365601  0.50057702  0.83211270  1
  Sn  Sn34  1  0.83363024  0.83398968  0.16629450  1
  Sn  Sn35  1  0.83396205  0.83280610  0.83379041  1
  Sn  Sn36  1  0.16716466  0.16668177  0.50026384  1
  Sn  Sn37  1  0.50080433  0.16647230  0.83274625  1
  Sn  Sn38  1  0.83376990  0.50054960  0.50090203  1
  Sn  Sn39  1  0.16653888  0.50054963  0.16668757  1
  Sn  Sn40  1  0.16617738  0.83341653  0.83342895  1
  Pb  Pb41  1  0.50310794  0.16648295  0.16676301  1
  Pb  Pb42  1  0.83475196  0.83045908  0.49970623  1
  Pb  Pb43  1  0.49548687  0.49992155  0.16655392  1
  Pb  Pb44  1  0.16594067  0.16442332  0.83130460  1
  Pb  Pb45  1  0.16492623  0.50240599  0.83337117  1
  Pb  Pb46  1  0.50024655  0.83331900  0.16656798  1
  Pb  Pb47  1  0.83476254  0.50082990  0.16663923  1
  Pb  Pb48  1  0.50060176  0.83586316  0.83339356  1
  Pb  Pb49  1  0.49937884  0.49742339  0.50002339  1
  Pb  Pb50  1  0.16420048  0.16659515  0.16890609  1
  Pb  Pb51  1  0.83362748  0.16841957  0.49986743  1
  Pb  Pb52  1  0.50335105  0.49696199  0.83341694  1
  Pb  Pb53  1  0.49669493  0.83613970  0.49998950  1
  I  I54  1  0.16488436  -0.00300810  0.16756136  1
  I  I55  1  0.17102163  -0.00038599  0.50016005  1
  I  I56  1  0.16123807  -0.00359010  0.83360714  1
  I  I57  1  0.16417451  0.33560987  0.17262439  1
  I  I58  1  0.16623185  0.33382783  0.49527236  1
  I  I59  1  0.16608931  0.33326272  0.83306578  1
  I  I60  1  0.15914131  0.66790112  0.17261449  1
  I  I61  1  0.15990431  0.66661408  0.49818916  1
  I  I62  1  0.16048588  0.67049678  0.82957147  1
  I  I63  1  0.49414132  0.00019338  0.16730194  1
  I  I64  1  0.49704944  0.00408083  0.50410521  1
  I  I65  1  0.50601466  0.00355634  0.82843988  1
  I  I66  1  0.50176044  0.33293606  0.16707280  1
  I  I67  1  0.49424505  0.32972698  0.50468546  1
  I  I68  1  0.50317643  0.32896832  0.82864815  1
  I  I69  1  0.50646282  0.66665168  0.16684602  1
  I  I70  1  0.50041851  0.66651050  0.49935848  1
  I  I71  1  0.49990016  0.66675270  0.83344817  1
  I  I72  1  0.83900117  -0.00071508  0.15929873  1
  I  I73  1  0.83411458  -0.00013466  0.50167862  1
  I  I74  1  0.83332703  -0.00003452  0.83781229  1
  I  I75  1  0.83425924  0.33165896  0.16382294  1
  I  I76  1  0.83936704  0.33609761  0.50336710  1
  I  I77  1  0.82888047  0.33275423  0.83333816  1
  I  I78  1  0.83767891  0.66962542  0.16278349  1
  I  I79  1  0.84062432  0.66275565  0.50331412  1
  I  I80  1  0.84080969  0.66754644  0.83402842  1
  I  I81  1  0.16968373  0.16753224  -0.00006693  1
  I  I82  1  0.17048759  0.16285868  0.33701853  1
  I  I83  1  0.16532125  0.16739478  0.66317365  1
  I  I84  1  0.16378859  0.50414766  0.00247271  1
  I  I85  1  0.15993200  0.50398308  0.33471479  1
  I  I86  1  0.16419752  0.50009231  0.66373505  1
  I  I87  1  0.16146892  0.82913144  0.00041167  1
  I  I88  1  0.16266897  0.83303292  0.33320352  1
  I  I89  1  0.16167962  0.83490658  0.66662753  1
  I  I90  1  0.50240188  0.16603805  -0.00294276  1
  I  I91  1  0.49560389  0.16704861  0.33617465  1
  I  I92  1  0.50265438  0.16630842  0.66685217  1
  I  I93  1  0.50065199  0.49750060  -0.00019954  1
  I  I94  1  0.50718909  0.49648334  0.33356481  1
  I  I95  1  0.49547482  0.50134200  0.66674653  1
  I  I96  1  0.49397260  0.83684568  -0.00016305  1
  I  I97  1  0.50208636  0.83625799  0.33341626  1
  I  I98  1  0.50009306  0.83269934  0.66668495  1
  I  I99  1  0.82824363  0.16846330  -0.00141559  1
  I  I100  1  0.83478419  0.16333769  0.33112569  1
  I  I101  1  0.83256949  0.16429013  0.66928358  1
  I  I102  1  0.83500587  0.49860409  -0.00259274  1
  I  I103  1  0.83663547  0.49767137  0.33551331  1
  I  I104  1  0.84026271  0.49798945  0.66692234  1
  I  I105  1  0.84167735  0.83352348  -0.00070392  1
  I  I106  1  0.83877722  0.83877563  0.33050263  1
  I  I107  1  0.83828142  0.83712849  0.66956948  1
  I  I108  1  -0.00358361  0.16509770  0.16094327  1
  I  I109  1  0.00272184  0.16532054  0.49989279  1
  I  I110  1  -0.00338346  0.16800328  0.83541290  1
  I  I111  1  0.00267982  0.50149293  0.16961532  1
  I  I112  1  0.00129273  0.49637618  0.50015589  1
  I  I113  1  -0.00335118  0.49370498  0.83140947  1
  I  I114  1  0.00054565  0.83400370  0.16563577  1
  I  I115  1  0.00340635  0.83922416  0.50021837  1
  I  I116  1  -0.00076931  0.83638316  0.83374659  1
  I  I117  1  0.33303077  0.16713354  0.16461902  1
  I  I118  1  0.33231553  0.16778863  0.50551412  1
  I  I119  1  0.33511247  0.16460782  0.83019637  1
  I  I120  1  0.32738315  0.50576223  0.17445422  1
  I  I121  1  0.32946245  0.50235358  0.49520363  1
  I  I122  1  0.33318360  0.50024358  0.83359827  1
  I  I123  1  0.32921759  0.82948339  0.16695686  1
  I  I124  1  0.32783567  0.82727675  0.50023463  1
  I  I125  1  0.33014001  0.83438526  0.83325856  1
  I  I126  1  0.67122210  0.16176581  0.16745587  1
  I  I127  1  0.66491979  0.16910126  0.50136794  1
  I  I128  1  0.66832503  0.16482093  0.83005838  1
  I  I129  1  0.66702771  0.49956482  0.16779558  1
  I  I130  1  0.66945952  0.49800527  0.50393164  1
  I  I131  1  0.67195384  0.50590529  0.82756156  1
  I  I132  1  0.67061862  0.83802845  0.16070992  1
  I  I133  1  0.66676435  0.83325957  0.49987093  1
  I  I134  1  0.67063780  0.83166701  0.83855687  1
