# generated using pymatgen
data_Cs27Sn13Pb14I81
_symmetry_space_group_name_H-M   'P 1'
_cell_length_a   18.97015638
_cell_length_b   18.98485477
_cell_length_c   18.97620173
_cell_angle_alpha   89.99899005
_cell_angle_beta   89.99784035
_cell_angle_gamma   90.00172159
_symmetry_Int_Tables_number   1
_chemical_formula_structural   Cs27Sn13Pb14I81
_chemical_formula_sum   'Cs27 Sn13 Pb14 I81'
_cell_volume   6834.19676279
_cell_formula_units_Z   1
loop_
 _symmetry_equiv_pos_site_id
 _symmetry_equiv_pos_as_xyz
  1  'x, y, z'
loop_
 _atom_site_type_symbol
 _atom_site_label
 _atom_site_symmetry_multiplicity
 _atom_site_fract_x
 _atom_site_fract_y
 _atom_site_fract_z
 _atom_site_occupancy
  Cs  Cs0  1  -0.00078112  0.00456650  0.00335258  1
  Cs  Cs1  1  0.00387887  -0.00109408  0.33002513  1
  Cs  Cs2  1  -0.00341472  -0.00097713  0.66709043  1
  Cs  Cs3  1  -0.00463775  0.33001174  0.00088258  1
  Cs  Cs4  1  -0.00164265  0.33287546  0.33363721  1
  Cs  Cs5  1  -0.00168985  0.34000882  0.66656491  1
  Cs  Cs6  1  0.00377073  0.66590758  -0.00308362  1
  Cs  Cs7  1  0.00123585  0.66925286  0.33958465  1
  Cs  Cs8  1  -0.00019181  0.66220999  0.66450736  1
  Cs  Cs9  1  0.33306292  0.00004602  -0.00071621  1
  Cs  Cs10  1  0.32940799  0.00154976  0.33388738  1
  Cs  Cs11  1  0.33492762  0.00386025  0.66725826  1
  Cs  Cs12  1  0.33396250  0.33662272  -0.00213655  1
  Cs  Cs13  1  0.33470978  0.32959520  0.33587453  1
  Cs  Cs14  1  0.33408035  0.33205134  0.66752306  1
  Cs  Cs15  1  0.33374705  0.66402078  -0.00133412  1
  Cs  Cs16  1  0.33327182  0.66795181  0.33179542  1
  Cs  Cs17  1  0.33317174  0.66580400  0.66881332  1
  Cs  Cs18  1  0.66765585  -0.00181451  -0.00109201  1
  Cs  Cs19  1  0.66577396  -0.00179383  0.33623523  1
  Cs  Cs20  1  0.66708069  -0.00224390  0.66439145  1
  Cs  Cs21  1  0.67083728  0.33385397  0.00448693  1
  Cs  Cs22  1  0.66630960  0.33553209  0.32985863  1
  Cs  Cs23  1  0.66632302  0.33208815  0.66557576  1
  Cs  Cs24  1  0.66699846  0.66845380  0.00211926  1
  Cs  Cs25  1  0.66555302  0.66750520  0.33204649  1
  Cs  Cs26  1  0.66736778  0.67011708  0.66689257  1
  Sn  Sn27  1  0.16709320  0.16703491  0.83324308  1
  Sn  Sn28  1  0.16761547  0.49955641  0.83451433  1
  Sn  Sn29  1  0.83337395  0.16604411  0.49992081  1
  Sn  Sn30  1  0.50023472  0.83434844  0.16729263  1
  Sn  Sn31  1  0.16673047  0.83360408  0.83313098  1
  Sn  Sn32  1  0.83300397  0.83316737  0.16725958  1
  Sn  Sn33  1  0.49983211  0.16748498  0.83447758  1
  Sn  Sn34  1  0.83257321  0.83439444  0.49892829  1
  Sn  Sn35  1  0.49985964  0.50100117  0.50086117  1
  Sn  Sn36  1  0.16667480  0.49992562  0.16637188  1
  Sn  Sn37  1  0.50009220  0.49924270  0.83264280  1
  Sn  Sn38  1  0.49979635  0.16566282  0.16567721  1
  Sn  Sn39  1  0.50004252  0.83258005  0.49931193  1
  Pb  Pb40  1  0.83263415  0.16667573  0.83145745  1
  Pb  Pb41  1  0.49875463  0.50026415  0.16637085  1
  Pb  Pb42  1  0.49861741  0.83340652  0.83338928  1
  Pb  Pb43  1  0.83612671  0.83331601  0.83333289  1
  Pb  Pb44  1  0.16942595  0.49989808  0.50017639  1
  Pb  Pb45  1  0.16701146  0.83189547  0.16467656  1
  Pb  Pb46  1  0.83267949  0.50000932  0.83361615  1
  Pb  Pb47  1  0.16693989  0.83352240  0.50239230  1
  Pb  Pb48  1  0.83088426  0.16435699  0.16897002  1
  Pb  Pb49  1  0.83655752  0.50308182  0.16683453  1
  Pb  Pb50  1  0.83038506  0.50064115  0.49989756  1
  Pb  Pb51  1  0.16361833  0.16671560  0.50264648  1
  Pb  Pb52  1  0.16895139  0.16902760  0.16454361  1
  Pb  Pb53  1  0.50121811  0.16636119  0.50019966  1
  I  I54  1  0.16530841  0.00007371  0.16399933  1
  I  I55  1  0.17178762  -0.00003267  0.50265114  1
  I  I56  1  0.17146958  0.00066943  0.83167539  1
  I  I57  1  0.16965684  0.33669120  0.16101606  1
  I  I58  1  0.16674312  0.33340068  0.50120076  1
  I  I59  1  0.17240146  0.33377798  0.83635254  1
  I  I60  1  0.16935527  0.66422036  0.15894926  1
  I  I61  1  0.16267187  0.66673012  0.50351992  1
  I  I62  1  0.17058384  0.66552052  0.83708933  1
  I  I63  1  0.50293239  -0.00081240  0.16613857  1
  I  I64  1  0.50290949  -0.00277824  0.50007447  1
  I  I65  1  0.49501622  0.00241765  0.83372612  1
  I  I66  1  0.49713658  0.33130038  0.16625837  1
  I  I67  1  0.50072691  0.33530519  0.50126104  1
  I  I68  1  0.49185681  0.33342107  0.83187678  1
  I  I69  1  0.50226293  0.66941856  0.16752842  1
  I  I70  1  0.50482446  0.66766090  0.50046498  1
  I  I71  1  0.49484164  0.66433194  0.83225449  1
  I  I72  1  0.83297178  -0.00356476  0.16787169  1
  I  I73  1  0.82621320  -0.00167723  0.49872724  1
  I  I74  1  0.83408180  -0.00011568  0.83374221  1
  I  I75  1  0.83243477  0.33309096  0.16801977  1
  I  I76  1  0.83242611  0.33106386  0.50296984  1
  I  I77  1  0.83722064  0.33321852  0.83008761  1
  I  I78  1  0.82493473  0.67095510  0.17291812  1
  I  I79  1  0.83171981  0.67021040  0.49647973  1
  I  I80  1  0.83383830  0.66688471  0.83087020  1
  I  I81  1  0.16791863  0.16417175  -0.00384743  1
  I  I82  1  0.16812523  0.16840200  0.33302565  1
  I  I83  1  0.17490779  0.16896349  0.67118289  1
  I  I84  1  0.17390683  0.50163182  -0.00210525  1
  I  I85  1  0.16827699  0.50233503  0.33079464  1
  I  I86  1  0.16838531  0.50003713  0.67033512  1
  I  I87  1  0.16770509  0.83394307  -0.00330608  1
  I  I88  1  0.16663238  0.83037887  0.33319472  1
  I  I89  1  0.16749788  0.83003163  0.67053097  1
  I  I90  1  0.49600319  0.16627936  -0.00079188  1
  I  I91  1  0.50266917  0.16665793  0.33121041  1
  I  I92  1  0.49692469  0.16772086  0.66943386  1
  I  I93  1  0.49608411  0.49966900  -0.00279925  1
  I  I94  1  0.49872227  0.50083691  0.33538403  1
  I  I95  1  0.49450028  0.49984711  0.66764291  1
  I  I96  1  0.50284087  0.83375943  0.00255077  1
  I  I97  1  0.50371987  0.83236097  0.33343442  1
  I  I98  1  0.50309268  0.83235686  0.66420919  1
  I  I99  1  0.83492091  0.16503829  0.00025796  1
  I  I100  1  0.83038230  0.16508167  0.33667274  1
  I  I101  1  0.83084105  0.15888215  0.66373806  1
  I  I102  1  0.82854577  0.50197822  0.00028376  1
  I  I103  1  0.83364391  0.49696152  0.33343479  1
  I  I104  1  0.83785982  0.50258840  0.66654334  1
  I  I105  1  0.82832094  0.83216638  0.00300267  1
  I  I106  1  0.82879485  0.83664331  0.33398393  1
  I  I107  1  0.82903283  0.83678146  0.66337129  1
  I  I108  1  -0.00002687  0.16614701  0.16578007  1
  I  I109  1  -0.00418155  0.15942048  0.50093642  1
  I  I110  1  0.00304458  0.16749878  0.83107446  1
  I  I111  1  0.00433668  0.50069551  0.15826599  1
  I  I112  1  -0.00002925  0.50080020  0.50141114  1
  I  I113  1  0.00372015  0.49970056  0.83673135  1
  I  I114  1  -0.00243304  0.83063931  0.17046951  1
  I  I115  1  -0.00314969  0.83744077  0.49656339  1
  I  I116  1  0.00423293  0.83227655  0.83332010  1
  I  I117  1  0.33712096  0.15974647  0.16718923  1
  I  I118  1  0.33364320  0.16652544  0.49882709  1
  I  I119  1  0.33402645  0.16738201  0.83570804  1
  I  I120  1  0.33112800  0.50302815  0.16343984  1
  I  I121  1  0.33749385  0.50545662  0.50214428  1
  I  I122  1  0.33339734  0.49973051  0.83302398  1
  I  I123  1  0.33655041  0.83540123  0.17012181  1
  I  I124  1  0.33683326  0.82907073  0.49643351  1
  I  I125  1  0.33070526  0.83239347  0.83376630  1
  I  I126  1  0.66272627  0.16727384  0.15965358  1
  I  I127  1  0.66880507  0.16426942  0.50269785  1
  I  I128  1  0.66290279  0.17127488  0.83568035  1
  I  I129  1  0.66643190  0.49834053  0.16646477  1
  I  I130  1  0.66232302  0.50145557  0.50567401  1
  I  I131  1  0.66252958  0.49555139  0.82889341  1
  I  I132  1  0.66536594  0.83605037  0.16985379  1
  I  I133  1  0.66589429  0.83313255  0.49749508  1
  I  I134  1  0.66653032  0.83322994  0.83311242  1
