# generated using pymatgen
data_Cs27Sn13Pb14I81
_symmetry_space_group_name_H-M   'P 1'
_cell_length_a   18.97552071
_cell_length_b   18.98016550
_cell_length_c   18.97542225
_cell_angle_alpha   90.00210100
_cell_angle_beta   90.00161778
_cell_angle_gamma   90.00244247
_symmetry_Int_Tables_number   1
_chemical_formula_structural   Cs27Sn13Pb14I81
_chemical_formula_sum   'Cs27 Sn13 Pb14 I81'
_cell_volume   6834.16004842
_cell_formula_units_Z   1
loop_
 _symmetry_equiv_pos_site_id
 _symmetry_equiv_pos_as_xyz
  1  'x, y, z'
loop_
 _atom_site_type_symbol
 _atom_site_label
 _atom_site_symmetry_multiplicity
 _atom_site_fract_x
 _atom_site_fract_y
 _atom_site_fract_z
 _atom_site_occupancy
  Cs  Cs0  1  -0.00115109  -0.00004697  -0.00151559  1
  Cs  Cs1  1  0.00266588  -0.00179303  0.33368422  1
  Cs  Cs2  1  0.00086598  -0.00082522  0.66754970  1
  Cs  Cs3  1  0.00061716  0.33411578  0.00395768  1
  Cs  Cs4  1  -0.00128008  0.33716494  0.33061815  1
  Cs  Cs5  1  -0.00237133  0.33015213  0.66527685  1
  Cs  Cs6  1  -0.00147864  0.66559324  0.00178106  1
  Cs  Cs7  1  -0.00250440  0.66601183  0.33271720  1
  Cs  Cs8  1  0.00230217  0.66970104  0.66704752  1
  Cs  Cs9  1  0.33355752  0.00122474  -0.00044215  1
  Cs  Cs10  1  0.33800410  0.00229713  0.33136399  1
  Cs  Cs11  1  0.33055506  -0.00196129  0.66736848  1
  Cs  Cs12  1  0.33298033  0.33659535  0.00259258  1
  Cs  Cs13  1  0.33383223  0.32809753  0.32820172  1
  Cs  Cs14  1  0.33392711  0.33778983  0.66860145  1
  Cs  Cs15  1  0.33290463  0.66182765  -0.00354115  1
  Cs  Cs16  1  0.33529468  0.66971802  0.33689986  1
  Cs  Cs17  1  0.33385177  0.66520035  0.66791978  1
  Cs  Cs18  1  0.66726334  -0.00017807  0.00028609  1
  Cs  Cs19  1  0.65581259  0.00058969  0.32944224  1
  Cs  Cs20  1  0.66863160  0.00290801  0.66812527  1
  Cs  Cs21  1  0.66726564  0.33276869  -0.00170435  1
  Cs  Cs22  1  0.66703256  0.33398763  0.34197705  1
  Cs  Cs23  1  0.66928313  0.33336454  0.65920799  1
  Cs  Cs24  1  0.66834605  0.66659612  0.00218545  1
  Cs  Cs25  1  0.66664504  0.66506157  0.32983797  1
  Cs  Cs26  1  0.66459555  0.66451103  0.66674568  1
  Sn  Sn27  1  0.49996644  0.83400345  0.83326354  1
  Sn  Sn28  1  0.83367729  0.50062623  0.83308812  1
  Sn  Sn29  1  0.16667200  0.49992725  0.50005963  1
  Sn  Sn30  1  0.16667353  0.83383935  0.83369194  1
  Sn  Sn31  1  0.16656679  0.16663167  0.50071800  1
  Sn  Sn32  1  0.49909159  0.16633102  0.83311577  1
  Sn  Sn33  1  0.83342499  0.83386637  0.50036863  1
  Sn  Sn34  1  0.16755301  0.16624801  0.83282706  1
  Sn  Sn35  1  0.16671842  0.83327903  0.16640019  1
  Sn  Sn36  1  0.50009048  0.50011208  0.16676301  1
  Sn  Sn37  1  0.83334983  0.16621037  0.16712342  1
  Sn  Sn38  1  0.16593964  0.83355320  0.49983751  1
  Sn  Sn39  1  0.83336410  0.83227766  0.83251818  1
  Pb  Pb40  1  0.49734664  0.83177131  0.16373763  1
  Pb  Pb41  1  0.50220365  0.49971689  0.83417648  1
  Pb  Pb42  1  0.50007141  0.83339248  0.50250131  1
  Pb  Pb43  1  0.83543549  0.50257933  0.50206596  1
  Pb  Pb44  1  0.83483141  0.83479345  0.16682438  1
  Pb  Pb45  1  0.49720059  0.16652800  0.50297091  1
  Pb  Pb46  1  0.83153502  0.49795417  0.16498899  1
  Pb  Pb47  1  0.16815443  0.50270079  0.16932839  1
  Pb  Pb48  1  0.83560159  0.16354483  0.49734058  1
  Pb  Pb49  1  0.16543177  0.16477289  0.16628565  1
  Pb  Pb50  1  0.49751971  0.50008995  0.49749459  1
  Pb  Pb51  1  0.50222211  0.16850360  0.16412729  1
  Pb  Pb52  1  0.16469661  0.49965449  0.83184409  1
  Pb  Pb53  1  0.83382165  0.16614940  0.83408962  1
  I  I54  1  0.16578068  -0.00317809  0.16939868  1
  I  I55  1  0.16227691  -0.00114224  0.50225450  1
  I  I56  1  0.16536747  -0.00134576  0.82944076  1
  I  I57  1  0.16631128  0.33332249  0.16668863  1
  I  I58  1  0.16793906  0.33248974  0.50597392  1
  I  I59  1  0.16937751  0.33025871  0.82897281  1
  I  I60  1  0.16569649  0.67068217  0.16421272  1
  I  I61  1  0.16342868  0.66848861  0.50033682  1
  I  I62  1  0.16889781  0.67004212  0.83212053  1
  I  I63  1  0.50028141  -0.00005529  0.16743831  1
  I  I64  1  0.49854649  -0.00010978  0.49621904  1
  I  I65  1  0.50035451  -0.00086390  0.83398922  1
  I  I66  1  0.49828161  0.33587321  0.16273810  1
  I  I67  1  0.49901210  0.33322791  0.50285282  1
  I  I68  1  0.49552618  0.33057640  0.83612260  1
  I  I69  1  0.50003389  0.66435769  0.16401148  1
  I  I70  1  0.49617195  0.66691044  0.50284495  1
  I  I71  1  0.49681696  0.66962882  0.83442205  1
  I  I72  1  0.83496987  0.00216992  0.16266221  1
  I  I73  1  0.84106616  -0.00413164  0.50865837  1
  I  I74  1  0.83423391  -0.00325526  0.83136042  1
  I  I75  1  0.83562453  0.33041275  0.16235777  1
  I  I76  1  0.83531537  0.33316368  0.50102854  1
  I  I77  1  0.83361338  0.33489862  0.83699631  1
  I  I78  1  0.83347192  0.66686823  0.16734465  1
  I  I79  1  0.84069887  0.67055130  0.50127868  1
  I  I80  1  0.83390451  0.66901313  0.83113723  1
  I  I81  1  0.16819643  0.16115517  -0.00325808  1
  I  I82  1  0.16342644  0.16505100  0.33603546  1
  I  I83  1  0.16907089  0.16130373  0.66744385  1
  I  I84  1  0.16641826  0.50051116  0.00002797  1
  I  I85  1  0.16654833  0.49972279  0.33722325  1
  I  I86  1  0.16638698  0.50501209  0.66399270  1
  I  I87  1  0.16619986  0.83831562  -0.00191112  1
  I  I88  1  0.16094284  0.83269014  0.33479929  1
  I  I89  1  0.16574759  0.83422621  0.66715707  1
  I  I90  1  0.49357930  0.16259929  -0.00378505  1
  I  I91  1  0.49968020  0.16809568  0.33325463  1
  I  I92  1  0.50056836  0.16301733  0.67110117  1
  I  I93  1  0.49911299  0.50067232  0.00180892  1
  I  I94  1  0.50021469  0.50053909  0.32991650  1
  I  I95  1  0.50022861  0.50014114  0.66672551  1
  I  I96  1  0.50075774  0.83667314  -0.00442450  1
  I  I97  1  0.49972048  0.83167222  0.33312743  1
  I  I98  1  0.49533522  0.83540953  0.67092270  1
  I  I99  1  0.83571881  0.16465566  0.00149555  1
  I  I100  1  0.83611210  0.16624954  0.33024590  1
  I  I101  1  0.83150139  0.16873508  0.66649935  1
  I  I102  1  0.83445340  0.50675701  -0.00307303  1
  I  I103  1  0.83313340  0.50044311  0.33363267  1
  I  I104  1  0.83211489  0.50031700  0.67005673  1
  I  I105  1  0.83514772  0.83166830  -0.00333613  1
  I  I106  1  0.84122676  0.83505548  0.33604313  1
  I  I107  1  0.83911051  0.83070415  0.66809289  1
  I  I108  1  -0.00200092  0.16620992  0.16267739  1
  I  I109  1  0.00390312  0.16682037  0.50773781  1
  I  I110  1  0.00306942  0.16283927  0.83083199  1
  I  I111  1  0.00005972  0.49954594  0.16646715  1
  I  I112  1  0.00350888  0.49897011  0.49997846  1
  I  I113  1  -0.00294079  0.50468239  0.83344624  1
  I  I114  1  0.00301196  0.83393848  0.16255764  1
  I  I115  1  0.00182157  0.83336638  0.50535621  1
  I  I116  1  0.00096583  0.83391818  0.83228122  1
  I  I117  1  0.33329992  0.16682003  0.16819393  1
  I  I118  1  0.32864046  0.16223501  0.49938725  1
  I  I119  1  0.33211018  0.15843135  0.83050806  1
  I  I120  1  0.33563361  0.49941513  0.16367205  1
  I  I121  1  0.32917082  0.50457520  0.50280660  1
  I  I122  1  0.33318501  0.50224158  0.83316391  1
  I  I123  1  0.32929044  0.83442696  0.16882435  1
  I  I124  1  0.32936672  0.83325978  0.50068385  1
  I  I125  1  0.33199490  0.83778334  0.83338611  1
  I  I126  1  0.66963943  0.16453850  0.16284485  1
  I  I127  1  0.66687004  0.16617040  0.50031017  1
  I  I128  1  0.66474561  0.16292626  0.83803733  1
  I  I129  1  0.66402116  0.50136607  0.16398587  1
  I  I130  1  0.66697232  0.50124614  0.50006407  1
  I  I131  1  0.66985641  0.50449397  0.83513721  1
  I  I132  1  0.66648505  0.83361440  0.16667342  1
  I  I133  1  0.66977226  0.83273866  0.50530456  1
  I  I134  1  0.66728438  0.83364965  0.82926984  1
