# generated using pymatgen
data_Cs27Sn14Pb13I81
_symmetry_space_group_name_H-M   'P 1'
_cell_length_a   18.97787108
_cell_length_b   18.96697476
_cell_length_c   18.98285069
_cell_angle_alpha   90.00080882
_cell_angle_beta   89.99917328
_cell_angle_gamma   90.00124710
_symmetry_Int_Tables_number   1
_chemical_formula_structural   Cs27Sn14Pb13I81
_chemical_formula_sum   'Cs27 Sn14 Pb13 I81'
_cell_volume   6832.93028895
_cell_formula_units_Z   1
loop_
 _symmetry_equiv_pos_site_id
 _symmetry_equiv_pos_as_xyz
  1  'x, y, z'
loop_
 _atom_site_type_symbol
 _atom_site_label
 _atom_site_symmetry_multiplicity
 _atom_site_fract_x
 _atom_site_fract_y
 _atom_site_fract_z
 _atom_site_occupancy
  Cs  Cs0  1  0.00017209  -0.00160621  0.00230065  1
  Cs  Cs1  1  0.00001608  0.00001156  0.33223968  1
  Cs  Cs2  1  0.00088116  0.00008298  0.66591464  1
  Cs  Cs3  1  0.00034881  0.33758961  -0.00296254  1
  Cs  Cs4  1  0.00012636  0.33200507  0.33484533  1
  Cs  Cs5  1  -0.00363710  0.33355313  0.66718509  1
  Cs  Cs6  1  0.00535734  0.66386606  -0.00192824  1
  Cs  Cs7  1  -0.00157964  0.66721069  0.33412240  1
  Cs  Cs8  1  0.00184954  0.66508840  0.66757717  1
  Cs  Cs9  1  0.33068210  -0.00069405  0.00026009  1
  Cs  Cs10  1  0.33200168  0.00155429  0.33628778  1
  Cs  Cs11  1  0.33292780  0.00304100  0.66155559  1
  Cs  Cs12  1  0.33594439  0.33422358  0.00450044  1
  Cs  Cs13  1  0.33463539  0.33159176  0.33268191  1
  Cs  Cs14  1  0.33417400  0.33031116  0.66238621  1
  Cs  Cs15  1  0.33120806  0.66528358  -0.00280370  1
  Cs  Cs16  1  0.33365584  0.66620611  0.33493678  1
  Cs  Cs17  1  0.33471427  0.66701736  0.66761773  1
  Cs  Cs18  1  0.66826682  0.00066483  -0.00041582  1
  Cs  Cs19  1  0.66885422  -0.00336013  0.33274270  1
  Cs  Cs20  1  0.66527990  0.00025092  0.66784166  1
  Cs  Cs21  1  0.66362125  0.33172791  -0.00274967  1
  Cs  Cs22  1  0.66817743  0.33779463  0.32714246  1
  Cs  Cs23  1  0.66974441  0.33551490  0.67401380  1
  Cs  Cs24  1  0.66465687  0.66910817  0.00093188  1
  Cs  Cs25  1  0.66844772  0.66808525  0.33440005  1
  Cs  Cs26  1  0.66332516  0.66638070  0.66495082  1
  Sn  Sn27  1  0.83290559  0.16578778  0.49929532  1
  Sn  Sn28  1  0.83427662  0.83412864  0.50043632  1
  Sn  Sn29  1  0.83436955  0.16595393  0.16723865  1
  Sn  Sn30  1  0.83377139  0.83354287  0.16627422  1
  Sn  Sn31  1  0.16672991  0.83375758  0.16758991  1
  Sn  Sn32  1  0.49960257  0.50068689  0.83253267  1
  Sn  Sn33  1  0.83296642  0.83325276  0.83329454  1
  Sn  Sn34  1  0.50040275  0.83311459  0.83392014  1
  Sn  Sn35  1  0.49939223  0.49998664  0.50060402  1
  Sn  Sn36  1  0.16670068  0.16644707  0.83450137  1
  Sn  Sn37  1  0.16741454  0.50087393  0.49974772  1
  Sn  Sn38  1  0.49956716  0.83348353  0.16602605  1
  Sn  Sn39  1  0.16562578  0.16588883  0.16557893  1
  Sn  Sn40  1  0.16591453  0.83251561  0.49929123  1
  Pb  Pb41  1  0.83514866  0.16433381  0.83399132  1
  Pb  Pb42  1  0.50001774  0.83239089  0.50007705  1
  Pb  Pb43  1  0.50028188  0.16375697  0.16686784  1
  Pb  Pb44  1  0.16703831  0.83445779  0.83301878  1
  Pb  Pb45  1  0.16656586  0.49985069  0.16899689  1
  Pb  Pb46  1  0.83098473  0.50322547  0.83352981  1
  Pb  Pb47  1  0.16919947  0.49710610  0.83071281  1
  Pb  Pb48  1  0.83357472  0.49996150  0.16634463  1
  Pb  Pb49  1  0.49759774  0.16594375  0.83337920  1
  Pb  Pb50  1  0.49989296  0.50276406  0.16660669  1
  Pb  Pb51  1  0.83321731  0.50018723  0.49994516  1
  Pb  Pb52  1  0.50407059  0.16997963  0.49981337  1
  Pb  Pb53  1  0.16495034  0.16647851  0.49918102  1
  I  I54  1  0.16607176  -0.00136736  0.16878868  1
  I  I55  1  0.16470323  -0.00286632  0.49926906  1
  I  I56  1  0.16816909  0.00213100  0.83236730  1
  I  I57  1  0.16164161  0.32985239  0.16413562  1
  I  I58  1  0.16947851  0.33539151  0.50088753  1
  I  I59  1  0.16664729  0.32952441  0.83866697  1
  I  I60  1  0.16541975  0.67037570  0.16857600  1
  I  I61  1  0.16425489  0.66843693  0.49499111  1
  I  I62  1  0.16470335  0.66672540  0.83517824  1
  I  I63  1  0.50059503  -0.00459462  0.16052628  1
  I  I64  1  0.49666236  -0.00012812  0.50115009  1
  I  I65  1  0.50405743  -0.00361727  0.83801012  1
  I  I66  1  0.50027672  0.33331601  0.16643431  1
  I  I67  1  0.49248689  0.33791601  0.50633032  1
  I  I68  1  0.49790655  0.33602537  0.82768302  1
  I  I69  1  0.50095372  0.67127641  0.16582783  1
  I  I70  1  0.50039697  0.66448739  0.50097727  1
  I  I71  1  0.50389046  0.66798836  0.83316722  1
  I  I72  1  0.83386971  -0.00152752  0.16793024  1
  I  I73  1  0.83946625  -0.00193304  0.49881268  1
  I  I74  1  0.82655134  -0.00390165  0.83286894  1
  I  I75  1  0.83824996  0.32944741  0.17351214  1
  I  I76  1  0.83416133  0.33043954  0.49458903  1
  I  I77  1  0.83283050  0.33307352  0.83229573  1
  I  I78  1  0.83325107  0.67122948  0.16882626  1
  I  I79  1  0.83397670  0.67025117  0.49844203  1
  I  I80  1  0.83379644  0.67177467  0.83291450  1
  I  I81  1  0.16187922  0.15941464  0.00179887  1
  I  I82  1  0.16441217  0.16512825  0.33047428  1
  I  I83  1  0.16590702  0.16599317  0.66783585  1
  I  I84  1  0.16805280  0.50231608  -0.00012875  1
  I  I85  1  0.17328670  0.50031525  0.33699785  1
  I  I86  1  0.16762811  0.50591029  0.66297423  1
  I  I87  1  0.16447958  0.83640411  0.00275511  1
  I  I88  1  0.16461336  0.83511851  0.33291974  1
  I  I89  1  0.16365316  0.83192881  0.66392455  1
  I  I90  1  0.50393582  0.17203688  0.00009274  1
  I  I91  1  0.49407786  0.16687094  0.33337711  1
  I  I92  1  0.49779237  0.16113784  0.66658919  1
  I  I93  1  0.50126766  0.50259012  -0.00289886  1
  I  I94  1  0.49659616  0.50090014  0.33617808  1
  I  I95  1  0.49664947  0.50769196  0.66674147  1
  I  I96  1  0.50321346  0.82805073  -0.00011004  1
  I  I97  1  0.50236915  0.83216708  0.33091142  1
  I  I98  1  0.50326674  0.83060245  0.66906198  1
  I  I99  1  0.83526407  0.16120287  0.00319450  1
  I  I100  1  0.83944810  0.15833919  0.33267195  1
  I  I101  1  0.83562583  0.16266222  0.66443865  1
  I  I102  1  0.83123261  0.49898318  -0.00019433  1
  I  I103  1  0.82972152  0.50407626  0.33351100  1
  I  I104  1  0.83536592  0.49860181  0.66656003  1
  I  I105  1  0.83174218  0.83737606  0.00097912  1
  I  I106  1  0.83323649  0.83664114  0.33314016  1
  I  I107  1  0.83310784  0.83691451  0.66582203  1
  I  I108  1  -0.00001022  0.15726270  0.16746977  1
  I  I109  1  -0.00284612  0.16659669  0.49911945  1
  I  I110  1  0.00285008  0.16380434  0.83371717  1
  I  I111  1  0.00022948  0.50510917  0.16896629  1
  I  I112  1  0.00251983  0.50179091  0.49840513  1
  I  I113  1  0.00035779  0.50040711  0.83195344  1
  I  I114  1  -0.00011809  0.83775665  0.16790988  1
  I  I115  1  -0.00012708  0.83123367  0.49734813  1
  I  I116  1  -0.00238183  0.83697826  0.83480876  1
  I  I117  1  0.33010897  0.16276250  0.16289685  1
  I  I118  1  0.33320884  0.16444345  0.50030144  1
  I  I119  1  0.32975102  0.16384098  0.83870113  1
  I  I120  1  0.33325886  0.49992993  0.16591987  1
  I  I121  1  0.33287377  0.50695418  0.50354581  1
  I  I122  1  0.33675159  0.50913137  0.83174336  1
  I  I123  1  0.33242100  0.83651897  0.16680771  1
  I  I124  1  0.33070371  0.83123311  0.49721453  1
  I  I125  1  0.33596132  0.83038335  0.83684595  1
  I  I126  1  0.67021191  0.16262104  0.17149934  1
  I  I127  1  0.67181708  0.15872929  0.49468102  1
  I  I128  1  0.66682794  0.16906334  0.83301437  1
  I  I129  1  0.66650229  0.49992134  0.17008506  1
  I  I130  1  0.66401382  0.50069745  0.50420870  1
  I  I131  1  0.66289658  0.50013523  0.82551922  1
  I  I132  1  0.66764836  0.83601243  0.16676221  1
  I  I133  1  0.66945879  0.83497734  0.49736396  1
  I  I134  1  0.66678411  0.83024363  0.83604446  1
