# generated using pymatgen
data_Cs27Sn14Pb13I81
_symmetry_space_group_name_H-M   'P 1'
_cell_length_a   18.95778064
_cell_length_b   18.96581487
_cell_length_c   18.95715444
_cell_angle_alpha   90.00003387
_cell_angle_beta   89.99872124
_cell_angle_gamma   90.00058878
_symmetry_Int_Tables_number   1
_chemical_formula_structural   Cs27Sn14Pb13I81
_chemical_formula_sum   'Cs27 Sn14 Pb13 I81'
_cell_volume   6816.04029217
_cell_formula_units_Z   1
loop_
 _symmetry_equiv_pos_site_id
 _symmetry_equiv_pos_as_xyz
  1  'x, y, z'
loop_
 _atom_site_type_symbol
 _atom_site_label
 _atom_site_symmetry_multiplicity
 _atom_site_fract_x
 _atom_site_fract_y
 _atom_site_fract_z
 _atom_site_occupancy
  Cs  Cs0  1  0.00008365  0.00006590  0.00060171  1
  Cs  Cs1  1  0.00056432  -0.00091277  0.33367442  1
  Cs  Cs2  1  0.00179083  0.00110722  0.66576364  1
  Cs  Cs3  1  0.00059210  0.33244423  0.00166871  1
  Cs  Cs4  1  -0.00338957  0.33379098  0.32885559  1
  Cs  Cs5  1  -0.00027849  0.33255275  0.66744329  1
  Cs  Cs6  1  0.00057477  0.66719894  -0.00218858  1
  Cs  Cs7  1  -0.00078706  0.66858863  0.33178899  1
  Cs  Cs8  1  -0.00204855  0.66551643  0.66908259  1
  Cs  Cs9  1  0.33662808  0.00007223  -0.00104284  1
  Cs  Cs10  1  0.33047454  -0.00231710  0.33688180  1
  Cs  Cs11  1  0.33190724  0.00188235  0.66515651  1
  Cs  Cs12  1  0.33244512  0.33376378  -0.00118536  1
  Cs  Cs13  1  0.33321646  0.33764386  0.33470460  1
  Cs  Cs14  1  0.33395127  0.33421605  0.66715082  1
  Cs  Cs15  1  0.33243393  0.66623537  0.00278056  1
  Cs  Cs16  1  0.33459311  0.66537475  0.33267619  1
  Cs  Cs17  1  0.33241572  0.66277813  0.66504002  1
  Cs  Cs18  1  0.65896902  0.00007543  0.00010997  1
  Cs  Cs19  1  0.66874921  -0.00005133  0.33297869  1
  Cs  Cs20  1  0.66655234  0.00036806  0.66740776  1
  Cs  Cs21  1  0.66774165  0.32867774  0.01038967  1
  Cs  Cs22  1  0.67012747  0.33205005  0.33004357  1
  Cs  Cs23  1  0.66549126  0.33413955  0.66486783  1
  Cs  Cs24  1  0.66609186  0.67119949  -0.00301573  1
  Cs  Cs25  1  0.66511533  0.66720699  0.33505822  1
  Cs  Cs26  1  0.66939612  0.66599340  0.66673839  1
  Sn  Sn27  1  0.16674980  0.83351619  0.83392835  1
  Sn  Sn28  1  0.49933934  0.49981909  0.50084325  1
  Sn  Sn29  1  0.16608678  0.16652022  0.83404945  1
  Sn  Sn30  1  0.83268900  0.83412905  0.49960651  1
  Sn  Sn31  1  0.83266647  0.16588226  0.50093032  1
  Sn  Sn32  1  0.16693716  0.16578209  0.16596257  1
  Sn  Sn33  1  0.16726255  0.49988863  0.83230792  1
  Sn  Sn34  1  0.83386409  0.83353279  0.16699373  1
  Sn  Sn35  1  0.50075955  0.83336443  0.50036041  1
  Sn  Sn36  1  0.83356171  0.16673242  0.83278872  1
  Sn  Sn37  1  0.50076398  0.16680851  0.50015461  1
  Sn  Sn38  1  0.16659286  0.49991902  0.50057104  1
  Sn  Sn39  1  0.16598609  0.83435276  0.16569654  1
  Sn  Sn40  1  0.49976734  0.49960653  0.83292058  1
  Pb  Pb41  1  0.83297436  0.49700990  0.83357701  1
  Pb  Pb42  1  0.16659195  0.50033937  0.16614282  1
  Pb  Pb43  1  0.49666960  0.16653983  0.16991875  1
  Pb  Pb44  1  0.16616018  0.16895331  0.49994621  1
  Pb  Pb45  1  0.83304568  0.49992206  0.49996966  1
  Pb  Pb46  1  0.49961301  0.83342601  0.16891302  1
  Pb  Pb47  1  0.83501402  0.83570678  0.83308078  1
  Pb  Pb48  1  0.50013488  0.50003759  0.16645273  1
  Pb  Pb49  1  0.16616879  0.83116709  0.50002338  1
  Pb  Pb50  1  0.83325167  0.50372117  0.16630592  1
  Pb  Pb51  1  0.49725971  0.83110447  0.83064880  1
  Pb  Pb52  1  0.83521071  0.16434357  0.16673680  1
  Pb  Pb53  1  0.49987184  0.16879802  0.83158499  1
  I  I54  1  0.16330976  -0.00065924  0.16078018  1
  I  I55  1  0.16965703  0.00002050  0.50189475  1
  I  I56  1  0.16194106  0.00051907  0.83698573  1
  I  I57  1  0.16676401  0.33075631  0.16451309  1
  I  I58  1  0.17087919  0.33656022  0.50374058  1
  I  I59  1  0.16673616  0.33311517  0.83280827  1
  I  I60  1  0.16295554  0.66984991  0.16449084  1
  I  I61  1  0.17054587  0.66348679  0.50335423  1
  I  I62  1  0.17041705  0.66638771  0.83299586  1
  I  I63  1  0.50044873  -0.00002182  0.16740114  1
  I  I64  1  0.50366299  0.00004918  0.49883784  1
  I  I65  1  0.49873416  0.00012480  0.83133704  1
  I  I66  1  0.49849917  0.33311920  0.16928252  1
  I  I67  1  0.49880247  0.33371462  0.50417227  1
  I  I68  1  0.49302835  0.33661677  0.82514863  1
  I  I69  1  0.49801279  0.66691801  0.16974601  1
  I  I70  1  0.49935020  0.66635659  0.50265660  1
  I  I71  1  0.49503998  0.66308157  0.82765248  1
  I  I72  1  0.83744856  -0.00332060  0.17004879  1
  I  I73  1  0.82680767  0.00000123  0.49989472  1
  I  I74  1  0.83964795  0.00357275  0.83053607  1
  I  I75  1  0.83485786  0.33270945  0.16766756  1
  I  I76  1  0.83157688  0.33022808  0.50423099  1
  I  I77  1  0.83990228  0.32907543  0.82551530  1
  I  I78  1  0.84075138  0.67185578  0.17369152  1
  I  I79  1  0.83132625  0.66969853  0.49565906  1
  I  I80  1  0.83495177  0.66694968  0.83320322  1
  I  I81  1  0.16082403  0.16852893  -0.00154050  1
  I  I82  1  0.16711700  0.16285762  0.33134067  1
  I  I83  1  0.16575231  0.16450167  0.66926399  1
  I  I84  1  0.17080894  0.49988402  -0.00360947  1
  I  I85  1  0.17135454  0.49999075  0.33599085  1
  I  I86  1  0.17085265  0.50013428  0.66755694  1
  I  I87  1  0.16090752  0.83160167  -0.00003718  1
  I  I88  1  0.16594688  0.83667526  0.33116497  1
  I  I89  1  0.16691770  0.83559922  0.66908633  1
  I  I90  1  0.50277035  0.16899386  -0.00016548  1
  I  I91  1  0.50502485  0.16936156  0.33831043  1
  I  I92  1  0.49853277  0.16514970  0.66309744  1
  I  I93  1  0.49342420  0.49976748  -0.00354663  1
  I  I94  1  0.49471954  0.50077787  0.33740079  1
  I  I95  1  0.49401965  0.50003861  0.66528422  1
  I  I96  1  0.50256140  0.83099288  -0.00041685  1
  I  I97  1  0.49830744  0.83075308  0.33756235  1
  I  I98  1  0.50445799  0.83503846  0.66239109  1
  I  I99  1  0.83732025  0.16752565  -0.00247880  1
  I  I100  1  0.83102998  0.16529273  0.33624388  1
  I  I101  1  0.83639973  0.16140543  0.66567291  1
  I  I102  1  0.83417323  0.49893741  -0.00038056  1
  I  I103  1  0.83473572  0.49501731  0.33367720  1
  I  I104  1  0.83507882  0.50459135  0.66663768  1
  I  I105  1  0.83771835  0.83337304  0.00229049  1
  I  I106  1  0.83598946  0.83847162  0.33457146  1
  I  I107  1  0.83115312  0.83501360  0.66374369  1
  I  I108  1  0.00328613  0.16500668  0.16783234  1
  I  I109  1  -0.00250122  0.16264576  0.50099619  1
  I  I110  1  0.00144990  0.16823162  0.83030790  1
  I  I111  1  0.00045450  0.49773278  0.16868973  1
  I  I112  1  0.00267784  0.50028333  0.50446855  1
  I  I113  1  0.00360166  0.50166208  0.82888091  1
  I  I114  1  0.00098675  0.83684442  0.17029794  1
  I  I115  1  -0.00248981  0.83721674  0.49883563  1
  I  I116  1  0.00359202  0.82897611  0.83186357  1
  I  I117  1  0.32869001  0.16107204  0.16126273  1
  I  I118  1  0.33551921  0.16475222  0.49967466  1
  I  I119  1  0.33006387  0.16571232  0.83504547  1
  I  I120  1  0.33302062  0.50226509  0.16884547  1
  I  I121  1  0.33388629  0.49989224  0.50346970  1
  I  I122  1  0.33168869  0.49835034  0.82797619  1
  I  I123  1  0.32984194  0.83578519  0.16436427  1
  I  I124  1  0.33544230  0.83508129  0.50042212  1
  I  I125  1  0.32885645  0.83802428  0.83739524  1
  I  I126  1  0.66683244  0.16576182  0.16396713  1
  I  I127  1  0.66713813  0.16759488  0.50545023  1
  I  I128  1  0.66903992  0.16765488  0.82971388  1
  I  I129  1  0.66662615  0.49958322  0.16747613  1
  I  I130  1  0.66333796  0.50078018  0.50475857  1
  I  I131  1  0.66350997  0.49998246  0.82610180  1
  I  I132  1  0.66948038  0.83284231  0.16993075  1
  I  I133  1  0.66708253  0.83185525  0.49478465  1
  I  I134  1  0.66653692  0.83278547  0.83598516  1
