# generated using pymatgen
data_Cs27Sn13Pb14I81
_symmetry_space_group_name_H-M   'P 1'
_cell_length_a   18.98304787
_cell_length_b   18.97429923
_cell_length_c   18.97613752
_cell_angle_alpha   89.99913242
_cell_angle_beta   89.99908135
_cell_angle_gamma   89.99952891
_symmetry_Int_Tables_number   1
_chemical_formula_structural   Cs27Sn13Pb14I81
_chemical_formula_sum   'Cs27 Sn13 Pb14 I81'
_cell_volume   6835.01555291
_cell_formula_units_Z   1
loop_
 _symmetry_equiv_pos_site_id
 _symmetry_equiv_pos_as_xyz
  1  'x, y, z'
loop_
 _atom_site_type_symbol
 _atom_site_label
 _atom_site_symmetry_multiplicity
 _atom_site_fract_x
 _atom_site_fract_y
 _atom_site_fract_z
 _atom_site_occupancy
  Cs  Cs0  1  0.00140119  0.00092270  -0.00046567  1
  Cs  Cs1  1  0.00176459  -0.00011177  0.33539057  1
  Cs  Cs2  1  0.00010427  -0.00041948  0.66595744  1
  Cs  Cs3  1  -0.00922388  0.33835636  -0.00023073  1
  Cs  Cs4  1  0.00297485  0.33485510  0.33451693  1
  Cs  Cs5  1  -0.00296278  0.33226606  0.66663027  1
  Cs  Cs6  1  0.00155780  0.65959162  -0.00097651  1
  Cs  Cs7  1  -0.00018779  0.66635130  0.33304655  1
  Cs  Cs8  1  0.00130756  0.66965822  0.66784909  1
  Cs  Cs9  1  0.33276270  -0.00011401  -0.00163348  1
  Cs  Cs10  1  0.33207584  0.00071863  0.33385428  1
  Cs  Cs11  1  0.33393761  -0.00015018  0.66740859  1
  Cs  Cs12  1  0.33552951  0.33691550  0.00138994  1
  Cs  Cs13  1  0.33276778  0.33756326  0.33288764  1
  Cs  Cs14  1  0.33598036  0.33368826  0.66538834  1
  Cs  Cs15  1  0.33171833  0.65923193  -0.00278368  1
  Cs  Cs16  1  0.33370030  0.66024215  0.33285425  1
  Cs  Cs17  1  0.33418745  0.66327253  0.66930562  1
  Cs  Cs18  1  0.66645309  0.00078061  0.00625126  1
  Cs  Cs19  1  0.66544781  -0.00136927  0.33095416  1
  Cs  Cs20  1  0.66524009  -0.00118044  0.66617729  1
  Cs  Cs21  1  0.67515022  0.33843440  0.00415603  1
  Cs  Cs22  1  0.66402597  0.33264263  0.32949678  1
  Cs  Cs23  1  0.66669422  0.33410867  0.66857298  1
  Cs  Cs24  1  0.66681649  0.66342483  0.00777036  1
  Cs  Cs25  1  0.66628708  0.66938302  0.32925336  1
  Cs  Cs26  1  0.66525813  0.66919626  0.66547968  1
  Sn  Sn27  1  0.16692073  0.83399121  0.16722347  1
  Sn  Sn28  1  0.16720664  0.83391856  0.49923360  1
  Sn  Sn29  1  0.16708272  0.16577131  0.50030920  1
  Sn  Sn30  1  0.50110018  0.83434106  0.83289364  1
  Sn  Sn31  1  0.83308412  0.50033438  0.50040498  1
  Sn  Sn32  1  0.83211040  0.83393274  0.83301839  1
  Sn  Sn33  1  0.49958251  0.83418676  0.50060590  1
  Sn  Sn34  1  0.49984352  0.16562870  0.50071291  1
  Sn  Sn35  1  0.16717954  0.16640599  0.83328469  1
  Sn  Sn36  1  0.83290909  0.16649321  0.50015779  1
  Sn  Sn37  1  0.49980734  0.16586926  0.83297129  1
  Sn  Sn38  1  0.83320687  0.83351331  0.50065096  1
  Sn  Sn39  1  0.16673346  0.16575434  0.16643075  1
  Pb  Pb40  1  0.50259827  0.50006694  0.50008180  1
  Pb  Pb41  1  0.83254002  0.16458700  0.83152864  1
  Pb  Pb42  1  0.16660617  0.49562281  0.83277854  1
  Pb  Pb43  1  0.83359175  0.50022191  0.16991477  1
  Pb  Pb44  1  0.83604855  0.83356964  0.16660008  1
  Pb  Pb45  1  0.50037162  0.49971364  0.83296300  1
  Pb  Pb46  1  0.83301426  0.50356881  0.83066830  1
  Pb  Pb47  1  0.16656852  0.49970623  0.16688349  1
  Pb  Pb48  1  0.49693769  0.83343054  0.16632862  1
  Pb  Pb49  1  0.83608799  0.16621669  0.16972871  1
  Pb  Pb50  1  0.16705507  0.83464517  0.83314108  1
  Pb  Pb51  1  0.16472984  0.50011488  0.50047417  1
  Pb  Pb52  1  0.49773754  0.16650735  0.16639293  1
  Pb  Pb53  1  0.49993231  0.49993494  0.16678579  1
  I  I54  1  0.16632755  0.00056266  0.16968478  1
  I  I55  1  0.16267756  0.00052151  0.49920199  1
  I  I56  1  0.16740056  0.00291989  0.83204282  1
  I  I57  1  0.16755355  0.32954647  0.16942204  1
  I  I58  1  0.16656970  0.32928813  0.49899867  1
  I  I59  1  0.17249242  0.32717013  0.83132382  1
  I  I60  1  0.16639564  0.66998448  0.17283678  1
  I  I61  1  0.16637191  0.67049021  0.49531124  1
  I  I62  1  0.16661078  0.66692633  0.83389726  1
  I  I63  1  0.50187178  -0.00006178  0.16748107  1
  I  I64  1  0.50271392  0.00001323  0.50345434  1
  I  I65  1  0.49891127  0.00000881  0.82735967  1
  I  I66  1  0.49626725  0.33269717  0.16855728  1
  I  I67  1  0.49882211  0.32946243  0.50338388  1
  I  I68  1  0.49336689  0.32920855  0.82728774  1
  I  I69  1  0.49733971  0.66729342  0.16782644  1
  I  I70  1  0.49911925  0.67057580  0.50383125  1
  I  I71  1  0.50273796  0.67054068  0.82761337  1
  I  I72  1  0.83207368  -0.00010692  0.16920872  1
  I  I73  1  0.83503199  -0.00047279  0.50347209  1
  I  I74  1  0.83362028  -0.00327978  0.82542658  1
  I  I75  1  0.83586703  0.33309737  0.16707928  1
  I  I76  1  0.83529249  0.33197264  0.49908897  1
  I  I77  1  0.83462493  0.33315719  0.83176623  1
  I  I78  1  0.83620935  0.66710357  0.16834570  1
  I  I79  1  0.83428375  0.66850463  0.50370879  1
  I  I80  1  0.82960401  0.67174046  0.82686270  1
  I  I81  1  0.17243132  0.16050580  -0.00029330  1
  I  I82  1  0.16532627  0.16260304  0.33501070  1
  I  I83  1  0.16666164  0.16243797  0.66523069  1
  I  I84  1  0.16606173  0.50307464  -0.00003456  1
  I  I85  1  0.16554996  0.49631123  0.33371323  1
  I  I86  1  0.16592269  0.50216690  0.66633257  1
  I  I87  1  0.16610953  0.83918113  0.00195856  1
  I  I88  1  0.16542772  0.84108015  0.33557087  1
  I  I89  1  0.16490840  0.83744547  0.66338930  1
  I  I90  1  0.49376894  0.16111291  -0.00365560  1
  I  I91  1  0.50073872  0.16255863  0.33710886  1
  I  I92  1  0.49479364  0.16293581  0.66539040  1
  I  I93  1  0.49962733  0.50061653  -0.00037889  1
  I  I94  1  0.50045342  0.49971092  0.33404808  1
  I  I95  1  0.49956530  0.49968050  0.66637524  1
  I  I96  1  0.50386841  0.83843444  -0.00363696  1
  I  I97  1  0.50354574  0.83753525  0.33702501  1
  I  I98  1  0.49926516  0.83735775  0.66527399  1
  I  I99  1  0.83411604  0.16541315  -0.00015651  1
  I  I100  1  0.83217880  0.16328214  0.33879719  1
  I  I101  1  0.83905454  0.16770144  0.66268684  1
  I  I102  1  0.83377452  0.50045088  -0.00017455  1
  I  I103  1  0.83445915  0.50267989  0.33801516  1
  I  I104  1  0.83411789  0.49671968  0.66280711  1
  I  I105  1  0.82984021  0.83503977  -0.00311841  1
  I  I106  1  0.83108003  0.83331039  0.33737134  1
  I  I107  1  0.83554214  0.83349380  0.66447724  1
  I  I108  1  0.00443329  0.16188558  0.16646276  1
  I  I109  1  0.00062750  0.16422657  0.49969351  1
  I  I110  1  0.00240526  0.16424482  0.83159497  1
  I  I111  1  0.00015662  0.49988878  0.16706694  1
  I  I112  1  -0.00319498  0.49982386  0.49994929  1
  I  I113  1  -0.00028613  0.50090830  0.83283407  1
  I  I114  1  0.00390650  0.83839813  0.17187963  1
  I  I115  1  -0.00010010  0.83577828  0.50021422  1
  I  I116  1  -0.00178241  0.83517092  0.82860443  1
  I  I117  1  0.32951218  0.16184242  0.17181241  1
  I  I118  1  0.33287805  0.16000164  0.50054343  1
  I  I119  1  0.33342810  0.16014197  0.82798692  1
  I  I120  1  0.33281387  0.50038473  0.16787220  1
  I  I121  1  0.33353690  0.49991290  0.49891509  1
  I  I122  1  0.33344400  0.50569603  0.83336085  1
  I  I123  1  0.32917858  0.83912790  0.17161865  1
  I  I124  1  0.33333449  0.84089196  0.50008681  1
  I  I125  1  0.33608478  0.83624661  0.82972827  1
  I  I126  1  0.66667931  0.16844793  0.16715072  1
  I  I127  1  0.66625864  0.16435441  0.50535243  1
  I  I128  1  0.66349147  0.16432953  0.82625614  1
  I  I129  1  0.66704920  0.49986082  0.16714555  1
  I  I130  1  0.67040169  0.50005947  0.50097504  1
  I  I131  1  0.66681614  0.49438171  0.83204045  1
  I  I132  1  0.66654794  0.83160789  0.16927372  1
  I  I133  1  0.66670409  0.83555848  0.50482942  1
  I  I134  1  0.66597290  0.83881737  0.82247614  1
