# generated using pymatgen
data_Cs27Sn13Pb14I81
_symmetry_space_group_name_H-M   'P 1'
_cell_length_a   18.97703880
_cell_length_b   18.97522330
_cell_length_c   18.97856163
_cell_angle_alpha   89.99845463
_cell_angle_beta   90.00060660
_cell_angle_gamma   89.99855373
_symmetry_Int_Tables_number   1
_chemical_formula_structural   Cs27Sn13Pb14I81
_chemical_formula_sum   'Cs27 Sn13 Pb14 I81'
_cell_volume   6834.05760191
_cell_formula_units_Z   1
loop_
 _symmetry_equiv_pos_site_id
 _symmetry_equiv_pos_as_xyz
  1  'x, y, z'
loop_
 _atom_site_type_symbol
 _atom_site_label
 _atom_site_symmetry_multiplicity
 _atom_site_fract_x
 _atom_site_fract_y
 _atom_site_fract_z
 _atom_site_occupancy
  Cs  Cs0  1  0.00178725  0.00084176  0.00257755  1
  Cs  Cs1  1  -0.00192462  -0.00078659  0.33207086  1
  Cs  Cs2  1  0.00056397  -0.00008731  0.66565807  1
  Cs  Cs3  1  -0.00014039  0.33432468  0.00046332  1
  Cs  Cs4  1  -0.00002299  0.33285968  0.33429073  1
  Cs  Cs5  1  -0.00308564  0.33352006  0.66581327  1
  Cs  Cs6  1  0.00083707  0.66507574  -0.00211043  1
  Cs  Cs7  1  0.00172198  0.66799100  0.33220512  1
  Cs  Cs8  1  0.00091105  0.66633687  0.66953028  1
  Cs  Cs9  1  0.33736128  0.00762661  -0.00337239  1
  Cs  Cs10  1  0.33094044  0.00148512  0.33309992  1
  Cs  Cs11  1  0.33461488  0.00137481  0.66951708  1
  Cs  Cs12  1  0.33493973  0.32739086  0.00037548  1
  Cs  Cs13  1  0.33728962  0.33723833  0.33505155  1
  Cs  Cs14  1  0.33360200  0.33257137  0.66459849  1
  Cs  Cs15  1  0.33171319  0.66706313  -0.00031978  1
  Cs  Cs16  1  0.33569196  0.66185007  0.33359895  1
  Cs  Cs17  1  0.33306459  0.66606191  0.66551502  1
  Cs  Cs18  1  0.65993889  -0.00061574  0.00628362  1
  Cs  Cs19  1  0.66986421  -0.00774834  0.32901225  1
  Cs  Cs20  1  0.66511535  -0.00082600  0.66564624  1
  Cs  Cs21  1  0.66625271  0.33515700  0.00243898  1
  Cs  Cs22  1  0.66517584  0.33321736  0.33220408  1
  Cs  Cs23  1  0.67312599  0.33253099  0.66709039  1
  Cs  Cs24  1  0.66305726  0.66553429  -0.00021585  1
  Cs  Cs25  1  0.66006569  0.67332323  0.33224300  1
  Cs  Cs26  1  0.66627359  0.67029124  0.66773212  1
  Sn  Sn27  1  0.50078035  0.16647469  0.49999336  1
  Sn  Sn28  1  0.16588919  0.83304410  0.83372766  1
  Sn  Sn29  1  0.83366362  0.16490800  0.83327682  1
  Sn  Sn30  1  0.49858004  0.49983156  0.83289806  1
  Sn  Sn31  1  0.83348731  0.50033072  0.49850690  1
  Sn  Sn32  1  0.83294901  0.16695225  0.50048703  1
  Sn  Sn33  1  0.83400257  0.83497869  0.83352935  1
  Sn  Sn34  1  0.16636048  0.83400632  0.50024003  1
  Sn  Sn35  1  0.16574445  0.50052691  0.16574667  1
  Sn  Sn36  1  0.83406952  0.50029330  0.16828926  1
  Sn  Sn37  1  0.16643774  0.83269888  0.16606761  1
  Sn  Sn38  1  0.16650742  0.16602398  0.50022174  1
  Sn  Sn39  1  0.16771685  0.50012966  0.83395790  1
  Pb  Pb40  1  0.16487971  0.16689021  0.83137236  1
  Pb  Pb41  1  0.49676635  0.83588905  0.50017794  1
  Pb  Pb42  1  0.83537454  0.83062721  0.16365092  1
  Pb  Pb43  1  0.50013057  0.16674237  0.16981220  1
  Pb  Pb44  1  0.50317394  0.16895471  0.83145747  1
  Pb  Pb45  1  0.83347921  0.16862449  0.16690957  1
  Pb  Pb46  1  0.16661237  0.16724444  0.16943810  1
  Pb  Pb47  1  0.49614516  0.83318615  0.16652697  1
  Pb  Pb48  1  0.83390066  0.50017789  0.83341235  1
  Pb  Pb49  1  0.50333963  0.49836641  0.50226292  1
  Pb  Pb50  1  0.49948296  0.83163990  0.83326263  1
  Pb  Pb51  1  0.16517806  0.50011248  0.50010860  1
  Pb  Pb52  1  0.83520824  0.83337617  0.50154137  1
  Pb  Pb53  1  0.49945446  0.49999747  0.16458114  1
  I  I54  1  0.16681606  -0.00307456  0.16471924  1
  I  I55  1  0.16467434  -0.00006984  0.50044200  1
  I  I56  1  0.16354163  -0.00288654  0.83486981  1
  I  I57  1  0.16288095  0.33693149  0.16258330  1
  I  I58  1  0.16675656  0.33086862  0.50071168  1
  I  I59  1  0.16764664  0.33626244  0.83615526  1
  I  I60  1  0.16187090  0.66624319  0.16755248  1
  I  I61  1  0.16326308  0.66909280  0.50094868  1
  I  I62  1  0.16379848  0.66690954  0.83132550  1
  I  I63  1  0.49911456  -0.00007099  0.16549543  1
  I  I64  1  0.50531219  0.00399724  0.50208842  1
  I  I65  1  0.49768597  0.00034312  0.83223310  1
  I  I66  1  0.49736710  0.33368693  0.16566331  1
  I  I67  1  0.49383143  0.33038385  0.50136224  1
  I  I68  1  0.49474771  0.33666882  0.83289159  1
  I  I69  1  0.50317433  0.66633139  0.16768280  1
  I  I70  1  0.50011320  0.66663291  0.50039494  1
  I  I71  1  0.50165332  0.66355069  0.83276942  1
  I  I72  1  0.83480775  -0.00046492  0.16888378  1
  I  I73  1  0.83277496  0.00305989  0.50374324  1
  I  I74  1  0.84017344  -0.00000090  0.82568953  1
  I  I75  1  0.84028682  0.33686693  0.16489926  1
  I  I76  1  0.83656831  0.33238256  0.50355423  1
  I  I77  1  0.83353625  0.33158321  0.83066701  1
  I  I78  1  0.83645466  0.66265773  0.17099590  1
  I  I79  1  0.83714309  0.66421968  0.49976350  1
  I  I80  1  0.83553259  0.66860677  0.83265052  1
  I  I81  1  0.16475707  0.16497004  -0.00016241  1
  I  I82  1  0.16338337  0.16312964  0.33783238  1
  I  I83  1  0.16698223  0.16383274  0.66314082  1
  I  I84  1  0.16348802  0.50792201  -0.00038660  1
  I  I85  1  0.16335918  0.50259313  0.33109056  1
  I  I86  1  0.16749922  0.50307166  0.66918626  1
  I  I87  1  0.16145170  0.82603828  -0.00080917  1
  I  I88  1  0.16677845  0.83352142  0.33341084  1
  I  I89  1  0.16266143  0.83252235  0.66745181  1
  I  I90  1  0.50077197  0.16745233  -0.00038661  1
  I  I91  1  0.50078395  0.16934599  0.33813327  1
  I  I92  1  0.49737898  0.16784033  0.66357418  1
  I  I93  1  0.50206890  0.49994830  -0.00336150  1
  I  I94  1  0.49760822  0.49792944  0.33354554  1
  I  I95  1  0.49418654  0.50007316  0.66987012  1
  I  I96  1  0.50023974  0.83296849  -0.00028283  1
  I  I97  1  0.50037235  0.83340197  0.33350701  1
  I  I98  1  0.49763053  0.83183710  0.66673001  1
  I  I99  1  0.83523861  0.16584254  -0.00297564  1
  I  I100  1  0.83417701  0.17005755  0.33706100  1
  I  I101  1  0.83455772  0.17061294  0.66551122  1
  I  I102  1  0.83498823  0.50013293  0.00183638  1
  I  I103  1  0.84044965  0.49291840  0.33371319  1
  I  I104  1  0.83423935  0.49734233  0.66485275  1
  I  I105  1  0.83987575  0.83670970  -0.00427954  1
  I  I106  1  0.83538437  0.83545851  0.33310489  1
  I  I107  1  0.84016401  0.83093496  0.66951364  1
  I  I108  1  0.00014127  0.16622704  0.16944838  1
  I  I109  1  -0.00056589  0.16740059  0.50391390  1
  I  I110  1  -0.00292967  0.16886503  0.82618177  1
  I  I111  1  0.00098231  0.50271416  0.16395525  1
  I  I112  1  -0.00258519  0.49405152  0.50208188  1
  I  I113  1  0.00259673  0.50165002  0.83393432  1
  I  I114  1  0.00364511  0.83136077  0.16897928  1
  I  I115  1  0.00352982  0.83824478  0.49920243  1
  I  I116  1  0.00143070  0.82999139  0.83200098  1
  I  I117  1  0.33298273  0.16803803  0.16753678  1
  I  I118  1  0.33248428  0.16181862  0.49951846  1
  I  I119  1  0.33331886  0.16515222  0.83124812  1
  I  I120  1  0.32956724  0.50476191  0.16545123  1
  I  I121  1  0.33319143  0.49856882  0.49824944  1
  I  I122  1  0.33098055  0.50562198  0.83750011  1
  I  I123  1  0.32763042  0.82569421  0.16550413  1
  I  I124  1  0.32814757  0.83678137  0.50286700  1
  I  I125  1  0.32927135  0.83038707  0.83309611  1
  I  I126  1  0.66702537  0.16992499  0.16676153  1
  I  I127  1  0.66807936  0.17432118  0.50569778  1
  I  I128  1  0.67108464  0.16432691  0.82637312  1
  I  I129  1  0.66954402  0.49719684  0.16784310  1
  I  I130  1  0.67141418  0.49383886  0.49766276  1
  I  I131  1  0.66548378  0.49886169  0.83215223  1
  I  I132  1  0.66696403  0.83234857  0.16575057  1
  I  I133  1  0.66687624  0.83309413  0.50253912  1
  I  I134  1  0.66965661  0.83400688  0.83093765  1
