# generated using pymatgen
data_Cs27Sn13Pb14I81
_symmetry_space_group_name_H-M   'P 1'
_cell_length_a   18.98461785
_cell_length_b   18.97511604
_cell_length_c   18.97082926
_cell_angle_alpha   89.99684637
_cell_angle_beta   89.99956692
_cell_angle_gamma   90.00064048
_symmetry_Int_Tables_number   1
_chemical_formula_structural   Cs27Sn13Pb14I81
_chemical_formula_sum   'Cs27 Sn13 Pb14 I81'
_cell_volume   6833.96286640
_cell_formula_units_Z   1
loop_
 _symmetry_equiv_pos_site_id
 _symmetry_equiv_pos_as_xyz
  1  'x, y, z'
loop_
 _atom_site_type_symbol
 _atom_site_label
 _atom_site_symmetry_multiplicity
 _atom_site_fract_x
 _atom_site_fract_y
 _atom_site_fract_z
 _atom_site_occupancy
  Cs  Cs0  1  -0.00199064  -0.00176682  0.00156255  1
  Cs  Cs1  1  0.00036045  -0.00001630  0.33413004  1
  Cs  Cs2  1  -0.00092683  -0.00003450  0.66504843  1
  Cs  Cs3  1  0.00430342  0.33358762  -0.00584465  1
  Cs  Cs4  1  -0.00168841  0.33025907  0.33647461  1
  Cs  Cs5  1  0.00124936  0.33267121  0.66746136  1
  Cs  Cs6  1  0.00087408  0.66759139  0.00536796  1
  Cs  Cs7  1  -0.00199387  0.66735556  0.32645287  1
  Cs  Cs8  1  -0.00107864  0.66801029  0.66718808  1
  Cs  Cs9  1  0.34057194  0.00095796  0.00031118  1
  Cs  Cs10  1  0.33204209  0.00125059  0.33469137  1
  Cs  Cs11  1  0.33470934  -0.00348034  0.66609632  1
  Cs  Cs12  1  0.33422098  0.33560904  -0.00008511  1
  Cs  Cs13  1  0.33603818  0.33055904  0.33173396  1
  Cs  Cs14  1  0.32668570  0.33316295  0.66737548  1
  Cs  Cs15  1  0.32921088  0.66459901  0.00163333  1
  Cs  Cs16  1  0.33520048  0.66512773  0.33160966  1
  Cs  Cs17  1  0.33581109  0.66969162  0.66642087  1
  Cs  Cs18  1  0.66270194  0.00170909  -0.00115633  1
  Cs  Cs19  1  0.66754336  0.00073735  0.33313970  1
  Cs  Cs20  1  0.66705936  -0.00250752  0.66877885  1
  Cs  Cs21  1  0.66159012  0.33088716  -0.00033857  1
  Cs  Cs22  1  0.66523152  0.33797199  0.33212200  1
  Cs  Cs23  1  0.66987273  0.33687773  0.66697635  1
  Cs  Cs24  1  0.66893069  0.66717868  -0.00122744  1
  Cs  Cs25  1  0.66667846  0.65742382  0.33229375  1
  Cs  Cs26  1  0.66457630  0.66600049  0.66729301  1
  Sn  Sn27  1  0.16577847  0.16633065  0.16700860  1
  Sn  Sn28  1  0.16630232  0.50063337  0.49961347  1
  Sn  Sn29  1  0.83292486  0.16596166  0.49933208  1
  Sn  Sn30  1  0.83378930  0.83355144  0.50028646  1
  Sn  Sn31  1  0.16582849  0.83380912  0.83293789  1
  Sn  Sn32  1  0.16665189  0.16644064  0.49938412  1
  Sn  Sn33  1  0.83292408  0.50087062  0.83324778  1
  Sn  Sn34  1  0.50039208  0.50011487  0.83293583  1
  Sn  Sn35  1  0.83417098  0.16665284  0.16724536  1
  Sn  Sn36  1  0.50046261  0.16654411  0.50058477  1
  Sn  Sn37  1  0.16575161  0.83286179  0.50039547  1
  Sn  Sn38  1  0.83430544  0.83255463  0.83263377  1
  Sn  Sn39  1  0.50028063  0.83307980  0.16726558  1
  Pb  Pb40  1  0.50055983  0.83455733  0.49826345  1
  Pb  Pb41  1  0.49999998  0.50248507  0.16428960  1
  Pb  Pb42  1  0.16671663  0.16367782  0.83318814  1
  Pb  Pb43  1  0.83153264  0.83515236  0.16700828  1
  Pb  Pb44  1  0.16639655  0.49681724  0.16960714  1
  Pb  Pb45  1  0.83528156  0.50028302  0.50152556  1
  Pb  Pb46  1  0.83340280  0.16617228  0.83311311  1
  Pb  Pb47  1  0.49752566  0.49743385  0.50192675  1
  Pb  Pb48  1  0.83361819  0.49648194  0.16352255  1
  Pb  Pb49  1  0.50011981  0.16551097  0.16875783  1
  Pb  Pb50  1  0.16613115  0.50266767  0.83148088  1
  Pb  Pb51  1  0.16819331  0.83555967  0.16714816  1
  Pb  Pb52  1  0.50022326  0.83167541  0.83499889  1
  Pb  Pb53  1  0.49985919  0.16912948  0.83034275  1
  I  I54  1  0.16363956  0.00329262  0.17315868  1
  I  I55  1  0.16606235  0.00025399  0.50001993  1
  I  I56  1  0.16073724  -0.00415721  0.82739593  1
  I  I57  1  0.16429075  0.32859979  0.17126348  1
  I  I58  1  0.16707099  0.33182519  0.49654876  1
  I  I59  1  0.16653302  0.33341345  0.83218378  1
  I  I60  1  0.16917405  0.66696773  0.16728699  1
  I  I61  1  0.16300828  0.66815230  0.50637946  1
  I  I62  1  0.16628623  0.67046239  0.82758544  1
  I  I63  1  0.49953103  -0.00206732  0.16495415  1
  I  I64  1  0.49548739  0.00272321  0.49917643  1
  I  I65  1  0.50017343  -0.00029463  0.83461692  1
  I  I66  1  0.49953763  0.33320053  0.16615014  1
  I  I67  1  0.50080110  0.32929906  0.49929559  1
  I  I68  1  0.50638750  0.33693456  0.83363729  1
  I  I69  1  0.49951960  0.67013827  0.16861145  1
  I  I70  1  0.49917793  0.66651949  0.49919048  1
  I  I71  1  0.50147500  0.66412248  0.83267556  1
  I  I72  1  0.83660816  0.00311974  0.16713221  1
  I  I73  1  0.83769699  0.00023838  0.50224089  1
  I  I74  1  0.83772114  -0.00320382  0.83152134  1
  I  I75  1  0.83573263  0.32849477  0.17396336  1
  I  I76  1  0.83464298  0.33026374  0.49832885  1
  I  I77  1  0.82902482  0.33564689  0.83312787  1
  I  I78  1  0.83110488  0.66677046  0.16910713  1
  I  I79  1  0.83772306  0.66986273  0.50292158  1
  I  I80  1  0.83261351  0.66807120  0.82685668  1
  I  I81  1  0.16158211  0.16481802  0.00284693  1
  I  I82  1  0.16611668  0.16463133  0.33543047  1
  I  I83  1  0.16535064  0.16880936  0.66281223  1
  I  I84  1  0.16767652  0.49943728  -0.00024048  1
  I  I85  1  0.16669433  0.50540936  0.33781322  1
  I  I86  1  0.16634274  0.49353468  0.66358410  1
  I  I87  1  0.16371668  0.83410659  -0.00245110  1
  I  I88  1  0.16349873  0.83316047  0.33703050  1
  I  I89  1  0.16416639  0.83588197  0.66514847  1
  I  I90  1  0.50002219  0.16618657  0.00019823  1
  I  I91  1  0.49865921  0.16570023  0.33670422  1
  I  I92  1  0.49903722  0.16428930  0.66221636  1
  I  I93  1  0.50318685  0.49922919  -0.00369598  1
  I  I94  1  0.49881294  0.49996571  0.33360237  1
  I  I95  1  0.50446425  0.50141222  0.66954858  1
  I  I96  1  0.49960261  0.83507852  0.00251247  1
  I  I97  1  0.49864148  0.83619212  0.33090205  1
  I  I98  1  0.49927769  0.83395324  0.66655314  1
  I  I99  1  0.83796096  0.16651591  0.00268894  1
  I  I100  1  0.83512525  0.16057063  0.33532080  1
  I  I101  1  0.83511195  0.16585142  0.66313009  1
  I  I102  1  0.83077694  0.50606289  -0.00451424  1
  I  I103  1  0.83417904  0.50257317  0.33348942  1
  I  I104  1  0.83062027  0.49921070  0.66950202  1
  I  I105  1  0.83641168  0.83099243  -0.00288176  1
  I  I106  1  0.83769808  0.83716993  0.33665614  1
  I  I107  1  0.83667833  0.83633213  0.66608042  1
  I  I108  1  0.00008972  0.16509496  0.17553288  1
  I  I109  1  0.00019661  0.16569311  0.49602374  1
  I  I110  1  -0.00004193  0.17210891  0.83048244  1
  I  I111  1  0.00003565  0.50391721  0.16339912  1
  I  I112  1  0.00299646  0.49461340  0.50379897  1
  I  I113  1  -0.00261414  0.50104663  0.83146704  1
  I  I114  1  -0.00006244  0.83342336  0.16565866  1
  I  I115  1  0.00029900  0.83879783  0.50442807  1
  I  I116  1  -0.00076198  0.82865323  0.82934695  1
  I  I117  1  0.33077151  0.16451577  0.17210167  1
  I  I118  1  0.33165085  0.16669034  0.49651116  1
  I  I119  1  0.33316649  0.16678730  0.83353056  1
  I  I120  1  0.33316248  0.49802360  0.16356425  1
  I  I121  1  0.32960048  0.50056694  0.50331312  1
  I  I122  1  0.33497169  0.50070914  0.83132034  1
  I  I123  1  0.33554090  0.83672595  0.16607377  1
  I  I124  1  0.33016691  0.83529304  0.50336595  1
  I  I125  1  0.33076070  0.83289518  0.82907541  1
  I  I126  1  0.66936025  0.16450063  0.17062809  1
  I  I127  1  0.66819817  0.16142702  0.49681830  1
  I  I128  1  0.66682765  0.16236149  0.83395526  1
  I  I129  1  0.66683218  0.49780277  0.16973211  1
  I  I130  1  0.66683630  0.49928565  0.50012790  1
  I  I131  1  0.66775703  0.50563969  0.83158299  1
  I  I132  1  0.66433163  0.83775007  0.16572269  1
  I  I133  1  0.67003104  0.83959696  0.50389636  1
  I  I134  1  0.66981635  0.83193088  0.82967033  1
