# generated using pymatgen
data_Cs27Sn14Pb13I81
_symmetry_space_group_name_H-M   'P 1'
_cell_length_a   18.97787845
_cell_length_b   18.97064515
_cell_length_c   18.97801997
_cell_angle_alpha   89.99911497
_cell_angle_beta   89.99902627
_cell_angle_gamma   90.00136395
_symmetry_Int_Tables_number   1
_chemical_formula_structural   Cs27Sn14Pb13I81
_chemical_formula_sum   'Cs27 Sn14 Pb13 I81'
_cell_volume   6832.51604533
_cell_formula_units_Z   1
loop_
 _symmetry_equiv_pos_site_id
 _symmetry_equiv_pos_as_xyz
  1  'x, y, z'
loop_
 _atom_site_type_symbol
 _atom_site_label
 _atom_site_symmetry_multiplicity
 _atom_site_fract_x
 _atom_site_fract_y
 _atom_site_fract_z
 _atom_site_occupancy
  Cs  Cs0  1  0.00093101  -0.00241024  0.00516968  1
  Cs  Cs1  1  0.00323415  -0.00193417  0.32959402  1
  Cs  Cs2  1  -0.00434090  -0.00071967  0.66526403  1
  Cs  Cs3  1  -0.00161107  0.33116403  -0.00294074  1
  Cs  Cs4  1  -0.00183353  0.33257932  0.33222661  1
  Cs  Cs5  1  0.00034150  0.33488360  0.66832011  1
  Cs  Cs6  1  0.00205040  0.66763969  -0.00082892  1
  Cs  Cs7  1  0.00303853  0.66808749  0.33562445  1
  Cs  Cs8  1  -0.00043682  0.66574528  0.66585627  1
  Cs  Cs9  1  0.33354587  0.00390069  -0.00082425  1
  Cs  Cs10  1  0.32898593  0.00468071  0.33289847  1
  Cs  Cs11  1  0.33752085  0.00680089  0.66769109  1
  Cs  Cs12  1  0.33301733  0.32660278  -0.00230195  1
  Cs  Cs13  1  0.33782863  0.32902459  0.33528098  1
  Cs  Cs14  1  0.33002003  0.32933614  0.66624142  1
  Cs  Cs15  1  0.33192589  0.66830428  0.00025212  1
  Cs  Cs16  1  0.33238461  0.66683269  0.33348470  1
  Cs  Cs17  1  0.33409275  0.66580743  0.66602537  1
  Cs  Cs18  1  0.66505408  -0.00085615  -0.00395235  1
  Cs  Cs19  1  0.66689781  -0.00139539  0.33471322  1
  Cs  Cs20  1  0.66751776  -0.00067516  0.66844082  1
  Cs  Cs21  1  0.66858050  0.33485231  0.01116362  1
  Cs  Cs22  1  0.66517640  0.33396749  0.32477599  1
  Cs  Cs23  1  0.66890140  0.33565844  0.66532993  1
  Cs  Cs24  1  0.66520319  0.66669546  0.00020567  1
  Cs  Cs25  1  0.66518815  0.66629698  0.33457865  1
  Cs  Cs26  1  0.66644265  0.66737451  0.66551156  1
  Sn  Sn27  1  0.83308796  0.16696638  0.83260184  1
  Sn  Sn28  1  0.83413724  0.83304507  0.83424305  1
  Sn  Sn29  1  0.83324475  0.16806394  0.50039376  1
  Sn  Sn30  1  0.49861414  0.83281483  0.49923510  1
  Sn  Sn31  1  0.50045197  0.83290083  0.16768345  1
  Sn  Sn32  1  0.83223707  0.49992584  0.83282089  1
  Sn  Sn33  1  0.16674404  0.49990343  0.16744987  1
  Sn  Sn34  1  0.83225840  0.83245794  0.16573497  1
  Sn  Sn35  1  0.16688392  0.50061465  0.49887823  1
  Sn  Sn36  1  0.16630199  0.83316314  0.83186878  1
  Sn  Sn37  1  0.50071623  0.50020075  0.83272429  1
  Sn  Sn38  1  0.83311990  0.49901884  0.50033328  1
  Sn  Sn39  1  0.16808663  0.83280258  0.50151824  1
  Sn  Sn40  1  0.50003130  0.50074811  0.50094524  1
  Pb  Pb41  1  0.83329028  0.16366234  0.16669312  1
  Pb  Pb42  1  0.16392501  0.16675531  0.50011950  1
  Pb  Pb43  1  0.49758515  0.50178598  0.16672745  1
  Pb  Pb44  1  0.83515343  0.50236135  0.16674496  1
  Pb  Pb45  1  0.50290802  0.16697216  0.50011077  1
  Pb  Pb46  1  0.16383120  0.16302799  0.83303010  1
  Pb  Pb47  1  0.50010068  0.16300260  0.16672372  1
  Pb  Pb48  1  0.49992364  0.83181967  0.83274581  1
  Pb  Pb49  1  0.83330457  0.83283515  0.50027166  1
  Pb  Pb50  1  0.50329156  0.17067236  0.83307011  1
  Pb  Pb51  1  0.16667885  0.50140302  0.83275820  1
  Pb  Pb52  1  0.16643415  0.17053071  0.16682387  1
  Pb  Pb53  1  0.16717820  0.83227176  0.16690419  1
  I  I54  1  0.16602513  -0.00029295  0.16671750  1
  I  I55  1  0.16918474  -0.00351232  0.50340832  1
  I  I56  1  0.16251287  -0.00532704  0.82863274  1
  I  I57  1  0.16551060  0.33857499  0.17310420  1
  I  I58  1  0.16914879  0.33707323  0.49602897  1
  I  I59  1  0.16655683  0.33338739  0.83438542  1
  I  I60  1  0.16558531  0.66465053  0.16887179  1
  I  I61  1  0.16403552  0.66628006  0.49990966  1
  I  I62  1  0.15962314  0.66931712  0.83202760  1
  I  I63  1  0.50384675  -0.00542547  0.17221403  1
  I  I64  1  0.49707947  -0.00337379  0.49537060  1
  I  I65  1  0.50024996  -0.00003056  0.83420462  1
  I  I66  1  0.49861448  0.33373670  0.16664236  1
  I  I67  1  0.49645569  0.33720661  0.50488285  1
  I  I68  1  0.50189484  0.33879510  0.82617708  1
  I  I69  1  0.50428872  0.66959706  0.16831137  1
  I  I70  1  0.50228872  0.66613400  0.50000740  1
  I  I71  1  0.50668477  0.66398845  0.83129688  1
  I  I72  1  0.83120367  -0.00448188  0.16391916  1
  I  I73  1  0.83306356  0.00135179  0.50312816  1
  I  I74  1  0.83860963  -0.00092094  0.83230104  1
  I  I75  1  0.83572798  0.33364234  0.16439886  1
  I  I76  1  0.83479734  0.33528381  0.50823203  1
  I  I77  1  0.82946535  0.33460534  0.82751898  1
  I  I78  1  0.83051008  0.67022556  0.16269285  1
  I  I79  1  0.83358897  0.66378933  0.50298402  1
  I  I80  1  0.83364084  0.66646287  0.83240254  1
  I  I81  1  0.16396190  0.16660813  -0.00022729  1
  I  I82  1  0.16226420  0.16014821  0.33370336  1
  I  I83  1  0.16770976  0.17108946  0.66664816  1
  I  I84  1  0.16572464  0.50427887  0.00135758  1
  I  I85  1  0.16522168  0.50787120  0.33587225  1
  I  I86  1  0.16562474  0.50303230  0.66346353  1
  I  I87  1  0.16421791  0.83022993  -0.00208689  1
  I  I88  1  0.16578835  0.83047944  0.33625345  1
  I  I89  1  0.16441969  0.82597897  0.66575455  1
  I  I90  1  0.50229394  0.16697468  -0.00027401  1
  I  I91  1  0.50392249  0.17152518  0.33363362  1
  I  I92  1  0.49896682  0.15987117  0.66663787  1
  I  I93  1  0.50453680  0.50253087  -0.00254366  1
  I  I94  1  0.50304858  0.50253480  0.33674339  1
  I  I95  1  0.50041553  0.50742349  0.66520325  1
  I  I96  1  0.50161259  0.83065042  0.00156931  1
  I  I97  1  0.50182239  0.82649681  0.33462090  1
  I  I98  1  0.49991332  0.83010576  0.66373698  1
  I  I99  1  0.83351180  0.16973878  -0.00333229  1
  I  I100  1  0.83327994  0.17070511  0.33630896  1
  I  I101  1  0.83385301  0.16465948  0.66714612  1
  I  I102  1  0.83055495  0.49826395  -0.00317963  1
  I  I103  1  0.83110856  0.49751136  0.33665122  1
  I  I104  1  0.83482403  0.50207697  0.66648432  1
  I  I105  1  0.83422385  0.83309085  -0.00160581  1
  I  I106  1  0.83305900  0.83295408  0.33179227  1
  I  I107  1  0.83435550  0.83303235  0.66922831  1
  I  I108  1  -0.00046080  0.16217230  0.16720062  1
  I  I109  1  -0.00397661  0.16981696  0.50490293  1
  I  I110  1  -0.00437813  0.17349390  0.82886666  1
  I  I111  1  0.00265775  0.50493335  0.17117349  1
  I  I112  1  -0.00029842  0.50135460  0.50052053  1
  I  I113  1  -0.00316934  0.49916155  0.83039457  1
  I  I114  1  -0.00200645  0.83234495  0.16543462  1
  I  I115  1  0.00199432  0.83012107  0.50051354  1
  I  I116  1  -0.00151739  0.83058963  0.83346301  1
  I  I117  1  0.33325485  0.16385370  0.16650016  1
  I  I118  1  0.33338818  0.16823961  0.49864971  1
  I  I119  1  0.33350771  0.16632445  0.83515078  1
  I  I120  1  0.33018403  0.50551824  0.17019336  1
  I  I121  1  0.33351132  0.50686785  0.50007219  1
  I  I122  1  0.33559341  0.50535764  0.83082491  1
  I  I123  1  0.33569317  0.82970917  0.16750142  1
  I  I124  1  0.33326265  0.82413488  0.49947430  1
  I  I125  1  0.33112946  0.82815731  0.83340149  1
  I  I126  1  0.66706470  0.17084406  0.16716615  1
  I  I127  1  0.67082080  0.16849410  0.50520290  1
  I  I128  1  0.67124460  0.15834708  0.82803855  1
  I  I129  1  0.66659900  0.49976383  0.16832351  1
  I  I130  1  0.66684064  0.50182061  0.50561095  1
  I  I131  1  0.66823058  0.50330081  0.82520908  1
  I  I132  1  0.66694010  0.83177276  0.16696211  1
  I  I133  1  0.66460441  0.83022745  0.49899302  1
  I  I134  1  0.66967831  0.83470743  0.83396960  1
