# generated using pymatgen
data_Cs27Sn13Pb14I81
_symmetry_space_group_name_H-M   'P 1'
_cell_length_a   18.97842214
_cell_length_b   18.97064104
_cell_length_c   18.98656527
_cell_angle_alpha   89.99938339
_cell_angle_beta   89.99999994
_cell_angle_gamma   89.99999994
_symmetry_Int_Tables_number   1
_chemical_formula_structural   Cs27Sn13Pb14I81
_chemical_formula_sum   'Cs27 Sn13 Pb14 I81'
_cell_volume   6835.78690205
_cell_formula_units_Z   1
loop_
 _symmetry_equiv_pos_site_id
 _symmetry_equiv_pos_as_xyz
  1  'x, y, z'
loop_
 _atom_site_type_symbol
 _atom_site_label
 _atom_site_symmetry_multiplicity
 _atom_site_fract_x
 _atom_site_fract_y
 _atom_site_fract_z
 _atom_site_occupancy
  Cs  Cs0  1  -0.00018312  0.00054249  -0.00113430  1
  Cs  Cs1  1  0.00196629  0.00101949  0.33811841  1
  Cs  Cs2  1  0.00252276  0.00050734  0.66507709  1
  Cs  Cs3  1  0.00150142  0.33175066  -0.00057877  1
  Cs  Cs4  1  -0.00191164  0.33176980  0.33558081  1
  Cs  Cs5  1  -0.00501680  0.33498178  0.66477782  1
  Cs  Cs6  1  0.00052942  0.66614097  0.00212175  1
  Cs  Cs7  1  0.00169903  0.66680644  0.32962059  1
  Cs  Cs8  1  -0.00120031  0.66573079  0.66724195  1
  Cs  Cs9  1  0.33351654  0.00054247  -0.00113433  1
  Cs  Cs10  1  0.33136721  0.00101962  0.33811838  1
  Cs  Cs11  1  0.33081060  0.00050730  0.66507710  1
  Cs  Cs12  1  0.33183188  0.33175075  -0.00057888  1
  Cs  Cs13  1  0.33524503  0.33176988  0.33558074  1
  Cs  Cs14  1  0.33834999  0.33498193  0.66477807  1
  Cs  Cs15  1  0.33280393  0.66614093  0.00212180  1
  Cs  Cs16  1  0.33163424  0.66680643  0.32962059  1
  Cs  Cs17  1  0.33453360  0.66573077  0.66724178  1
  Cs  Cs18  1  0.66666661  0.00162652  0.00209127  1
  Cs  Cs19  1  0.66666673  0.00138440  0.33001676  1
  Cs  Cs20  1  0.66666662  -0.00153493  0.66792371  1
  Cs  Cs21  1  0.66666671  0.32546334  -0.00417497  1
  Cs  Cs22  1  0.66666643  0.32772488  0.33732093  1
  Cs  Cs23  1  0.66666669  0.33701656  0.66527124  1
  Cs  Cs24  1  0.66666673  0.66756195  0.00153853  1
  Cs  Cs25  1  0.66666675  0.66673085  0.33246527  1
  Cs  Cs26  1  0.66666667  0.66419833  0.66500824  1
  Sn  Sn27  1  0.83284693  0.83265924  0.16678152  1
  Sn  Sn28  1  0.16666665  0.16682926  0.83393731  1
  Sn  Sn29  1  0.83259172  0.83284852  0.49968092  1
  Sn  Sn30  1  0.50074156  0.83284849  0.49968090  1
  Sn  Sn31  1  0.83181411  0.50022025  0.16625637  1
  Sn  Sn32  1  0.50009948  0.83293268  0.83347525  1
  Sn  Sn33  1  0.50048642  0.83265922  0.16678154  1
  Sn  Sn34  1  0.83323386  0.83293270  0.83347524  1
  Sn  Sn35  1  0.16666666  0.83303333  0.83367209  1
  Sn  Sn36  1  0.16666665  0.49998744  0.83239979  1
  Sn  Sn37  1  0.16666667  0.16642415  0.16641836  1
  Sn  Sn38  1  0.50151928  0.50022027  0.16625634  1
  Sn  Sn39  1  0.16666666  0.50050598  0.50084777  1
  Pb  Pb40  1  0.49788066  0.16632502  0.16664831  1
  Pb  Pb41  1  0.50025426  0.16408898  0.50022496  1
  Pb  Pb42  1  0.16666662  0.49808039  0.16633948  1
  Pb  Pb43  1  0.16666668  0.83518478  0.16475039  1
  Pb  Pb44  1  0.49852412  0.50237156  0.49758556  1
  Pb  Pb45  1  0.83496512  0.50193907  0.83558651  1
  Pb  Pb46  1  0.83532259  0.16448506  0.83315051  1
  Pb  Pb47  1  0.49801081  0.16448506  0.83315052  1
  Pb  Pb48  1  0.49836830  0.50193909  0.83558648  1
  Pb  Pb49  1  0.83307902  0.16408900  0.50022499  1
  Pb  Pb50  1  0.16666667  0.16970940  0.50106349  1
  Pb  Pb51  1  0.83480927  0.50237159  0.49758555  1
  Pb  Pb52  1  0.83545264  0.16632501  0.16664833  1
  Pb  Pb53  1  0.16666665  0.83149933  0.50248217  1
  I  I54  1  0.16666647  0.00266579  0.16078460  1
  I  I55  1  0.16666664  -0.00023481  0.50012431  1
  I  I56  1  0.16666662  -0.00112773  0.83876099  1
  I  I57  1  0.16666675  0.33075470  0.16038151  1
  I  I58  1  0.16666674  0.33729402  0.50349223  1
  I  I59  1  0.16666668  0.33361843  0.83563549  1
  I  I60  1  0.16666675  0.66671944  0.16561834  1
  I  I61  1  0.16666667  0.66408040  0.50401316  1
  I  I62  1  0.16666676  0.66752281  0.82949330  1
  I  I63  1  0.50359958  -0.00397341  0.16592487  1
  I  I64  1  0.50112870  -0.00539620  0.49699288  1
  I  I65  1  0.49809546  -0.00514821  0.83657522  1
  I  I66  1  0.50150074  0.33639884  0.16660230  1
  I  I67  1  0.49652966  0.33402656  0.49736146  1
  I  I68  1  0.49637008  0.33364880  0.83638877  1
  I  I69  1  0.50168446  0.66849783  0.16617394  1
  I  I70  1  0.50277884  0.67091470  0.50269409  1
  I  I71  1  0.49665020  0.67107950  0.83215756  1
  I  I72  1  0.82973379  -0.00397341  0.16592473  1
  I  I73  1  0.83220466  -0.00539620  0.49699274  1
  I  I74  1  0.83523789  -0.00514823  0.83657547  1
  I  I75  1  0.83183265  0.33639883  0.16660222  1
  I  I76  1  0.83680367  0.33402655  0.49736150  1
  I  I77  1  0.83696330  0.33364878  0.83638868  1
  I  I78  1  0.83164876  0.66849781  0.16617408  1
  I  I79  1  0.83055448  0.67091464  0.50269411  1
  I  I80  1  0.83668297  0.67107949  0.83215746  1
  I  I81  1  0.16666682  0.16786543  -0.00112962  1
  I  I82  1  0.16666636  0.16749219  0.33121921  1
  I  I83  1  0.16666676  0.16137081  0.67020605  1
  I  I84  1  0.16666678  0.50260905  -0.00260622  1
  I  I85  1  0.16666671  0.49960399  0.33480500  1
  I  I86  1  0.16666665  0.50064076  0.66800487  1
  I  I87  1  0.16666625  0.82878987  -0.00357936  1
  I  I88  1  0.16666690  0.83346077  0.33340143  1
  I  I89  1  0.16666683  0.83798605  0.67077623  1
  I  I90  1  0.49937039  0.16331917  0.00003244  1
  I  I91  1  0.49487056  0.16382547  0.33305998  1
  I  I92  1  0.49524192  0.16404773  0.66679253  1
  I  I93  1  0.49964819  0.50803716  0.00353662  1
  I  I94  1  0.49881255  0.50743680  0.32963793  1
  I  I95  1  0.49791458  0.50217392  0.66669060  1
  I  I96  1  0.50105005  0.83002789  0.00022120  1
  I  I97  1  0.50618464  0.82979593  0.33258036  1
  I  I98  1  0.50121788  0.83519521  0.66713968  1
  I  I99  1  0.83396270  0.16331940  0.00003247  1
  I  I100  1  0.83846322  0.16382539  0.33305996  1
  I  I101  1  0.83809123  0.16404756  0.66679253  1
  I  I102  1  0.83368506  0.50803727  0.00353662  1
  I  I103  1  0.83452074  0.50743690  0.32963793  1
  I  I104  1  0.83541880  0.50217389  0.66669063  1
  I  I105  1  0.83228366  0.83002764  0.00022122  1
  I  I106  1  0.82714841  0.82979596  0.33258036  1
  I  I107  1  0.83211543  0.83519531  0.66713970  1
  I  I108  1  0.00325785  0.16661284  0.16157199  1
  I  I109  1  0.00037856  0.16280795  0.49862143  1
  I  I110  1  0.00418694  0.16333391  0.83826426  1
  I  I111  1  -0.00210333  0.50525905  0.16638051  1
  I  I112  1  0.00287760  0.50289355  0.50176463  1
  I  I113  1  0.00370111  0.50356138  0.83319508  1
  I  I114  1  -0.00290671  0.82981958  0.16638009  1
  I  I115  1  -0.00266250  0.83197538  0.49915120  1
  I  I116  1  0.00020841  0.83360959  0.83398284  1
  I  I117  1  0.33007547  0.16661252  0.16157250  1
  I  I118  1  0.33295479  0.16280779  0.49862084  1
  I  I119  1  0.32914643  0.16333390  0.83826418  1
  I  I120  1  0.33543665  0.50525895  0.16638054  1
  I  I121  1  0.33045573  0.50289367  0.50176468  1
  I  I122  1  0.32963217  0.50356112  0.83319490  1
  I  I123  1  0.33624003  0.82981972  0.16637946  1
  I  I124  1  0.33599584  0.83197536  0.49915151  1
  I  I125  1  0.33312490  0.83360976  0.83398340  1
  I  I126  1  0.66666669  0.16592836  0.16729862  1
  I  I127  1  0.66666667  0.16933385  0.49829172  1
  I  I128  1  0.66666664  0.16409737  0.83435392  1
  I  I129  1  0.66666662  0.50806666  0.16710766  1
  I  I130  1  0.66666667  0.49968379  0.50081692  1
  I  I131  1  0.66666665  0.50230664  0.83241591  1
  I  I132  1  0.66666666  0.83021579  0.16277643  1
  I  I133  1  0.66666667  0.83290268  0.50434047  1
  I  I134  1  0.66666668  0.83312495  0.83364573  1
