# generated using pymatgen
data_Cs27Sn14Pb13I81
_symmetry_space_group_name_H-M   'P 1'
_cell_length_a   18.97523083
_cell_length_b   18.98019081
_cell_length_c   18.96925903
_cell_angle_alpha   89.99933903
_cell_angle_beta   89.99767142
_cell_angle_gamma   89.99859489
_symmetry_Int_Tables_number   1
_chemical_formula_structural   Cs27Sn14Pb13I81
_chemical_formula_sum   'Cs27 Sn14 Pb13 I81'
_cell_volume   6831.84505755
_cell_formula_units_Z   1
loop_
 _symmetry_equiv_pos_site_id
 _symmetry_equiv_pos_as_xyz
  1  'x, y, z'
loop_
 _atom_site_type_symbol
 _atom_site_label
 _atom_site_symmetry_multiplicity
 _atom_site_fract_x
 _atom_site_fract_y
 _atom_site_fract_z
 _atom_site_occupancy
  Cs  Cs0  1  -0.00082178  0.00769463  0.00216297  1
  Cs  Cs1  1  -0.00098676  -0.00053544  0.33348416  1
  Cs  Cs2  1  0.00024064  0.00005817  0.66606115  1
  Cs  Cs3  1  0.00064593  0.33033224  -0.01208106  1
  Cs  Cs4  1  0.00233080  0.33160553  0.33558781  1
  Cs  Cs5  1  -0.00147045  0.33389500  0.67051377  1
  Cs  Cs6  1  -0.00336200  0.66095757  0.00377132  1
  Cs  Cs7  1  0.00079160  0.66839701  0.33385647  1
  Cs  Cs8  1  0.00429348  0.66541424  0.66496283  1
  Cs  Cs9  1  0.33060145  0.00017680  -0.00106194  1
  Cs  Cs10  1  0.33225712  0.00289633  0.33200794  1
  Cs  Cs11  1  0.33557997  -0.00757830  0.66867461  1
  Cs  Cs12  1  0.33138801  0.32993502  0.00473960  1
  Cs  Cs13  1  0.33417890  0.33171843  0.33131369  1
  Cs  Cs14  1  0.33687304  0.33586652  0.66453569  1
  Cs  Cs15  1  0.33478049  0.66827039  -0.00260890  1
  Cs  Cs16  1  0.33129588  0.66599646  0.33399418  1
  Cs  Cs17  1  0.33385134  0.66876706  0.66861696  1
  Cs  Cs18  1  0.66864871  -0.00454410  -0.00433793  1
  Cs  Cs19  1  0.66810083  0.00042399  0.33449563  1
  Cs  Cs20  1  0.66564098  -0.00010088  0.66687817  1
  Cs  Cs21  1  0.66694030  0.33764187  -0.00097740  1
  Cs  Cs22  1  0.66283813  0.33294188  0.33371573  1
  Cs  Cs23  1  0.66640147  0.33191884  0.66579421  1
  Cs  Cs24  1  0.66777515  0.66705340  0.00547413  1
  Cs  Cs25  1  0.66736693  0.66714692  0.33146878  1
  Cs  Cs26  1  0.66399388  0.66840779  0.66549390  1
  Sn  Sn27  1  0.49983975  0.16770999  0.83330149  1
  Sn  Sn28  1  0.83266852  0.83311979  0.50105957  1
  Sn  Sn29  1  0.16630633  0.16732154  0.50031529  1
  Sn  Sn30  1  0.83322423  0.50002671  0.49974547  1
  Sn  Sn31  1  0.83409309  0.16685109  0.49915398  1
  Sn  Sn32  1  0.50065256  0.83260168  0.49870551  1
  Sn  Sn33  1  0.16676515  0.49902417  0.49936683  1
  Sn  Sn34  1  0.49898889  0.83349698  0.16790449  1
  Sn  Sn35  1  0.16639048  0.50055431  0.16726567  1
  Sn  Sn36  1  0.83403735  0.83285900  0.83226790  1
  Sn  Sn37  1  0.16728152  0.83259611  0.16684519  1
  Sn  Sn38  1  0.50003267  0.50089754  0.50028964  1
  Sn  Sn39  1  0.83289665  0.16745191  0.16729559  1
  Sn  Sn40  1  0.50000237  0.49889488  0.83291507  1
  Pb  Pb41  1  0.50002104  0.16637768  0.50104659  1
  Pb  Pb42  1  0.49813192  0.50173372  0.16719334  1
  Pb  Pb43  1  0.16671834  0.83321841  0.49875036  1
  Pb  Pb44  1  0.16476562  0.16705467  0.16853399  1
  Pb  Pb45  1  0.83157428  0.16519989  0.83236874  1
  Pb  Pb46  1  0.50244025  0.16398422  0.16414401  1
  Pb  Pb47  1  0.16952158  0.16661224  0.82960665  1
  Pb  Pb48  1  0.16311927  0.83308468  0.83692652  1
  Pb  Pb49  1  0.83367345  0.83461438  0.16732648  1
  Pb  Pb50  1  0.50128812  0.83269735  0.83326814  1
  Pb  Pb51  1  0.16915735  0.50009819  0.83298894  1
  Pb  Pb52  1  0.83084059  0.50244300  0.83066480  1
  Pb  Pb53  1  0.83609714  0.49702968  0.16905264  1
  I  I54  1  0.16893912  -0.00226986  0.16843809  1
  I  I55  1  0.16327877  0.00199625  0.49796735  1
  I  I56  1  0.17068470  -0.00011521  0.83293888  1
  I  I57  1  0.16641275  0.33599178  0.17083998  1
  I  I58  1  0.16458139  0.33461880  0.49426969  1
  I  I59  1  0.16366298  0.33333726  0.83837835  1
  I  I60  1  0.16934307  0.66657165  0.17373234  1
  I  I61  1  0.16448392  0.66390285  0.49763728  1
  I  I62  1  0.16994962  0.66666895  0.82776858  1
  I  I63  1  0.49448417  -0.00396232  0.17202717  1
  I  I64  1  0.50305794  -0.00277524  0.49906595  1
  I  I65  1  0.50271697  0.00127275  0.83250497  1
  I  I66  1  0.49904388  0.33333424  0.16847700  1
  I  I67  1  0.50200875  0.33605948  0.50309571  1
  I  I68  1  0.50138174  0.33430424  0.82548204  1
  I  I69  1  0.50063766  0.66984646  0.16608245  1
  I  I70  1  0.50266919  0.66638314  0.50242532  1
  I  I71  1  0.50091634  0.66428731  0.83055840  1
  I  I72  1  0.83488695  0.00215894  0.17267815  1
  I  I73  1  0.83303416  -0.00025800  0.49969949  1
  I  I74  1  0.82850946  -0.00258392  0.82816340  1
  I  I75  1  0.83343571  0.32960165  0.17274698  1
  I  I76  1  0.83347264  0.33335401  0.49472310  1
  I  I77  1  0.83339136  0.33359935  0.83376618  1
  I  I78  1  0.83220429  0.66641754  0.16605382  1
  I  I79  1  0.83246576  0.66686379  0.50480673  1
  I  I80  1  0.83015342  0.67013441  0.82946236  1
  I  I81  1  0.16461086  0.16660190  0.00003181  1
  I  I82  1  0.16569812  0.16799675  0.33667710  1
  I  I83  1  0.15858702  0.17250139  0.66169648  1
  I  I84  1  0.16850902  0.50534448  0.00288157  1
  I  I85  1  0.16886990  0.50056728  0.33518772  1
  I  I86  1  0.16427864  0.49598805  0.66276707  1
  I  I87  1  0.17335173  0.82803346  0.00488668  1
  I  I88  1  0.16580114  0.83206661  0.33095289  1
  I  I89  1  0.16964434  0.83371344  0.66647248  1
  I  I90  1  0.50246458  0.17162198  -0.00343418  1
  I  I91  1  0.49894060  0.16797168  0.33340200  1
  I  I92  1  0.50206999  0.16549935  0.66867897  1
  I  I93  1  0.49832066  0.49828778  -0.00220233  1
  I  I94  1  0.50197799  0.50261015  0.33689723  1
  I  I95  1  0.49832203  0.50226262  0.66441535  1
  I  I96  1  0.49875945  0.83382634  0.00222908  1
  I  I97  1  0.50325882  0.82801177  0.33487915  1
  I  I98  1  0.50249460  0.83293506  0.66376367  1
  I  I99  1  0.83207692  0.16185498  0.00176883  1
  I  I100  1  0.83633482  0.16275657  0.33585937  1
  I  I101  1  0.83560569  0.16800937  0.66289170  1
  I  I102  1  0.83324327  0.50058600  0.00000837  1
  I  I103  1  0.82797474  0.50608338  0.33772414  1
  I  I104  1  0.83814489  0.49479191  0.66200284  1
  I  I105  1  0.83184708  0.83680374  -0.00151178  1
  I  I106  1  0.83198736  0.83205822  0.33671538  1
  I  I107  1  0.82609564  0.83610319  0.66388006  1
  I  I108  1  -0.00300533  0.16229944  0.16933472  1
  I  I109  1  -0.00118867  0.16833176  0.49620171  1
  I  I110  1  -0.00014654  0.16456950  0.83569662  1
  I  I111  1  0.00377523  0.50864222  0.17340026  1
  I  I112  1  -0.00005615  0.50038104  0.49462490  1
  I  I113  1  -0.00020558  0.50136606  0.83334452  1
  I  I114  1  0.00230626  0.83081251  0.16748579  1
  I  I115  1  -0.00278096  0.83174510  0.50162324  1
  I  I116  1  -0.00445188  0.83489951  0.82490003  1
  I  I117  1  0.33327242  0.16694615  0.16702002  1
  I  I118  1  0.33110805  0.17014253  0.50136195  1
  I  I119  1  0.33725317  0.16893488  0.83279262  1
  I  I120  1  0.33029868  0.50083223  0.17324084  1
  I  I121  1  0.33355916  0.49981238  0.50037299  1
  I  I122  1  0.33709816  0.49863007  0.82604288  1
  I  I123  1  0.33382351  0.83032115  0.17276837  1
  I  I124  1  0.33603944  0.83102188  0.49847507  1
  I  I125  1  0.33343661  0.83398856  0.83105167  1
  I  I126  1  0.66997357  0.16433568  0.17540513  1
  I  I127  1  0.66946562  0.16792933  0.49835153  1
  I  I128  1  0.66399306  0.16906183  0.83022663  1
  I  I129  1  0.66679071  0.50132397  0.16668356  1
  I  I130  1  0.66648439  0.50055861  0.50504406  1
  I  I131  1  0.66303480  0.49668093  0.82779440  1
  I  I132  1  0.66465943  0.83510489  0.16737900  1
  I  I133  1  0.66669766  0.83109891  0.49819354  1
  I  I134  1  0.66898600  0.83428997  0.83303323  1
