# generated using pymatgen
data_Cs27Sn13Pb14I81
_symmetry_space_group_name_H-M   'P 1'
_cell_length_a   18.98126427
_cell_length_b   18.97710926
_cell_length_c   18.97209896
_cell_angle_alpha   90.00023289
_cell_angle_beta   89.99937990
_cell_angle_gamma   89.99995530
_symmetry_Int_Tables_number   1
_chemical_formula_structural   Cs27Sn13Pb14I81
_chemical_formula_sum   'Cs27 Sn13 Pb14 I81'
_cell_volume   6833.93077103
_cell_formula_units_Z   1
loop_
 _symmetry_equiv_pos_site_id
 _symmetry_equiv_pos_as_xyz
  1  'x, y, z'
loop_
 _atom_site_type_symbol
 _atom_site_label
 _atom_site_symmetry_multiplicity
 _atom_site_fract_x
 _atom_site_fract_y
 _atom_site_fract_z
 _atom_site_occupancy
  Cs  Cs0  1  0.00238935  0.00165146  0.00024407  1
  Cs  Cs1  1  0.00080541  -0.00038745  0.33210055  1
  Cs  Cs2  1  0.00129326  -0.00252174  0.66768246  1
  Cs  Cs3  1  0.00040328  0.32620068  -0.00081684  1
  Cs  Cs4  1  -0.00819007  0.33213087  0.33508607  1
  Cs  Cs5  1  0.00088805  0.33891991  0.66575965  1
  Cs  Cs6  1  0.00160855  0.67068543  -0.00132117  1
  Cs  Cs7  1  0.00118806  0.66775174  0.33502523  1
  Cs  Cs8  1  0.00251800  0.66449565  0.66583278  1
  Cs  Cs9  1  0.33190106  0.00265203  0.00027618  1
  Cs  Cs10  1  0.33261502  -0.00060728  0.33484020  1
  Cs  Cs11  1  0.33617926  -0.00162945  0.66335185  1
  Cs  Cs12  1  0.33481219  0.33063323  -0.00088035  1
  Cs  Cs13  1  0.33412673  0.33464716  0.33312157  1
  Cs  Cs14  1  0.33280391  0.33646757  0.66745272  1
  Cs  Cs15  1  0.33312616  0.66709417  0.00306434  1
  Cs  Cs16  1  0.33207776  0.66742467  0.33080951  1
  Cs  Cs17  1  0.33346197  0.66464507  0.66776907  1
  Cs  Cs18  1  0.66624354  -0.00004132  -0.00250364  1
  Cs  Cs19  1  0.66657197  0.00065456  0.33731431  1
  Cs  Cs20  1  0.66321948  0.00081077  0.66624165  1
  Cs  Cs21  1  0.66542836  0.33506054  -0.00125220  1
  Cs  Cs22  1  0.67426060  0.33411426  0.33405048  1
  Cs  Cs23  1  0.66668042  0.33190935  0.66802606  1
  Cs  Cs24  1  0.66663366  0.66436284  -0.00046324  1
  Cs  Cs25  1  0.66785960  0.66529094  0.32984242  1
  Cs  Cs26  1  0.66413407  0.66836861  0.67048666  1
  Sn  Sn27  1  0.50031730  0.16610068  0.16666006  1
  Sn  Sn28  1  0.50032661  0.49998170  0.50024075  1
  Sn  Sn29  1  0.16603334  0.83410296  0.49927531  1
  Sn  Sn30  1  0.83331859  0.83349600  0.16732330  1
  Sn  Sn31  1  0.83298208  0.49935810  0.83356614  1
  Sn  Sn32  1  0.83366795  0.83328010  0.49956809  1
  Sn  Sn33  1  0.50073029  0.16730853  0.83390359  1
  Sn  Sn34  1  0.50012484  0.83446726  0.16657576  1
  Sn  Sn35  1  0.83278052  0.16728661  0.83319921  1
  Sn  Sn36  1  0.16660939  0.16647630  0.49995201  1
  Sn  Sn37  1  0.16655566  0.83267796  0.16745103  1
  Sn  Sn38  1  0.50061466  0.49924720  0.83257812  1
  Sn  Sn39  1  0.16621899  0.49975231  0.16663568  1
  Pb  Pb40  1  0.83605866  0.50203766  0.16419133  1
  Pb  Pb41  1  0.83104362  0.50259987  0.50224713  1
  Pb  Pb42  1  0.49902246  0.49959579  0.16622514  1
  Pb  Pb43  1  0.16691931  0.83339937  0.83309243  1
  Pb  Pb44  1  0.16692824  0.49989030  0.83607073  1
  Pb  Pb45  1  0.16842560  0.16642974  0.16866674  1
  Pb  Pb46  1  0.83548286  0.16439224  0.50265450  1
  Pb  Pb47  1  0.49862543  0.16869575  0.50003159  1
  Pb  Pb48  1  0.16721455  0.16666978  0.83055733  1
  Pb  Pb49  1  0.83333452  0.83344772  0.83307977  1
  Pb  Pb50  1  0.49984031  0.83123072  0.49758970  1
  Pb  Pb51  1  0.16811182  0.50043238  0.49785610  1
  Pb  Pb52  1  0.49977110  0.83338457  0.83591641  1
  Pb  Pb53  1  0.83078751  0.16423634  0.16476678  1
  I  I54  1  0.16564813  -0.00326628  0.16870124  1
  I  I55  1  0.16475017  -0.00167396  0.49451607  1
  I  I56  1  0.16570208  0.00021997  0.83774082  1
  I  I57  1  0.17151892  0.33526624  0.16701939  1
  I  I58  1  0.17067039  0.33143683  0.49948982  1
  I  I59  1  0.16648810  0.33329511  0.83364799  1
  I  I60  1  0.16983905  0.66877353  0.17115394  1
  I  I61  1  0.16401591  0.66982106  0.49705422  1
  I  I62  1  0.16637468  0.66645497  0.83009421  1
  I  I63  1  0.49749452  -0.00047065  0.16124163  1
  I  I64  1  0.50063757  -0.00018791  0.50230504  1
  I  I65  1  0.50444281  0.00322204  0.83550778  1
  I  I66  1  0.49560985  0.33100603  0.16464629  1
  I  I67  1  0.49620753  0.33633785  0.49943692  1
  I  I68  1  0.50368094  0.33317368  0.83603144  1
  I  I69  1  0.50014188  0.66924291  0.16713417  1
  I  I70  1  0.49802969  0.66363025  0.50538846  1
  I  I71  1  0.50413716  0.66352713  0.83099048  1
  I  I72  1  0.83872460  -0.00400617  0.16740796  1
  I  I73  1  0.83367539  -0.00359877  0.49782785  1
  I  I74  1  0.82831881  0.00265224  0.83352920  1
  I  I75  1  0.83362795  0.33321336  0.16753378  1
  I  I76  1  0.83482968  0.33340080  0.49905778  1
  I  I77  1  0.82842520  0.33334107  0.83360144  1
  I  I78  1  0.82824522  0.67040790  0.16765241  1
  I  I79  1  0.84014379  0.67038101  0.49771109  1
  I  I80  1  0.82813949  0.66414150  0.83408526  1
  I  I81  1  0.16588484  0.16602030  0.00005810  1
  I  I82  1  0.16995239  0.16414642  0.33621690  1
  I  I83  1  0.16874065  0.15973667  0.66295328  1
  I  I84  1  0.16938557  0.50775451  0.00372245  1
  I  I85  1  0.17133933  0.50324304  0.33027289  1
  I  I86  1  0.16629203  0.50097967  0.66663348  1
  I  I87  1  0.16587072  0.82908132  0.00385986  1
  I  I88  1  0.16646167  0.83313212  0.33255783  1
  I  I89  1  0.16154645  0.83682911  0.66279727  1
  I  I90  1  0.50183240  0.16819106  -0.00055410  1
  I  I91  1  0.49604989  0.16339456  0.33081952  1
  I  I92  1  0.50245015  0.16921055  0.66964466  1
  I  I93  1  0.50248417  0.49932757  -0.00273985  1
  I  I94  1  0.49568823  0.50145095  0.33485840  1
  I  I95  1  0.50177640  0.49545356  0.66804094  1
  I  I96  1  0.49986236  0.83196787  0.00430638  1
  I  I97  1  0.49913380  0.83683209  0.32947314  1
  I  I98  1  0.50006266  0.83483632  0.66645031  1
  I  I99  1  0.83271525  0.16815294  -0.00326056  1
  I  I100  1  0.83243607  0.16750075  0.33340809  1
  I  I101  1  0.82603729  0.16764069  0.67044509  1
  I  I102  1  0.82546242  0.49914142  -0.00352426  1
  I  I103  1  0.83174260  0.49944467  0.33328688  1
  I  I104  1  0.83261750  0.49861068  0.67020221  1
  I  I105  1  0.83408809  0.83289612  0.00295741  1
  I  I106  1  0.83433197  0.83314540  0.33260006  1
  I  I107  1  0.83923247  0.83292369  0.66389297  1
  I  I108  1  -0.00015921  0.16623316  0.16475426  1
  I  I109  1  0.00327023  0.16552067  0.49990767  1
  I  I110  1  -0.00275530  0.17032680  0.83228534  1
  I  I111  1  0.00365901  0.50589409  0.16669866  1
  I  I112  1  -0.00015834  0.49889633  0.50128620  1
  I  I113  1  -0.00284050  0.49655925  0.83497387  1
  I  I114  1  0.00050808  0.82783827  0.17018363  1
  I  I115  1  0.00070355  0.83652995  0.49238941  1
  I  I116  1  -0.00019483  0.83355994  0.83780977  1
  I  I117  1  0.33642947  0.16174986  0.16039551  1
  I  I118  1  0.33086333  0.15933227  0.50096173  1
  I  I119  1  0.33686053  0.17091970  0.83705169  1
  I  I120  1  0.33130264  0.50674522  0.16577379  1
  I  I121  1  0.33596128  0.50179981  0.50617054  1
  I  I122  1  0.33667025  0.49594856  0.83079052  1
  I  I123  1  0.33284644  0.83236272  0.16974814  1
  I  I124  1  0.33056667  0.83577158  0.49562343  1
  I  I125  1  0.33360202  0.83303716  0.83321939  1
  I  I126  1  0.66269248  0.16260029  0.16583993  1
  I  I127  1  0.66675634  0.16563757  0.49865849  1
  I  I128  1  0.66561091  0.17056466  0.83715225  1
  I  I129  1  0.66683397  0.50206968  0.16793544  1
  I  I130  1  0.66327404  0.50064791  0.49969734  1
  I  I131  1  0.66564641  0.49660896  0.83053891  1
  I  I132  1  0.66662891  0.83733752  0.16996978  1
  I  I133  1  0.66893972  0.83105311  0.49587307  1
  I  I134  1  0.66659916  0.83290695  0.83341006  1
