# generated using pymatgen
data_Cs27Sn13Pb14I81
_symmetry_space_group_name_H-M   'P 1'
_cell_length_a   18.98241441
_cell_length_b   18.96784674
_cell_length_c   18.97855186
_cell_angle_alpha   89.99834448
_cell_angle_beta   89.99946070
_cell_angle_gamma   89.99908261
_symmetry_Int_Tables_number   1
_chemical_formula_structural   Cs27Sn13Pb14I81
_chemical_formula_sum   'Cs27 Sn13 Pb14 I81'
_cell_volume   6833.33249170
_cell_formula_units_Z   1
loop_
 _symmetry_equiv_pos_site_id
 _symmetry_equiv_pos_as_xyz
  1  'x, y, z'
loop_
 _atom_site_type_symbol
 _atom_site_label
 _atom_site_symmetry_multiplicity
 _atom_site_fract_x
 _atom_site_fract_y
 _atom_site_fract_z
 _atom_site_occupancy
  Cs  Cs0  1  0.00273124  -0.00175610  0.00173869  1
  Cs  Cs1  1  0.00082733  0.00947602  0.33493166  1
  Cs  Cs2  1  0.00100495  -0.00132154  0.66375427  1
  Cs  Cs3  1  -0.00523970  0.33497237  -0.00234609  1
  Cs  Cs4  1  0.00212660  0.32751112  0.33551566  1
  Cs  Cs5  1  0.00280298  0.33268484  0.66701654  1
  Cs  Cs6  1  -0.00132588  0.66619673  -0.00062432  1
  Cs  Cs7  1  -0.00288186  0.66595249  0.33040084  1
  Cs  Cs8  1  0.00310007  0.66668617  0.66957603  1
  Cs  Cs9  1  0.33300915  0.00100051  0.00283270  1
  Cs  Cs10  1  0.33266713  -0.00187583  0.32444129  1
  Cs  Cs11  1  0.33228472  -0.00192472  0.66962917  1
  Cs  Cs12  1  0.33698950  0.33236566  -0.00024195  1
  Cs  Cs13  1  0.33116175  0.33392801  0.33748214  1
  Cs  Cs14  1  0.33244345  0.33394251  0.66416162  1
  Cs  Cs15  1  0.33247144  0.66722745  0.00039939  1
  Cs  Cs16  1  0.33522019  0.66735857  0.33113964  1
  Cs  Cs17  1  0.33247998  0.66682826  0.66795049  1
  Cs  Cs18  1  0.66537743  0.00876786  -0.00063692  1
  Cs  Cs19  1  0.66733447  -0.00066509  0.33674628  1
  Cs  Cs20  1  0.66871442  0.00013318  0.66413894  1
  Cs  Cs21  1  0.66696463  0.32818216  -0.00180260  1
  Cs  Cs22  1  0.66636816  0.33698760  0.33290641  1
  Cs  Cs23  1  0.66495519  0.33176316  0.66854179  1
  Cs  Cs24  1  0.66937006  0.66520848  0.00044482  1
  Cs  Cs25  1  0.66644180  0.66627549  0.33432317  1
  Cs  Cs26  1  0.66619436  0.66807500  0.66459803  1
  Sn  Sn27  1  0.16679210  0.83410978  0.83283050  1
  Sn  Sn28  1  0.16660169  0.16627348  0.83337902  1
  Sn  Sn29  1  0.50008414  0.50033188  0.16655899  1
  Sn  Sn30  1  0.50072815  0.49951990  0.50016115  1
  Sn  Sn31  1  0.83302711  0.83307872  0.83421990  1
  Sn  Sn32  1  0.16674995  0.83293762  0.49964546  1
  Sn  Sn33  1  0.50034630  0.83287491  0.83361019  1
  Sn  Sn34  1  0.49981780  0.16661996  0.49986876  1
  Sn  Sn35  1  0.83328133  0.83313544  0.16609517  1
  Sn  Sn36  1  0.50008102  0.50078663  0.83328988  1
  Sn  Sn37  1  0.16637416  0.49993332  0.16665753  1
  Sn  Sn38  1  0.83320829  0.50034388  0.49983666  1
  Sn  Sn39  1  0.83336488  0.50060817  0.16754656  1
  Pb  Pb40  1  0.49996123  0.16934416  0.16957571  1
  Pb  Pb41  1  0.16915337  0.16405199  0.50174101  1
  Pb  Pb42  1  0.83104470  0.50158924  0.83311195  1
  Pb  Pb43  1  0.83323898  0.16691636  0.16673619  1
  Pb  Pb44  1  0.16671131  0.16977647  0.16395090  1
  Pb  Pb45  1  0.83605454  0.16330114  0.83310591  1
  Pb  Pb46  1  0.83539317  0.83134608  0.49978065  1
  Pb  Pb47  1  0.49819271  0.83287286  0.50164080  1
  Pb  Pb48  1  0.16672851  0.50176218  0.49811555  1
  Pb  Pb49  1  0.50268649  0.83150677  0.16398453  1
  Pb  Pb50  1  0.16882487  0.50041516  0.83529003  1
  Pb  Pb51  1  0.83107931  0.16985049  0.50020974  1
  Pb  Pb52  1  0.16449577  0.83176036  0.16632667  1
  Pb  Pb53  1  0.49833841  0.16641945  0.83155187  1
  I  I54  1  0.16491335  -0.00018168  0.16875135  1
  I  I55  1  0.16688826  -0.00380767  0.50230814  1
  I  I56  1  0.16856470  -0.00217605  0.82941529  1
  I  I57  1  0.16518075  0.33800671  0.16662845  1
  I  I58  1  0.16509640  0.33350359  0.50093455  1
  I  I59  1  0.16990412  0.33159183  0.83553272  1
  I  I60  1  0.16884694  0.66363825  0.16441200  1
  I  I61  1  0.16862178  0.66934380  0.50819928  1
  I  I62  1  0.16575391  0.66976000  0.83105593  1
  I  I63  1  0.50071632  -0.00020289  0.16696861  1
  I  I64  1  0.49767407  0.00186310  0.50431024  1
  I  I65  1  0.50127058  -0.00312942  0.83047074  1
  I  I66  1  0.50324387  0.33844581  0.16011746  1
  I  I67  1  0.50288438  0.33590930  0.50188185  1
  I  I68  1  0.49801016  0.33640928  0.83530396  1
  I  I69  1  0.49821485  0.66273403  0.17157437  1
  I  I70  1  0.50254616  0.66324974  0.49863482  1
  I  I71  1  0.49743561  0.66639053  0.83119245  1
  I  I72  1  0.83469198  -0.00333294  0.16121971  1
  I  I73  1  0.83239781  -0.00025089  0.49961009  1
  I  I74  1  0.82726341  -0.00522854  0.83876364  1
  I  I75  1  0.83281367  0.33759832  0.17052488  1
  I  I76  1  0.83309057  0.33823576  0.49329155  1
  I  I77  1  0.83375737  0.33349507  0.83405505  1
  I  I78  1  0.83331604  0.66529662  0.16594183  1
  I  I79  1  0.82601633  0.66336866  0.49800681  1
  I  I80  1  0.83833036  0.66978717  0.83463407  1
  I  I81  1  0.16892864  0.15814529  -0.00366768  1
  I  I82  1  0.16730614  0.16538235  0.33340495  1
  I  I83  1  0.16778185  0.16577464  0.66966522  1
  I  I84  1  0.16575973  0.50232338  0.00313444  1
  I  I85  1  0.17085167  0.50352108  0.33025842  1
  I  I86  1  0.16691034  0.49923720  0.66688747  1
  I  I87  1  0.16823772  0.83531225  -0.00320307  1
  I  I88  1  0.16654400  0.82938729  0.33525475  1
  I  I89  1  0.16494552  0.83507896  0.66854056  1
  I  I90  1  0.49892018  0.16788569  -0.00014946  1
  I  I91  1  0.49928076  0.17176740  0.33740106  1
  I  I92  1  0.49882612  0.17432046  0.66407640  1
  I  I93  1  0.49886729  0.50584947  -0.00003208  1
  I  I94  1  0.50083795  0.49544985  0.33337532  1
  I  I95  1  0.50392782  0.50028627  0.66636915  1
  I  I96  1  0.49412064  0.82784519  -0.00426616  1
  I  I97  1  0.49876863  0.83279364  0.33320049  1
  I  I98  1  0.50305043  0.82744550  0.67006642  1
  I  I99  1  0.83217223  0.17204087  -0.00022818  1
  I  I100  1  0.83417165  0.16148213  0.33351990  1
  I  I101  1  0.83304921  0.16722016  0.66670561  1
  I  I102  1  0.83330942  0.50272474  0.00281261  1
  I  I103  1  0.82804065  0.50642836  0.33233348  1
  I  I104  1  0.82812431  0.50196813  0.66420567  1
  I  I105  1  0.83570733  0.82566606  -0.00053169  1
  I  I106  1  0.83481449  0.82877789  0.33074061  1
  I  I107  1  0.83231969  0.83145989  0.66952261  1
  I  I108  1  0.00007884  0.16942456  0.16696082  1
  I  I109  1  0.00032551  0.16739456  0.50074873  1
  I  I110  1  0.00393061  0.16358974  0.83287332  1
  I  I111  1  -0.00113264  0.50468201  0.17008257  1
  I  I112  1  -0.00244461  0.50366623  0.49528743  1
  I  I113  1  -0.00004262  0.50062449  0.83372956  1
  I  I114  1  -0.00313494  0.82451228  0.16047039  1
  I  I115  1  0.00295413  0.83027791  0.50675301  1
  I  I116  1  0.00026392  0.83702656  0.83345444  1
  I  I117  1  0.33336595  0.16772586  0.16641814  1
  I  I118  1  0.33650546  0.17627267  0.50174706  1
  I  I119  1  0.33075337  0.16105951  0.83240078  1
  I  I120  1  0.33435480  0.49981348  0.16614309  1
  I  I121  1  0.33644511  0.49777222  0.49937595  1
  I  I122  1  0.33698725  0.50503114  0.83274012  1
  I  I123  1  0.33339129  0.83064404  0.16614195  1
  I  I124  1  0.33048044  0.83065890  0.50665404  1
  I  I125  1  0.33318075  0.83226606  0.82785723  1
  I  I126  1  0.66648682  0.16805905  0.16477015  1
  I  I127  1  0.66310298  0.16726438  0.50197836  1
  I  I128  1  0.66650898  0.16635357  0.83272794  1
  I  I129  1  0.66666588  0.50458583  0.16845767  1
  I  I130  1  0.66559793  0.49814867  0.49553635  1
  I  I131  1  0.66284936  0.50475080  0.83610702  1
  I  I132  1  0.67047751  0.82613054  0.16335295  1
  I  I133  1  0.66665289  0.83466311  0.50148195  1
  I  I134  1  0.66642306  0.82626345  0.83677335  1
