# generated using pymatgen
data_Cs27Sn13Pb14I81
_symmetry_space_group_name_H-M   'P 1'
_cell_length_a   18.98855044
_cell_length_b   18.98543694
_cell_length_c   19.00079341
_cell_angle_alpha   90.00046312
_cell_angle_beta   89.99836530
_cell_angle_gamma   90.00169591
_symmetry_Int_Tables_number   1
_chemical_formula_structural   Cs27Sn13Pb14I81
_chemical_formula_sum   'Cs27 Sn13 Pb14 I81'
_cell_volume   6849.89863600
_cell_formula_units_Z   1
loop_
 _symmetry_equiv_pos_site_id
 _symmetry_equiv_pos_as_xyz
  1  'x, y, z'
loop_
 _atom_site_type_symbol
 _atom_site_label
 _atom_site_symmetry_multiplicity
 _atom_site_fract_x
 _atom_site_fract_y
 _atom_site_fract_z
 _atom_site_occupancy
  Cs  Cs0  1  -0.00548222  -0.00302653  -0.00203064  1
  Cs  Cs1  1  -0.00344480  -0.00130585  0.33082854  1
  Cs  Cs2  1  -0.00172786  0.00431887  0.66986820  1
  Cs  Cs3  1  0.00217961  0.33432826  -0.00261792  1
  Cs  Cs4  1  0.00012366  0.33561676  0.33493352  1
  Cs  Cs5  1  0.00035146  0.33220326  0.66669336  1
  Cs  Cs6  1  0.00031807  0.66700349  0.00259275  1
  Cs  Cs7  1  0.00594238  0.66622015  0.33352043  1
  Cs  Cs8  1  0.00008161  0.66500631  0.66471298  1
  Cs  Cs9  1  0.33391211  0.00434109  0.00231658  1
  Cs  Cs10  1  0.33591260  -0.00500408  0.33278420  1
  Cs  Cs11  1  0.33187090  0.00284940  0.66536188  1
  Cs  Cs12  1  0.33307144  0.33155601  -0.00234541  1
  Cs  Cs13  1  0.33367728  0.33327478  0.33345866  1
  Cs  Cs14  1  0.33417020  0.33145908  0.66763476  1
  Cs  Cs15  1  0.33456765  0.66906464  -0.00197381  1
  Cs  Cs16  1  0.32543624  0.67391994  0.33495847  1
  Cs  Cs17  1  0.33648506  0.67162133  0.66601833  1
  Cs  Cs18  1  0.67393417  -0.00808027  0.00968167  1
  Cs  Cs19  1  0.66560292  -0.00010113  0.32365968  1
  Cs  Cs20  1  0.67043562  -0.00326961  0.66733462  1
  Cs  Cs21  1  0.66477384  0.33559746  0.00466387  1
  Cs  Cs22  1  0.66612207  0.33394047  0.33356520  1
  Cs  Cs23  1  0.66570439  0.33483851  0.66400753  1
  Cs  Cs24  1  0.66571322  0.66856176  -0.00328755  1
  Cs  Cs25  1  0.66728035  0.66375833  0.33668807  1
  Cs  Cs26  1  0.66435904  0.66659641  0.66616538  1
  Sn  Sn27  1  0.16736663  0.16699772  0.49960111  1
  Sn  Sn28  1  0.16645833  0.50036531  0.83289218  1
  Sn  Sn29  1  0.83282984  0.49972510  0.16691120  1
  Sn  Sn30  1  0.16728306  0.16654391  0.83337770  1
  Sn  Sn31  1  0.16692058  0.83353509  0.83300968  1
  Sn  Sn32  1  0.50055523  0.16644435  0.83299228  1
  Sn  Sn33  1  0.16637635  0.16699241  0.16681329  1
  Sn  Sn34  1  0.49952582  0.16724189  0.50087774  1
  Sn  Sn35  1  0.49991383  0.49948319  0.49887167  1
  Sn  Sn36  1  0.83326912  0.83264522  0.50013681  1
  Sn  Sn37  1  0.83291828  0.50076719  0.49997284  1
  Sn  Sn38  1  0.49978060  0.49997387  0.16803845  1
  Sn  Sn39  1  0.83383014  0.49937929  0.83311263  1
  Pb  Pb40  1  0.16431064  0.83666536  0.50212206  1
  Pb  Pb41  1  0.16719263  0.49856379  0.16445831  1
  Pb  Pb42  1  0.83242691  0.16694141  0.50000503  1
  Pb  Pb43  1  0.83353471  0.82966887  0.16935677  1
  Pb  Pb44  1  0.83540154  0.83029670  0.83140594  1
  Pb  Pb45  1  0.49830310  0.16840639  0.16688191  1
  Pb  Pb46  1  0.49798073  0.83739023  0.83321299  1
  Pb  Pb47  1  0.83591195  0.16944966  0.16658739  1
  Pb  Pb48  1  0.83243196  0.16867901  0.83348319  1
  Pb  Pb49  1  0.49996599  0.49853982  0.83291585  1
  Pb  Pb50  1  0.16655123  0.83641267  0.16397216  1
  Pb  Pb51  1  0.50209818  0.83388171  0.50006618  1
  Pb  Pb52  1  0.49981875  0.82952350  0.16675451  1
  Pb  Pb53  1  0.16731111  0.49841187  0.50215880  1
  I  I54  1  0.16837824  0.00459841  0.16575023  1
  I  I55  1  0.17134864  0.00470797  0.50255519  1
  I  I56  1  0.17209039  0.00166144  0.83240129  1
  I  I57  1  0.16606359  0.33067890  0.16328474  1
  I  I58  1  0.16491731  0.33031910  0.50363183  1
  I  I59  1  0.16577196  0.33251083  0.83367631  1
  I  I60  1  0.16647106  0.66655475  0.16477205  1
  I  I61  1  0.16886669  0.66667984  0.50213392  1
  I  I62  1  0.16034929  0.66574435  0.83347954  1
  I  I63  1  0.49854598  0.00032231  0.16681035  1
  I  I64  1  0.49577972  0.00372436  0.50559249  1
  I  I65  1  0.49261177  0.00550699  0.82537992  1
  I  I66  1  0.50432924  0.33633571  0.16781675  1
  I  I67  1  0.50244867  0.33374643  0.50054370  1
  I  I68  1  0.49271987  0.33081684  0.83180733  1
  I  I69  1  0.50375137  0.66106432  0.17162914  1
  I  I70  1  0.50310570  0.66331483  0.49671221  1
  I  I71  1  0.49833335  0.66661854  0.83367090  1
  I  I72  1  0.83414675  -0.00032105  0.16817276  1
  I  I73  1  0.83607981  -0.00212603  0.50250737  1
  I  I74  1  0.83494178  -0.00019371  0.83016850  1
  I  I75  1  0.82957414  0.33760067  0.17019632  1
  I  I76  1  0.83282767  0.33678773  0.50014381  1
  I  I77  1  0.84041352  0.33714475  0.82955757  1
  I  I78  1  0.83061762  0.66167216  0.16259806  1
  I  I79  1  0.82787535  0.66396950  0.50094843  1
  I  I80  1  0.83827442  0.66198118  0.83577809  1
  I  I81  1  0.17101832  0.16827124  -0.00171870  1
  I  I82  1  0.16985635  0.16962595  0.33413036  1
  I  I83  1  0.17041708  0.16717244  0.66743450  1
  I  I84  1  0.16286319  0.49649935  -0.00369230  1
  I  I85  1  0.16353768  0.49672032  0.33348279  1
  I  I86  1  0.16194996  0.49620619  0.67018356  1
  I  I87  1  0.16540658  0.83380961  -0.00405451  1
  I  I88  1  0.16566213  0.83423246  0.33352811  1
  I  I89  1  0.16573525  0.83460513  0.66979873  1
  I  I90  1  0.49255387  0.17072054  -0.00248684  1
  I  I91  1  0.49566781  0.16966533  0.33642028  1
  I  I92  1  0.49006650  0.17439477  0.66604092  1
  I  I93  1  0.50288124  0.49747872  0.00170548  1
  I  I94  1  0.51000299  0.49233433  0.33462374  1
  I  I95  1  0.50360083  0.49713779  0.66392567  1
  I  I96  1  0.50008976  0.83281291  -0.00019000  1
  I  I97  1  0.49972617  0.83922804  0.33356866  1
  I  I98  1  0.50058315  0.82728262  0.66666700  1
  I  I99  1  0.83379303  0.16911832  -0.00003724  1
  I  I100  1  0.83533834  0.16831150  0.33350146  1
  I  I101  1  0.83879531  0.16979210  0.66660230  1
  I  I102  1  0.83409641  0.49637904  -0.00019528  1
  I  I103  1  0.82826812  0.50273576  0.33403462  1
  I  I104  1  0.83374540  0.50304801  0.66613396  1
  I  I105  1  0.83452757  0.83339568  0.00006002  1
  I  I106  1  0.83433851  0.82902449  0.33697029  1
  I  I107  1  0.83372591  0.82710193  0.66383967  1
  I  I108  1  0.00411659  0.16911426  0.16569508  1
  I  I109  1  0.00271188  0.16736258  0.50243724  1
  I  I110  1  0.00346797  0.16581917  0.83182922  1
  I  I111  1  -0.00264071  0.49799811  0.16899520  1
  I  I112  1  -0.00261297  0.50170747  0.49809467  1
  I  I113  1  0.00028917  0.49694773  0.83316211  1
  I  I114  1  0.00002120  0.83174309  0.16719187  1
  I  I115  1  -0.00304474  0.82538339  0.50037177  1
  I  I116  1  0.00328437  0.84047924  0.83229666  1
  I  I117  1  0.33041296  0.17126031  0.16446389  1
  I  I118  1  0.33335179  0.17342209  0.50223663  1
  I  I119  1  0.33156502  0.17019750  0.83240473  1
  I  I120  1  0.33597078  0.49652974  0.16987305  1
  I  I121  1  0.33631665  0.49596716  0.49684066  1
  I  I122  1  0.33058365  0.49963893  0.83404468  1
  I  I123  1  0.33292949  0.82993615  0.16770975  1
  I  I124  1  0.33319003  0.83015554  0.50086524  1
  I  I125  1  0.32959286  0.82593238  0.83185931  1
  I  I126  1  0.66646096  0.16584507  0.16684396  1
  I  I127  1  0.66317568  0.16929945  0.50628339  1
  I  I128  1  0.66325275  0.17161784  0.82527506  1
  I  I129  1  0.66715130  0.49784768  0.16509051  1
  I  I130  1  0.66698925  0.49760558  0.50172866  1
  I  I131  1  0.66920691  0.49715044  0.83312646  1
  I  I132  1  0.66695678  0.83916053  0.16529210  1
  I  I133  1  0.66985683  0.83180690  0.50225016  1
  I  I134  1  0.66692395  0.83333162  0.83255988  1
