# generated using pymatgen
data_Cs27Sn14Pb13I81
_symmetry_space_group_name_H-M   'P 1'
_cell_length_a   18.97949928
_cell_length_b   18.97479743
_cell_length_c   18.97471557
_cell_angle_alpha   89.99915314
_cell_angle_beta   90.00090417
_cell_angle_gamma   89.99997746
_symmetry_Int_Tables_number   1
_chemical_formula_structural   Cs27Sn14Pb13I81
_chemical_formula_sum   'Cs27 Sn14 Pb13 I81'
_cell_volume   6833.40518969
_cell_formula_units_Z   1
loop_
 _symmetry_equiv_pos_site_id
 _symmetry_equiv_pos_as_xyz
  1  'x, y, z'
loop_
 _atom_site_type_symbol
 _atom_site_label
 _atom_site_symmetry_multiplicity
 _atom_site_fract_x
 _atom_site_fract_y
 _atom_site_fract_z
 _atom_site_occupancy
  Cs  Cs0  1  0.00155730  0.00593132  0.00133402  1
  Cs  Cs1  1  -0.00071344  0.00082059  0.33330541  1
  Cs  Cs2  1  -0.00092882  0.00000632  0.66629442  1
  Cs  Cs3  1  0.00173439  0.32978537  0.00172848  1
  Cs  Cs4  1  -0.00060213  0.33408967  0.33259081  1
  Cs  Cs5  1  0.00167892  0.33036061  0.66593134  1
  Cs  Cs6  1  -0.00147085  0.66610528  0.00069077  1
  Cs  Cs7  1  0.00026503  0.66605616  0.33368829  1
  Cs  Cs8  1  -0.00350947  0.66905717  0.66580064  1
  Cs  Cs9  1  0.33325162  -0.00167164  0.00138987  1
  Cs  Cs10  1  0.33806959  -0.00370901  0.32991815  1
  Cs  Cs11  1  0.33363655  -0.00114866  0.66744609  1
  Cs  Cs12  1  0.32925799  0.33503995  -0.00319446  1
  Cs  Cs13  1  0.33799643  0.33418124  0.33721857  1
  Cs  Cs14  1  0.33452915  0.33284362  0.66605473  1
  Cs  Cs15  1  0.33416646  0.66757648  0.00074894  1
  Cs  Cs16  1  0.33104553  0.66925444  0.33127437  1
  Cs  Cs17  1  0.33296540  0.66865957  0.66783992  1
  Cs  Cs18  1  0.66605970  0.00051821  0.00007634  1
  Cs  Cs19  1  0.66281509  0.00419112  0.33063315  1
  Cs  Cs20  1  0.66719821  -0.00148042  0.66805342  1
  Cs  Cs21  1  0.66801105  0.33430530  -0.00048500  1
  Cs  Cs22  1  0.66279235  0.32997936  0.33484778  1
  Cs  Cs23  1  0.66325275  0.33754410  0.66636741  1
  Cs  Cs24  1  0.66825757  0.66524834  -0.00155979  1
  Cs  Cs25  1  0.67075068  0.66591763  0.33296357  1
  Cs  Cs26  1  0.67310774  0.66366496  0.66792080  1
  Sn  Sn27  1  0.16655513  0.50029946  0.50034967  1
  Sn  Sn28  1  0.16685811  0.50016188  0.16678231  1
  Sn  Sn29  1  0.83220847  0.16668866  0.83216406  1
  Sn  Sn30  1  0.49980859  0.83281318  0.50093198  1
  Sn  Sn31  1  0.83331697  0.50067900  0.16682729  1
  Sn  Sn32  1  0.49985533  0.50007456  0.16668142  1
  Sn  Sn33  1  0.83360543  0.16660936  0.50098169  1
  Sn  Sn34  1  0.49959069  0.83372124  0.83233366  1
  Sn  Sn35  1  0.16728115  0.83355040  0.50067416  1
  Sn  Sn36  1  0.16707225  0.83258453  0.83280581  1
  Sn  Sn37  1  0.50074554  0.16611883  0.83317934  1
  Sn  Sn38  1  0.83354364  0.83314228  0.16659918  1
  Sn  Sn39  1  0.16635709  0.16616840  0.49987182  1
  Sn  Sn40  1  0.16640408  0.50120066  0.83291109  1
  Pb  Pb41  1  0.83622031  0.49743026  0.83516707  1
  Pb  Pb42  1  0.49972634  0.16451238  0.50216980  1
  Pb  Pb43  1  0.83331390  0.16705114  0.16693604  1
  Pb  Pb44  1  0.16490993  0.83169502  0.16652130  1
  Pb  Pb45  1  0.49804838  0.50069646  0.83472742  1
  Pb  Pb46  1  0.16695695  0.16603722  0.83150214  1
  Pb  Pb47  1  0.50207501  0.83134665  0.16619837  1
  Pb  Pb48  1  0.49781922  0.50304028  0.49830872  1
  Pb  Pb49  1  0.83544675  0.49756720  0.49801517  1
  Pb  Pb50  1  0.16715286  0.16930806  0.17017055  1
  Pb  Pb51  1  0.49963219  0.16927033  0.16342808  1
  Pb  Pb52  1  0.83375210  0.83518503  0.83518726  1
  Pb  Pb53  1  0.83344136  0.83537297  0.49817021  1
  I  I54  1  0.16326392  -0.00018031  0.16556728  1
  I  I55  1  0.16558517  -0.00090123  0.50668502  1
  I  I56  1  0.16707512  -0.00285380  0.82847045  1
  I  I57  1  0.16240797  0.33811897  0.16342133  1
  I  I58  1  0.16088887  0.33370439  0.49902696  1
  I  I59  1  0.16631255  0.33562342  0.83426084  1
  I  I60  1  0.16799373  0.66324180  0.17092046  1
  I  I61  1  0.17178830  0.66690400  0.49922344  1
  I  I62  1  0.17228200  0.66715303  0.83005347  1
  I  I63  1  0.50309768  -0.00037340  0.16876594  1
  I  I64  1  0.49397220  -0.00327048  0.49986884  1
  I  I65  1  0.49750886  -0.00100988  0.83010374  1
  I  I66  1  0.50203192  0.33742003  0.16689607  1
  I  I67  1  0.49917436  0.33340859  0.49943368  1
  I  I68  1  0.50223535  0.33121998  0.83607664  1
  I  I69  1  0.49657000  0.66356519  0.16482007  1
  I  I70  1  0.49468195  0.67088682  0.50588789  1
  I  I71  1  0.49629232  0.66978773  0.83182214  1
  I  I72  1  0.83336697  -0.00204714  0.16677044  1
  I  I73  1  0.84024843  0.00304989  0.50083017  1
  I  I74  1  0.83513305  0.00301421  0.83287033  1
  I  I75  1  0.83535566  0.33637208  0.16627068  1
  I  I76  1  0.83910722  0.32965678  0.50160477  1
  I  I77  1  0.82889046  0.32959141  0.83162417  1
  I  I78  1  0.83416874  0.66554889  0.16677453  1
  I  I79  1  0.83393648  0.66670297  0.49938324  1
  I  I80  1  0.83115605  0.66657757  0.83383647  1
  I  I81  1  0.16516375  0.16749107  -0.00027854  1
  I  I82  1  0.15906677  0.16516063  0.33845995  1
  I  I83  1  0.16523623  0.17174456  0.66360693  1
  I  I84  1  0.16701183  0.50450363  -0.00004543  1
  I  I85  1  0.16581822  0.49948896  0.33349160  1
  I  I86  1  0.16753194  0.49981285  0.66637319  1
  I  I87  1  0.17009900  0.82893413  -0.00301052  1
  I  I88  1  0.16954210  0.83292074  0.33644763  1
  I  I89  1  0.16988564  0.82854029  0.66635320  1
  I  I90  1  0.50594186  0.15963646  -0.00444371  1
  I  I91  1  0.50086468  0.16592627  0.33364766  1
  I  I92  1  0.50062683  0.16620292  0.66993733  1
  I  I93  1  0.49703221  0.50124311  0.00283857  1
  I  I94  1  0.49793823  0.50118953  0.33017906  1
  I  I95  1  0.49773656  0.49744569  0.66672014  1
  I  I96  1  0.49576390  0.83630981  -0.00318090  1
  I  I97  1  0.49525514  0.83190307  0.33571100  1
  I  I98  1  0.49470931  0.83752304  0.66737450  1
  I  I99  1  0.82964266  0.16694960  -0.00254055  1
  I  I100  1  0.83936095  0.16690852  0.33599596  1
  I  I101  1  0.83530038  0.16482585  0.66663448  1
  I  I102  1  0.83609501  0.50158420  0.00333939  1
  I  I103  1  0.83639756  0.50201007  0.32984110  1
  I  I104  1  0.83462204  0.50067940  0.66667129  1
  I  I105  1  0.83333934  0.83053279  0.00287429  1
  I  I106  1  0.83435985  0.83041687  0.33048011  1
  I  I107  1  0.83347435  0.83366574  0.66669187  1
  I  I108  1  0.00010022  0.16840659  0.16127157  1
  I  I109  1  0.00081414  0.16545205  0.50593124  1
  I  I110  1  -0.00170016  0.16744531  0.83217682  1
  I  I111  1  0.00064733  0.50383147  0.16723807  1
  I  I112  1  0.00408287  0.50502653  0.49780818  1
  I  I113  1  0.00440995  0.50453992  0.83486856  1
  I  I114  1  -0.00267649  0.82740164  0.16694190  1
  I  I115  1  0.00339954  0.83125159  0.50286751  1
  I  I116  1  0.00316180  0.83019491  0.82977717  1
  I  I117  1  0.33333728  0.16752966  0.16612450  1
  I  I118  1  0.33038238  0.17009148  0.50140674  1
  I  I119  1  0.33536875  0.16642145  0.83249904  1
  I  I120  1  0.33207962  0.49907108  0.16669706  1
  I  I121  1  0.32916526  0.49396899  0.49754991  1
  I  I122  1  0.32972438  0.49811620  0.83596885  1
  I  I123  1  0.33330975  0.83161584  0.16711409  1
  I  I124  1  0.33174451  0.83500907  0.50273817  1
  I  I125  1  0.33289212  0.83543749  0.83036840  1
  I  I126  1  0.66664913  0.16950803  0.17178217  1
  I  I127  1  0.66891550  0.16445803  0.50047013  1
  I  I128  1  0.66665226  0.16092380  0.82879180  1
  I  I129  1  0.66718172  0.50434097  0.16523881  1
  I  I130  1  0.66662106  0.49940514  0.49702051  1
  I  I131  1  0.66680749  0.50135258  0.83685165  1
  I  I132  1  0.66961829  0.82700618  0.16714341  1
  I  I133  1  0.66414457  0.83588850  0.50253463  1
  I  I134  1  0.66395252  0.83639172  0.83090681  1
