# generated using pymatgen
data_Cs27Sn14Pb13I81
_symmetry_space_group_name_H-M   'P 1'
_cell_length_a   18.97370352
_cell_length_b   18.97852599
_cell_length_c   18.97354415
_cell_angle_alpha   90.00128831
_cell_angle_beta   90.00004472
_cell_angle_gamma   89.99881250
_symmetry_Int_Tables_number   1
_chemical_formula_structural   Cs27Sn14Pb13I81
_chemical_formula_sum   'Cs27 Sn14 Pb13 I81'
_cell_volume   6832.23901742
_cell_formula_units_Z   1
loop_
 _symmetry_equiv_pos_site_id
 _symmetry_equiv_pos_as_xyz
  1  'x, y, z'
loop_
 _atom_site_type_symbol
 _atom_site_label
 _atom_site_symmetry_multiplicity
 _atom_site_fract_x
 _atom_site_fract_y
 _atom_site_fract_z
 _atom_site_occupancy
  Cs  Cs0  1  0.00079912  0.00303523  -0.00081762  1
  Cs  Cs1  1  -0.00431338  -0.00096387  0.33233363  1
  Cs  Cs2  1  -0.00045868  -0.00133716  0.66845012  1
  Cs  Cs3  1  -0.00052965  0.33127971  0.00005840  1
  Cs  Cs4  1  0.00267171  0.33528092  0.33284468  1
  Cs  Cs5  1  -0.00019324  0.33254365  0.66700282  1
  Cs  Cs6  1  0.00435115  0.66320058  -0.00559410  1
  Cs  Cs7  1  0.00099648  0.66534021  0.33504909  1
  Cs  Cs8  1  -0.00183732  0.66952676  0.66829643  1
  Cs  Cs9  1  0.33220790  -0.00362627  -0.00113069  1
  Cs  Cs10  1  0.33337883  0.00123054  0.33448780  1
  Cs  Cs11  1  0.33532936  0.00233640  0.66745336  1
  Cs  Cs12  1  0.33261180  0.33270076  0.00237033  1
  Cs  Cs13  1  0.33206896  0.33454701  0.33456876  1
  Cs  Cs14  1  0.33536090  0.32734907  0.66319809  1
  Cs  Cs15  1  0.33336433  0.67323183  -0.00127434  1
  Cs  Cs16  1  0.33378312  0.66416106  0.33308596  1
  Cs  Cs17  1  0.33335152  0.67096709  0.66758116  1
  Cs  Cs18  1  0.66527613  -0.00152524  0.00615460  1
  Cs  Cs19  1  0.67106658  -0.00477993  0.32966720  1
  Cs  Cs20  1  0.66841706  0.00406965  0.66524603  1
  Cs  Cs21  1  0.66738335  0.33578227  -0.00098487  1
  Cs  Cs22  1  0.66629147  0.33432249  0.33215662  1
  Cs  Cs23  1  0.66560279  0.33443036  0.66839362  1
  Cs  Cs24  1  0.66113669  0.66299242  -0.00061159  1
  Cs  Cs25  1  0.66547220  0.66859434  0.33504908  1
  Cs  Cs26  1  0.66933083  0.66143204  0.66345697  1
  Sn  Sn27  1  0.83359383  0.16776117  0.50041416  1
  Sn  Sn28  1  0.49923822  0.83289839  0.50001158  1
  Sn  Sn29  1  0.49913259  0.16729315  0.16682974  1
  Sn  Sn30  1  0.16744712  0.16584459  0.16631060  1
  Sn  Sn31  1  0.16622870  0.16776756  0.83388684  1
  Sn  Sn32  1  0.16732769  0.49855557  0.83285238  1
  Sn  Sn33  1  0.50061646  0.49918559  0.16743770  1
  Sn  Sn34  1  0.83294966  0.50021816  0.16730715  1
  Sn  Sn35  1  0.83264432  0.83427781  0.83389127  1
  Sn  Sn36  1  0.50043173  0.50052069  0.49930332  1
  Sn  Sn37  1  0.16621966  0.83419174  0.16785780  1
  Sn  Sn38  1  0.83300650  0.49884003  0.49899673  1
  Sn  Sn39  1  0.16740143  0.83358573  0.49910415  1
  Sn  Sn40  1  0.83374697  0.16570087  0.83279895  1
  Pb  Pb41  1  0.49692105  0.49981657  0.83302721  1
  Pb  Pb42  1  0.83315625  0.83302655  0.50122162  1
  Pb  Pb43  1  0.16722402  0.49981602  0.16525106  1
  Pb  Pb44  1  0.83593026  0.82988700  0.16395130  1
  Pb  Pb45  1  0.16446629  0.16440411  0.49982057  1
  Pb  Pb46  1  0.83456991  0.49928557  0.83310773  1
  Pb  Pb47  1  0.83362461  0.16841109  0.16638231  1
  Pb  Pb48  1  0.50256963  0.16677273  0.49741484  1
  Pb  Pb49  1  0.50024183  0.16660498  0.83613184  1
  Pb  Pb50  1  0.50341373  0.83342049  0.83017495  1
  Pb  Pb51  1  0.16693015  0.50186810  0.50242241  1
  Pb  Pb52  1  0.49801165  0.83293884  0.16860425  1
  Pb  Pb53  1  0.16558478  0.83440162  0.83319556  1
  I  I54  1  0.17187512  0.00114678  0.16359740  1
  I  I55  1  0.17092392  -0.00343829  0.50115213  1
  I  I56  1  0.16305108  0.00304789  0.83508739  1
  I  I57  1  0.16690922  0.33079019  0.16309911  1
  I  I58  1  0.16806121  0.33316067  0.49855850  1
  I  I59  1  0.15979800  0.33169305  0.83929358  1
  I  I60  1  0.16570930  0.66863920  0.16782025  1
  I  I61  1  0.16513395  0.66973220  0.49598082  1
  I  I62  1  0.16385805  0.66542223  0.83387933  1
  I  I63  1  0.49798345  0.00230616  0.16714169  1
  I  I64  1  0.49715994  -0.00224826  0.49947778  1
  I  I65  1  0.49515119  0.00005264  0.83307943  1
  I  I66  1  0.49760999  0.33417278  0.17210197  1
  I  I67  1  0.50259935  0.33617577  0.49796464  1
  I  I68  1  0.50393074  0.33326806  0.82900613  1
  I  I69  1  0.50290046  0.66368543  0.16866781  1
  I  I70  1  0.50230925  0.66545684  0.49432321  1
  I  I71  1  0.49864437  0.66654463  0.83875723  1
  I  I72  1  0.83091682  -0.00001546  0.16908131  1
  I  I73  1  0.83396294  0.00202862  0.50308360  1
  I  I74  1  0.84074607  0.00167418  0.82666783  1
  I  I75  1  0.83448789  0.33624269  0.16588160  1
  I  I76  1  0.82867959  0.33422154  0.50270323  1
  I  I77  1  0.83689201  0.33056107  0.83236237  1
  I  I78  1  0.82851358  0.66230006  0.17215147  1
  I  I79  1  0.83243770  0.66395153  0.49858903  1
  I  I80  1  0.83748438  0.66793979  0.83257097  1
  I  I81  1  0.16391828  0.16506920  0.00010067  1
  I  I82  1  0.16871387  0.16459695  0.33047974  1
  I  I83  1  0.16330828  0.16907630  0.66922593  1
  I  I84  1  0.16418780  0.50117050  -0.00249427  1
  I  I85  1  0.16545952  0.49875514  0.33350527  1
  I  I86  1  0.16438272  0.49595225  0.66997727  1
  I  I87  1  0.16479464  0.83340088  0.00209241  1
  I  I88  1  0.16906625  0.83767240  0.33315954  1
  I  I89  1  0.16838882  0.83166080  0.66438667  1
  I  I90  1  0.50098830  0.17307174  0.00416653  1
  I  I91  1  0.49435074  0.16889527  0.32977580  1
  I  I92  1  0.49780604  0.16693549  0.66628763  1
  I  I93  1  0.50478894  0.49573458  0.00324023  1
  I  I94  1  0.50383383  0.50016509  0.33334613  1
  I  I95  1  0.50469804  0.50462180  0.66320209  1
  I  I96  1  0.49863073  0.83229820  0.00030732  1
  I  I97  1  0.49987307  0.83173998  0.33649048  1
  I  I98  1  0.49197434  0.82697077  0.66219902  1
  I  I99  1  0.83556519  0.16472326  -0.00248256  1
  I  I100  1  0.83323887  0.16892622  0.33541397  1
  I  I101  1  0.83869438  0.16815990  0.66717337  1
  I  I102  1  0.83066488  0.50013915  0.00221904  1
  I  I103  1  0.83091944  0.49459584  0.33423976  1
  I  I104  1  0.83019418  0.49984323  0.66390260  1
  I  I105  1  0.83703110  0.83969822  -0.00339044  1
  I  I106  1  0.83295500  0.83608689  0.33316968  1
  I  I107  1  0.83691625  0.83256769  0.66896380  1
  I  I108  1  0.00259305  0.16453209  0.16491981  1
  I  I109  1  -0.00344613  0.17109192  0.49953095  1
  I  I110  1  0.00022682  0.16683980  0.83588077  1
  I  I111  1  -0.00202118  0.49995923  0.16949699  1
  I  I112  1  -0.00277253  0.49808359  0.49677447  1
  I  I113  1  0.00239187  0.49968229  0.83467762  1
  I  I114  1  0.00371727  0.83877784  0.17295685  1
  I  I115  1  0.00205276  0.83334637  0.49844731  1
  I  I116  1  -0.00214307  0.83358802  0.83032315  1
  I  I117  1  0.33234571  0.16898819  0.16183787  1
  I  I118  1  0.33335278  0.16823879  0.50241692  1
  I  I119  1  0.33007186  0.17067385  0.83523392  1
  I  I120  1  0.33605929  0.49849471  0.17057207  1
  I  I121  1  0.33615718  0.50265477  0.49582306  1
  I  I122  1  0.32909564  0.49516694  0.83451794  1
  I  I123  1  0.32995148  0.83216725  0.16634117  1
  I  I124  1  0.33326621  0.82719800  0.49657157  1
  I  I125  1  0.33332153  0.83254985  0.83453216  1
  I  I126  1  0.66472048  0.16953542  0.16737733  1
  I  I127  1  0.67040014  0.16613081  0.50514547  1
  I  I128  1  0.67008252  0.16296720  0.82979537  1
  I  I129  1  0.66612995  0.49420677  0.16905959  1
  I  I130  1  0.66687553  0.50305418  0.49706494  1
  I  I131  1  0.66653960  0.50065062  0.83392057  1
  I  I132  1  0.66673008  0.83663707  0.16726494  1
  I  I133  1  0.66448975  0.83153873  0.50208572  1
  I  I134  1  0.67118927  0.83878936  0.83249445  1
