# generated using pymatgen
data_Cs27Sn14Pb13I81
_symmetry_space_group_name_H-M   'P 1'
_cell_length_a   18.97246565
_cell_length_b   18.97246562
_cell_length_c   18.98129130
_cell_angle_alpha   90.00142284
_cell_angle_beta   89.99857713
_cell_angle_gamma   90.00140700
_symmetry_Int_Tables_number   1
_chemical_formula_structural   Cs27Sn14Pb13I81
_chemical_formula_sum   'Cs27 Sn14 Pb13 I81'
_cell_volume   6832.40030689
_cell_formula_units_Z   1
loop_
 _symmetry_equiv_pos_site_id
 _symmetry_equiv_pos_as_xyz
  1  'x, y, z'
loop_
 _atom_site_type_symbol
 _atom_site_label
 _atom_site_symmetry_multiplicity
 _atom_site_fract_x
 _atom_site_fract_y
 _atom_site_fract_z
 _atom_site_occupancy
  Cs  Cs0  1  -0.00022405  0.00364713  -0.00054611  1
  Cs  Cs1  1  0.00126409  -0.00225113  0.33401962  1
  Cs  Cs2  1  -0.00135583  0.00005250  0.66639261  1
  Cs  Cs3  1  0.00216041  0.32189407  -0.00479752  1
  Cs  Cs4  1  -0.01143936  0.33549376  0.33813088  1
  Cs  Cs5  1  -0.00038693  0.33294628  0.66666662  1
  Cs  Cs6  1  -0.00084108  0.66850156  0.00088923  1
  Cs  Cs7  1  -0.00128470  0.66650011  0.33243277  1
  Cs  Cs8  1  0.00204138  0.66610066  0.66710162  1
  Cs  Cs9  1  0.33198113  0.00110940  0.00340776  1
  Cs  Cs10  1  0.33222675  0.00121489  0.33442425  1
  Cs  Cs11  1  0.33595717  -0.00314374  0.66254191  1
  Cs  Cs12  1  0.33316683  0.33204861  0.00090054  1
  Cs  Cs13  1  0.33516827  0.33249221  0.33244435  1
  Cs  Cs14  1  0.33276714  0.33537462  0.66623161  1
  Cs  Cs15  1  0.33336872  0.66631482  0.00164612  1
  Cs  Cs16  1  0.33298136  0.66670210  0.33168721  1
  Cs  Cs17  1  0.33384354  0.66717691  0.66666661  1
  Cs  Cs18  1  0.66872641  0.00279600  0.00198712  1
  Cs  Cs19  1  0.66946289  0.00205994  0.33134625  1
  Cs  Cs20  1  0.66549455  -0.00117221  0.66666670  1
  Cs  Cs21  1  0.66441556  0.33459753  -0.00068625  1
  Cs  Cs22  1  0.67031366  0.33310919  0.33387952  1
  Cs  Cs23  1  0.66671937  0.33197741  0.66694076  1
  Cs  Cs24  1  0.66788145  0.66556015  -0.00109095  1
  Cs  Cs25  1  0.66777591  0.66531437  0.32992551  1
  Cs  Cs26  1  0.66352303  0.66929054  0.67079146  1
  Sn  Sn27  1  0.16600689  0.83360928  0.50011405  1
  Sn  Sn28  1  0.49907611  0.16761987  0.50091513  1
  Sn  Sn29  1  0.16677295  0.50010628  0.16666667  1
  Sn  Sn30  1  0.16727186  0.16662782  0.49979195  1
  Sn  Sn31  1  0.83428653  0.83240947  0.83241825  1
  Sn  Sn32  1  0.16617104  0.83313193  0.83332345  1
  Sn  Sn33  1  0.16768260  0.83247634  0.16661937  1
  Sn  Sn34  1  0.50027588  0.49934025  0.83321926  1
  Sn  Sn35  1  0.49947486  0.16728269  0.83247051  1
  Sn  Sn36  1  0.49940128  0.83273466  0.16666666  1
  Sn  Sn37  1  0.49979862  0.49950434  0.50000991  1
  Sn  Sn38  1  0.83329451  0.50060525  0.83354135  1
  Sn  Sn39  1  0.49914301  0.50101593  0.16671397  1
  Sn  Sn40  1  0.83394942  0.83280820  0.50086280  1
  Pb  Pb41  1  0.16946684  0.16378240  0.83064319  1
  Pb  Pb42  1  0.83378679  0.49991586  0.16360486  1
  Pb  Pb43  1  0.50010735  0.83334132  0.49769520  1
  Pb  Pb44  1  0.16683521  0.50168791  0.83552573  1
  Pb  Pb45  1  0.16658258  0.16712012  0.16972851  1
  Pb  Pb46  1  0.83084463  0.16632865  0.83302753  1
  Pb  Pb47  1  0.83299531  0.16417793  0.50030582  1
  Pb  Pb48  1  0.50000799  0.83344064  0.83563811  1
  Pb  Pb49  1  0.83394053  0.83328261  0.16616624  1
  Pb  Pb50  1  0.83363500  0.16696835  0.16666668  1
  Pb  Pb51  1  0.83044903  0.50280019  0.50269015  1
  Pb  Pb52  1  0.16835457  0.50016856  0.49780760  1
  Pb  Pb53  1  0.49994931  0.16727381  0.16716705  1
  I  I54  1  0.17109127  -0.00351945  0.16516196  1
  I  I55  1  0.16972432  -0.00160169  0.49857380  1
  I  I56  1  0.16182113  -0.00445558  0.83910084  1
  I  I57  1  0.17380121  0.33650826  0.16616629  1
  I  I58  1  0.17108320  0.33103864  0.49823664  1
  I  I59  1  0.16370830  0.33325986  0.83425208  1
  I  I60  1  0.17210502  0.66817266  0.16875092  1
  I  I61  1  0.16483276  0.66997038  0.50106814  1
  I  I62  1  0.16837443  0.67015119  0.82831590  1
  I  I63  1  0.49607543  -0.00264964  0.16625835  1
  I  I64  1  0.49934474  0.00213669  0.50369607  1
  I  I65  1  0.49936374  0.00194510  0.82916630  1
  I  I66  1  0.49558345  0.33696261  0.16568099  1
  I  I67  1  0.49401932  0.33337517  0.49915373  1
  I  I68  1  0.50574082  0.33487993  0.83503901  1
  I  I69  1  0.49595103  0.66577320  0.16688413  1
  I  I70  1  0.50021177  0.66421912  0.50269315  1
  I  I71  1  0.50115097  0.66411101  0.83106464  1
  I  I72  1  0.83055642  -0.00074943  0.16448743  1
  I  I73  1  0.83189355  -0.00387268  0.50609293  1
  I  I74  1  0.83592356  -0.00345228  0.83024938  1
  I  I75  1  0.83262284  0.33408100  0.16604302  1
  I  I76  1  0.83632019  0.33361381  0.50040391  1
  I  I77  1  0.82975389  0.33621748  0.83564626  1
  I  I78  1  0.83169573  0.66674740  0.16891417  1
  I  I79  1  0.83909670  0.67053729  0.50109931  1
  I  I80  1  0.82936796  0.66751975  0.82977389  1
  I  I81  1  0.16731511  0.16544478  -0.00013386  1
  I  I82  1  0.17582624  0.15880623  0.33730485  1
  I  I83  1  0.16911803  0.16135641  0.66291595  1
  I  I84  1  0.17318757  0.50759452  0.00336495  1
  I  I85  1  0.17426135  0.50652140  0.32996836  1
  I  I86  1  0.16823919  0.50157233  0.66666666  1
  I  I87  1  0.16742830  0.82782621  0.00034461  1
  I  I88  1  0.16719973  0.83418464  0.33352477  1
  I  I89  1  0.16236312  0.83767789  0.66626909  1
  I  I90  1  0.50199048  0.16892009  -0.00247359  1
  I  I91  1  0.49604582  0.16834001  0.33654569  1
  I  I92  1  0.49677318  0.17370366  0.66606832  1
  I  I93  1  0.50085134  0.50053301  -0.00019143  1
  I  I94  1  0.49449284  0.50076195  0.33298875  1
  I  I95  1  0.50434451  0.49569625  0.66706426  1
  I  I96  1  0.49623671  0.82962213  0.00324355  1
  I  I97  1  0.49628873  0.82956999  0.33008977  1
  I  I98  1  0.49785372  0.83118702  0.66666668  1
  I  I99  1  0.83151831  0.16355281  -0.00071718  1
  I  I100  1  0.83021988  0.16485190  0.33405051  1
  I  I101  1  0.83447252  0.16780624  0.66666665  1
  I  I102  1  0.82547323  0.50915955  -0.00397154  1
  I  I103  1  0.83211150  0.50064871  0.33346722  1
  I  I104  1  0.82802256  0.50245110  0.67041742  1
  I  I105  1  0.83500707  0.82937945  -0.00321241  1
  I  I106  1  0.83558690  0.83532342  0.33580697  1
  I  I107  1  0.84036999  0.83010668  0.66726497  1
  I  I108  1  0.00074765  0.16595588  0.16729008  1
  I  I109  1  0.00288413  0.16308727  0.49768744  1
  I  I110  1  0.00028050  0.16965346  0.83292927  1
  I  I111  1  0.00317490  0.50713444  0.16716734  1
  I  I112  1  -0.00007343  0.49704168  0.49908142  1
  I  I113  1  -0.00229465  0.50441676  0.83509624  1
  I  I114  1  0.00362928  0.82891705  0.16765256  1
  I  I115  1  0.00154658  0.83907401  0.49829455  1
  I  I116  1  0.00004181  0.82735236  0.83417906  1
  I  I117  1  0.33341403  0.16502900  0.16441876  1
  I  I118  1  0.33418643  0.16270154  0.50355941  1
  I  I119  1  0.33720398  0.17242990  0.83223435  1
  I  I120  1  0.33483930  0.50543859  0.16458215  1
  I  I121  1  0.33681784  0.50170745  0.50501736  1
  I  I122  1  0.33663710  0.49816594  0.83226540  1
  I  I123  1  0.33243988  0.82928412  0.16644908  1
  I  I124  1  0.33077769  0.83448432  0.50226863  1
  I  I125  1  0.33088582  0.83354529  0.83064036  1
  I  I126  1  0.66591722  0.16389025  0.16884644  1
  I  I127  1  0.66321445  0.16925672  0.50308367  1
  I  I128  1  0.66279403  0.16522677  0.82724012  1
  I  I129  1  0.66314719  0.50442442  0.16817135  1
  I  I130  1  0.66221110  0.49515462  0.49423235  1
  I  I131  1  0.66506497  0.50305767  0.83475977  1
  I  I132  1  0.66401703  0.82940872  0.16707491  1
  I  I133  1  0.66861177  0.83269704  0.50416691  1
  I  I134  1  0.66880334  0.83267820  0.82963758  1
