# generated using pymatgen
data_Cs27Sn13Pb14I81
_symmetry_space_group_name_H-M   'P 1'
_cell_length_a   19.04826105
_cell_length_b   19.05482874
_cell_length_c   19.04246147
_cell_angle_alpha   90.00194360
_cell_angle_beta   89.99728398
_cell_angle_gamma   90.00086888
_symmetry_Int_Tables_number   1
_chemical_formula_structural   Cs27Sn13Pb14I81
_chemical_formula_sum   'Cs27 Sn13 Pb14 I81'
_cell_volume   6911.67754845
_cell_formula_units_Z   1
loop_
 _symmetry_equiv_pos_site_id
 _symmetry_equiv_pos_as_xyz
  1  'x, y, z'
loop_
 _atom_site_type_symbol
 _atom_site_label
 _atom_site_symmetry_multiplicity
 _atom_site_fract_x
 _atom_site_fract_y
 _atom_site_fract_z
 _atom_site_occupancy
  Cs  Cs0  1  0.00311716  0.00122047  -0.00002595  1
  Cs  Cs1  1  0.00043949  -0.00415403  0.33209554  1
  Cs  Cs2  1  0.00158459  0.00757774  0.66784671  1
  Cs  Cs3  1  -0.00147675  0.33020234  0.00495800  1
  Cs  Cs4  1  0.00063889  0.33361525  0.32969755  1
  Cs  Cs5  1  0.00423387  0.31764914  0.66228914  1
  Cs  Cs6  1  -0.00183592  0.66833095  0.00148169  1
  Cs  Cs7  1  -0.00198763  0.66843011  0.33293790  1
  Cs  Cs8  1  -0.00250868  0.66935773  0.66316299  1
  Cs  Cs9  1  0.33548746  0.00115377  -0.00288013  1
  Cs  Cs10  1  0.34638746  -0.00085477  0.33432992  1
  Cs  Cs11  1  0.33160174  0.00062751  0.67027152  1
  Cs  Cs12  1  0.33696906  0.33781805  0.00188388  1
  Cs  Cs13  1  0.33347507  0.32994055  0.33832398  1
  Cs  Cs14  1  0.32402716  0.34765628  0.65637939  1
  Cs  Cs15  1  0.32855472  0.66074731  -0.00609583  1
  Cs  Cs16  1  0.33278295  0.66899871  0.33873615  1
  Cs  Cs17  1  0.33492137  0.65499353  0.66833544  1
  Cs  Cs18  1  0.66117755  -0.00141093  -0.00149030  1
  Cs  Cs19  1  0.65054703  -0.00223168  0.33281476  1
  Cs  Cs20  1  0.66686298  0.00216215  0.66948310  1
  Cs  Cs21  1  0.66703422  0.33513891  -0.00085470  1
  Cs  Cs22  1  0.66651665  0.32908130  0.33261255  1
  Cs  Cs23  1  0.66896902  0.33043948  0.66665278  1
  Cs  Cs24  1  0.66903394  0.66686675  -0.00113514  1
  Cs  Cs25  1  0.66990111  0.67227167  0.33499255  1
  Cs  Cs26  1  0.66761090  0.66699342  0.66817213  1
  Sn  Sn27  1  0.16633874  0.16623850  0.16679975  1
  Sn  Sn28  1  0.83325331  0.16622817  0.16687937  1
  Sn  Sn29  1  0.83434894  0.50016777  0.83288936  1
  Sn  Sn30  1  0.50074568  0.83336999  0.83343617  1
  Sn  Sn31  1  0.16651314  0.50032286  0.16687277  1
  Sn  Sn32  1  0.16584140  0.83342461  0.49928439  1
  Sn  Sn33  1  0.83293663  0.49947574  0.16686976  1
  Sn  Sn34  1  0.50054086  0.50077679  0.16720993  1
  Sn  Sn35  1  0.83371091  0.50025323  0.50015267  1
  Sn  Sn36  1  0.83404721  0.83342687  0.50108347  1
  Sn  Sn37  1  0.49945246  0.16747660  0.83295169  1
  Sn  Sn38  1  0.83310375  0.83283163  0.83246809  1
  Sn  Sn39  1  0.16681180  0.83334298  0.16752758  1
  Pb  Pb40  1  0.49665364  0.83021815  0.16383361  1
  Pb  Pb41  1  0.16325854  0.50232325  0.49719461  1
  Pb  Pb42  1  0.16670205  0.16333547  0.49654363  1
  Pb  Pb43  1  0.50001935  0.83301814  0.50312483  1
  Pb  Pb44  1  0.16244297  0.49994719  0.83514915  1
  Pb  Pb45  1  0.83210313  0.16630105  0.83588224  1
  Pb  Pb46  1  0.50357603  0.50023522  0.49709653  1
  Pb  Pb47  1  0.16603379  0.83305217  0.83283972  1
  Pb  Pb48  1  0.50250110  0.49981239  0.83468706  1
  Pb  Pb49  1  0.49994603  0.16892074  0.16498909  1
  Pb  Pb50  1  0.83438308  0.83386295  0.16656247  1
  Pb  Pb51  1  0.83313872  0.16546840  0.49676537  1
  Pb  Pb52  1  0.49989020  0.16708297  0.50387447  1
  Pb  Pb53  1  0.16971733  0.16701947  0.83591968  1
  I  I54  1  0.15719057  -0.00011280  0.16998753  1
  I  I55  1  0.15617806  -0.00420310  0.49457002  1
  I  I56  1  0.16083921  -0.00032984  0.83729077  1
  I  I57  1  0.16412971  0.33398343  0.16215820  1
  I  I58  1  0.16721422  0.33329068  0.50174419  1
  I  I59  1  0.16805652  0.33352454  0.83498536  1
  I  I60  1  0.16527879  0.66642625  0.17033288  1
  I  I61  1  0.16504352  0.66964962  0.49182720  1
  I  I62  1  0.17516184  0.66679032  0.83868937  1
  I  I63  1  0.50096709  -0.00029685  0.16873300  1
  I  I64  1  0.50359777  -0.00044860  0.49254774  1
  I  I65  1  0.50861577  -0.00113089  0.83606437  1
  I  I66  1  0.49630975  0.33631176  0.16143200  1
  I  I67  1  0.50140646  0.33375631  0.50278688  1
  I  I68  1  0.50309128  0.33137351  0.84002145  1
  I  I69  1  0.50520890  0.66329425  0.16357924  1
  I  I70  1  0.49533034  0.66680568  0.50242788  1
  I  I71  1  0.50196198  0.66902578  0.83519945  1
  I  I72  1  0.84154591  0.00247845  0.16492233  1
  I  I73  1  0.83969351  -0.00361385  0.50664105  1
  I  I74  1  0.83158636  -0.00306472  0.82902784  1
  I  I75  1  0.83906308  0.33544586  0.16567042  1
  I  I76  1  0.83085136  0.33595075  0.50312523  1
  I  I77  1  0.83022483  0.33620656  0.83276643  1
  I  I78  1  0.83420098  0.66372549  0.16588132  1
  I  I79  1  0.83776781  0.66679108  0.49686844  1
  I  I80  1  0.82587990  0.66681946  0.83701481  1
  I  I81  1  0.16018326  0.16257251  0.00418771  1
  I  I82  1  0.16141065  0.17372856  0.32878346  1
  I  I83  1  0.16755280  0.16421222  0.66626785  1
  I  I84  1  0.16467615  0.50496096  0.00426559  1
  I  I85  1  0.16385313  0.49632035  0.32907296  1
  I  I86  1  0.17020639  0.50290785  0.66614199  1
  I  I87  1  0.16619211  0.83279448  0.00281924  1
  I  I88  1  0.15649241  0.83148820  0.33249140  1
  I  I89  1  0.16505073  0.83352980  0.66376973  1
  I  I90  1  0.50038841  0.16030236  -0.00195110  1
  I  I91  1  0.50014425  0.16755396  0.33311943  1
  I  I92  1  0.50579854  0.15879232  0.67160637  1
  I  I93  1  0.50187342  0.50000262  0.00276847  1
  I  I94  1  0.50049157  0.49826230  0.32896473  1
  I  I95  1  0.49964143  0.49980076  0.66657903  1
  I  I96  1  0.50859660  0.83760008  -0.00299980  1
  I  I97  1  0.50354437  0.83308591  0.33347160  1
  I  I98  1  0.49954053  0.83803829  0.67051668  1
  I  I99  1  0.83808129  0.17278598  0.00334259  1
  I  I100  1  0.83857926  0.17425775  0.32919424  1
  I  I101  1  0.83039297  0.17150219  0.66644917  1
  I  I102  1  0.83312467  0.50069812  0.00102384  1
  I  I103  1  0.83448944  0.50082545  0.33225043  1
  I  I104  1  0.82969618  0.50939660  0.66683661  1
  I  I105  1  0.83031137  0.82915926  -0.00223723  1
  I  I106  1  0.83788846  0.82855069  0.33542572  1
  I  I107  1  0.83489860  0.82181241  0.66669451  1
  I  I108  1  -0.00016862  0.17423411  0.16507884  1
  I  I109  1  -0.00029272  0.16986979  0.50592629  1
  I  I110  1  0.00011861  0.16652054  0.83164510  1
  I  I111  1  -0.00062735  0.49901508  0.16629336  1
  I  I112  1  -0.00400477  0.50340988  0.49692041  1
  I  I113  1  -0.00519085  0.51068477  0.83777700  1
  I  I114  1  0.00218938  0.82787035  0.16432267  1
  I  I115  1  -0.00118337  0.82666713  0.50131403  1
  I  I116  1  -0.00310263  0.82598639  0.83398901  1
  I  I117  1  0.33045040  0.16746662  0.16447665  1
  I  I118  1  0.33317634  0.16390769  0.49509812  1
  I  I119  1  0.33720589  0.15368174  0.83811005  1
  I  I120  1  0.33277352  0.50028389  0.16277249  1
  I  I121  1  0.33311626  0.50080592  0.49998165  1
  I  I122  1  0.33311758  0.50115314  0.83650768  1
  I  I123  1  0.32907539  0.83567890  0.17399154  1
  I  I124  1  0.33061064  0.83634378  0.49208334  1
  I  I125  1  0.33553463  0.84070277  0.83700537  1
  I  I126  1  0.66925660  0.17427597  0.16578673  1
  I  I127  1  0.66694612  0.16412071  0.49290039  1
  I  I128  1  0.66492421  0.16462415  0.83944028  1
  I  I129  1  0.66871002  0.49242011  0.16538569  1
  I  I130  1  0.67131911  0.50958385  0.49662563  1
  I  I131  1  0.67020084  0.50201838  0.83868728  1
  I  I132  1  0.66626728  0.83437367  0.17045115  1
  I  I133  1  0.66985272  0.82757293  0.50093621  1
  I  I134  1  0.66815413  0.83278159  0.82747935  1
