# generated using pymatgen
data_Cs27Sn14Pb13I81
_symmetry_space_group_name_H-M   'P 1'
_cell_length_a   18.97742481
_cell_length_b   18.98319769
_cell_length_c   18.96741897
_cell_angle_alpha   89.99832145
_cell_angle_beta   90.00013542
_cell_angle_gamma   89.99929876
_symmetry_Int_Tables_number   1
_chemical_formula_structural   Cs27Sn14Pb13I81
_chemical_formula_sum   'Cs27 Sn14 Pb13 I81'
_cell_volume   6833.05453753
_cell_formula_units_Z   1
loop_
 _symmetry_equiv_pos_site_id
 _symmetry_equiv_pos_as_xyz
  1  'x, y, z'
loop_
 _atom_site_type_symbol
 _atom_site_label
 _atom_site_symmetry_multiplicity
 _atom_site_fract_x
 _atom_site_fract_y
 _atom_site_fract_z
 _atom_site_occupancy
  Cs  Cs0  1  -0.00019379  0.00144250  0.00103682  1
  Cs  Cs1  1  0.00274455  -0.00323748  0.33093269  1
  Cs  Cs2  1  -0.00204914  0.00025237  0.67438460  1
  Cs  Cs3  1  -0.00083358  0.33323716  -0.00519162  1
  Cs  Cs4  1  0.00158121  0.33388091  0.33300217  1
  Cs  Cs5  1  -0.00778758  0.33373802  0.67491440  1
  Cs  Cs6  1  -0.00138327  0.66503892  -0.00727523  1
  Cs  Cs7  1  0.00238051  0.66978430  0.33425735  1
  Cs  Cs8  1  -0.00126146  0.66551418  0.67104873  1
  Cs  Cs9  1  0.33489581  0.00009958  -0.00117796  1
  Cs  Cs10  1  0.33078556  0.00053300  0.33379026  1
  Cs  Cs11  1  0.33362300  -0.00070305  0.66471962  1
  Cs  Cs12  1  0.33409139  0.33245750  -0.00092028  1
  Cs  Cs13  1  0.33169181  0.33249544  0.33435689  1
  Cs  Cs14  1  0.33516150  0.33513763  0.66750227  1
  Cs  Cs15  1  0.33832658  0.66809408  -0.00205061  1
  Cs  Cs16  1  0.33200623  0.66655905  0.33452448  1
  Cs  Cs17  1  0.33347629  0.66478066  0.66486088  1
  Cs  Cs18  1  0.66546782  -0.00287490  -0.00030114  1
  Cs  Cs19  1  0.66884741  0.00114537  0.33461521  1
  Cs  Cs20  1  0.66885105  0.00275715  0.66654037  1
  Cs  Cs21  1  0.66406224  0.33655429  0.00276169  1
  Cs  Cs22  1  0.67066743  0.33366466  0.33446274  1
  Cs  Cs23  1  0.66832481  0.33075823  0.66367607  1
  Cs  Cs24  1  0.66285562  0.66620452  0.00115243  1
  Cs  Cs25  1  0.66786007  0.66519731  0.33103630  1
  Cs  Cs26  1  0.66660722  0.66739254  0.66759440  1
  Sn  Sn27  1  0.49990682  0.16667842  0.16633350  1
  Sn  Sn28  1  0.16677190  0.50023848  0.16708268  1
  Sn  Sn29  1  0.50003726  0.83264290  0.49951976  1
  Sn  Sn30  1  0.49958867  0.16730566  0.83395194  1
  Sn  Sn31  1  0.83419241  0.83387494  0.16755880  1
  Sn  Sn32  1  0.16690362  0.49961868  0.49946793  1
  Sn  Sn33  1  0.49952677  0.50057765  0.50033935  1
  Sn  Sn34  1  0.49960951  0.49909266  0.83227101  1
  Sn  Sn35  1  0.83369983  0.16615237  0.16709678  1
  Sn  Sn36  1  0.83387914  0.83331583  0.49915568  1
  Sn  Sn37  1  0.16628410  0.83341367  0.49971902  1
  Sn  Sn38  1  0.16610663  0.83299601  0.16677646  1
  Sn  Sn39  1  0.16654120  0.16683436  0.16734424  1
  Sn  Sn40  1  0.16629861  0.16695060  0.49995535  1
  Pb  Pb41  1  0.16872674  0.16664880  0.83346321  1
  Pb  Pb42  1  0.49775777  0.49784292  0.16770654  1
  Pb  Pb43  1  0.49989352  0.83355862  0.83030350  1
  Pb  Pb44  1  0.49848179  0.16701430  0.49957888  1
  Pb  Pb45  1  0.16870620  0.49996085  0.83293933  1
  Pb  Pb46  1  0.83396898  0.50239166  0.49971572  1
  Pb  Pb47  1  0.16683542  0.83338249  0.83357849  1
  Pb  Pb48  1  0.83656563  0.50062358  0.16692756  1
  Pb  Pb49  1  0.49975990  0.83547014  0.16911808  1
  Pb  Pb50  1  0.83326179  0.83343771  0.83417485  1
  Pb  Pb51  1  0.82949538  0.49999767  0.83338815  1
  Pb  Pb52  1  0.83008008  0.16652523  0.83673692  1
  Pb  Pb53  1  0.83694139  0.16435739  0.49780254  1
  I  I54  1  0.16644219  0.00020804  0.17260605  1
  I  I55  1  0.16883944  -0.00067114  0.49341682  1
  I  I56  1  0.17056205  0.00008551  0.83191492  1
  I  I57  1  0.16816053  0.33254654  0.17326051  1
  I  I58  1  0.17490427  0.33369302  0.49164888  1
  I  I59  1  0.16654714  0.33330435  0.83365672  1
  I  I60  1  0.16280271  0.66744888  0.17374239  1
  I  I61  1  0.16861523  0.66703328  0.49369150  1
  I  I62  1  0.16992571  0.66660864  0.83476715  1
  I  I63  1  0.49529642  0.00351242  0.16260064  1
  I  I64  1  0.49820707  -0.00229028  0.49919291  1
  I  I65  1  0.49971301  0.00286814  0.83738356  1
  I  I66  1  0.49971686  0.32973134  0.16716226  1
  I  I67  1  0.49388352  0.33581903  0.50099949  1
  I  I68  1  0.49804775  0.33340568  0.83157449  1
  I  I69  1  0.50057763  0.66665417  0.16308544  1
  I  I70  1  0.49496452  0.66641944  0.50515851  1
  I  I71  1  0.49893099  0.66382703  0.83123444  1
  I  I72  1  0.83777968  -0.00014906  0.17067588  1
  I  I73  1  0.83021513  -0.00377176  0.49800016  1
  I  I74  1  0.82985499  0.00012567  0.83018299  1
  I  I75  1  0.83330025  0.33036854  0.16546055  1
  I  I76  1  0.83214228  0.33305792  0.49914343  1
  I  I77  1  0.83622608  0.33301190  0.83452664  1
  I  I78  1  0.83696528  0.67037282  0.17127369  1
  I  I79  1  0.83653117  0.67072339  0.49280533  1
  I  I80  1  0.83175739  0.66681604  0.83561113  1
  I  I81  1  0.16499037  0.16633341  0.00399243  1
  I  I82  1  0.17018367  0.16605698  0.33224221  1
  I  I83  1  0.17038135  0.16516424  0.66339041  1
  I  I84  1  0.16706334  0.49908235  0.00316784  1
  I  I85  1  0.17303482  0.50009134  0.33408999  1
  I  I86  1  0.16961066  0.50162110  0.66289671  1
  I  I87  1  0.16180974  0.83447903  0.00422169  1
  I  I88  1  0.16656712  0.83372507  0.33371027  1
  I  I89  1  0.16675790  0.83327947  0.66234767  1
  I  I90  1  0.49776140  0.17189950  0.00095668  1
  I  I91  1  0.50012157  0.16586757  0.33057985  1
  I  I92  1  0.49664264  0.16711937  0.66833457  1
  I  I93  1  0.49849031  0.49681115  -0.00171018  1
  I  I94  1  0.49719910  0.50336775  0.33654660  1
  I  I95  1  0.49345192  0.49869971  0.66537226  1
  I  I96  1  0.50042850  0.83111122  0.00030824  1
  I  I97  1  0.49860245  0.82865730  0.33719127  1
  I  I98  1  0.49837595  0.83463439  0.66196452  1
  I  I99  1  0.84033996  0.15970025  0.00485390  1
  I  I100  1  0.82685856  0.16547934  0.32965808  1
  I  I101  1  0.83328651  0.16512810  0.66657628  1
  I  I102  1  0.83413363  0.50240874  0.00038525  1
  I  I103  1  0.82558249  0.49712760  0.33325538  1
  I  I104  1  0.83880429  0.50221373  0.66637068  1
  I  I105  1  0.83861221  0.83792552  0.00420532  1
  I  I106  1  0.83469525  0.83733832  0.33307353  1
  I  I107  1  0.83425712  0.83202848  0.66326309  1
  I  I108  1  0.00118783  0.16514433  0.17279765  1
  I  I109  1  0.00509282  0.16830215  0.49366494  1
  I  I110  1  -0.00019731  0.16604513  0.83280118  1
  I  I111  1  0.00477199  0.49580553  0.17455049  1
  I  I112  1  0.00386429  0.50049290  0.49368749  1
  I  I113  1  0.00009070  0.50065285  0.83297880  1
  I  I114  1  0.00100246  0.83900188  0.17572808  1
  I  I115  1  0.00122458  0.83355760  0.49436927  1
  I  I116  1  0.00002122  0.83302418  0.82878030  1
  I  I117  1  0.33217985  0.16645725  0.16643687  1
  I  I118  1  0.33042190  0.16208819  0.49424888  1
  I  I119  1  0.33654974  0.17016345  0.83951002  1
  I  I120  1  0.32961565  0.50083992  0.16835638  1
  I  I121  1  0.33277856  0.50500522  0.50008345  1
  I  I122  1  0.33654399  0.49575645  0.83154376  1
  I  I123  1  0.33016149  0.83433619  0.17082896  1
  I  I124  1  0.33223570  0.83277894  0.49683641  1
  I  I125  1  0.33362594  0.83398122  0.83487603  1
  I  I126  1  0.66664212  0.16145927  0.16154074  1
  I  I127  1  0.66687709  0.16605279  0.49935024  1
  I  I128  1  0.66219453  0.17067216  0.83618040  1
  I  I129  1  0.66644387  0.49944297  0.16526622  1
  I  I130  1  0.66354473  0.50381854  0.50494351  1
  I  I131  1  0.66141687  0.49573606  0.82740587  1
  I  I132  1  0.66912068  0.83886722  0.17100825  1
  I  I133  1  0.66660885  0.82893815  0.49635075  1
  I  I134  1  0.66640738  0.83266137  0.83359425  1
