# generated using pymatgen
data_Cs27Sn13Pb14I81
_symmetry_space_group_name_H-M   'P 1'
_cell_length_a   18.98214511
_cell_length_b   18.99143288
_cell_length_c   19.00120261
_cell_angle_alpha   89.99997909
_cell_angle_beta   90.00127794
_cell_angle_gamma   90.00272284
_symmetry_Int_Tables_number   1
_chemical_formula_structural   Cs27Sn13Pb14I81
_chemical_formula_sum   'Cs27 Sn13 Pb14 I81'
_cell_volume   6849.89808865
_cell_formula_units_Z   1
loop_
 _symmetry_equiv_pos_site_id
 _symmetry_equiv_pos_as_xyz
  1  'x, y, z'
loop_
 _atom_site_type_symbol
 _atom_site_label
 _atom_site_symmetry_multiplicity
 _atom_site_fract_x
 _atom_site_fract_y
 _atom_site_fract_z
 _atom_site_occupancy
  Cs  Cs0  1  -0.00019844  -0.00536216  0.00109246  1
  Cs  Cs1  1  0.00133530  -0.01083015  0.33359856  1
  Cs  Cs2  1  0.00468907  0.00184752  0.66619409  1
  Cs  Cs3  1  -0.00125055  0.33575456  0.00252331  1
  Cs  Cs4  1  0.00265260  0.33393895  0.33099993  1
  Cs  Cs5  1  -0.00088551  0.33173267  0.66733632  1
  Cs  Cs6  1  -0.00097885  0.66743392  0.00278893  1
  Cs  Cs7  1  -0.00696771  0.67697087  0.33329316  1
  Cs  Cs8  1  -0.00652955  0.66736493  0.66409520  1
  Cs  Cs9  1  0.33359517  -0.00035436  -0.00944304  1
  Cs  Cs10  1  0.33199022  -0.00152921  0.33511483  1
  Cs  Cs11  1  0.32641723  0.00074208  0.67350163  1
  Cs  Cs12  1  0.33302149  0.33370724  0.00211477  1
  Cs  Cs13  1  0.33261720  0.33504137  0.33303025  1
  Cs  Cs14  1  0.33139589  0.33433269  0.66543839  1
  Cs  Cs15  1  0.33294165  0.66616869  0.00080939  1
  Cs  Cs16  1  0.33565671  0.66365575  0.33184996  1
  Cs  Cs17  1  0.33563145  0.66436544  0.66827748  1
  Cs  Cs18  1  0.66594560  0.00582407  -0.00246497  1
  Cs  Cs19  1  0.66716036  0.00256775  0.33139342  1
  Cs  Cs20  1  0.66679173  0.00135635  0.66940032  1
  Cs  Cs21  1  0.66920235  0.32927952  0.00304044  1
  Cs  Cs22  1  0.66688443  0.33019147  0.33265913  1
  Cs  Cs23  1  0.66924271  0.33292763  0.66491039  1
  Cs  Cs24  1  0.66693965  0.66485764  -0.00168282  1
  Cs  Cs25  1  0.66544198  0.66799948  0.33562727  1
  Cs  Cs26  1  0.66751565  0.66682396  0.66569730  1
  Sn  Sn27  1  0.83349629  0.16591946  0.83268386  1
  Sn  Sn28  1  0.83299572  0.83427638  0.83313464  1
  Sn  Sn29  1  0.49998109  0.16644008  0.50032256  1
  Sn  Sn30  1  0.16684372  0.50024696  0.49957187  1
  Sn  Sn31  1  0.16714442  0.49992310  0.83325928  1
  Sn  Sn32  1  0.49974233  0.83309144  0.16684134  1
  Sn  Sn33  1  0.83327848  0.16689093  0.50028280  1
  Sn  Sn34  1  0.16698793  0.16670837  0.16686021  1
  Sn  Sn35  1  0.49970572  0.50046746  0.16683238  1
  Sn  Sn36  1  0.49963531  0.49939327  0.83342088  1
  Sn  Sn37  1  0.49973389  0.83372496  0.49983152  1
  Sn  Sn38  1  0.49951369  0.49974176  0.49990003  1
  Sn  Sn39  1  0.16731562  0.49948856  0.16719122  1
  Pb  Pb40  1  0.83336733  0.49951314  0.83331877  1
  Pb  Pb41  1  0.83310150  0.50013975  0.16710629  1
  Pb  Pb42  1  0.16412426  0.83006968  0.83316615  1
  Pb  Pb43  1  0.16963055  0.83263351  0.16658326  1
  Pb  Pb44  1  0.50142889  0.16960422  0.83081338  1
  Pb  Pb45  1  0.16416932  0.16918437  0.83561711  1
  Pb  Pb46  1  0.50137136  0.83123161  0.83323923  1
  Pb  Pb47  1  0.49789001  0.16654224  0.16872668  1
  Pb  Pb48  1  0.83314555  0.49791512  0.49970836  1
  Pb  Pb49  1  0.83052490  0.83631926  0.50185286  1
  Pb  Pb50  1  0.16669676  0.16844542  0.49820871  1
  Pb  Pb51  1  0.16960560  0.83007148  0.50022384  1
  Pb  Pb52  1  0.83626338  0.16653500  0.16737239  1
  Pb  Pb53  1  0.82957373  0.83345467  0.16430363  1
  I  I54  1  0.16626072  0.00228109  0.16814059  1
  I  I55  1  0.16713545  0.00000109  0.49751794  1
  I  I56  1  0.16792046  0.00014966  0.83538236  1
  I  I57  1  0.17222236  0.33567830  0.16662005  1
  I  I58  1  0.17291128  0.33679574  0.50168489  1
  I  I59  1  0.16898165  0.33727164  0.83102493  1
  I  I60  1  0.16943972  0.66276000  0.16554358  1
  I  I61  1  0.17189891  0.66156074  0.49738057  1
  I  I62  1  0.16966856  0.66178684  0.83678655  1
  I  I63  1  0.49959966  -0.00246017  0.17258612  1
  I  I64  1  0.50708204  0.00007057  0.49316196  1
  I  I65  1  0.50033065  0.00021233  0.83408541  1
  I  I66  1  0.49797656  0.33655527  0.16712642  1
  I  I67  1  0.50060710  0.33450258  0.50026246  1
  I  I68  1  0.49838698  0.33776256  0.83458174  1
  I  I69  1  0.49492068  0.66478375  0.17109945  1
  I  I70  1  0.49510802  0.66535949  0.49924627  1
  I  I71  1  0.49935140  0.66302353  0.82924754  1
  I  I72  1  0.83425011  0.00006349  0.16833061  1
  I  I73  1  0.82802913  0.00399487  0.50125790  1
  I  I74  1  0.83086923  0.00077366  0.82925484  1
  I  I75  1  0.82852864  0.33309089  0.16302939  1
  I  I76  1  0.82646376  0.33025819  0.50793783  1
  I  I77  1  0.83317636  0.33076301  0.82876915  1
  I  I78  1  0.83843906  0.66691736  0.16352420  1
  I  I79  1  0.83366267  0.66699163  0.50213824  1
  I  I80  1  0.83270919  0.66843002  0.83443777  1
  I  I81  1  0.16664046  0.17402824  0.00308247  1
  I  I82  1  0.16621409  0.17523915  0.33075864  1
  I  I83  1  0.16774371  0.16867583  0.66664125  1
  I  I84  1  0.17272454  0.49598943  0.00047490  1
  I  I85  1  0.17519593  0.49374298  0.33308271  1
  I  I86  1  0.17406426  0.50057881  0.66636962  1
  I  I87  1  0.16844050  0.83186832  -0.00003332  1
  I  I88  1  0.16256886  0.83244356  0.33335861  1
  I  I89  1  0.16935290  0.83270027  0.66667260  1
  I  I90  1  0.50165463  0.16672271  -0.00007728  1
  I  I91  1  0.50643240  0.17190448  0.33674687  1
  I  I92  1  0.50112662  0.16683166  0.66269702  1
  I  I93  1  0.49463678  0.50576125  0.00051181  1
  I  I94  1  0.49431480  0.50064651  0.33375105  1
  I  I95  1  0.49453970  0.50006998  0.66584030  1
  I  I96  1  0.50135300  0.82685469  0.00245987  1
  I  I97  1  0.50009201  0.82685559  0.33393869  1
  I  I98  1  0.50276326  0.83055780  0.66387832  1
  I  I99  1  0.83422427  0.16399948  -0.00267142  1
  I  I100  1  0.82800568  0.17013233  0.33644451  1
  I  I101  1  0.82846418  0.16437566  0.66640791  1
  I  I102  1  0.83226098  0.49752679  -0.00012012  1
  I  I103  1  0.83339618  0.49716229  0.33351970  1
  I  I104  1  0.83323527  0.50176990  0.66665461  1
  I  I105  1  0.83198672  0.83934423  -0.00335574  1
  I  I106  1  0.83531530  0.83381213  0.33354141  1
  I  I107  1  0.83021320  0.83264479  0.66938443  1
  I  I108  1  0.00377323  0.17686241  0.16717277  1
  I  I109  1  -0.00246773  0.17071669  0.50394901  1
  I  I110  1  -0.00356747  0.16535646  0.82527976  1
  I  I111  1  0.00380264  0.49440909  0.16477506  1
  I  I112  1  0.00315986  0.49642051  0.50147004  1
  I  I113  1  0.00304908  0.49949199  0.83396375  1
  I  I114  1  0.00002636  0.83231129  0.16577453  1
  I  I115  1  -0.00019427  0.83240374  0.50046758  1
  I  I116  1  -0.00366937  0.83589977  0.83312768  1
  I  I117  1  0.33047790  0.17122760  0.16931619  1
  I  I118  1  0.33636273  0.16677359  0.49688941  1
  I  I119  1  0.33319734  0.16524654  0.83255006  1
  I  I120  1  0.33401590  0.49977390  0.16680620  1
  I  I121  1  0.33489157  0.49765023  0.50018408  1
  I  I122  1  0.33395497  0.50050899  0.83282422  1
  I  I123  1  0.33731382  0.82981183  0.17066128  1
  I  I124  1  0.33794743  0.83832594  0.49687175  1
  I  I125  1  0.33355125  0.83429205  0.83354333  1
  I  I126  1  0.66649399  0.16743364  0.16508893  1
  I  I127  1  0.66551121  0.16992462  0.50299803  1
  I  I128  1  0.66939598  0.16590367  0.83307396  1
  I  I129  1  0.66248950  0.50378913  0.16628945  1
  I  I130  1  0.66269557  0.50209273  0.50083089  1
  I  I131  1  0.66360841  0.50071286  0.83248029  1
  I  I132  1  0.66198168  0.82600756  0.17187307  1
  I  I133  1  0.66265033  0.82573581  0.49672494  1
  I  I134  1  0.66913231  0.83451952  0.83332623  1
