# generated using pymatgen
data_Cs27Sn14Pb13I81
_symmetry_space_group_name_H-M   'P 1'
_cell_length_a   18.97362850
_cell_length_b   18.97910262
_cell_length_c   18.97337062
_cell_angle_alpha   89.99946070
_cell_angle_beta   89.99967071
_cell_angle_gamma   89.99909711
_symmetry_Int_Tables_number   1
_chemical_formula_structural   Cs27Sn14Pb13I81
_chemical_formula_sum   'Cs27 Sn14 Pb13 I81'
_cell_volume   6832.35710121
_cell_formula_units_Z   1
loop_
 _symmetry_equiv_pos_site_id
 _symmetry_equiv_pos_as_xyz
  1  'x, y, z'
loop_
 _atom_site_type_symbol
 _atom_site_label
 _atom_site_symmetry_multiplicity
 _atom_site_fract_x
 _atom_site_fract_y
 _atom_site_fract_z
 _atom_site_occupancy
  Cs  Cs0  1  -0.00155122  -0.00052810  0.00090537  1
  Cs  Cs1  1  0.00073965  -0.00199385  0.33462648  1
  Cs  Cs2  1  -0.00274507  -0.00115919  0.66404804  1
  Cs  Cs3  1  0.00602870  0.33695263  -0.00048402  1
  Cs  Cs4  1  -0.00218953  0.33336403  0.33577309  1
  Cs  Cs5  1  0.00044174  0.33315152  0.66612840  1
  Cs  Cs6  1  -0.00052908  0.66402876  -0.00031783  1
  Cs  Cs7  1  0.00208940  0.66929310  0.33132959  1
  Cs  Cs8  1  -0.00006864  0.66686565  0.66677669  1
  Cs  Cs9  1  0.33708949  0.01088638  -0.00000613  1
  Cs  Cs10  1  0.32964650  -0.00172264  0.33285986  1
  Cs  Cs11  1  0.33606012  0.00016887  0.66748771  1
  Cs  Cs12  1  0.32462909  0.32359324  0.00521840  1
  Cs  Cs13  1  0.34018170  0.33328432  0.33028417  1
  Cs  Cs14  1  0.33015718  0.33461360  0.66666160  1
  Cs  Cs15  1  0.32683766  0.66529461  -0.00225521  1
  Cs  Cs16  1  0.33355985  0.66773001  0.33367452  1
  Cs  Cs17  1  0.33482458  0.66585899  0.66519159  1
  Cs  Cs18  1  0.66534287  -0.00178043  -0.00039580  1
  Cs  Cs19  1  0.66877313  -0.00016011  0.33395134  1
  Cs  Cs20  1  0.66732763  -0.00011747  0.66716743  1
  Cs  Cs21  1  0.66623515  0.33363989  0.00438701  1
  Cs  Cs22  1  0.66293627  0.33630576  0.33265850  1
  Cs  Cs23  1  0.66895627  0.33671096  0.66405970  1
  Cs  Cs24  1  0.66909723  0.66948254  -0.00182895  1
  Cs  Cs25  1  0.66532371  0.66536358  0.33240515  1
  Cs  Cs26  1  0.66599763  0.66663587  0.66735660  1
  Sn  Sn27  1  0.83245229  0.83215074  0.49983237  1
  Sn  Sn28  1  0.50022224  0.49933674  0.83410579  1
  Sn  Sn29  1  0.83423575  0.50134467  0.50056633  1
  Sn  Sn30  1  0.49915988  0.16573785  0.50048575  1
  Sn  Sn31  1  0.16583107  0.49925532  0.49999110  1
  Sn  Sn32  1  0.16623407  0.83392004  0.83329465  1
  Sn  Sn33  1  0.16791064  0.16756136  0.50016704  1
  Sn  Sn34  1  0.83332714  0.16608353  0.16566005  1
  Sn  Sn35  1  0.50101016  0.83415912  0.49919710  1
  Sn  Sn36  1  0.83214060  0.49975543  0.83256182  1
  Sn  Sn37  1  0.83261794  0.83408550  0.16673702  1
  Sn  Sn38  1  0.83312827  0.16701350  0.83446674  1
  Sn  Sn39  1  0.83422058  0.83337799  0.83332102  1
  Sn  Sn40  1  0.50051717  0.83292704  0.16707640  1
  Pb  Pb41  1  0.50025961  0.50044722  0.50120999  1
  Pb  Pb42  1  0.16685105  0.83325938  0.50152670  1
  Pb  Pb43  1  0.83303885  0.16679796  0.49993245  1
  Pb  Pb44  1  0.16401533  0.16427450  0.83104039  1
  Pb  Pb45  1  0.50013166  0.83216007  0.83354984  1
  Pb  Pb46  1  0.16628476  0.50142148  0.83163595  1
  Pb  Pb47  1  0.83337892  0.50035253  0.16658203  1
  Pb  Pb48  1  0.50249577  0.16432877  0.16905212  1
  Pb  Pb49  1  0.50254771  0.16965018  0.83121813  1
  Pb  Pb50  1  0.16678297  0.50006033  0.17014383  1
  Pb  Pb51  1  0.16363301  0.16645992  0.16968958  1
  Pb  Pb52  1  0.50007975  0.50285342  0.16284035  1
  Pb  Pb53  1  0.16683861  0.83359682  0.16358275  1
  I  I54  1  0.16706375  -0.00009637  0.16999270  1
  I  I55  1  0.16627681  0.00189747  0.50174112  1
  I  I56  1  0.16097806  -0.00341111  0.82997871  1
  I  I57  1  0.16430721  0.33304991  0.16262755  1
  I  I58  1  0.16424159  0.33370283  0.50234557  1
  I  I59  1  0.16563732  0.33314341  0.83277435  1
  I  I60  1  0.16414227  0.66718180  0.16857499  1
  I  I61  1  0.16497715  0.66465315  0.50287814  1
  I  I62  1  0.16089503  0.66925686  0.83052255  1
  I  I63  1  0.50324170  -0.00368535  0.16654374  1
  I  I64  1  0.50118982  -0.00132435  0.49797575  1
  I  I65  1  0.50004957  0.00009997  0.83396801  1
  I  I66  1  0.50232824  0.33305923  0.16909267  1
  I  I67  1  0.50044628  0.33146743  0.50301375  1
  I  I68  1  0.50714431  0.33715466  0.82823065  1
  I  I69  1  0.50891303  0.67091661  0.17564328  1
  I  I70  1  0.50131224  0.66954198  0.49822855  1
  I  I71  1  0.50660471  0.66454552  0.82984653  1
  I  I72  1  0.82991686  -0.00157285  0.16437484  1
  I  I73  1  0.83286086  -0.00268082  0.50259834  1
  I  I74  1  0.83811165  -0.00113103  0.83215702  1
  I  I75  1  0.83436079  0.33069665  0.16502984  1
  I  I76  1  0.83427721  0.33554677  0.50347202  1
  I  I77  1  0.82792194  0.33395986  0.83068906  1
  I  I78  1  0.82972951  0.67021305  0.16503084  1
  I  I79  1  0.83328981  0.66756837  0.50345650  1
  I  I80  1  0.83322765  0.66727286  0.83206762  1
  I  I81  1  0.16823905  0.16542301  -0.00016371  1
  I  I82  1  0.16740912  0.16880916  0.33774470  1
  I  I83  1  0.16695846  0.16988217  0.66319474  1
  I  I84  1  0.16605322  0.50258746  -0.00043714  1
  I  I85  1  0.15927604  0.49857186  0.33865660  1
  I  I86  1  0.16408210  0.49745056  0.66366666  1
  I  I87  1  0.16093843  0.83058723  -0.00410215  1
  I  I88  1  0.16390027  0.83301132  0.33348713  1
  I  I89  1  0.16066363  0.83287525  0.66906967  1
  I  I90  1  0.49930546  0.16578596  0.00003075  1
  I  I91  1  0.49950469  0.16693433  0.33720302  1
  I  I92  1  0.49969050  0.15858254  0.66322595  1
  I  I93  1  0.51033765  0.50368323  -0.00472328  1
  I  I94  1  0.50009495  0.49821535  0.33338371  1
  I  I95  1  0.50341484  0.50364215  0.66882891  1
  I  I96  1  0.50496920  0.82984858  0.00227318  1
  I  I97  1  0.50836294  0.83622523  0.33465685  1
  I  I98  1  0.50344598  0.83521143  0.66394828  1
  I  I99  1  0.83230180  0.16212380  -0.00079243  1
  I  I100  1  0.83397098  0.16231629  0.33157481  1
  I  I101  1  0.83354061  0.16400554  0.66871346  1
  I  I102  1  0.82896671  0.50315832  -0.00338788  1
  I  I103  1  0.83747523  0.50229778  0.33666987  1
  I  I104  1  0.83315856  0.50285571  0.66664793  1
  I  I105  1  0.83299601  0.83373201  -0.00054228  1
  I  I106  1  0.82908361  0.83431214  0.33406459  1
  I  I107  1  0.83346198  0.83325842  0.66656794  1
  I  I108  1  -0.00434901  0.15897261  0.16523098  1
  I  I109  1  0.00138378  0.16749865  0.50044172  1
  I  I110  1  -0.00436193  0.17100989  0.83370865  1
  I  I111  1  -0.00043006  0.50266794  0.16252114  1
  I  I112  1  -0.00165995  0.49958704  0.50631474  1
  I  I113  1  -0.00361385  0.49934424  0.83080161  1
  I  I114  1  -0.00374332  0.83682438  0.17025439  1
  I  I115  1  -0.00318341  0.83328976  0.49867335  1
  I  I116  1  -0.00307338  0.83109958  0.83180008  1
  I  I117  1  0.33350779  0.16536129  0.16570164  1
  I  I118  1  0.33365504  0.16599933  0.50106024  1
  I  I119  1  0.33329412  0.16590954  0.83326038  1
  I  I120  1  0.33366628  0.50331478  0.16650893  1
  I  I121  1  0.33141626  0.49987776  0.50317593  1
  I  I122  1  0.33526146  0.50629202  0.82926878  1
  I  I123  1  0.33643686  0.83088686  0.17239345  1
  I  I124  1  0.33605459  0.83358234  0.49788664  1
  I  I125  1  0.33158150  0.82862550  0.83059623  1
  I  I126  1  0.67039276  0.16425546  0.16545432  1
  I  I127  1  0.66490627  0.16509836  0.50038833  1
  I  I128  1  0.67080907  0.15956306  0.83310655  1
  I  I129  1  0.66690454  0.49732907  0.17277000  1
  I  I130  1  0.66958829  0.50063981  0.50281543  1
  I  I131  1  0.66936113  0.50338035  0.82578222  1
  I  I132  1  0.66850272  0.83697154  0.16582549  1
  I  I133  1  0.66798573  0.83369334  0.50216323  1
  I  I134  1  0.67012154  0.83437828  0.83265038  1
