# generated using pymatgen
data_Cs27Sn13Pb14I81
_symmetry_space_group_name_H-M   'P 1'
_cell_length_a   19.01960797
_cell_length_b   19.01546540
_cell_length_c   19.02975964
_cell_angle_alpha   89.99869025
_cell_angle_beta   89.99927716
_cell_angle_gamma   89.99744397
_symmetry_Int_Tables_number   1
_chemical_formula_structural   Cs27Sn13Pb14I81
_chemical_formula_sum   'Cs27 Sn13 Pb14 I81'
_cell_volume   6882.43031161
_cell_formula_units_Z   1
loop_
 _symmetry_equiv_pos_site_id
 _symmetry_equiv_pos_as_xyz
  1  'x, y, z'
loop_
 _atom_site_type_symbol
 _atom_site_label
 _atom_site_symmetry_multiplicity
 _atom_site_fract_x
 _atom_site_fract_y
 _atom_site_fract_z
 _atom_site_occupancy
  Cs  Cs0  1  0.00357605  0.00672379  -0.00098153  1
  Cs  Cs1  1  0.00121497  0.00302533  0.33560836  1
  Cs  Cs2  1  0.00086823  -0.00021547  0.66383934  1
  Cs  Cs3  1  -0.00189108  0.33305608  0.00157872  1
  Cs  Cs4  1  0.00233080  0.33289433  0.33338089  1
  Cs  Cs5  1  0.00333698  0.33447709  0.66498631  1
  Cs  Cs6  1  -0.00114317  0.66562629  -0.00170236  1
  Cs  Cs7  1  -0.00271776  0.66469809  0.33539899  1
  Cs  Cs8  1  -0.00252128  0.66635153  0.66615412  1
  Cs  Cs9  1  0.32427446  -0.01389782  -0.00903556  1
  Cs  Cs10  1  0.33419530  0.00030368  0.33099576  1
  Cs  Cs11  1  0.33132119  0.00093665  0.67682370  1
  Cs  Cs12  1  0.33838813  0.33589443  -0.00089627  1
  Cs  Cs13  1  0.33301687  0.33027388  0.33096786  1
  Cs  Cs14  1  0.33452167  0.33111082  0.67086368  1
  Cs  Cs15  1  0.33221587  0.67305669  -0.00002851  1
  Cs  Cs16  1  0.33510339  0.67008212  0.33200524  1
  Cs  Cs17  1  0.34145893  0.66728860  0.66724291  1
  Cs  Cs18  1  0.66969333  0.00539853  -0.00313094  1
  Cs  Cs19  1  0.66582113  0.00059126  0.33450462  1
  Cs  Cs20  1  0.66644833  0.00159000  0.66617060  1
  Cs  Cs21  1  0.66599129  0.32974437  0.00050824  1
  Cs  Cs22  1  0.66463306  0.33287860  0.33352426  1
  Cs  Cs23  1  0.66074987  0.33381819  0.66606181  1
  Cs  Cs24  1  0.67052687  0.66678612  0.00190002  1
  Cs  Cs25  1  0.66708927  0.66772223  0.33570816  1
  Cs  Cs26  1  0.66306121  0.66519571  0.66362036  1
  Sn  Sn27  1  0.50029235  0.49974482  0.16706003  1
  Sn  Sn28  1  0.16653049  0.50022713  0.16664009  1
  Sn  Sn29  1  0.50040588  0.16642076  0.49910568  1
  Sn  Sn30  1  0.83352556  0.83253392  0.83329665  1
  Sn  Sn31  1  0.16571193  0.50040952  0.83344308  1
  Sn  Sn32  1  0.83247908  0.16634174  0.49971124  1
  Sn  Sn33  1  0.83360993  0.83324300  0.16666508  1
  Sn  Sn34  1  0.16612684  0.83203523  0.49964801  1
  Sn  Sn35  1  0.83396980  0.83410297  0.49992054  1
  Sn  Sn36  1  0.16701113  0.50130088  0.49992172  1
  Sn  Sn37  1  0.83394346  0.50055092  0.83390026  1
  Sn  Sn38  1  0.49953914  0.16640405  0.16688306  1
  Sn  Sn39  1  0.83330501  0.50053124  0.16619559  1
  Pb  Pb40  1  0.16346442  0.83091196  0.16892946  1
  Pb  Pb41  1  0.50060593  0.50021391  0.83626174  1
  Pb  Pb42  1  0.83448146  0.49992449  0.50009072  1
  Pb  Pb43  1  0.50362815  0.83296999  0.83346260  1
  Pb  Pb44  1  0.16725744  0.16633234  0.49990905  1
  Pb  Pb45  1  0.16628031  0.16968677  0.83365715  1
  Pb  Pb46  1  0.16359062  0.83023152  0.83061363  1
  Pb  Pb47  1  0.16979933  0.16868016  0.16651719  1
  Pb  Pb48  1  0.49667826  0.49792493  0.49739895  1
  Pb  Pb49  1  0.83193385  0.16699078  0.16878349  1
  Pb  Pb50  1  0.83350644  0.16749829  0.83052883  1
  Pb  Pb51  1  0.50262818  0.83371110  0.16658328  1
  Pb  Pb52  1  0.49995957  0.16651951  0.83423494  1
  Pb  Pb53  1  0.49968735  0.83596762  0.49986893  1
  I  I54  1  0.16690316  -0.00042915  0.16965217  1
  I  I55  1  0.16337160  -0.00293338  0.49937828  1
  I  I56  1  0.16746355  -0.00080170  0.83102223  1
  I  I57  1  0.15865512  0.33808575  0.17097179  1
  I  I58  1  0.16530422  0.33634605  0.49996616  1
  I  I59  1  0.15879316  0.33856849  0.82884513  1
  I  I60  1  0.17334808  0.66236639  0.16398599  1
  I  I61  1  0.15739559  0.66599946  0.49888736  1
  I  I62  1  0.16423298  0.66269149  0.83785895  1
  I  I63  1  0.50457215  0.00310954  0.17433093  1
  I  I64  1  0.50068542  0.00349461  0.49029280  1
  I  I65  1  0.50108116  -0.00000441  0.83543364  1
  I  I66  1  0.50230470  0.33465622  0.17164943  1
  I  I67  1  0.50785183  0.33052542  0.49859969  1
  I  I68  1  0.50196795  0.33363028  0.82979833  1
  I  I69  1  0.49737082  0.66351315  0.16523633  1
  I  I70  1  0.50281838  0.66670934  0.49952364  1
  I  I71  1  0.49673397  0.66623275  0.83367280  1
  I  I72  1  0.82969855  -0.00287860  0.16446527  1
  I  I73  1  0.83604040  -0.00146688  0.49961604  1
  I  I74  1  0.83082699  -0.00300121  0.83672068  1
  I  I75  1  0.83592248  0.33698010  0.16283842  1
  I  I76  1  0.83120669  0.33127130  0.49921725  1
  I  I77  1  0.83764413  0.33704461  0.83882022  1
  I  I78  1  0.83122399  0.66535367  0.16881467  1
  I  I79  1  0.83679758  0.66931809  0.49951431  1
  I  I80  1  0.83817680  0.66588571  0.83252632  1
  I  I81  1  0.16739508  0.16653923  0.00027496  1
  I  I82  1  0.16362814  0.17098627  0.33349409  1
  I  I83  1  0.16956533  0.17024778  0.66624012  1
  I  I84  1  0.16539136  0.49673249  0.00041963  1
  I  I85  1  0.16542292  0.50345584  0.33305505  1
  I  I86  1  0.15814831  0.50289849  0.66657904  1
  I  I87  1  0.16815186  0.83407083  -0.00018464  1
  I  I88  1  0.15973680  0.82692056  0.33642061  1
  I  I89  1  0.15988364  0.82853238  0.66312876  1
  I  I90  1  0.50223226  0.17556980  0.00373785  1
  I  I91  1  0.50531252  0.17254190  0.33344438  1
  I  I92  1  0.50474280  0.16594487  0.66367709  1
  I  I93  1  0.49640351  0.49160847  0.00409078  1
  I  I94  1  0.50302410  0.49854614  0.32985501  1
  I  I95  1  0.50033928  0.49800627  0.66664660  1
  I  I96  1  0.49911789  0.83589117  0.00025856  1
  I  I97  1  0.50344470  0.82980950  0.33331728  1
  I  I98  1  0.50164744  0.83518359  0.66632819  1
  I  I99  1  0.83096169  0.16355129  -0.00001726  1
  I  I100  1  0.83195316  0.16266797  0.33640324  1
  I  I101  1  0.82673740  0.16266911  0.66268560  1
  I  I102  1  0.83778703  0.50822422  0.00087182  1
  I  I103  1  0.83403703  0.50271032  0.33051909  1
  I  I104  1  0.83969017  0.50239321  0.66904762  1
  I  I105  1  0.82990695  0.82540437  0.00020127  1
  I  I106  1  0.83668148  0.83198870  0.33363471  1
  I  I107  1  0.83843056  0.83345543  0.66612239  1
  I  I108  1  0.00001963  0.16754763  0.16849359  1
  I  I109  1  -0.00230858  0.16492231  0.50096390  1
  I  I110  1  -0.00045038  0.16456571  0.83087652  1
  I  I111  1  -0.00039971  0.50598267  0.16616795  1
  I  I112  1  0.00228572  0.49798385  0.49471928  1
  I  I113  1  -0.00069367  0.50397944  0.83878470  1
  I  I114  1  -0.00435321  0.82649144  0.16499288  1
  I  I115  1  -0.00172998  0.83573910  0.49984500  1
  I  I116  1  -0.00389683  0.83037997  0.83564977  1
  I  I117  1  0.33770199  0.17519320  0.17820628  1
  I  I118  1  0.33616394  0.16955454  0.49413347  1
  I  I119  1  0.33337306  0.16910094  0.82841212  1
  I  I120  1  0.33303169  0.49190313  0.16835448  1
  I  I121  1  0.32868720  0.50560691  0.50169290  1
  I  I122  1  0.33044675  0.49709334  0.83238097  1
  I  I123  1  0.33314297  0.83289178  0.16949246  1
  I  I124  1  0.33021135  0.82782860  0.49861723  1
  I  I125  1  0.33272190  0.83397805  0.83145666  1
  I  I126  1  0.66429577  0.17453399  0.16957574  1
  I  I127  1  0.66745049  0.16058994  0.49616065  1
  I  I128  1  0.66699852  0.16903986  0.83435242  1
  I  I129  1  0.66775497  0.49990094  0.16115382  1
  I  I130  1  0.66642153  0.50226077  0.50058615  1
  I  I131  1  0.67030316  0.50417309  0.83766057  1
  I  I132  1  0.67079105  0.82515407  0.17046816  1
  I  I133  1  0.67020918  0.83530348  0.50031460  1
  I  I134  1  0.67214081  0.82466320  0.82929732  1
