# generated using pymatgen
data_Cs27Sn13Pb14I81
_symmetry_space_group_name_H-M   'P 1'
_cell_length_a   18.97909919
_cell_length_b   18.97439302
_cell_length_c   18.97521226
_cell_angle_alpha   90.00035457
_cell_angle_beta   89.99838793
_cell_angle_gamma   90.00147239
_symmetry_Int_Tables_number   1
_chemical_formula_structural   Cs27Sn13Pb14I81
_chemical_formula_sum   'Cs27 Sn13 Pb14 I81'
_cell_volume   6833.29436958
_cell_formula_units_Z   1
loop_
 _symmetry_equiv_pos_site_id
 _symmetry_equiv_pos_as_xyz
  1  'x, y, z'
loop_
 _atom_site_type_symbol
 _atom_site_label
 _atom_site_symmetry_multiplicity
 _atom_site_fract_x
 _atom_site_fract_y
 _atom_site_fract_z
 _atom_site_occupancy
  Cs  Cs0  1  0.00341603  -0.00133394  -0.00467068  1
  Cs  Cs1  1  0.00239600  0.00041319  0.33744318  1
  Cs  Cs2  1  -0.00090631  -0.00301489  0.66716572  1
  Cs  Cs3  1  -0.00186521  0.33176556  0.00203105  1
  Cs  Cs4  1  0.00082623  0.33345850  0.33124135  1
  Cs  Cs5  1  0.00143239  0.33523344  0.66806117  1
  Cs  Cs6  1  -0.00304414  0.67622109  0.00075164  1
  Cs  Cs7  1  -0.00334237  0.66535500  0.33141580  1
  Cs  Cs8  1  -0.00001517  0.66724205  0.66799458  1
  Cs  Cs9  1  0.33349446  -0.00019338  0.00067861  1
  Cs  Cs10  1  0.33329504  -0.00093103  0.33298988  1
  Cs  Cs11  1  0.33398298  0.00012824  0.66587430  1
  Cs  Cs12  1  0.33417373  0.33194747  -0.00047189  1
  Cs  Cs13  1  0.33241378  0.33336496  0.33394569  1
  Cs  Cs14  1  0.33308319  0.34322534  0.66651828  1
  Cs  Cs15  1  0.33347011  0.66916465  -0.00016672  1
  Cs  Cs16  1  0.33227253  0.66878158  0.33421392  1
  Cs  Cs17  1  0.33382999  0.65807402  0.66530822  1
  Cs  Cs18  1  0.66293553  0.00224579  -0.00157536  1
  Cs  Cs19  1  0.66628574  0.00057295  0.33854633  1
  Cs  Cs20  1  0.66749157  -0.00027539  0.66455132  1
  Cs  Cs21  1  0.66779915  0.33330343  0.00006881  1
  Cs  Cs22  1  0.66672820  0.33114240  0.33340693  1
  Cs  Cs23  1  0.66554176  0.33375750  0.66604472  1
  Cs  Cs24  1  0.66834893  0.66681231  0.00278137  1
  Cs  Cs25  1  0.67183559  0.66859958  0.32740009  1
  Cs  Cs26  1  0.66614598  0.66656137  0.66829163  1
  Sn  Sn27  1  0.83312223  0.49952215  0.50088588  1
  Sn  Sn28  1  0.83254868  0.16746393  0.83383774  1
  Sn  Sn29  1  0.49888628  0.49913699  0.16667966  1
  Sn  Sn30  1  0.83332922  0.16664488  0.16613715  1
  Sn  Sn31  1  0.50003612  0.16748409  0.16627020  1
  Sn  Sn32  1  0.50046034  0.16637484  0.83342540  1
  Sn  Sn33  1  0.49929885  0.83331470  0.50091907  1
  Sn  Sn34  1  0.83338771  0.49917982  0.83268802  1
  Sn  Sn35  1  0.16750907  0.49946898  0.16626174  1
  Sn  Sn36  1  0.16764282  0.83384239  0.50003631  1
  Sn  Sn37  1  0.16681708  0.16731958  0.16733871  1
  Sn  Sn38  1  0.16704273  0.16648110  0.49991105  1
  Sn  Sn39  1  0.49988718  0.83397465  0.83223709  1
  Pb  Pb40  1  0.50177547  0.49962749  0.83560983  1
  Pb  Pb41  1  0.83084537  0.83412260  0.83333145  1
  Pb  Pb42  1  0.16707497  0.16687629  0.83330794  1
  Pb  Pb43  1  0.83337926  0.83795949  0.16653608  1
  Pb  Pb44  1  0.16362687  0.50001108  0.83698656  1
  Pb  Pb45  1  0.49787361  0.16562328  0.50040689  1
  Pb  Pb46  1  0.16987108  0.83320876  0.83031071  1
  Pb  Pb47  1  0.49997663  0.83393157  0.16675777  1
  Pb  Pb48  1  0.83556438  0.16828696  0.50072047  1
  Pb  Pb49  1  0.16666774  0.83379986  0.16868616  1
  Pb  Pb50  1  0.83351130  0.49826541  0.16601267  1
  Pb  Pb51  1  0.50225914  0.50272357  0.49706814  1
  Pb  Pb52  1  0.16488563  0.50004236  0.49795008  1
  Pb  Pb53  1  0.83337577  0.83088376  0.50015306  1
  I  I54  1  0.16739311  0.00377184  0.16865191  1
  I  I55  1  0.16912427  0.00063825  0.49312804  1
  I  I56  1  0.16204372  0.00024323  0.83751040  1
  I  I57  1  0.16721589  0.33166110  0.17298671  1
  I  I58  1  0.16453746  0.33084605  0.49671736  1
  I  I59  1  0.17121216  0.33324560  0.82735310  1
  I  I60  1  0.17140653  0.66380974  0.16796354  1
  I  I61  1  0.16962885  0.66914526  0.49876655  1
  I  I62  1  0.16633304  0.66657364  0.83373057  1
  I  I63  1  0.49959432  0.00367778  0.16534497  1
  I  I64  1  0.49917732  -0.00254735  0.49858040  1
  I  I65  1  0.50541435  0.00151230  0.83581476  1
  I  I66  1  0.49954907  0.33163060  0.16158025  1
  I  I67  1  0.49891969  0.33353269  0.50198219  1
  I  I68  1  0.50244008  0.33026085  0.83675730  1
  I  I69  1  0.49589434  0.66404366  0.16708127  1
  I  I70  1  0.49333329  0.67049834  0.50539658  1
  I  I71  1  0.50105837  0.66890877  0.83094502  1
  I  I72  1  0.83249878  0.00612249  0.16145100  1
  I  I73  1  0.83273102  0.00019287  0.49888934  1
  I  I74  1  0.83171544  0.00365534  0.83854429  1
  I  I75  1  0.83341035  0.33012077  0.16553875  1
  I  I76  1  0.83513971  0.33592808  0.50035521  1
  I  I77  1  0.82750139  0.33203238  0.83388190  1
  I  I78  1  0.83321779  0.66635983  0.16683960  1
  I  I79  1  0.83483178  0.66301436  0.50447121  1
  I  I80  1  0.83269420  0.66405239  0.82937563  1
  I  I81  1  0.16629283  0.17129224  0.00334134  1
  I  I82  1  0.16627699  0.16636083  0.33194783  1
  I  I83  1  0.16545354  0.16124475  0.66384603  1
  I  I84  1  0.16959345  0.49152304  0.00482315  1
  I  I85  1  0.16732634  0.49769661  0.33010550  1
  I  I86  1  0.16679412  0.49945616  0.66658681  1
  I  I87  1  0.16671408  0.83330198  -0.00002855  1
  I  I88  1  0.17393746  0.83536895  0.33655582  1
  I  I89  1  0.16658951  0.84071932  0.66235163  1
  I  I90  1  0.49946718  0.16437337  0.00054926  1
  I  I91  1  0.50255544  0.16856477  0.33029646  1
  I  I92  1  0.50445544  0.16300684  0.66954841  1
  I  I93  1  0.49902421  0.50014017  0.00350135  1
  I  I94  1  0.49904556  0.49420324  0.32934871  1
  I  I95  1  0.49986763  0.49809663  0.66670965  1
  I  I96  1  0.50235188  0.83504356  -0.00252081  1
  I  I97  1  0.49591194  0.83323533  0.33596192  1
  I  I98  1  0.49722041  0.83979332  0.66697333  1
  I  I99  1  0.83364513  0.17307095  0.00003239  1
  I  I100  1  0.83088064  0.16908069  0.33067428  1
  I  I101  1  0.82945285  0.16868115  0.66978161  1
  I  I102  1  0.83241854  0.49675166  -0.00236055  1
  I  I103  1  0.83380960  0.49986947  0.33455740  1
  I  I104  1  0.83302301  0.49417603  0.66746929  1
  I  I105  1  0.83176896  0.82611220  -0.00018342  1
  I  I106  1  0.83001938  0.83077510  0.33353566  1
  I  I107  1  0.83497862  0.83724624  0.66667889  1
  I  I108  1  0.00036921  0.17156746  0.16724217  1
  I  I109  1  0.00341661  0.16130408  0.49489034  1
  I  I110  1  -0.00294133  0.17107745  0.83695175  1
  I  I111  1  0.00217493  0.49481959  0.16818445  1
  I  I112  1  -0.00281282  0.50101044  0.50094145  1
  I  I113  1  -0.00433288  0.49277075  0.83062266  1
  I  I114  1  0.00014198  0.83005987  0.16930409  1
  I  I115  1  0.00294337  0.83690679  0.49749102  1
  I  I116  1  -0.00006184  0.83349098  0.83273610  1
  I  I117  1  0.33368228  0.17029979  0.16649288  1
  I  I118  1  0.33001952  0.16496020  0.49489897  1
  I  I119  1  0.33664223  0.16142009  0.83763965  1
  I  I120  1  0.33350385  0.49165009  0.16764486  1
  I  I121  1  0.33337182  0.49902703  0.50028970  1
  I  I122  1  0.33357938  0.49946023  0.83234809  1
  I  I123  1  0.33347261  0.83644506  0.16494775  1
  I  I124  1  0.33339620  0.83771804  0.50269702  1
  I  I125  1  0.33779164  0.84071930  0.83419625  1
  I  I126  1  0.66602676  0.17096085  0.16182998  1
  I  I127  1  0.66662776  0.16538394  0.49662848  1
  I  I128  1  0.66641492  0.16659873  0.84127436  1
  I  I129  1  0.66455128  0.49672198  0.16688395  1
  I  I130  1  0.66978751  0.49993668  0.50140027  1
  I  I131  1  0.66962884  0.49832100  0.83241896  1
  I  I132  1  0.66633721  0.82972981  0.16984174  1
  I  I133  1  0.66368839  0.83285140  0.50310655  1
  I  I134  1  0.66300828  0.83548045  0.82706953  1
