# generated using pymatgen
data_Cs27Sn14Pb13I81
_symmetry_space_group_name_H-M   'P 1'
_cell_length_a   18.96133830
_cell_length_b   18.96316689
_cell_length_c   18.96069216
_cell_angle_alpha   89.99899312
_cell_angle_beta   89.99966280
_cell_angle_gamma   90.00031761
_symmetry_Int_Tables_number   1
_chemical_formula_structural   Cs27Sn14Pb13I81
_chemical_formula_sum   'Cs27 Sn14 Pb13 I81'
_cell_volume   6817.63962538
_cell_formula_units_Z   1
loop_
 _symmetry_equiv_pos_site_id
 _symmetry_equiv_pos_as_xyz
  1  'x, y, z'
loop_
 _atom_site_type_symbol
 _atom_site_label
 _atom_site_symmetry_multiplicity
 _atom_site_fract_x
 _atom_site_fract_y
 _atom_site_fract_z
 _atom_site_occupancy
  Cs  Cs0  1  0.00146027  -0.00027821  0.00053102  1
  Cs  Cs1  1  -0.00060365  -0.00003346  0.33291867  1
  Cs  Cs2  1  -0.00199479  0.00089617  0.66469519  1
  Cs  Cs3  1  -0.00161594  0.33256002  -0.00533871  1
  Cs  Cs4  1  0.00159990  0.33164834  0.33297417  1
  Cs  Cs5  1  0.00084520  0.33920303  0.67266017  1
  Cs  Cs6  1  0.00283492  0.66877596  -0.00092221  1
  Cs  Cs7  1  -0.00072858  0.66692995  0.33478085  1
  Cs  Cs8  1  0.00220037  0.66047863  0.66495639  1
  Cs  Cs9  1  0.33262493  -0.00071334  0.00050918  1
  Cs  Cs10  1  0.33202690  0.00148310  0.33379638  1
  Cs  Cs11  1  0.33480976  0.00060299  0.66499022  1
  Cs  Cs12  1  0.33519437  0.33156816  0.00174774  1
  Cs  Cs13  1  0.33255833  0.33286119  0.33302267  1
  Cs  Cs14  1  0.33178564  0.33585196  0.66491577  1
  Cs  Cs15  1  0.33376306  0.67016938  -0.00028346  1
  Cs  Cs16  1  0.33336106  0.66319542  0.33480594  1
  Cs  Cs17  1  0.33221762  0.66345485  0.66577168  1
  Cs  Cs18  1  0.66663719  0.00009153  0.00024451  1
  Cs  Cs19  1  0.66903662  -0.00007129  0.33383290  1
  Cs  Cs20  1  0.66630611  -0.00184421  0.66546808  1
  Cs  Cs21  1  0.66637213  0.33492273  0.00031386  1
  Cs  Cs22  1  0.66579135  0.33783571  0.33175995  1
  Cs  Cs23  1  0.66761829  0.33471743  0.66861077  1
  Cs  Cs24  1  0.66537013  0.66693003  0.00085894  1
  Cs  Cs25  1  0.66652175  0.66184842  0.33232955  1
  Cs  Cs26  1  0.66647886  0.67070258  0.66624844  1
  Sn  Sn27  1  0.50078988  0.83434999  0.16642675  1
  Sn  Sn28  1  0.83323249  0.16600513  0.16730002  1
  Sn  Sn29  1  0.16632024  0.49897103  0.16637822  1
  Sn  Sn30  1  0.49998510  0.16639260  0.83391237  1
  Sn  Sn31  1  0.50011481  0.50023844  0.83349793  1
  Sn  Sn32  1  0.16632518  0.16756419  0.16706912  1
  Sn  Sn33  1  0.83253568  0.83412823  0.16663984  1
  Sn  Sn34  1  0.16596499  0.83435867  0.49988561  1
  Sn  Sn35  1  0.16541677  0.16566130  0.49947865  1
  Sn  Sn36  1  0.83433123  0.83407135  0.49976063  1
  Sn  Sn37  1  0.83424873  0.16631855  0.49934819  1
  Sn  Sn38  1  0.50037542  0.16567591  0.16611456  1
  Sn  Sn39  1  0.50063255  0.83373936  0.83410118  1
  Sn  Sn40  1  0.83310730  0.83374624  0.83357759  1
  Pb  Pb41  1  0.16681090  0.83359654  0.83021085  1
  Pb  Pb42  1  0.16675674  0.83406319  0.16850398  1
  Pb  Pb43  1  0.49829132  0.50014622  0.16518544  1
  Pb  Pb44  1  0.50054242  0.16675821  0.49937769  1
  Pb  Pb45  1  0.83335724  0.49939344  0.49986555  1
  Pb  Pb46  1  0.16892391  0.50000374  0.83630768  1
  Pb  Pb47  1  0.83126582  0.16481058  0.83330080  1
  Pb  Pb48  1  0.50012606  0.49987247  0.50285325  1
  Pb  Pb49  1  0.50036120  0.83333648  0.49933158  1
  Pb  Pb50  1  0.16897097  0.16638378  0.83303560  1
  Pb  Pb51  1  0.83106282  0.50329142  0.83366104  1
  Pb  Pb52  1  0.16642162  0.49922586  0.49797466  1
  Pb  Pb53  1  0.83567840  0.49990621  0.16651374  1
  I  I54  1  0.16764384  0.00311957  0.16877827  1
  I  I55  1  0.16356499  0.00087016  0.49419715  1
  I  I56  1  0.17068788  -0.00008056  0.83815545  1
  I  I57  1  0.16865480  0.33067519  0.17253466  1
  I  I58  1  0.16378554  0.32951511  0.49763706  1
  I  I59  1  0.16867345  0.33307791  0.82898703  1
  I  I60  1  0.16783575  0.66543606  0.16786237  1
  I  I61  1  0.16320248  0.66941067  0.49906999  1
  I  I62  1  0.16901810  0.66697736  0.83391735  1
  I  I63  1  0.49860706  0.00039915  0.15892347  1
  I  I64  1  0.49819931  0.00002097  0.50539751  1
  I  I65  1  0.50326669  -0.00077051  0.83757624  1
  I  I66  1  0.50181388  0.33000751  0.16321340  1
  I  I67  1  0.49947810  0.33277713  0.49989768  1
  I  I68  1  0.49834432  0.33233360  0.83744326  1
  I  I69  1  0.50249546  0.66990532  0.16329291  1
  I  I70  1  0.49912515  0.66719822  0.49898449  1
  I  I71  1  0.50385101  0.66828811  0.83722123  1
  I  I72  1  0.83390278  -0.00003582  0.16737584  1
  I  I73  1  0.83742738  -0.00056257  0.49890163  1
  I  I74  1  0.82686046  -0.00347146  0.83303022  1
  I  I75  1  0.83006185  0.32941400  0.17188860  1
  I  I76  1  0.83648577  0.32909810  0.49462921  1
  I  I77  1  0.83122792  0.33309273  0.83261278  1
  I  I78  1  0.82968610  0.67050189  0.16723025  1
  I  I79  1  0.83661580  0.67062563  0.49984155  1
  I  I80  1  0.82790122  0.67184885  0.83356575  1
  I  I81  1  0.16485097  0.17030580  0.00352164  1
  I  I82  1  0.16869573  0.16637668  0.33242680  1
  I  I83  1  0.16406759  0.16193417  0.66319438  1
  I  I84  1  0.16635229  0.49434132  0.00407471  1
  I  I85  1  0.16906978  0.49861260  0.33021999  1
  I  I86  1  0.16869042  0.50024256  0.66671001  1
  I  I87  1  0.16478571  0.83281038  0.00025068  1
  I  I88  1  0.16358691  0.83477181  0.33630683  1
  I  I89  1  0.16404111  0.83920700  0.66220373  1
  I  I90  1  0.49962531  0.16595563  0.00123867  1
  I  I91  1  0.49908144  0.16094760  0.32957828  1
  I  I92  1  0.49985575  0.16566435  0.66952315  1
  I  I93  1  0.49848682  0.50062532  -0.00277642  1
  I  I94  1  0.49853171  0.50064071  0.33282978  1
  I  I95  1  0.49959118  0.50061620  0.67132931  1
  I  I96  1  0.50641897  0.83361490  0.00017369  1
  I  I97  1  0.50206830  0.83930311  0.32983762  1
  I  I98  1  0.50287862  0.83374595  0.66970846  1
  I  I99  1  0.83559643  0.16291486  0.00329151  1
  I  I100  1  0.83252324  0.15881406  0.33232700  1
  I  I101  1  0.83582922  0.16188952  0.66387916  1
  I  I102  1  0.83478764  0.49910475  0.00017282  1
  I  I103  1  0.83198863  0.50535223  0.33304794  1
  I  I104  1  0.83245212  0.49915996  0.66681100  1
  I  I105  1  0.82805332  0.83662174  0.00091714  1
  I  I106  1  0.83328774  0.83754218  0.33287299  1
  I  I107  1  0.83146532  0.83732520  0.66626369  1
  I  I108  1  -0.00034904  0.16597977  0.17167886  1
  I  I109  1  -0.00008880  0.16094441  0.49087472  1
  I  I110  1  -0.00031396  0.16473886  0.83607735  1
  I  I111  1  0.00354831  0.49680673  0.16802202  1
  I  I112  1  0.00002772  0.50189365  0.50068653  1
  I  I113  1  -0.00002039  0.50126527  0.83272488  1
  I  I114  1  -0.00299429  0.83556968  0.16423132  1
  I  I115  1  -0.00116730  0.83736701  0.49898463  1
  I  I116  1  -0.00324352  0.83456743  0.83733408  1
  I  I117  1  0.33359980  0.16659256  0.16643616  1
  I  I118  1  0.33044533  0.16287612  0.49719319  1
  I  I119  1  0.33758079  0.16337180  0.83741314  1
  I  I120  1  0.33051246  0.49631408  0.16608289  1
  I  I121  1  0.33298425  0.50118934  0.50006853  1
  I  I122  1  0.33712611  0.50311622  0.83338542  1
  I  I123  1  0.33598891  0.83582158  0.16267798  1
  I  I124  1  0.33076892  0.83726012  0.49952779  1
  I  I125  1  0.33701229  0.83313514  0.83770896  1
  I  I126  1  0.66674879  0.16160127  0.16678436  1
  I  I127  1  0.67004573  0.16059002  0.49769742  1
  I  I128  1  0.66290129  0.16777868  0.83675268  1
  I  I129  1  0.66652377  0.49831106  0.16554697  1
  I  I130  1  0.66685296  0.50022803  0.49845290  1
  I  I131  1  0.66292174  0.49697146  0.83571694  1
  I  I132  1  0.66693866  0.83988116  0.16722135  1
  I  I133  1  0.67012216  0.83843740  0.50103713  1
  I  I134  1  0.66602631  0.83348199  0.83177077  1
