# generated using pymatgen
data_Cs27Sn14Pb13I81
_symmetry_space_group_name_H-M   'P 1'
_cell_length_a   18.98356544
_cell_length_b   18.97298804
_cell_length_c   18.97147613
_cell_angle_alpha   90.00022353
_cell_angle_beta   90.00046225
_cell_angle_gamma   90.00126551
_symmetry_Int_Tables_number   1
_chemical_formula_structural   Cs27Sn14Pb13I81
_chemical_formula_sum   'Cs27 Sn14 Pb13 I81'
_cell_volume   6833.05065387
_cell_formula_units_Z   1
loop_
 _symmetry_equiv_pos_site_id
 _symmetry_equiv_pos_as_xyz
  1  'x, y, z'
loop_
 _atom_site_type_symbol
 _atom_site_label
 _atom_site_symmetry_multiplicity
 _atom_site_fract_x
 _atom_site_fract_y
 _atom_site_fract_z
 _atom_site_occupancy
  Cs  Cs0  1  0.00019384  0.00062138  0.00264789  1
  Cs  Cs1  1  -0.00050529  -0.00011151  0.33278624  1
  Cs  Cs2  1  -0.00247280  -0.00074521  0.66527755  1
  Cs  Cs3  1  0.00327501  0.33981562  0.00479926  1
  Cs  Cs4  1  -0.00283844  0.33070471  0.33280177  1
  Cs  Cs5  1  0.00062868  0.33455530  0.66726604  1
  Cs  Cs6  1  0.00194342  0.66077655  -0.00045161  1
  Cs  Cs7  1  0.00412031  0.66870639  0.33728615  1
  Cs  Cs8  1  -0.00108743  0.66534045  0.66526140  1
  Cs  Cs9  1  0.32924418  0.00241339  -0.00235652  1
  Cs  Cs10  1  0.33195367  -0.00013307  0.33353506  1
  Cs  Cs11  1  0.33496018  0.00112982  0.66730131  1
  Cs  Cs12  1  0.32630865  0.32557904  0.00541196  1
  Cs  Cs13  1  0.33864589  0.33428371  0.33224510  1
  Cs  Cs14  1  0.33239557  0.33024677  0.66663359  1
  Cs  Cs15  1  0.33449881  0.66812592  0.00227047  1
  Cs  Cs16  1  0.33339742  0.66696205  0.33338817  1
  Cs  Cs17  1  0.33533095  0.66782220  0.66564118  1
  Cs  Cs18  1  0.66766477  -0.00133179  -0.00247319  1
  Cs  Cs19  1  0.66798445  -0.00016492  0.33306839  1
  Cs  Cs20  1  0.66784069  -0.00025655  0.66771730  1
  Cs  Cs21  1  0.66932661  0.33431393  0.01296701  1
  Cs  Cs22  1  0.66574149  0.33140373  0.32658800  1
  Cs  Cs23  1  0.66651728  0.33282567  0.66596108  1
  Cs  Cs24  1  0.66587786  0.66713636  -0.00229919  1
  Cs  Cs25  1  0.66497239  0.66835057  0.33487764  1
  Cs  Cs26  1  0.66598443  0.66789244  0.66722321  1
  Sn  Sn27  1  0.49992487  0.49980919  0.83288804  1
  Sn  Sn28  1  0.83379221  0.83372235  0.83429916  1
  Sn  Sn29  1  0.50032472  0.50077200  0.50130939  1
  Sn  Sn30  1  0.83378268  0.16770437  0.50120084  1
  Sn  Sn31  1  0.16710238  0.49967313  0.50051764  1
  Sn  Sn32  1  0.49980051  0.83278518  0.83331560  1
  Sn  Sn33  1  0.83285208  0.83284665  0.16533503  1
  Sn  Sn34  1  0.49917535  0.83287027  0.50006289  1
  Sn  Sn35  1  0.83270685  0.49878068  0.50031340  1
  Sn  Sn36  1  0.83311859  0.16692425  0.83291669  1
  Sn  Sn37  1  0.16643117  0.83310709  0.83224886  1
  Sn  Sn38  1  0.50088045  0.83334198  0.16649009  1
  Sn  Sn39  1  0.16778411  0.83358867  0.50121288  1
  Sn  Sn40  1  0.16584995  0.16654504  0.50048915  1
  Pb  Pb41  1  0.16387304  0.16458086  0.83120379  1
  Pb  Pb42  1  0.50250996  0.16740477  0.83340866  1
  Pb  Pb43  1  0.83124835  0.49980824  0.83164362  1
  Pb  Pb44  1  0.16640858  0.16650901  0.16971259  1
  Pb  Pb45  1  0.49982020  0.50223057  0.16630393  1
  Pb  Pb46  1  0.83321029  0.83335554  0.50042696  1
  Pb  Pb47  1  0.16671736  0.83324226  0.16650155  1
  Pb  Pb48  1  0.50039740  0.16684841  0.50013590  1
  Pb  Pb49  1  0.16689668  0.50021575  0.16952045  1
  Pb  Pb50  1  0.49994089  0.16324182  0.16630392  1
  Pb  Pb51  1  0.83349412  0.16430617  0.16645087  1
  Pb  Pb52  1  0.83337644  0.50347633  0.16985097  1
  Pb  Pb53  1  0.16963267  0.50206193  0.83124633  1
  I  I54  1  0.16738277  -0.00061360  0.17066576  1
  I  I55  1  0.16611231  -0.00109565  0.50317994  1
  I  I56  1  0.17240756  -0.00410395  0.82725417  1
  I  I57  1  0.16640704  0.33329484  0.16620511  1
  I  I58  1  0.16584675  0.33369048  0.49895655  1
  I  I59  1  0.16722084  0.33337966  0.83142838  1
  I  I60  1  0.16570366  0.66728473  0.17053901  1
  I  I61  1  0.16627355  0.66732058  0.50277857  1
  I  I62  1  0.16125232  0.67080171  0.82713516  1
  I  I63  1  0.50457016  -0.00544292  0.16862645  1
  I  I64  1  0.49755366  -0.00354875  0.50068626  1
  I  I65  1  0.49869880  -0.00387022  0.83199169  1
  I  I66  1  0.50018797  0.33364080  0.16811094  1
  I  I67  1  0.49718987  0.33674087  0.50525124  1
  I  I68  1  0.50192080  0.33671227  0.82316341  1
  I  I69  1  0.50400407  0.67067155  0.16806954  1
  I  I70  1  0.49805534  0.66779578  0.50005645  1
  I  I71  1  0.50269095  0.66897317  0.83126356  1
  I  I72  1  0.82870724  -0.00373582  0.16903484  1
  I  I73  1  0.83635175  0.00184150  0.50013786  1
  I  I74  1  0.83106150  -0.00190081  0.82973240  1
  I  I75  1  0.83357470  0.33346434  0.16491912  1
  I  I76  1  0.83682034  0.33307300  0.50614794  1
  I  I77  1  0.83088108  0.33085354  0.82721130  1
  I  I78  1  0.82862160  0.67123258  0.16156793  1
  I  I79  1  0.83523332  0.66476147  0.49940548  1
  I  I80  1  0.83391842  0.67006111  0.83488163  1
  I  I81  1  0.16643900  0.16383247  -0.00048811  1
  I  I82  1  0.15962607  0.16221633  0.33878619  1
  I  I83  1  0.16497940  0.16777089  0.66271484  1
  I  I84  1  0.16739696  0.50230860  -0.00060025  1
  I  I85  1  0.16943068  0.50518718  0.33906818  1
  I  I86  1  0.16409754  0.49930361  0.66247011  1
  I  I87  1  0.16930261  0.83407020  -0.00331861  1
  I  I88  1  0.16882275  0.83272214  0.33705168  1
  I  I89  1  0.16919694  0.83329305  0.66534867  1
  I  I90  1  0.50255087  0.16748628  -0.00031358  1
  I  I91  1  0.50171543  0.16608309  0.33373119  1
  I  I92  1  0.49933473  0.16070146  0.66651355  1
  I  I93  1  0.50273943  0.50682658  -0.00326096  1
  I  I94  1  0.49897603  0.50427725  0.33703809  1
  I  I95  1  0.50064921  0.50998871  0.66501006  1
  I  I96  1  0.50142691  0.82927717  -0.00121679  1
  I  I97  1  0.50060186  0.82975846  0.33463008  1
  I  I98  1  0.49990809  0.82955060  0.66652984  1
  I  I99  1  0.83019569  0.16139869  -0.00310266  1
  I  I100  1  0.83730377  0.16879293  0.33668963  1
  I  I101  1  0.83626283  0.16224206  0.66561889  1
  I  I102  1  0.83079928  0.49725557  -0.00008840  1
  I  I103  1  0.83088376  0.49531970  0.33851056  1
  I  I104  1  0.83514443  0.50250718  0.66300386  1
  I  I105  1  0.82943828  0.83963727  -0.00162047  1
  I  I106  1  0.82985822  0.83267855  0.33200746  1
  I  I107  1  0.83097506  0.83419056  0.66905803  1
  I  I108  1  -0.00030642  0.16161466  0.16672384  1
  I  I109  1  -0.00036855  0.16812291  0.50361266  1
  I  I110  1  -0.00398792  0.15946877  0.82920208  1
  I  I111  1  -0.00015045  0.50345036  0.16741303  1
  I  I112  1  0.00016221  0.50176745  0.49906047  1
  I  I113  1  0.00002101  0.50232893  0.83093321  1
  I  I114  1  -0.00272128  0.83478191  0.16549545  1
  I  I115  1  0.00225511  0.83084891  0.50209429  1
  I  I116  1  -0.00037735  0.83851885  0.83162609  1
  I  I117  1  0.33315931  0.16460081  0.16826672  1
  I  I118  1  0.33061291  0.16707045  0.49928942  1
  I  I119  1  0.33314615  0.16479898  0.83168154  1
  I  I120  1  0.33359984  0.50394798  0.16957948  1
  I  I121  1  0.33377720  0.50219724  0.50328403  1
  I  I122  1  0.33753879  0.50784482  0.82599647  1
  I  I123  1  0.33634495  0.83213028  0.16612310  1
  I  I124  1  0.33360383  0.83108772  0.50167720  1
  I  I125  1  0.33405604  0.82865626  0.83205336  1
  I  I126  1  0.66699828  0.16813575  0.17084344  1
  I  I127  1  0.66982809  0.16787761  0.50313864  1
  I  I128  1  0.67035707  0.15779663  0.82410441  1
  I  I129  1  0.66664246  0.49869986  0.17058974  1
  I  I130  1  0.66596846  0.50235261  0.50382759  1
  I  I131  1  0.66352776  0.50839985  0.82452928  1
  I  I132  1  0.66617443  0.83327887  0.16543852  1
  I  I133  1  0.66412660  0.83052879  0.50160896  1
  I  I134  1  0.66635279  0.83371840  0.83295073  1
