# generated using pymatgen
data_Cs27Sn13Pb14I81
_symmetry_space_group_name_H-M   'P 1'
_cell_length_a   18.97880035
_cell_length_b   18.98291878
_cell_length_c   18.97053915
_cell_angle_alpha   90.00057779
_cell_angle_beta   90.00003745
_cell_angle_gamma   90.00060173
_symmetry_Int_Tables_number   1
_chemical_formula_structural   Cs27Sn13Pb14I81
_chemical_formula_sum   'Cs27 Sn13 Pb14 I81'
_cell_volume   6834.57353334
_cell_formula_units_Z   1
loop_
 _symmetry_equiv_pos_site_id
 _symmetry_equiv_pos_as_xyz
  1  'x, y, z'
loop_
 _atom_site_type_symbol
 _atom_site_label
 _atom_site_symmetry_multiplicity
 _atom_site_fract_x
 _atom_site_fract_y
 _atom_site_fract_z
 _atom_site_occupancy
  Cs  Cs0  1  0.00131563  0.00065700  -0.00559571  1
  Cs  Cs1  1  0.00057080  0.00020861  0.33427134  1
  Cs  Cs2  1  -0.00209499  -0.00330775  0.67018867  1
  Cs  Cs3  1  0.00396703  0.33395860  0.00067106  1
  Cs  Cs4  1  -0.00006900  0.33332093  0.33340465  1
  Cs  Cs5  1  -0.00197158  0.33295203  0.66204132  1
  Cs  Cs6  1  0.00165888  0.66459927  0.00014341  1
  Cs  Cs7  1  -0.00053275  0.66662303  0.33339644  1
  Cs  Cs8  1  -0.00080709  0.66958839  0.66602733  1
  Cs  Cs9  1  0.33309390  -0.00115183  -0.00760273  1
  Cs  Cs10  1  0.33312731  0.00081499  0.33289883  1
  Cs  Cs11  1  0.33210725  0.00075425  0.67351950  1
  Cs  Cs12  1  0.32602200  0.33420411  -0.00449642  1
  Cs  Cs13  1  0.33244939  0.33135036  0.33374861  1
  Cs  Cs14  1  0.33842458  0.33613455  0.66883241  1
  Cs  Cs15  1  0.33268019  0.66719863  -0.00749100  1
  Cs  Cs16  1  0.33547595  0.66893793  0.33362193  1
  Cs  Cs17  1  0.33979511  0.66390176  0.67233814  1
  Cs  Cs18  1  0.66504780  0.00005044  -0.00236772  1
  Cs  Cs19  1  0.66618852  0.00029824  0.33244537  1
  Cs  Cs20  1  0.66910871  -0.00460679  0.67377458  1
  Cs  Cs21  1  0.66867476  0.33289787  0.00202416  1
  Cs  Cs22  1  0.66778606  0.33293506  0.33292650  1
  Cs  Cs23  1  0.66507267  0.33373947  0.66799955  1
  Cs  Cs24  1  0.66544694  0.66683218  0.00514547  1
  Cs  Cs25  1  0.66505406  0.66795352  0.33232600  1
  Cs  Cs26  1  0.66148930  0.67018077  0.66554417  1
  Sn  Sn27  1  0.16601158  0.83342121  0.16747759  1
  Sn  Sn28  1  0.49995164  0.49868718  0.16720896  1
  Sn  Sn29  1  0.50024011  0.16788114  0.16732727  1
  Sn  Sn30  1  0.83328048  0.49994232  0.83306088  1
  Sn  Sn31  1  0.83454447  0.83378770  0.16724699  1
  Sn  Sn32  1  0.83279423  0.16690571  0.49924295  1
  Sn  Sn33  1  0.83302636  0.16648859  0.16745038  1
  Sn  Sn34  1  0.83298715  0.49972540  0.16690687  1
  Sn  Sn35  1  0.16643317  0.50035836  0.49939588  1
  Sn  Sn36  1  0.50063352  0.16638145  0.49933011  1
  Sn  Sn37  1  0.83365784  0.49974684  0.50005968  1
  Sn  Sn38  1  0.16686802  0.83315837  0.49902679  1
  Sn  Sn39  1  0.16663822  0.16652781  0.49944664  1
  Pb  Pb40  1  0.50290076  0.49956576  0.83689587  1
  Pb  Pb41  1  0.16672526  0.16461316  0.16802214  1
  Pb  Pb42  1  0.50053217  0.49820973  0.49793877  1
  Pb  Pb43  1  0.49962411  0.83399330  0.16675842  1
  Pb  Pb44  1  0.16623393  0.16706588  0.82949537  1
  Pb  Pb45  1  0.83459044  0.83346279  0.49823876  1
  Pb  Pb46  1  0.83340072  0.83026407  0.83681896  1
  Pb  Pb47  1  0.50039776  0.16704732  0.83404455  1
  Pb  Pb48  1  0.16688030  0.50193097  0.16864283  1
  Pb  Pb49  1  0.83338650  0.16885295  0.83349939  1
  Pb  Pb50  1  0.49700545  0.83670443  0.49983367  1
  Pb  Pb51  1  0.16629399  0.83305870  0.83302318  1
  Pb  Pb52  1  0.16395926  0.49991095  0.82972761  1
  Pb  Pb53  1  0.50038585  0.83322742  0.83341067  1
  I  I54  1  0.16243267  -0.00312731  0.17382840  1
  I  I55  1  0.16680983  0.00048676  0.49451098  1
  I  I56  1  0.16657205  -0.00008035  0.83241732  1
  I  I57  1  0.16478091  0.33329600  0.16815644  1
  I  I58  1  0.16429102  0.33309705  0.49994116  1
  I  I59  1  0.16641308  0.33365097  0.83510949  1
  I  I60  1  0.16187062  0.66968541  0.17360935  1
  I  I61  1  0.15946521  0.66625417  0.49517131  1
  I  I62  1  0.16604279  0.66648117  0.83195747  1
  I  I63  1  0.50392709  0.00359787  0.17167201  1
  I  I64  1  0.50190562  0.00508290  0.49157753  1
  I  I65  1  0.49980527  0.00040689  0.83507694  1
  I  I66  1  0.50934859  0.33281114  0.17130906  1
  I  I67  1  0.49567102  0.33008473  0.49746763  1
  I  I68  1  0.50008716  0.33341885  0.83076678  1
  I  I69  1  0.50485052  0.66406843  0.16694918  1
  I  I70  1  0.49978672  0.66653178  0.49877821  1
  I  I71  1  0.49994331  0.66601890  0.83451231  1
  I  I72  1  0.83275715  0.00111497  0.17309474  1
  I  I73  1  0.83432714  0.00327085  0.49465670  1
  I  I74  1  0.83347306  -0.00011024  0.83249167  1
  I  I75  1  0.82840412  0.33355671  0.16770955  1
  I  I76  1  0.83836319  0.33341833  0.49587851  1
  I  I77  1  0.83326009  0.33660658  0.83696491  1
  I  I78  1  0.83297298  0.66551527  0.16663783  1
  I  I79  1  0.83866316  0.66348611  0.49860630  1
  I  I80  1  0.83439702  0.66240440  0.83138431  1
  I  I81  1  0.16703236  0.16421621  0.00019070  1
  I  I82  1  0.16589959  0.16853279  0.33669702  1
  I  I83  1  0.16573912  0.16373521  0.66053204  1
  I  I84  1  0.16661321  0.50260257  0.00019930  1
  I  I85  1  0.16018565  0.49743252  0.33683706  1
  I  I86  1  0.16219464  0.50110229  0.66123174  1
  I  I87  1  0.16301243  0.83305297  0.00325408  1
  I  I88  1  0.16229893  0.83357153  0.33399851  1
  I  I89  1  0.16603244  0.83507719  0.66284085  1
  I  I90  1  0.50677026  0.16892197  0.00419284  1
  I  I91  1  0.50114715  0.17036204  0.33305670  1
  I  I92  1  0.49896832  0.16665693  0.66312512  1
  I  I93  1  0.50501967  0.49502157  0.00511203  1
  I  I94  1  0.50640844  0.49851143  0.33005281  1
  I  I95  1  0.49973543  0.49902947  0.66647275  1
  I  I96  1  0.49791905  0.83484245  0.00083638  1
  I  I97  1  0.50095137  0.83105548  0.33315288  1
  I  I98  1  0.49882029  0.83404725  0.66615942  1
  I  I99  1  0.82799276  0.16664573  0.00395029  1
  I  I100  1  0.83335620  0.17121068  0.33338811  1
  I  I101  1  0.83407044  0.17115546  0.66277459  1
  I  I102  1  0.82799989  0.50075040  0.00187264  1
  I  I103  1  0.83411347  0.49880624  0.33307615  1
  I  I104  1  0.83966261  0.49407395  0.66487800  1
  I  I105  1  0.83878364  0.83496335  0.00536415  1
  I  I106  1  0.83531586  0.82918207  0.32991309  1
  I  I107  1  0.83519145  0.83390542  0.66656623  1
  I  I108  1  -0.00328421  0.16982571  0.17091400  1
  I  I109  1  -0.00069913  0.16869824  0.49568596  1
  I  I110  1  -0.00036571  0.16705720  0.83480448  1
  I  I111  1  -0.00345850  0.49767680  0.16556601  1
  I  I112  1  -0.00124776  0.49519756  0.49771867  1
  I  I113  1  -0.00378504  0.49951524  0.84019944  1
  I  I114  1  -0.00096750  0.83236419  0.17134760  1
  I  I115  1  0.00287288  0.83697498  0.49715314  1
  I  I116  1  -0.00020755  0.83347997  0.83198752  1
  I  I117  1  0.33605454  0.16984789  0.17231258  1
  I  I118  1  0.33320141  0.16630524  0.49470600  1
  I  I119  1  0.33337208  0.16644278  0.83453698  1
  I  I120  1  0.33578445  0.49659095  0.17061580  1
  I  I121  1  0.33091172  0.49898929  0.49673569  1
  I  I122  1  0.33343718  0.50079767  0.83333437  1
  I  I123  1  0.33027503  0.83323259  0.17202273  1
  I  I124  1  0.32848974  0.83178552  0.49198991  1
  I  I125  1  0.33295435  0.83299571  0.83574665  1
  I  I126  1  0.66799011  0.16624759  0.17427068  1
  I  I127  1  0.66784101  0.17323156  0.49477467  1
  I  I128  1  0.66692431  0.16678688  0.82832387  1
  I  I129  1  0.66879882  0.50186830  0.16831724  1
  I  I130  1  0.67030273  0.49548194  0.50089190  1
  I  I131  1  0.67071624  0.49913436  0.82774517  1
  I  I132  1  0.66977218  0.83197772  0.16635969  1
  I  I133  1  0.66665495  0.83232808  0.49855521  1
  I  I134  1  0.66734088  0.83372740  0.83415547  1
