# generated using pymatgen
data_Cs27Sn14Pb13I81
_symmetry_space_group_name_H-M   'P 1'
_cell_length_a   18.97346749
_cell_length_b   18.97792176
_cell_length_c   18.97456782
_cell_angle_alpha   90.00058962
_cell_angle_beta   89.99994437
_cell_angle_gamma   89.99999382
_symmetry_Int_Tables_number   1
_chemical_formula_structural   Cs27Sn14Pb13I81
_chemical_formula_sum   'Cs27 Sn14 Pb13 I81'
_cell_volume   6832.30510880
_cell_formula_units_Z   1
loop_
 _symmetry_equiv_pos_site_id
 _symmetry_equiv_pos_as_xyz
  1  'x, y, z'
loop_
 _atom_site_type_symbol
 _atom_site_label
 _atom_site_symmetry_multiplicity
 _atom_site_fract_x
 _atom_site_fract_y
 _atom_site_fract_z
 _atom_site_occupancy
  Cs  Cs0  1  0.00180457  0.00906733  -0.00005084  1
  Cs  Cs1  1  0.00318906  0.00211304  0.33230149  1
  Cs  Cs2  1  -0.01268022  -0.00157453  0.66887138  1
  Cs  Cs3  1  0.00192511  0.33193283  0.00127775  1
  Cs  Cs4  1  -0.00487515  0.33346902  0.33516399  1
  Cs  Cs5  1  -0.00079821  0.33447675  0.66233609  1
  Cs  Cs6  1  -0.00054634  0.66500294  -0.00079939  1
  Cs  Cs7  1  0.00370577  0.66630218  0.33882634  1
  Cs  Cs8  1  -0.00046803  0.66759810  0.66249928  1
  Cs  Cs9  1  0.32922828  0.00022444  -0.00012085  1
  Cs  Cs10  1  0.33392480  -0.00051526  0.33374761  1
  Cs  Cs11  1  0.33440763  0.00249239  0.66624566  1
  Cs  Cs12  1  0.33185125  0.33465218  -0.00466435  1
  Cs  Cs13  1  0.33560167  0.33293088  0.33598409  1
  Cs  Cs14  1  0.33491541  0.33091784  0.66805434  1
  Cs  Cs15  1  0.33283798  0.66596965  -0.00068336  1
  Cs  Cs16  1  0.33311513  0.66803284  0.33321073  1
  Cs  Cs17  1  0.33251440  0.66646111  0.66839782  1
  Cs  Cs18  1  0.66940196  -0.00260804  -0.00073452  1
  Cs  Cs19  1  0.66311065  0.00193312  0.33287206  1
  Cs  Cs20  1  0.67396948  -0.00206524  0.66880844  1
  Cs  Cs21  1  0.66609227  0.33622735  -0.00045933  1
  Cs  Cs22  1  0.66637568  0.33306454  0.33320467  1
  Cs  Cs23  1  0.66477727  0.33134424  0.66745620  1
  Cs  Cs24  1  0.66720807  0.66542517  0.00134407  1
  Cs  Cs25  1  0.66411016  0.66511215  0.32862546  1
  Cs  Cs26  1  0.66806326  0.66922345  0.66874909  1
  Sn  Sn27  1  0.49957830  0.49969953  0.16721063  1
  Sn  Sn28  1  0.49977141  0.83328358  0.50013991  1
  Sn  Sn29  1  0.50029269  0.83352964  0.16639480  1
  Sn  Sn30  1  0.49985270  0.50024155  0.49959091  1
  Sn  Sn31  1  0.49927079  0.16646066  0.49929872  1
  Sn  Sn32  1  0.49901930  0.83326780  0.83369697  1
  Sn  Sn33  1  0.16559533  0.50096308  0.83381431  1
  Sn  Sn34  1  0.83453976  0.50022971  0.83395855  1
  Sn  Sn35  1  0.16717291  0.16629577  0.50028362  1
  Sn  Sn36  1  0.49966462  0.16677461  0.16659830  1
  Sn  Sn37  1  0.83360538  0.50118189  0.16595141  1
  Sn  Sn38  1  0.16684081  0.50021766  0.16648078  1
  Sn  Sn39  1  0.83340777  0.83260438  0.16677556  1
  Sn  Sn40  1  0.16695658  0.83293049  0.83332604  1
  Pb  Pb41  1  0.83082525  0.16692365  0.16662656  1
  Pb  Pb42  1  0.16668099  0.16684796  0.83069094  1
  Pb  Pb43  1  0.83250058  0.16657199  0.49969345  1
  Pb  Pb44  1  0.49982247  0.50178479  0.83349047  1
  Pb  Pb45  1  0.16659337  0.83156776  0.16497111  1
  Pb  Pb46  1  0.16932759  0.16967494  0.16866105  1
  Pb  Pb47  1  0.16906595  0.49862046  0.50029058  1
  Pb  Pb48  1  0.16867858  0.83566237  0.50280583  1
  Pb  Pb49  1  0.83381651  0.83135337  0.83594210  1
  Pb  Pb50  1  0.50008439  0.16333590  0.83345069  1
  Pb  Pb51  1  0.83037699  0.50025817  0.49959242  1
  Pb  Pb52  1  0.83331725  0.17042274  0.83377275  1
  Pb  Pb53  1  0.83070839  0.83303983  0.49630800  1
  I  I54  1  0.16637396  0.00012611  0.16533025  1
  I  I55  1  0.17514795  0.00317420  0.49932304  1
  I  I56  1  0.17358069  -0.00290483  0.83288409  1
  I  I57  1  0.16645192  0.33793613  0.15997129  1
  I  I58  1  0.17517892  0.33098353  0.50125232  1
  I  I59  1  0.16320646  0.33685333  0.83702472  1
  I  I60  1  0.17231047  0.66317884  0.16578903  1
  I  I61  1  0.16866966  0.66671587  0.49885008  1
  I  I62  1  0.16865148  0.66565110  0.83695601  1
  I  I63  1  0.50476271  -0.00103423  0.16964989  1
  I  I64  1  0.49562993  -0.00012174  0.49597145  1
  I  I65  1  0.49411363  -0.00492430  0.83411554  1
  I  I66  1  0.50037649  0.33458597  0.17396799  1
  I  I67  1  0.49681629  0.33333689  0.49262187  1
  I  I68  1  0.50034677  0.33352015  0.83277124  1
  I  I69  1  0.50092436  0.66634622  0.16918118  1
  I  I70  1  0.50093391  0.66685596  0.49642554  1
  I  I71  1  0.49911622  0.66975622  0.83316251  1
  I  I72  1  0.82684230  -0.00299668  0.16722765  1
  I  I73  1  0.83145619  -0.00028178  0.50008406  1
  I  I74  1  0.83317961  -0.00046148  0.83374166  1
  I  I75  1  0.83211658  0.33713111  0.16323531  1
  I  I76  1  0.83008887  0.33362636  0.49919909  1
  I  I77  1  0.83776557  0.33864227  0.84039114  1
  I  I78  1  0.82539547  0.66539708  0.16256166  1
  I  I79  1  0.83253162  0.66658595  0.50249909  1
  I  I80  1  0.83302844  0.66352308  0.83652448  1
  I  I81  1  0.16785601  0.16555095  0.00003247  1
  I  I82  1  0.17056043  0.16761339  0.33631767  1
  I  I83  1  0.17737791  0.16975835  0.66321446  1
  I  I84  1  0.16942366  0.50304150  0.00029269  1
  I  I85  1  0.16516752  0.49863923  0.33053327  1
  I  I86  1  0.16381177  0.50238076  0.66965157  1
  I  I87  1  0.17427240  0.83113850  -0.00293799  1
  I  I88  1  0.16694362  0.83227090  0.33332637  1
  I  I89  1  0.17343681  0.82538126  0.67064133  1
  I  I90  1  0.50139832  0.16888013  0.00329614  1
  I  I91  1  0.49680461  0.16354280  0.33333335  1
  I  I92  1  0.49589538  0.16919664  0.66330419  1
  I  I93  1  0.50039715  0.50001450  0.00320248  1
  I  I94  1  0.49996493  0.50329526  0.33177857  1
  I  I95  1  0.49964316  0.49937913  0.66431467  1
  I  I96  1  0.50050132  0.83185936  0.00105823  1
  I  I97  1  0.50481106  0.83311843  0.33270186  1
  I  I98  1  0.49432619  0.83220090  0.66647739  1
  I  I99  1  0.83134752  0.16385456  0.00044687  1
  I  I100  1  0.83512703  0.16980562  0.33304376  1
  I  I101  1  0.83037055  0.16728270  0.66664074  1
  I  I102  1  0.83029813  0.50382016  0.00148264  1
  I  I103  1  0.83496645  0.50272510  0.32957548  1
  I  I104  1  0.83691215  0.49961264  0.66941529  1
  I  I105  1  0.82427367  0.83000838  0.00346341  1
  I  I106  1  0.82760418  0.82587066  0.32845517  1
  I  I107  1  0.83172588  0.83273265  0.66692148  1
  I  I108  1  0.00027564  0.16583828  0.16843830  1
  I  I109  1  0.00270223  0.16916765  0.50163538  1
  I  I110  1  0.00021195  0.16040614  0.83084644  1
  I  I111  1  -0.00029681  0.50471660  0.16122147  1
  I  I112  1  0.00013989  0.49631530  0.49755085  1
  I  I113  1  0.00083870  0.50529945  0.84192843  1
  I  I114  1  -0.00256859  0.82750392  0.16411576  1
  I  I115  1  0.00007114  0.83558972  0.50063922  1
  I  I116  1  0.00263397  0.83074966  0.83436941  1
  I  I117  1  0.33760749  0.16482775  0.16893370  1
  I  I118  1  0.33586246  0.16726555  0.49621254  1
  I  I119  1  0.33353777  0.17189810  0.83509686  1
  I  I120  1  0.33455879  0.50032882  0.16641138  1
  I  I121  1  0.33735005  0.50204620  0.49565869  1
  I  I122  1  0.33104047  0.50210487  0.83659636  1
  I  I123  1  0.33694571  0.83217136  0.16864830  1
  I  I124  1  0.33758015  0.83092468  0.49387061  1
  I  I125  1  0.33438363  0.82670907  0.83540565  1
  I  I126  1  0.66232708  0.17049759  0.17407983  1
  I  I127  1  0.66227707  0.16729135  0.49525929  1
  I  I128  1  0.66632698  0.16686635  0.83034195  1
  I  I129  1  0.66560993  0.50044280  0.16654440  1
  I  I130  1  0.66193695  0.49740461  0.49613719  1
  I  I131  1  0.66845546  0.50146971  0.83653586  1
  I  I132  1  0.66422380  0.82865582  0.16526559  1
  I  I133  1  0.66167167  0.83599004  0.50612069  1
  I  I134  1  0.66395356  0.83238803  0.83115973  1
