# generated using pymatgen
data_Cs27Sn14Pb13I81
_symmetry_space_group_name_H-M   'P 1'
_cell_length_a   18.95637888
_cell_length_b   18.96434690
_cell_length_c   18.96089503
_cell_angle_alpha   90.00273245
_cell_angle_beta   89.99965653
_cell_angle_gamma   90.00062216
_symmetry_Int_Tables_number   1
_chemical_formula_structural   Cs27Sn14Pb13I81
_chemical_formula_sum   'Cs27 Sn14 Pb13 I81'
_cell_volume   6816.35349252
_cell_formula_units_Z   1
loop_
 _symmetry_equiv_pos_site_id
 _symmetry_equiv_pos_as_xyz
  1  'x, y, z'
loop_
 _atom_site_type_symbol
 _atom_site_label
 _atom_site_symmetry_multiplicity
 _atom_site_fract_x
 _atom_site_fract_y
 _atom_site_fract_z
 _atom_site_occupancy
  Cs  Cs0  1  0.00143690  0.00094542  -0.00775177  1
  Cs  Cs1  1  0.00315636  0.00268788  0.33591674  1
  Cs  Cs2  1  -0.00451625  -0.00338049  0.67155064  1
  Cs  Cs3  1  0.00595059  0.33348545  0.00088714  1
  Cs  Cs4  1  0.00014692  0.33424159  0.33343834  1
  Cs  Cs5  1  -0.00223764  0.33332647  0.66610451  1
  Cs  Cs6  1  -0.00357083  0.66750545  -0.00032235  1
  Cs  Cs7  1  -0.00104210  0.66557530  0.33270827  1
  Cs  Cs8  1  0.00298818  0.66782917  0.66681069  1
  Cs  Cs9  1  0.33472734  0.00431994  0.00248225  1
  Cs  Cs10  1  0.33195158  -0.00239967  0.33262441  1
  Cs  Cs11  1  0.33273743  -0.00492809  0.66457986  1
  Cs  Cs12  1  0.33289639  0.33313375  0.00076696  1
  Cs  Cs13  1  0.33267168  0.33326289  0.33286053  1
  Cs  Cs14  1  0.33566567  0.33602435  0.66678218  1
  Cs  Cs15  1  0.33324417  0.66479936  -0.00057400  1
  Cs  Cs16  1  0.33345734  0.66913988  0.33581913  1
  Cs  Cs17  1  0.33115545  0.66839912  0.66380451  1
  Cs  Cs18  1  0.66591793  -0.00411650  -0.00030112  1
  Cs  Cs19  1  0.66622525  0.00044625  0.33202583  1
  Cs  Cs20  1  0.67130644  0.00401344  0.66955260  1
  Cs  Cs21  1  0.66433367  0.33540683  0.00147805  1
  Cs  Cs22  1  0.66744819  0.33355078  0.33353914  1
  Cs  Cs23  1  0.66605873  0.33322113  0.66546087  1
  Cs  Cs24  1  0.66894221  0.66754488  0.00246145  1
  Cs  Cs25  1  0.66712823  0.66883335  0.33170076  1
  Cs  Cs26  1  0.66503000  0.66364921  0.66512359  1
  Sn  Sn27  1  0.83291903  0.16669454  0.16634054  1
  Sn  Sn28  1  0.50073707  0.50029915  0.83409062  1
  Sn  Sn29  1  0.83313116  0.83244782  0.49962174  1
  Sn  Sn30  1  0.16655681  0.83237642  0.16638311  1
  Sn  Sn31  1  0.83269962  0.49957947  0.83267445  1
  Sn  Sn32  1  0.49988558  0.16663667  0.83333562  1
  Sn  Sn33  1  0.16735356  0.16743170  0.50040593  1
  Sn  Sn34  1  0.49982907  0.83288409  0.83327269  1
  Sn  Sn35  1  0.49899727  0.16684564  0.49983556  1
  Sn  Sn36  1  0.49921315  0.49962629  0.16630392  1
  Sn  Sn37  1  0.50114696  0.16748464  0.16697890  1
  Sn  Sn38  1  0.16763875  0.50122492  0.16761335  1
  Sn  Sn39  1  0.83400261  0.50091917  0.50062447  1
  Sn  Sn40  1  0.16594389  0.49910636  0.49918155  1
  Pb  Pb41  1  0.83587165  0.83621978  0.16830690  1
  Pb  Pb42  1  0.16691748  0.49997412  0.83319282  1
  Pb  Pb43  1  0.83341882  0.16723580  0.49883127  1
  Pb  Pb44  1  0.49999456  0.49872360  0.49963582  1
  Pb  Pb45  1  0.16896775  0.83323487  0.83615437  1
  Pb  Pb46  1  0.16711245  0.16713002  0.16810361  1
  Pb  Pb47  1  0.16479431  0.83312480  0.49863398  1
  Pb  Pb48  1  0.50235043  0.83646831  0.50213198  1
  Pb  Pb49  1  0.83114360  0.83068083  0.83141344  1
  Pb  Pb50  1  0.83118781  0.16932042  0.83617466  1
  Pb  Pb51  1  0.16926692  0.16675098  0.82972758  1
  Pb  Pb52  1  0.49856019  0.83313575  0.16509493  1
  Pb  Pb53  1  0.83341762  0.49869815  0.16681390  1
  I  I54  1  0.16727610  -0.00138228  0.16922353  1
  I  I55  1  0.17016546  0.00246203  0.49678943  1
  I  I56  1  0.16819200  0.00009922  0.83428331  1
  I  I57  1  0.16797666  0.33612829  0.16890034  1
  I  I58  1  0.16495832  0.33443630  0.49373584  1
  I  I59  1  0.16848382  0.33350805  0.83824594  1
  I  I60  1  0.17233116  0.66444322  0.17259610  1
  I  I61  1  0.16458237  0.66352438  0.49794790  1
  I  I62  1  0.17039067  0.66634032  0.82907978  1
  I  I63  1  0.50144295  0.00305176  0.16590965  1
  I  I64  1  0.49540806  0.00474294  0.49805704  1
  I  I65  1  0.49835373  0.00115118  0.83336055  1
  I  I66  1  0.49793674  0.33333960  0.16243679  1
  I  I67  1  0.50100679  0.33048670  0.50312155  1
  I  I68  1  0.50354218  0.33364998  0.83423316  1
  I  I69  1  0.49800113  0.66352574  0.16222540  1
  I  I70  1  0.49804635  0.66667045  0.50055417  1
  I  I71  1  0.50391672  0.66507532  0.83859676  1
  I  I72  1  0.82730536  0.00385797  0.16998550  1
  I  I73  1  0.83246426  -0.00138002  0.49691526  1
  I  I74  1  0.83189603  0.00013759  0.83194221  1
  I  I75  1  0.83242382  0.33097784  0.16948822  1
  I  I76  1  0.83433030  0.33613800  0.50224480  1
  I  I77  1  0.82763737  0.33713365  0.82618721  1
  I  I78  1  0.83137585  0.66650660  0.16573478  1
  I  I79  1  0.83860806  0.66470970  0.50301434  1
  I  I80  1  0.82720941  0.66270837  0.83339352  1
  I  I81  1  0.16655946  0.16693312  0.00011201  1
  I  I82  1  0.17171235  0.16826099  0.33602604  1
  I  I83  1  0.17051258  0.17312333  0.66166719  1
  I  I84  1  0.16780965  0.50261145  0.00307120  1
  I  I85  1  0.16654386  0.49912369  0.33339454  1
  I  I86  1  0.16622303  0.49576292  0.66347035  1
  I  I87  1  0.16621921  0.82759833  0.00412586  1
  I  I88  1  0.16812331  0.83221713  0.33076687  1
  I  I89  1  0.16687097  0.83348390  0.66655264  1
  I  I90  1  0.50457143  0.16780446  0.00042405  1
  I  I91  1  0.50038299  0.17204970  0.33259353  1
  I  I92  1  0.49548741  0.16794649  0.66682911  1
  I  I93  1  0.49979696  0.49527306  0.00004349  1
  I  I94  1  0.49930781  0.49443896  0.33063935  1
  I  I95  1  0.50113478  0.49801999  0.66908482  1
  I  I96  1  0.49939264  0.83709526  -0.00294549  1
  I  I97  1  0.49989396  0.83376568  0.33340033  1
  I  I98  1  0.49971300  0.83107849  0.67009321  1
  I  I99  1  0.82908191  0.16811494  0.00388160  1
  I  I100  1  0.82733749  0.16915827  0.33107266  1
  I  I101  1  0.83261911  0.16545140  0.66685094  1
  I  I102  1  0.83114457  0.49734987  -0.00207817  1
  I  I103  1  0.83427609  0.50093736  0.33592202  1
  I  I104  1  0.83228635  0.50214752  0.66591321  1
  I  I105  1  0.83371364  0.83302336  -0.00014590  1
  I  I106  1  0.83240281  0.82638359  0.33619416  1
  I  I107  1  0.83415416  0.83425310  0.66341199  1
  I  I108  1  -0.00162134  0.16781348  0.17127241  1
  I  I109  1  0.00223993  0.16844195  0.49467444  1
  I  I110  1  -0.00025684  0.16764069  0.83446290  1
  I  I111  1  0.00253535  0.50059211  0.16784573  1
  I  I112  1  0.00038517  0.49729835  0.49922752  1
  I  I113  1  -0.00263225  0.50021553  0.83245800  1
  I  I114  1  0.00354658  0.82741748  0.16849207  1
  I  I115  1  -0.00293666  0.83422144  0.49892113  1
  I  I116  1  -0.00032565  0.83244257  0.83319813  1
  I  I117  1  0.33652473  0.16797386  0.16461043  1
  I  I118  1  0.33391305  0.17244759  0.49802037  1
  I  I119  1  0.33811062  0.17079134  0.83981998  1
  I  I120  1  0.33400205  0.49717382  0.16606111  1
  I  I121  1  0.33097926  0.49685450  0.49901876  1
  I  I122  1  0.33696257  0.49843196  0.83454485  1
  I  I123  1  0.33064981  0.83374776  0.16757081  1
  I  I124  1  0.33342530  0.83198423  0.50070990  1
  I  I125  1  0.33731635  0.83088171  0.83172737  1
  I  I126  1  0.66426698  0.17242083  0.16968582  1
  I  I127  1  0.66384217  0.16717834  0.50134982  1
  I  I128  1  0.66252794  0.16585105  0.82770655  1
  I  I129  1  0.66391353  0.49645151  0.16571724  1
  I  I130  1  0.66897426  0.50089965  0.50099086  1
  I  I131  1  0.66518834  0.49907151  0.83279140  1
  I  I132  1  0.66666736  0.83193305  0.16671347  1
  I  I133  1  0.66990557  0.82717498  0.49911397  1
  I  I134  1  0.66309470  0.83642797  0.83431339  1
