# generated using pymatgen
data_Cs27Sn14Pb13I81
_symmetry_space_group_name_H-M   'P 1'
_cell_length_a   18.97354827
_cell_length_b   18.96607654
_cell_length_c   18.98671131
_cell_angle_alpha   90.00040101
_cell_angle_beta   90.00019342
_cell_angle_gamma   90.00108162
_symmetry_Int_Tables_number   1
_chemical_formula_structural   Cs27Sn14Pb13I81
_chemical_formula_sum   'Cs27 Sn14 Pb13 I81'
_cell_volume   6832.43962077
_cell_formula_units_Z   1
loop_
 _symmetry_equiv_pos_site_id
 _symmetry_equiv_pos_as_xyz
  1  'x, y, z'
loop_
 _atom_site_type_symbol
 _atom_site_label
 _atom_site_symmetry_multiplicity
 _atom_site_fract_x
 _atom_site_fract_y
 _atom_site_fract_z
 _atom_site_occupancy
  Cs  Cs0  1  0.00066717  0.00285827  0.00156937  1
  Cs  Cs1  1  -0.00166843  0.00071029  0.33272223  1
  Cs  Cs2  1  -0.00302222  0.00513488  0.66669789  1
  Cs  Cs3  1  0.00015581  0.33267839  0.00158147  1
  Cs  Cs4  1  0.00001722  0.33288148  0.33256631  1
  Cs  Cs5  1  0.00282139  0.33075491  0.66641506  1
  Cs  Cs6  1  -0.00111861  0.66647460  -0.00727202  1
  Cs  Cs7  1  0.00004307  0.66851482  0.33392950  1
  Cs  Cs8  1  0.00763441  0.66661837  0.67217271  1
  Cs  Cs9  1  0.33382519  -0.00580974  0.00363920  1
  Cs  Cs10  1  0.34066902  -0.00733607  0.33167158  1
  Cs  Cs11  1  0.33673186  -0.00489773  0.66463051  1
  Cs  Cs12  1  0.33430981  0.33237622  0.00050749  1
  Cs  Cs13  1  0.33523434  0.33312517  0.33195283  1
  Cs  Cs14  1  0.33280779  0.33394769  0.66787303  1
  Cs  Cs15  1  0.33276504  0.67448227  0.00153753  1
  Cs  Cs16  1  0.32950210  0.67138773  0.33345503  1
  Cs  Cs17  1  0.32518776  0.67051227  0.66559601  1
  Cs  Cs18  1  0.66547580  -0.00160006  -0.00004616  1
  Cs  Cs19  1  0.66545169  0.00029859  0.33404461  1
  Cs  Cs20  1  0.66726486  -0.00217579  0.66540211  1
  Cs  Cs21  1  0.66545471  0.33525750  0.00087068  1
  Cs  Cs22  1  0.66530157  0.33457185  0.33352322  1
  Cs  Cs23  1  0.66491838  0.33286234  0.66532465  1
  Cs  Cs24  1  0.66915182  0.66409614  -0.00465905  1
  Cs  Cs25  1  0.66938637  0.66250612  0.33435252  1
  Cs  Cs26  1  0.66669816  0.66831147  0.66832677  1
  Sn  Sn27  1  0.16734384  0.49932931  0.16673363  1
  Sn  Sn28  1  0.49954536  0.49944448  0.83302400  1
  Sn  Sn29  1  0.49876868  0.49970930  0.16658885  1
  Sn  Sn30  1  0.83350280  0.16616468  0.16692301  1
  Sn  Sn31  1  0.83353972  0.83318515  0.49943626  1
  Sn  Sn32  1  0.83360935  0.16702801  0.49961003  1
  Sn  Sn33  1  0.83338459  0.83390486  0.16715273  1
  Sn  Sn34  1  0.83271165  0.16722238  0.83357341  1
  Sn  Sn35  1  0.16679146  0.16680793  0.49914309  1
  Sn  Sn36  1  0.16654338  0.16730926  0.16733252  1
  Sn  Sn37  1  0.50000627  0.49975615  0.50045273  1
  Sn  Sn38  1  0.16746268  0.16705906  0.83357154  1
  Sn  Sn39  1  0.83342200  0.50002343  0.50036247  1
  Sn  Sn40  1  0.49989744  0.16709396  0.83339397  1
  Pb  Pb41  1  0.83170653  0.49741411  0.83026023  1
  Pb  Pb42  1  0.16663075  0.49798070  0.49800041  1
  Pb  Pb43  1  0.50350196  0.82966673  0.16676299  1
  Pb  Pb44  1  0.83342095  0.83583872  0.83314739  1
  Pb  Pb45  1  0.50266945  0.82976725  0.49993784  1
  Pb  Pb46  1  0.16366611  0.83685574  0.49979744  1
  Pb  Pb47  1  0.50007377  0.83306587  0.83325210  1
  Pb  Pb48  1  0.50010214  0.16802327  0.16475642  1
  Pb  Pb49  1  0.49994225  0.16825571  0.50185816  1
  Pb  Pb50  1  0.16647173  0.83691763  0.83339806  1
  Pb  Pb51  1  0.83373611  0.49981407  0.16812142  1
  Pb  Pb52  1  0.16384789  0.83368769  0.16671637  1
  Pb  Pb53  1  0.16933319  0.49786060  0.83600925  1
  I  I54  1  0.16333746  0.00389995  0.16507165  1
  I  I55  1  0.16112668  0.00536412  0.49878537  1
  I  I56  1  0.16780244  0.00586751  0.83652705  1
  I  I57  1  0.16380767  0.33163221  0.16634010  1
  I  I58  1  0.15988295  0.32969814  0.50213216  1
  I  I59  1  0.16337378  0.32930475  0.83119882  1
  I  I60  1  0.17076302  0.66379777  0.16811015  1
  I  I61  1  0.16629598  0.66659825  0.49831839  1
  I  I62  1  0.16795640  0.66631954  0.83450446  1
  I  I63  1  0.49753067  -0.00008869  0.16448827  1
  I  I64  1  0.49991575  0.00003988  0.50223088  1
  I  I65  1  0.50032796  0.00369838  0.83315705  1
  I  I66  1  0.50231463  0.33627710  0.16840889  1
  I  I67  1  0.50686006  0.33633877  0.49794858  1
  I  I68  1  0.50106982  0.33285348  0.83334063  1
  I  I69  1  0.49464104  0.66145178  0.16439657  1
  I  I70  1  0.50578496  0.66143916  0.50193345  1
  I  I71  1  0.50262262  0.66291891  0.83414771  1
  I  I72  1  0.83870261  0.00229887  0.17042973  1
  I  I73  1  0.83868908  0.00156243  0.50006732  1
  I  I74  1  0.83161684  0.00480661  0.82889176  1
  I  I75  1  0.83420331  0.33023418  0.16712713  1
  I  I76  1  0.83262465  0.33211313  0.49957905  1
  I  I77  1  0.83556150  0.32886960  0.83512888  1
  I  I78  1  0.83191155  0.66860737  0.17309451  1
  I  I79  1  0.82581846  0.66637995  0.49243522  1
  I  I80  1  0.83025799  0.66633778  0.83437210  1
  I  I81  1  0.16248380  0.17105768  0.00045466  1
  I  I82  1  0.15672948  0.17205506  0.33279660  1
  I  I83  1  0.16188364  0.16663197  0.66663115  1
  I  I84  1  0.16915828  0.49334036  0.00381524  1
  I  I85  1  0.17119107  0.49259707  0.33034685  1
  I  I86  1  0.16689545  0.49845666  0.66672216  1
  I  I87  1  0.16421646  0.83429416  0.00029719  1
  I  I88  1  0.16808480  0.83499098  0.33326006  1
  I  I89  1  0.16471755  0.83272421  0.66644661  1
  I  I90  1  0.50166311  0.17334925  -0.00334637  1
  I  I91  1  0.50054970  0.16938948  0.33331587  1
  I  I92  1  0.50077000  0.17301605  0.67000313  1
  I  I93  1  0.49666278  0.49429718  -0.00005615  1
  I  I94  1  0.50205506  0.49912488  0.33343124  1
  I  I95  1  0.50762431  0.49389399  0.66665972  1
  I  I96  1  0.50261182  0.83218901  0.00017794  1
  I  I97  1  0.49878859  0.83407105  0.33328984  1
  I  I98  1  0.50356633  0.83324213  0.66651395  1
  I  I99  1  0.83591511  0.16238104  0.00051454  1
  I  I100  1  0.83984241  0.16651322  0.33365226  1
  I  I101  1  0.83593335  0.16731353  0.66600777  1
  I  I102  1  0.83200784  0.50041896  -0.00010202  1
  I  I103  1  0.82764389  0.49484770  0.33605383  1
  I  I104  1  0.82785546  0.49972422  0.66208889  1
  I  I105  1  0.83334190  0.83790687  0.00289265  1
  I  I106  1  0.83319457  0.83904184  0.33383195  1
  I  I107  1  0.83184961  0.83499496  0.66344519  1
  I  I108  1  -0.00049060  0.16893923  0.16297749  1
  I  I109  1  -0.00159357  0.16867245  0.50412047  1
  I  I110  1  -0.00025308  0.16502070  0.83270718  1
  I  I111  1  0.00225907  0.49721596  0.16977210  1
  I  I112  1  -0.00290747  0.50005737  0.49650594  1
  I  I113  1  0.00024556  0.49957852  0.83371126  1
  I  I114  1  -0.00390449  0.83391920  0.17185380  1
  I  I115  1  -0.00451015  0.82838373  0.49522318  1
  I  I116  1  -0.00036205  0.83230753  0.83348996  1
  I  I117  1  0.33046792  0.17056346  0.16648151  1
  I  I118  1  0.33065512  0.17095687  0.50031823  1
  I  I119  1  0.33301874  0.17285976  0.83304854  1
  I  I120  1  0.33345674  0.49168593  0.16820630  1
  I  I121  1  0.33595279  0.49559099  0.50164887  1
  I  I122  1  0.33733865  0.49192759  0.82750908  1
  I  I123  1  0.33337139  0.83589258  0.16582069  1
  I  I124  1  0.33319287  0.83390309  0.50092119  1
  I  I125  1  0.33337436  0.83558308  0.83355693  1
  I  I126  1  0.66984319  0.16505556  0.16739394  1
  I  I127  1  0.67013031  0.16545963  0.49980913  1
  I  I128  1  0.66725408  0.17056975  0.83303351  1
  I  I129  1  0.66448375  0.49973698  0.16550998  1
  I  I130  1  0.66719582  0.49699311  0.49703808  1
  I  I131  1  0.66357429  0.49337138  0.83919719  1
  I  I132  1  0.67108333  0.84058280  0.17081767  1
  I  I133  1  0.67085160  0.84055642  0.49644430  1
  I  I134  1  0.66693744  0.83640383  0.83387144  1
