# generated using pymatgen
data_Cs27Sn13Pb14I81
_symmetry_space_group_name_H-M   'P 1'
_cell_length_a   18.99635853
_cell_length_b   18.99986200
_cell_length_c   18.98025957
_cell_angle_alpha   89.99847546
_cell_angle_beta   90.00068385
_cell_angle_gamma   90.00052854
_symmetry_Int_Tables_number   1
_chemical_formula_structural   Cs27Sn13Pb14I81
_chemical_formula_sum   'Cs27 Sn13 Pb14 I81'
_cell_volume   6850.51074348
_cell_formula_units_Z   1
loop_
 _symmetry_equiv_pos_site_id
 _symmetry_equiv_pos_as_xyz
  1  'x, y, z'
loop_
 _atom_site_type_symbol
 _atom_site_label
 _atom_site_symmetry_multiplicity
 _atom_site_fract_x
 _atom_site_fract_y
 _atom_site_fract_z
 _atom_site_occupancy
  Cs  Cs0  1  -0.00322932  -0.00278141  -0.00409975  1
  Cs  Cs1  1  -0.00085530  0.00125351  0.33147233  1
  Cs  Cs2  1  0.00663788  -0.00116035  0.67545425  1
  Cs  Cs3  1  -0.00055000  0.33549762  0.00213776  1
  Cs  Cs4  1  -0.00105865  0.33399384  0.33216495  1
  Cs  Cs5  1  0.00139107  0.33672943  0.66762938  1
  Cs  Cs6  1  -0.00081748  0.66412102  0.00109660  1
  Cs  Cs7  1  0.00035964  0.66417911  0.33360519  1
  Cs  Cs8  1  0.00347507  0.66284468  0.66531592  1
  Cs  Cs9  1  0.33263754  -0.00148949  -0.00627900  1
  Cs  Cs10  1  0.33376583  0.00325380  0.33412321  1
  Cs  Cs11  1  0.32438680  -0.00107310  0.67235418  1
  Cs  Cs12  1  0.33482392  0.33673552  0.00073665  1
  Cs  Cs13  1  0.33382164  0.33026498  0.33241301  1
  Cs  Cs14  1  0.33359296  0.33025749  0.66806310  1
  Cs  Cs15  1  0.33997525  0.66388702  0.00009045  1
  Cs  Cs16  1  0.33434953  0.66826156  0.33302483  1
  Cs  Cs17  1  0.33177910  0.67050238  0.66677300  1
  Cs  Cs18  1  0.66989423  -0.00781251  -0.00745177  1
  Cs  Cs19  1  0.66714106  0.00033020  0.33423020  1
  Cs  Cs20  1  0.66747091  0.00104479  0.66642671  1
  Cs  Cs21  1  0.66645166  0.33447885  -0.00234589  1
  Cs  Cs22  1  0.66748619  0.33100589  0.33384238  1
  Cs  Cs23  1  0.66617003  0.33226168  0.66629675  1
  Cs  Cs24  1  0.66058102  0.67239113  -0.00016536  1
  Cs  Cs25  1  0.66516344  0.67080011  0.33523420  1
  Cs  Cs26  1  0.66508972  0.66653835  0.66209019  1
  Sn  Sn27  1  0.49977194  0.49942503  0.49945511  1
  Sn  Sn28  1  0.16657218  0.83327551  0.16701310  1
  Sn  Sn29  1  0.83338182  0.49999799  0.83446037  1
  Sn  Sn30  1  0.50031028  0.83457900  0.49961365  1
  Sn  Sn31  1  0.16622153  0.50014240  0.16623234  1
  Sn  Sn32  1  0.50084167  0.16638117  0.16656399  1
  Sn  Sn33  1  0.16606710  0.49972443  0.83438760  1
  Sn  Sn34  1  0.83365803  0.83487820  0.49979474  1
  Sn  Sn35  1  0.50059326  0.16618952  0.49937079  1
  Sn  Sn36  1  0.83266045  0.16706315  0.16704735  1
  Sn  Sn37  1  0.83328225  0.16555404  0.49961504  1
  Sn  Sn38  1  0.83306716  0.49974060  0.16601402  1
  Sn  Sn39  1  0.16638490  0.16641871  0.16679511  1
  Pb  Pb40  1  0.83345807  0.82993515  0.82993089  1
  Pb  Pb41  1  0.83177624  0.49948950  0.49937886  1
  Pb  Pb42  1  0.16616973  0.83353109  0.49801419  1
  Pb  Pb43  1  0.49788521  0.83665548  0.16864946  1
  Pb  Pb44  1  0.16596001  0.16668586  0.49836291  1
  Pb  Pb45  1  0.83477861  0.83328893  0.16839781  1
  Pb  Pb46  1  0.50064656  0.49825987  0.16859590  1
  Pb  Pb47  1  0.16644062  0.83009615  0.83682110  1
  Pb  Pb48  1  0.83331515  0.16881772  0.83326580  1
  Pb  Pb49  1  0.50022665  0.16664245  0.83314149  1
  Pb  Pb50  1  0.50009399  0.83346370  0.82997896  1
  Pb  Pb51  1  0.50011638  0.49989845  0.83070511  1
  Pb  Pb52  1  0.16939444  0.49983000  0.49935512  1
  Pb  Pb53  1  0.16643724  0.16952165  0.83702223  1
  I  I54  1  0.16734045  0.00103178  0.17217372  1
  I  I55  1  0.17121505  0.00012217  0.49684460  1
  I  I56  1  0.16844222  -0.00013381  0.83300089  1
  I  I57  1  0.16609163  0.33344802  0.16339856  1
  I  I58  1  0.16709898  0.33340429  0.49801175  1
  I  I59  1  0.16277984  0.33715803  0.83776072  1
  I  I60  1  0.16121404  0.66526096  0.16403989  1
  I  I61  1  0.16708424  0.66654060  0.49680964  1
  I  I62  1  0.16220049  0.66251257  0.83767719  1
  I  I63  1  0.50061900  0.00465026  0.17410504  1
  I  I64  1  0.50566227  0.00089124  0.49360608  1
  I  I65  1  0.49944782  0.00004164  0.83346758  1
  I  I66  1  0.49535663  0.33031797  0.17403919  1
  I  I67  1  0.50387152  0.33199172  0.49631236  1
  I  I68  1  0.49899349  0.33354844  0.82914480  1
  I  I69  1  0.49867190  0.66686176  0.16929256  1
  I  I70  1  0.50448008  0.66715291  0.50088694  1
  I  I71  1  0.49947070  0.66639370  0.83197571  1
  I  I72  1  0.83460601  0.00321824  0.17078398  1
  I  I73  1  0.82373085  0.00123765  0.49167545  1
  I  I74  1  0.83228370  -0.00020003  0.83584026  1
  I  I75  1  0.83830826  0.33294173  0.16962567  1
  I  I76  1  0.82848748  0.33062864  0.49824648  1
  I  I77  1  0.83778239  0.33668213  0.83215357  1
  I  I78  1  0.83961426  0.66367882  0.16560151  1
  I  I79  1  0.82803610  0.66831012  0.50013936  1
  I  I80  1  0.83796275  0.66216567  0.83878506  1
  I  I81  1  0.16665911  0.16397274  0.00555046  1
  I  I82  1  0.16719951  0.17121130  0.32948776  1
  I  I83  1  0.16814820  0.16796964  0.66705947  1
  I  I84  1  0.16245475  0.49892720  0.00182708  1
  I  I85  1  0.16220704  0.49932161  0.32939365  1
  I  I86  1  0.16217256  0.50062631  0.66929998  1
  I  I87  1  0.16535844  0.83847208  0.00466300  1
  I  I88  1  0.16690783  0.82944777  0.33003759  1
  I  I89  1  0.16811131  0.83135916  0.66693951  1
  I  I90  1  0.49883896  0.16973524  0.00374896  1
  I  I91  1  0.49973240  0.16764351  0.33377593  1
  I  I92  1  0.50637536  0.16792595  0.66246261  1
  I  I93  1  0.49942937  0.49768735  0.00022427  1
  I  I94  1  0.50009972  0.50132194  0.33652837  1
  I  I95  1  0.50114647  0.49749460  0.66259215  1
  I  I96  1  0.49860584  0.83377461  0.00039663  1
  I  I97  1  0.50350371  0.83038541  0.33678496  1
  I  I98  1  0.50351546  0.83432328  0.66131081  1
  I  I99  1  0.83392576  0.16972003  0.00379330  1
  I  I100  1  0.83290933  0.16970949  0.33253102  1
  I  I101  1  0.82571601  0.16519525  0.66314002  1
  I  I102  1  0.83845192  0.49293102  0.00163888  1
  I  I103  1  0.83815683  0.49830318  0.33038118  1
  I  I104  1  0.83710248  0.50073995  0.66854471  1
  I  I105  1  0.83521421  0.83633342  0.00001031  1
  I  I106  1  0.82944189  0.83166482  0.33633349  1
  I  I107  1  0.82816050  0.83863254  0.66183201  1
  I  I108  1  -0.00053424  0.16893899  0.17193876  1
  I  I109  1  -0.00370384  0.16325764  0.49468471  1
  I  I110  1  -0.00002245  0.16521242  0.83025339  1
  I  I111  1  0.00011941  0.49549488  0.16440952  1
  I  I112  1  -0.00004598  0.50068145  0.50053148  1
  I  I113  1  -0.00006132  0.49940368  0.83702564  1
  I  I114  1  0.00267906  0.83666585  0.17064151  1
  I  I115  1  -0.00316049  0.83710242  0.49777361  1
  I  I116  1  0.00003078  0.83582267  0.82918830  1
  I  I117  1  0.33331755  0.16765321  0.17214769  1
  I  I118  1  0.33653002  0.16721977  0.49510282  1
  I  I119  1  0.33317626  0.16959548  0.83193544  1
  I  I120  1  0.33052721  0.49885994  0.16372439  1
  I  I121  1  0.33727951  0.49964928  0.49934331  1
  I  I122  1  0.33039429  0.49988421  0.83862768  1
  I  I123  1  0.33000849  0.83052498  0.16970354  1
  I  I124  1  0.33633500  0.83295888  0.49787614  1
  I  I125  1  0.33301191  0.83099696  0.83084354  1
  I  I126  1  0.66754741  0.17430772  0.17349072  1
  I  I127  1  0.66649072  0.16691611  0.49153280  1
  I  I128  1  0.66686419  0.17125818  0.83784192  1
  I  I129  1  0.66983530  0.49455940  0.16421558  1
  I  I130  1  0.66397456  0.49996576  0.49983622  1
  I  I131  1  0.66972322  0.49863885  0.83698494  1
  I  I132  1  0.66655339  0.83144722  0.16620817  1
  I  I133  1  0.66632981  0.83265300  0.49820841  1
  I  I134  1  0.66695788  0.82984257  0.83802659  1
