# generated using pymatgen
data_Cs27Sn14Pb13I81
_symmetry_space_group_name_H-M   'P 1'
_cell_length_a   18.95689369
_cell_length_b   18.96063392
_cell_length_c   18.96533642
_cell_angle_alpha   90.00084469
_cell_angle_beta   90.00166782
_cell_angle_gamma   89.99973007
_symmetry_Int_Tables_number   1
_chemical_formula_structural   Cs27Sn14Pb13I81
_chemical_formula_sum   'Cs27 Sn14 Pb13 I81'
_cell_volume   6816.80041122
_cell_formula_units_Z   1
loop_
 _symmetry_equiv_pos_site_id
 _symmetry_equiv_pos_as_xyz
  1  'x, y, z'
loop_
 _atom_site_type_symbol
 _atom_site_label
 _atom_site_symmetry_multiplicity
 _atom_site_fract_x
 _atom_site_fract_y
 _atom_site_fract_z
 _atom_site_occupancy
  Cs  Cs0  1  0.00010833  0.00092049  0.00004369  1
  Cs  Cs1  1  0.00117705  -0.00102909  0.33399272  1
  Cs  Cs2  1  -0.00171088  -0.00354134  0.66347951  1
  Cs  Cs3  1  0.00071328  0.33087498  -0.00051720  1
  Cs  Cs4  1  -0.00035547  0.33467050  0.33293051  1
  Cs  Cs5  1  0.00130332  0.34294362  0.66672634  1
  Cs  Cs6  1  -0.00123739  0.66716633  0.00065416  1
  Cs  Cs7  1  0.00187921  0.66667151  0.33242282  1
  Cs  Cs8  1  -0.00450777  0.66265852  0.66809583  1
  Cs  Cs9  1  0.33361312  0.00354336  0.00013008  1
  Cs  Cs10  1  0.33233067  -0.00082374  0.33325052  1
  Cs  Cs11  1  0.33266852  -0.00086496  0.66678406  1
  Cs  Cs12  1  0.33101488  0.32654830  -0.00291996  1
  Cs  Cs13  1  0.33292755  0.33279809  0.33339007  1
  Cs  Cs14  1  0.33269256  0.33257439  0.67020718  1
  Cs  Cs15  1  0.33564759  0.66808971  0.00010039  1
  Cs  Cs16  1  0.33360786  0.66745806  0.33440546  1
  Cs  Cs17  1  0.33346784  0.66738130  0.66571946  1
  Cs  Cs18  1  0.66681880  0.00110312  0.00109574  1
  Cs  Cs19  1  0.66534163  0.00315493  0.33466006  1
  Cs  Cs20  1  0.66921401  0.00206316  0.66368025  1
  Cs  Cs21  1  0.66782126  0.33362565  0.00005767  1
  Cs  Cs22  1  0.66742697  0.33220555  0.33558212  1
  Cs  Cs23  1  0.66618093  0.32995775  0.66323000  1
  Cs  Cs24  1  0.66557814  0.66662331  0.00032681  1
  Cs  Cs25  1  0.66372660  0.66629631  0.33095126  1
  Cs  Cs26  1  0.66784774  0.66747152  0.66924007  1
  Sn  Sn27  1  0.49947975  0.49999652  0.16638576  1
  Sn  Sn28  1  0.16608634  0.83272801  0.16631555  1
  Sn  Sn29  1  0.16721882  0.83375975  0.50034942  1
  Sn  Sn30  1  0.49937157  0.83252473  0.50086047  1
  Sn  Sn31  1  0.16657001  0.16637496  0.50015378  1
  Sn  Sn32  1  0.16705884  0.83308287  0.83332464  1
  Sn  Sn33  1  0.83360562  0.16659092  0.83335968  1
  Sn  Sn34  1  0.83386907  0.83355203  0.16678144  1
  Sn  Sn35  1  0.83344787  0.16652407  0.16610554  1
  Sn  Sn36  1  0.49991824  0.50052944  0.83340370  1
  Sn  Sn37  1  0.49977277  0.50093786  0.50020301  1
  Sn  Sn38  1  0.16706878  0.50059523  0.16632676  1
  Sn  Sn39  1  0.49933124  0.83287749  0.83258080  1
  Sn  Sn40  1  0.83346621  0.49999475  0.16653014  1
  Pb  Pb41  1  0.83039062  0.50033056  0.49766446  1
  Pb  Pb42  1  0.16417305  0.16404727  0.83072519  1
  Pb  Pb43  1  0.50244854  0.16998341  0.16671742  1
  Pb  Pb44  1  0.49961786  0.83219601  0.16662885  1
  Pb  Pb45  1  0.16474576  0.16635983  0.16805411  1
  Pb  Pb46  1  0.83300403  0.83303082  0.49744852  1
  Pb  Pb47  1  0.16867832  0.50084075  0.49823775  1
  Pb  Pb48  1  0.83291566  0.83471384  0.83550643  1
  Pb  Pb49  1  0.49758304  0.16613854  0.50009256  1
  Pb  Pb50  1  0.83617116  0.16675644  0.50002673  1
  Pb  Pb51  1  0.16882746  0.50235893  0.83598909  1
  Pb  Pb52  1  0.50186263  0.16591265  0.83323856  1
  Pb  Pb53  1  0.83091454  0.49807104  0.83551329  1
  I  I54  1  0.16228597  -0.00341325  0.16598899  1
  I  I55  1  0.17149324  -0.00249605  0.49702488  1
  I  I56  1  0.17304373  -0.00426546  0.83921727  1
  I  I57  1  0.16674715  0.33606535  0.16964539  1
  I  I58  1  0.16709072  0.33178683  0.49635358  1
  I  I59  1  0.16758955  0.33342912  0.83329990  1
  I  I60  1  0.16221504  0.66752061  0.16892750  1
  I  I61  1  0.16966370  0.67010126  0.49950638  1
  I  I62  1  0.16700710  0.67075598  0.82906376  1
  I  I63  1  0.50087437  -0.00007012  0.16700383  1
  I  I64  1  0.49865805  -0.00364073  0.50426947  1
  I  I65  1  0.49738474  -0.00379020  0.82886746  1
  I  I66  1  0.49878867  0.33872079  0.16704561  1
  I  I67  1  0.49976054  0.33641302  0.49873045  1
  I  I68  1  0.50239256  0.33634924  0.83419084  1
  I  I69  1  0.50436828  0.66380588  0.16684454  1
  I  I70  1  0.49430638  0.66722802  0.49923785  1
  I  I71  1  0.49733197  0.66705964  0.83339710  1
  I  I72  1  0.83851976  -0.00055580  0.16321226  1
  I  I73  1  0.82889941  -0.00014479  0.49635813  1
  I  I74  1  0.83171985  0.00240982  0.84091475  1
  I  I75  1  0.83195177  0.33396072  0.16319819  1
  I  I76  1  0.83345833  0.33343072  0.49730349  1
  I  I77  1  0.83217811  0.33033828  0.83961421  1
  I  I78  1  0.83385836  0.66642807  0.16792730  1
  I  I79  1  0.83796840  0.66677613  0.49874066  1
  I  I80  1  0.83424260  0.66668198  0.83495257  1
  I  I81  1  0.16711562  0.16633049  -0.00012174  1
  I  I82  1  0.16524857  0.16099372  0.33572747  1
  I  I83  1  0.16590600  0.16157563  0.66314585  1
  I  I84  1  0.16767793  0.50454994  0.00435096  1
  I  I85  1  0.16802917  0.50482696  0.32978784  1
  I  I86  1  0.16795025  0.49930452  0.66681339  1
  I  I87  1  0.16663227  0.82832922  0.00066523  1
  I  I88  1  0.16666192  0.83350349  0.33308261  1
  I  I89  1  0.17241826  0.83932031  0.66628211  1
  I  I90  1  0.49778020  0.16580979  0.00001103  1
  I  I91  1  0.50274589  0.16629193  0.33339883  1
  I  I92  1  0.50376875  0.17180705  0.66664306  1
  I  I93  1  0.50164589  0.50509672  0.00039154  1
  I  I94  1  0.50077035  0.50416616  0.33289772  1
  I  I95  1  0.49936976  0.50430701  0.66666351  1
  I  I96  1  0.49797775  0.82883371  -0.00237044  1
  I  I97  1  0.49752264  0.82907530  0.33569894  1
  I  I98  1  0.49243647  0.82554450  0.66655015  1
  I  I99  1  0.83344010  0.16689839  0.00169267  1
  I  I100  1  0.83390413  0.16748108  0.33008640  1
  I  I101  1  0.83231697  0.16451326  0.66913857  1
  I  I102  1  0.83088868  0.50258066  0.00415444  1
  I  I103  1  0.83149611  0.49752632  0.32873798  1
  I  I104  1  0.83267291  0.49730704  0.66693668  1
  I  I105  1  0.83632986  0.83087962  0.00385977  1
  I  I106  1  0.83661957  0.83489829  0.32889019  1
  I  I107  1  0.83522333  0.83662575  0.66685470  1
  I  I108  1  -0.00340137  0.17078200  0.16408870  1
  I  I109  1  0.00372652  0.15868779  0.49819668  1
  I  I110  1  -0.00330332  0.16502321  0.83984148  1
  I  I111  1  0.00000857  0.50099836  0.16753622  1
  I  I112  1  0.00030870  0.49951373  0.49769337  1
  I  I113  1  0.00008506  0.50038611  0.83461139  1
  I  I114  1  0.00095346  0.82898346  0.16681503  1
  I  I115  1  0.00336140  0.83803588  0.50088289  1
  I  I116  1  0.00272815  0.83624107  0.83197420  1
  I  I117  1  0.33299995  0.16696279  0.16789863  1
  I  I118  1  0.32994925  0.16430684  0.49865319  1
  I  I119  1  0.33302174  0.16852263  0.83232149  1
  I  I120  1  0.33346801  0.50677728  0.16800774  1
  I  I121  1  0.33690505  0.50172986  0.49632343  1
  I  I122  1  0.33718803  0.50091294  0.83567109  1
  I  I123  1  0.33034030  0.82831218  0.16747790  1
  I  I124  1  0.33299412  0.83324389  0.49774717  1
  I  I125  1  0.33345896  0.82978017  0.83483846  1
  I  I126  1  0.67095688  0.16428171  0.16424578  1
  I  I127  1  0.66676059  0.16670534  0.49907463  1
  I  I128  1  0.66968198  0.16529736  0.83865955  1
  I  I129  1  0.66650002  0.50033509  0.16682538  1
  I  I130  1  0.66197115  0.50511657  0.49761660  1
  I  I131  1  0.66262992  0.50668411  0.83585396  1
  I  I132  1  0.66887849  0.83222396  0.16628386  1
  I  I133  1  0.66310056  0.82909286  0.50299986  1
  I  I134  1  0.66348594  0.83045082  0.83081227  1
