# generated using pymatgen
data_Cs27Sn13Pb14I81
_symmetry_space_group_name_H-M   'P 1'
_cell_length_a   18.97020311
_cell_length_b   18.97411687
_cell_length_c   18.99059597
_cell_angle_alpha   89.99991479
_cell_angle_beta   89.99866607
_cell_angle_gamma   90.00022020
_symmetry_Int_Tables_number   1
_chemical_formula_structural   Cs27Sn13Pb14I81
_chemical_formula_sum   'Cs27 Sn13 Pb14 I81'
_cell_volume   6835.52925029
_cell_formula_units_Z   1
loop_
 _symmetry_equiv_pos_site_id
 _symmetry_equiv_pos_as_xyz
  1  'x, y, z'
loop_
 _atom_site_type_symbol
 _atom_site_label
 _atom_site_symmetry_multiplicity
 _atom_site_fract_x
 _atom_site_fract_y
 _atom_site_fract_z
 _atom_site_occupancy
  Cs  Cs0  1  -0.00112581  -0.00092802  0.00448094  1
  Cs  Cs1  1  0.00373061  0.00207112  0.33366729  1
  Cs  Cs2  1  -0.00059451  -0.00229849  0.66431601  1
  Cs  Cs3  1  -0.00505998  0.33275245  0.00174801  1
  Cs  Cs4  1  0.00245978  0.33207533  0.33001237  1
  Cs  Cs5  1  0.00039655  0.33597477  0.66729431  1
  Cs  Cs6  1  0.00158755  0.66755929  -0.00063346  1
  Cs  Cs7  1  -0.00183163  0.66504431  0.33342195  1
  Cs  Cs8  1  -0.00002754  0.66629396  0.66705132  1
  Cs  Cs9  1  0.33361483  -0.00074673  -0.00041549  1
  Cs  Cs10  1  0.32829627  -0.00318600  0.33300733  1
  Cs  Cs11  1  0.33266108  0.00119482  0.66654807  1
  Cs  Cs12  1  0.33413055  0.33421046  -0.00274470  1
  Cs  Cs13  1  0.33119065  0.33252059  0.33278541  1
  Cs  Cs14  1  0.33318243  0.33268880  0.66846817  1
  Cs  Cs15  1  0.33177330  0.66641911  -0.00028762  1
  Cs  Cs16  1  0.34154635  0.67027322  0.33189195  1
  Cs  Cs17  1  0.33213727  0.66694541  0.66758469  1
  Cs  Cs18  1  0.66750240  0.00116657  -0.00094865  1
  Cs  Cs19  1  0.66660210  -0.00183267  0.33578137  1
  Cs  Cs20  1  0.66694430  0.00057193  0.66674973  1
  Cs  Cs21  1  0.67136148  0.33165721  0.00070549  1
  Cs  Cs22  1  0.66624880  0.33902616  0.33318865  1
  Cs  Cs23  1  0.66770787  0.33205067  0.66684995  1
  Cs  Cs24  1  0.66676803  0.66744411  0.00201740  1
  Cs  Cs25  1  0.66048970  0.66238527  0.33310655  1
  Cs  Cs26  1  0.66799319  0.66665575  0.66436261  1
  Sn  Sn27  1  0.50048278  0.16658206  0.49975295  1
  Sn  Sn28  1  0.49959655  0.16690305  0.83341069  1
  Sn  Sn29  1  0.16702783  0.50013847  0.16635997  1
  Sn  Sn30  1  0.83304047  0.83332182  0.16709173  1
  Sn  Sn31  1  0.83277070  0.16637373  0.50017870  1
  Sn  Sn32  1  0.16727085  0.49875480  0.83347102  1
  Sn  Sn33  1  0.83309332  0.83387451  0.49965883  1
  Sn  Sn34  1  0.16672806  0.16722203  0.83334167  1
  Sn  Sn35  1  0.50088915  0.83342754  0.83312350  1
  Sn  Sn36  1  0.83256621  0.83344653  0.83335790  1
  Sn  Sn37  1  0.16715395  0.50026365  0.49999779  1
  Sn  Sn38  1  0.49991891  0.16652797  0.16679112  1
  Sn  Sn39  1  0.49984272  0.49970569  0.83319607  1
  Pb  Pb40  1  0.16873595  0.16837787  0.16386275  1
  Pb  Pb41  1  0.49781672  0.49755335  0.50230231  1
  Pb  Pb42  1  0.16479584  0.83105947  0.16675558  1
  Pb  Pb43  1  0.83523772  0.50217574  0.16662375  1
  Pb  Pb44  1  0.16670186  0.16822470  0.50203160  1
  Pb  Pb45  1  0.83109533  0.16482373  0.16957324  1
  Pb  Pb46  1  0.16684977  0.83348417  0.83329016  1
  Pb  Pb47  1  0.83510460  0.49967797  0.50003004  1
  Pb  Pb48  1  0.50184263  0.83546821  0.16437926  1
  Pb  Pb49  1  0.49810860  0.49785335  0.16413071  1
  Pb  Pb50  1  0.16447194  0.83075392  0.49994271  1
  Pb  Pb51  1  0.83328602  0.50243859  0.83337182  1
  Pb  Pb52  1  0.50181806  0.83544456  0.50220972  1
  Pb  Pb53  1  0.83350833  0.16463404  0.83173619  1
  I  I54  1  0.16638258  0.00027797  0.16472943  1
  I  I55  1  0.16746209  0.00030336  0.50249874  1
  I  I56  1  0.17073525  0.00282614  0.83213445  1
  I  I57  1  0.16646779  0.33642894  0.16812003  1
  I  I58  1  0.16459366  0.33618782  0.50006924  1
  I  I59  1  0.17503287  0.33409328  0.83249519  1
  I  I60  1  0.16599214  0.66278230  0.16177802  1
  I  I61  1  0.16428658  0.66256867  0.50523648  1
  I  I62  1  0.16926207  0.66336604  0.83338254  1
  I  I63  1  0.50031246  0.00343552  0.16347565  1
  I  I64  1  0.50096605  0.00376215  0.50355374  1
  I  I65  1  0.50018788  0.00105587  0.83318746  1
  I  I66  1  0.50003607  0.32989362  0.16434464  1
  I  I67  1  0.50672003  0.32940692  0.50310964  1
  I  I68  1  0.49368635  0.33246826  0.83262065  1
  I  I69  1  0.50012793  0.66663987  0.16508086  1
  I  I70  1  0.50070642  0.66653945  0.50163472  1
  I  I71  1  0.49930529  0.66656349  0.83348302  1
  I  I72  1  0.83319343  -0.00316287  0.16258503  1
  I  I73  1  0.82942401  -0.00022654  0.50168094  1
  I  I74  1  0.82952190  -0.00341480  0.83435418  1
  I  I75  1  0.83359763  0.33303529  0.16783573  1
  I  I76  1  0.82986162  0.33017062  0.50179188  1
  I  I77  1  0.83168806  0.33315282  0.83118665  1
  I  I78  1  0.83356305  0.67052372  0.16786185  1
  I  I79  1  0.83698502  0.66981505  0.50153589  1
  I  I80  1  0.83033901  0.67075123  0.83034914  1
  I  I81  1  0.17154796  0.17141558  -0.00418884  1
  I  I82  1  0.16728903  0.16928139  0.33334583  1
  I  I83  1  0.17215239  0.17232081  0.66996374  1
  I  I84  1  0.17090477  0.49714365  -0.00159079  1
  I  I85  1  0.16253798  0.49988072  0.33334510  1
  I  I86  1  0.16956572  0.49620545  0.66824326  1
  I  I87  1  0.16327987  0.83135940  -0.00034667  1
  I  I88  1  0.16462644  0.83258202  0.33339215  1
  I  I89  1  0.16362268  0.83064127  0.66693572  1
  I  I90  1  0.49483556  0.16626308  -0.00186200  1
  I  I91  1  0.50573629  0.16714373  0.33399650  1
  I  I92  1  0.50016307  0.16653526  0.66788395  1
  I  I93  1  0.49416554  0.49891434  -0.00412520  1
  I  I94  1  0.49818189  0.49875583  0.33335178  1
  I  I95  1  0.49444113  0.49851035  0.67054130  1
  I  I96  1  0.50533390  0.83541211  -0.00398561  1
  I  I97  1  0.50159120  0.83435674  0.33339721  1
  I  I98  1  0.50509158  0.83505601  0.67057249  1
  I  I99  1  0.83310289  0.16478791  -0.00001398  1
  I  I100  1  0.82979228  0.16115257  0.33738633  1
  I  I101  1  0.82852804  0.16093630  0.66401363  1
  I  I102  1  0.83585183  0.50151160  -0.00024151  1
  I  I103  1  0.83596466  0.50217111  0.33344019  1
  I  I104  1  0.83658698  0.50296568  0.66682286  1
  I  I105  1  0.82958396  0.83184769  -0.00078966  1
  I  I106  1  0.83659173  0.83813941  0.33403131  1
  I  I107  1  0.82979922  0.83700554  0.66677716  1
  I  I108  1  -0.00000199  0.16670464  0.16644328  1
  I  I109  1  -0.00251790  0.16323719  0.50261359  1
  I  I110  1  0.00254724  0.17100689  0.83075444  1
  I  I111  1  0.00362798  0.49942652  0.16286409  1
  I  I112  1  0.00326439  0.49879549  0.50442884  1
  I  I113  1  0.00355292  0.49671690  0.83307548  1
  I  I114  1  -0.00373660  0.83375901  0.16262841  1
  I  I115  1  -0.00423779  0.84008373  0.50406884  1
  I  I116  1  -0.00294517  0.83300432  0.83267917  1
  I  I117  1  0.33679753  0.16650862  0.17030787  1
  I  I118  1  0.33625349  0.16964095  0.50072752  1
  I  I119  1  0.33500057  0.16559559  0.83095862  1
  I  I120  1  0.33006342  0.49969658  0.16757430  1
  I  I121  1  0.32987765  0.49747095  0.49980732  1
  I  I122  1  0.33302915  0.50074224  0.83302627  1
  I  I123  1  0.33374424  0.83328361  0.16465872  1
  I  I124  1  0.33364911  0.83418370  0.50198508  1
  I  I125  1  0.33649869  0.83383821  0.83357874  1
  I  I126  1  0.66321307  0.16675623  0.15884647  1
  I  I127  1  0.66606815  0.16250839  0.50374105  1
  I  I128  1  0.66329261  0.16888564  0.83439954  1
  I  I129  1  0.66622724  0.50004887  0.16531858  1
  I  I130  1  0.66631173  0.50139635  0.50174559  1
  I  I131  1  0.66333271  0.49660739  0.83300298  1
  I  I132  1  0.66994939  0.83352093  0.16788756  1
  I  I133  1  0.67019517  0.83433418  0.49940878  1
  I  I134  1  0.66619673  0.83420625  0.83307539  1
