# generated using pymatgen
data_Cs27Sn13Pb14I81
_symmetry_space_group_name_H-M   'P 1'
_cell_length_a   18.97540456
_cell_length_b   18.98413417
_cell_length_c   18.97001037
_cell_angle_alpha   90.00127422
_cell_angle_beta   89.99785505
_cell_angle_gamma   90.00070671
_symmetry_Int_Tables_number   1
_chemical_formula_structural   Cs27Sn13Pb14I81
_chemical_formula_sum   'Cs27 Sn13 Pb14 I81'
_cell_volume   6833.59767663
_cell_formula_units_Z   1
loop_
 _symmetry_equiv_pos_site_id
 _symmetry_equiv_pos_as_xyz
  1  'x, y, z'
loop_
 _atom_site_type_symbol
 _atom_site_label
 _atom_site_symmetry_multiplicity
 _atom_site_fract_x
 _atom_site_fract_y
 _atom_site_fract_z
 _atom_site_occupancy
  Cs  Cs0  1  0.00214654  -0.00121307  -0.00132967  1
  Cs  Cs1  1  -0.00089873  0.00320313  0.33789251  1
  Cs  Cs2  1  -0.00263283  0.00120239  0.66351528  1
  Cs  Cs3  1  -0.00119839  0.33443114  -0.00164032  1
  Cs  Cs4  1  0.00146124  0.33314835  0.33428030  1
  Cs  Cs5  1  0.00122019  0.33200304  0.66725437  1
  Cs  Cs6  1  0.00198568  0.66792876  -0.00128536  1
  Cs  Cs7  1  0.00014246  0.66494408  0.33184029  1
  Cs  Cs8  1  -0.00077618  0.66701470  0.66805307  1
  Cs  Cs9  1  0.33439762  0.00031884  -0.00154175  1
  Cs  Cs10  1  0.33380025  0.00135626  0.33352798  1
  Cs  Cs11  1  0.33457996  -0.00144489  0.66736626  1
  Cs  Cs12  1  0.33254195  0.32730542  0.00150889  1
  Cs  Cs13  1  0.33199270  0.33129035  0.33277557  1
  Cs  Cs14  1  0.33346459  0.33554920  0.66621337  1
  Cs  Cs15  1  0.32771506  0.67329033  0.00163378  1
  Cs  Cs16  1  0.33479715  0.66643377  0.33502400  1
  Cs  Cs17  1  0.33467515  0.66555798  0.66440769  1
  Cs  Cs18  1  0.66292283  0.00289659  0.00158784  1
  Cs  Cs19  1  0.66751451  -0.00195425  0.33384729  1
  Cs  Cs20  1  0.66803872  -0.00314667  0.66472319  1
  Cs  Cs21  1  0.66755091  0.33151789  -0.00070899  1
  Cs  Cs22  1  0.66713972  0.33594008  0.33210549  1
  Cs  Cs23  1  0.66279161  0.33853789  0.66913146  1
  Cs  Cs24  1  0.66873635  0.66557227  -0.00041321  1
  Cs  Cs25  1  0.66485226  0.66706089  0.33299403  1
  Cs  Cs26  1  0.66744334  0.66410806  0.67393911  1
  Sn  Sn27  1  0.83282137  0.83321866  0.16696103  1
  Sn  Sn28  1  0.83389057  0.16666860  0.83378582  1
  Sn  Sn29  1  0.16686751  0.49934764  0.83275652  1
  Sn  Sn30  1  0.49955411  0.83393818  0.49943082  1
  Sn  Sn31  1  0.83360423  0.16667422  0.16621777  1
  Sn  Sn32  1  0.50079895  0.83239704  0.16753121  1
  Sn  Sn33  1  0.16595170  0.16733342  0.83302054  1
  Sn  Sn34  1  0.50026497  0.16600787  0.49998117  1
  Sn  Sn35  1  0.50032891  0.50065447  0.16655842  1
  Sn  Sn36  1  0.16574093  0.50074174  0.50059383  1
  Sn  Sn37  1  0.16697781  0.83264766  0.49971188  1
  Sn  Sn38  1  0.83266822  0.50022181  0.16734103  1
  Sn  Sn39  1  0.83392232  0.50008309  0.49960156  1
  Pb  Pb40  1  0.16678717  0.83356386  0.16945711  1
  Pb  Pb41  1  0.16668590  0.49997597  0.16677951  1
  Pb  Pb42  1  0.16383689  0.16649164  0.16423419  1
  Pb  Pb43  1  0.16850399  0.16695489  0.50201313  1
  Pb  Pb44  1  0.50011824  0.83308655  0.83362223  1
  Pb  Pb45  1  0.83506693  0.49833019  0.83384288  1
  Pb  Pb46  1  0.49661914  0.50013847  0.83733725  1
  Pb  Pb47  1  0.49985189  0.50071054  0.49850545  1
  Pb  Pb48  1  0.83116686  0.16923888  0.50021122  1
  Pb  Pb49  1  0.83327083  0.83621695  0.83644011  1
  Pb  Pb50  1  0.50206950  0.16642956  0.16848313  1
  Pb  Pb51  1  0.83286022  0.83075489  0.49824873  1
  Pb  Pb52  1  0.50031916  0.16667194  0.83074977  1
  Pb  Pb53  1  0.16656899  0.83349803  0.83029303  1
  I  I54  1  0.16690732  -0.00003100  0.16653288  1
  I  I55  1  0.16914228  -0.00234470  0.50014239  1
  I  I56  1  0.16264858  0.00296896  0.83332478  1
  I  I57  1  0.16836018  0.33344486  0.17147476  1
  I  I58  1  0.16470132  0.33623434  0.50158493  1
  I  I59  1  0.16264260  0.33366629  0.82766703  1
  I  I60  1  0.16245284  0.66660598  0.16173137  1
  I  I61  1  0.16897390  0.66573639  0.50474739  1
  I  I62  1  0.16697713  0.66382059  0.83208062  1
  I  I63  1  0.50429630  -0.00292357  0.16935470  1
  I  I64  1  0.49494478  -0.00150170  0.49466905  1
  I  I65  1  0.49724284  0.00013047  0.83733588  1
  I  I66  1  0.50383616  0.33568380  0.16888271  1
  I  I67  1  0.50050193  0.33208819  0.49869653  1
  I  I68  1  0.50135154  0.33342935  0.83185398  1
  I  I69  1  0.50805590  0.66721999  0.17324310  1
  I  I70  1  0.49765119  0.66935023  0.49602468  1
  I  I71  1  0.49886204  0.66638097  0.82808108  1
  I  I72  1  0.82922428  -0.00013440  0.16199245  1
  I  I73  1  0.83564313  -0.00003228  0.49908820  1
  I  I74  1  0.84008583  0.00435284  0.83656706  1
  I  I75  1  0.82955518  0.33408127  0.16647175  1
  I  I76  1  0.83749757  0.33689454  0.49415937  1
  I  I77  1  0.83549322  0.33052460  0.83872652  1
  I  I78  1  0.82905973  0.66604135  0.17242940  1
  I  I79  1  0.83361270  0.66291974  0.49434086  1
  I  I80  1  0.83472879  0.66645056  0.83357949  1
  I  I81  1  0.16671875  0.17346186  -0.00390297  1
  I  I82  1  0.16634199  0.16739545  0.33377295  1
  I  I83  1  0.15971749  0.16817280  0.66975050  1
  I  I84  1  0.16667617  0.49506278  -0.00258770  1
  I  I85  1  0.16531797  0.50424003  0.33632669  1
  I  I86  1  0.16121248  0.49981980  0.66535664  1
  I  I87  1  0.16722654  0.83271113  0.00001715  1
  I  I88  1  0.16832255  0.82648094  0.33728859  1
  I  I89  1  0.17289548  0.83145211  0.66236512  1
  I  I90  1  0.49811019  0.16644307  0.00018906  1
  I  I91  1  0.50069362  0.16563780  0.33621056  1
  I  I92  1  0.50166514  0.16127950  0.66287218  1
  I  I93  1  0.50715848  0.50434892  0.00521602  1
  I  I94  1  0.50051998  0.50103282  0.33056813  1
  I  I95  1  0.50292543  0.49995470  0.66659906  1
  I  I96  1  0.50427881  0.82954846  0.00410411  1
  I  I97  1  0.49993497  0.83325408  0.33318266  1
  I  I98  1  0.49520530  0.83765586  0.66298745  1
  I  I99  1  0.83647820  0.16896379  0.00098392  1
  I  I100  1  0.83045882  0.16569833  0.33059205  1
  I  I101  1  0.83674906  0.16895855  0.66908494  1
  I  I102  1  0.83090139  0.50114768  0.00334184  1
  I  I103  1  0.83566122  0.49757495  0.33230315  1
  I  I104  1  0.83514440  0.49816789  0.66426138  1
  I  I105  1  0.82803596  0.82736328  0.00495924  1
  I  I106  1  0.83219416  0.83779577  0.32992628  1
  I  I107  1  0.83308089  0.83336867  0.66638415  1
  I  I108  1  -0.00471262  0.16773868  0.16746223  1
  I  I109  1  -0.00020608  0.16463446  0.49833916  1
  I  I110  1  -0.00007764  0.17115933  0.83725179  1
  I  I111  1  -0.00328739  0.50023158  0.16791415  1
  I  I112  1  0.00044640  0.50404731  0.49732926  1
  I  I113  1  0.00299428  0.49765621  0.83332133  1
  I  I114  1  -0.00325306  0.83189192  0.16699799  1
  I  I115  1  0.00218100  0.83085376  0.49901303  1
  I  I116  1  -0.00001067  0.83178499  0.83418236  1
  I  I117  1  0.33363802  0.16727288  0.16586565  1
  I  I118  1  0.33623151  0.16729345  0.50059541  1
  I  I119  1  0.33046803  0.17086458  0.83094425  1
  I  I120  1  0.33613595  0.50554284  0.16738228  1
  I  I121  1  0.33077239  0.50080197  0.50231353  1
  I  I122  1  0.32883547  0.49338135  0.82606430  1
  I  I123  1  0.33670484  0.82733137  0.16863016  1
  I  I124  1  0.33386519  0.83151895  0.49479167  1
  I  I125  1  0.33310038  0.83594864  0.83868779  1
  I  I126  1  0.67024681  0.16759498  0.16089266  1
  I  I127  1  0.66369836  0.16135048  0.50035604  1
  I  I128  1  0.66971861  0.16668401  0.83797616  1
  I  I129  1  0.66809410  0.50036353  0.17309366  1
  I  I130  1  0.66892241  0.49847816  0.49640530  1
  I  I131  1  0.66674763  0.49818815  0.82988233  1
  I  I132  1  0.66649760  0.83272355  0.17301441  1
  I  I133  1  0.66380075  0.83692899  0.49660027  1
  I  I134  1  0.66685104  0.83483590  0.82734494  1
