# generated using pymatgen
data_Cs27Sn14Pb13I81
_symmetry_space_group_name_H-M   'P 1'
_cell_length_a   18.97603894
_cell_length_b   18.98014511
_cell_length_c   18.97116710
_cell_angle_alpha   90.00019176
_cell_angle_beta   90.00101362
_cell_angle_gamma   90.00027408
_symmetry_Int_Tables_number   1
_chemical_formula_structural   Cs27Sn14Pb13I81
_chemical_formula_sum   'Cs27 Sn14 Pb13 I81'
_cell_volume   6832.80679272
_cell_formula_units_Z   1
loop_
 _symmetry_equiv_pos_site_id
 _symmetry_equiv_pos_as_xyz
  1  'x, y, z'
loop_
 _atom_site_type_symbol
 _atom_site_label
 _atom_site_symmetry_multiplicity
 _atom_site_fract_x
 _atom_site_fract_y
 _atom_site_fract_z
 _atom_site_occupancy
  Cs  Cs0  1  0.00385232  0.00169162  -0.00230913  1
  Cs  Cs1  1  -0.00722147  -0.00074784  0.34374442  1
  Cs  Cs2  1  -0.00228894  0.00998396  0.66074731  1
  Cs  Cs3  1  -0.00029245  0.33193440  0.00061202  1
  Cs  Cs4  1  -0.00112594  0.33268647  0.33459580  1
  Cs  Cs5  1  0.00026247  0.32642791  0.66420467  1
  Cs  Cs6  1  0.00168048  0.66621857  -0.00030349  1
  Cs  Cs7  1  -0.00014847  0.66788584  0.33392881  1
  Cs  Cs8  1  -0.00024562  0.66595867  0.66809383  1
  Cs  Cs9  1  0.33191731  -0.00013031  0.00171437  1
  Cs  Cs10  1  0.33630815  -0.00496204  0.33011763  1
  Cs  Cs11  1  0.33348623  0.00096297  0.66600947  1
  Cs  Cs12  1  0.33293642  0.33387190  0.00024372  1
  Cs  Cs13  1  0.33304018  0.33470391  0.33291669  1
  Cs  Cs14  1  0.33576024  0.33386582  0.66571120  1
  Cs  Cs15  1  0.33114212  0.66573590  -0.00181978  1
  Cs  Cs16  1  0.33172417  0.66720734  0.33550220  1
  Cs  Cs17  1  0.33419096  0.66585836  0.66762701  1
  Cs  Cs18  1  0.66655498  0.00232917  0.00596299  1
  Cs  Cs19  1  0.67221452  -0.00732181  0.32782260  1
  Cs  Cs20  1  0.66792363  0.00093493  0.66518129  1
  Cs  Cs21  1  0.66709449  0.33354359  0.00224804  1
  Cs  Cs22  1  0.66636634  0.33337455  0.33145951  1
  Cs  Cs23  1  0.66364584  0.33556149  0.66703492  1
  Cs  Cs24  1  0.66868383  0.66518881  -0.00322676  1
  Cs  Cs25  1  0.66995778  0.67196366  0.33236564  1
  Cs  Cs26  1  0.66544526  0.66465408  0.66917449  1
  Sn  Sn27  1  0.49987368  0.49998165  0.83348876  1
  Sn  Sn28  1  0.16641346  0.50014515  0.83376218  1
  Sn  Sn29  1  0.83387541  0.83301952  0.83345158  1
  Sn  Sn30  1  0.16617086  0.83289271  0.83316126  1
  Sn  Sn31  1  0.50004894  0.83365782  0.83350644  1
  Sn  Sn32  1  0.83242429  0.50007333  0.50101628  1
  Sn  Sn33  1  0.83373407  0.50034164  0.83241672  1
  Sn  Sn34  1  0.16645428  0.83320640  0.16608028  1
  Sn  Sn35  1  0.49998605  0.16702838  0.49982398  1
  Sn  Sn36  1  0.16749481  0.50008436  0.16586872  1
  Sn  Sn37  1  0.50092558  0.49950274  0.49970021  1
  Sn  Sn38  1  0.49936977  0.50038341  0.16670237  1
  Sn  Sn39  1  0.16651669  0.16655184  0.16708020  1
  Sn  Sn40  1  0.49988793  0.16671105  0.83292161  1
  Pb  Pb41  1  0.83645724  0.16665076  0.16657481  1
  Pb  Pb42  1  0.16670516  0.83329193  0.50109152  1
  Pb  Pb43  1  0.82972107  0.16956728  0.50002317  1
  Pb  Pb44  1  0.83317791  0.83043064  0.50321557  1
  Pb  Pb45  1  0.16896635  0.16681272  0.83439979  1
  Pb  Pb46  1  0.16995553  0.16673707  0.49684655  1
  Pb  Pb47  1  0.50004948  0.83298528  0.50222268  1
  Pb  Pb48  1  0.83660223  0.83309360  0.16351213  1
  Pb  Pb49  1  0.16677590  0.50000168  0.50042844  1
  Pb  Pb50  1  0.83037343  0.16701993  0.83354480  1
  Pb  Pb51  1  0.49865182  0.16851585  0.16703899  1
  Pb  Pb52  1  0.49814605  0.83035823  0.16398363  1
  Pb  Pb53  1  0.83369621  0.50002747  0.16637293  1
  I  I54  1  0.16758379  -0.00078474  0.15962446  1
  I  I55  1  0.16842429  0.00011971  0.50096425  1
  I  I56  1  0.16781463  -0.00292622  0.83846148  1
  I  I57  1  0.17133201  0.33502762  0.16232183  1
  I  I58  1  0.16443062  0.33363403  0.50034495  1
  I  I59  1  0.16707657  0.33667244  0.83745488  1
  I  I60  1  0.17079707  0.66572571  0.16123467  1
  I  I61  1  0.16938188  0.66628556  0.49545120  1
  I  I62  1  0.17099186  0.66571358  0.84076712  1
  I  I63  1  0.49717618  -0.00025885  0.16627245  1
  I  I64  1  0.49647031  0.00280295  0.50614758  1
  I  I65  1  0.49853259  -0.00028741  0.82810588  1
  I  I66  1  0.49399536  0.33690613  0.16159935  1
  I  I67  1  0.50256432  0.33518902  0.50596107  1
  I  I68  1  0.49937304  0.33519796  0.83268609  1
  I  I69  1  0.49469943  0.66210340  0.16745139  1
  I  I70  1  0.50271177  0.66286581  0.50112049  1
  I  I71  1  0.49962412  0.66530823  0.83358474  1
  I  I72  1  0.83236316  -0.00035920  0.16453920  1
  I  I73  1  0.83365040  0.00000880  0.50049862  1
  I  I74  1  0.83440762  -0.00310992  0.83560066  1
  I  I75  1  0.83571848  0.33392156  0.16373294  1
  I  I76  1  0.83288783  0.33746335  0.50786680  1
  I  I77  1  0.83389628  0.33714697  0.83008791  1
  I  I78  1  0.83423687  0.66637939  0.16961382  1
  I  I79  1  0.82599132  0.66254385  0.50130917  1
  I  I80  1  0.82931908  0.66534823  0.83011926  1
  I  I81  1  0.17085081  0.16772754  0.00240374  1
  I  I82  1  0.16914634  0.16984224  0.32880105  1
  I  I83  1  0.16556184  0.16658234  0.66654240  1
  I  I84  1  0.17020393  0.50068262  -0.00069213  1
  I  I85  1  0.17026704  0.50067078  0.33006688  1
  I  I86  1  0.16970673  0.50580312  0.67040194  1
  I  I87  1  0.16740654  0.83160865  -0.00128323  1
  I  I88  1  0.16882435  0.83088678  0.33006521  1
  I  I89  1  0.16828636  0.82585118  0.67148102  1
  I  I90  1  0.49868359  0.16785677  -0.00277380  1
  I  I91  1  0.49678361  0.17501536  0.33591576  1
  I  I92  1  0.49889639  0.17251352  0.66778965  1
  I  I93  1  0.49921550  0.49987644  -0.00159603  1
  I  I94  1  0.49891859  0.49350878  0.33356053  1
  I  I95  1  0.50009770  0.49978995  0.66829211  1
  I  I96  1  0.50173179  0.83389916  -0.00459105  1
  I  I97  1  0.49708744  0.83337009  0.33292283  1
  I  I98  1  0.49666567  0.82779339  0.67118438  1
  I  I99  1  0.82900544  0.17014301  -0.00037633  1
  I  I100  1  0.83198507  0.16928818  0.33357305  1
  I  I101  1  0.83813744  0.16389783  0.66685472  1
  I  I102  1  0.83064708  0.50389872  -0.00363418  1
  I  I103  1  0.82993174  0.49739970  0.33603797  1
  I  I104  1  0.82924308  0.50440111  0.66831256  1
  I  I105  1  0.83009194  0.82430509  -0.00456186  1
  I  I106  1  0.83500179  0.83301305  0.33335745  1
  I  I107  1  0.83526109  0.83064015  0.67140859  1
  I  I108  1  0.00492685  0.17186016  0.16300604  1
  I  I109  1  -0.00014266  0.16723583  0.49850000  1
  I  I110  1  0.00014912  0.16704081  0.83576097  1
  I  I111  1  0.00370503  0.50030935  0.16312126  1
  I  I112  1  -0.00267507  0.50208529  0.50329481  1
  I  I113  1  0.00053710  0.50752906  0.83427999  1
  I  I114  1  0.00480002  0.82834487  0.16039042  1
  I  I115  1  -0.00014988  0.83102722  0.50069149  1
  I  I116  1  0.00078512  0.82307529  0.83887268  1
  I  I117  1  0.33060149  0.16596900  0.16532762  1
  I  I118  1  0.33741483  0.17569935  0.50611513  1
  I  I119  1  0.33704264  0.16841206  0.83070851  1
  I  I120  1  0.33282363  0.49961058  0.16300571  1
  I  I121  1  0.33664552  0.49648408  0.50263721  1
  I  I122  1  0.33410472  0.50212314  0.83389000  1
  I  I123  1  0.33001115  0.83491841  0.16024972  1
  I  I124  1  0.33356703  0.83066255  0.50277384  1
  I  I125  1  0.33321546  0.82961611  0.83682447  1
  I  I126  1  0.66620656  0.16924038  0.16619412  1
  I  I127  1  0.66209547  0.17021347  0.50612766  1
  I  I128  1  0.66211021  0.16820699  0.82996263  1
  I  I129  1  0.66369667  0.49805264  0.16326671  1
  I  I130  1  0.66528794  0.49610867  0.50467966  1
  I  I131  1  0.66543950  0.50250927  0.83292160  1
  I  I132  1  0.66666577  0.83268533  0.16604278  1
  I  I133  1  0.66653901  0.83536955  0.50049899  1
  I  I134  1  0.66618800  0.82825266  0.83087546  1
