# generated using pymatgen
data_Cs27Sn13Pb14I81
_symmetry_space_group_name_H-M   'P 1'
_cell_length_a   18.97178239
_cell_length_b   18.98460896
_cell_length_c   18.97975931
_cell_angle_alpha   89.99949591
_cell_angle_beta   89.99977477
_cell_angle_gamma   90.00055013
_symmetry_Int_Tables_number   1
_chemical_formula_structural   Cs27Sn13Pb14I81
_chemical_formula_sum   'Cs27 Sn13 Pb14 I81'
_cell_volume   6835.97540055
_cell_formula_units_Z   1
loop_
 _symmetry_equiv_pos_site_id
 _symmetry_equiv_pos_as_xyz
  1  'x, y, z'
loop_
 _atom_site_type_symbol
 _atom_site_label
 _atom_site_symmetry_multiplicity
 _atom_site_fract_x
 _atom_site_fract_y
 _atom_site_fract_z
 _atom_site_occupancy
  Cs  Cs0  1  -0.00323008  0.00171497  -0.00132885  1
  Cs  Cs1  1  -0.00101402  0.00133007  0.33554770  1
  Cs  Cs2  1  -0.00180166  0.00030177  0.66477605  1
  Cs  Cs3  1  -0.00276151  0.33317515  -0.00147395  1
  Cs  Cs4  1  -0.00049204  0.33122357  0.33349192  1
  Cs  Cs5  1  -0.00153173  0.33233855  0.66768624  1
  Cs  Cs6  1  -0.00083743  0.66510130  -0.00081671  1
  Cs  Cs7  1  -0.00401337  0.66753714  0.34212097  1
  Cs  Cs8  1  -0.00486712  0.66732559  0.65985224  1
  Cs  Cs9  1  0.33285336  -0.00263195  0.00111801  1
  Cs  Cs10  1  0.33265487  -0.00080825  0.33147509  1
  Cs  Cs11  1  0.33489075  0.00055147  0.66961005  1
  Cs  Cs12  1  0.33181351  0.33632744  0.00096273  1
  Cs  Cs13  1  0.33350920  0.33390556  0.33266084  1
  Cs  Cs14  1  0.33644735  0.33208450  0.66680341  1
  Cs  Cs15  1  0.33370083  0.66695856  0.00073569  1
  Cs  Cs16  1  0.33246626  0.66703908  0.33155658  1
  Cs  Cs17  1  0.33228417  0.66703195  0.66882692  1
  Cs  Cs18  1  0.67164745  -0.00020154  -0.00015339  1
  Cs  Cs19  1  0.66671136  0.00024379  0.33156137  1
  Cs  Cs20  1  0.66410596  0.00158964  0.66884866  1
  Cs  Cs21  1  0.67345698  0.33452699  -0.00041846  1
  Cs  Cs22  1  0.66713145  0.33399230  0.33544432  1
  Cs  Cs23  1  0.66389511  0.33243155  0.66408243  1
  Cs  Cs24  1  0.66648790  0.66678649  -0.00118469  1
  Cs  Cs25  1  0.67033594  0.66571884  0.33425855  1
  Cs  Cs26  1  0.67146836  0.66535817  0.66809521  1
  Sn  Sn27  1  0.16658974  0.16664234  0.49951360  1
  Sn  Sn28  1  0.16760282  0.50115633  0.83397802  1
  Sn  Sn29  1  0.16761129  0.16653855  0.16721844  1
  Sn  Sn30  1  0.16716085  0.83233705  0.83413603  1
  Sn  Sn31  1  0.16700145  0.50049494  0.16624008  1
  Sn  Sn32  1  0.83382472  0.16660056  0.49981087  1
  Sn  Sn33  1  0.49918813  0.16682745  0.16620869  1
  Sn  Sn34  1  0.49878652  0.50078537  0.83439171  1
  Sn  Sn35  1  0.49932248  0.50014475  0.16581326  1
  Sn  Sn36  1  0.49895547  0.83240239  0.83369379  1
  Sn  Sn37  1  0.49947993  0.83292770  0.49993730  1
  Sn  Sn38  1  0.16671057  0.83298310  0.16610217  1
  Sn  Sn39  1  0.49942177  0.83314688  0.16650432  1
  Pb  Pb40  1  0.49976323  0.16690402  0.83666618  1
  Pb  Pb41  1  0.83352192  0.50021004  0.83347998  1
  Pb  Pb42  1  0.83012332  0.83563109  0.49995922  1
  Pb  Pb43  1  0.49962837  0.50261955  0.49990576  1
  Pb  Pb44  1  0.16687848  0.16665204  0.83405580  1
  Pb  Pb45  1  0.83383899  0.50014031  0.16667725  1
  Pb  Pb46  1  0.49929070  0.16473165  0.49759217  1
  Pb  Pb47  1  0.83374497  0.16666042  0.16804315  1
  Pb  Pb48  1  0.83383779  0.83319390  0.83351006  1
  Pb  Pb49  1  0.83326499  0.49732028  0.49995568  1
  Pb  Pb50  1  0.16698266  0.49772121  0.50016492  1
  Pb  Pb51  1  0.16843880  0.83527007  0.50019311  1
  Pb  Pb52  1  0.83413224  0.83319991  0.16661821  1
  Pb  Pb53  1  0.83321942  0.16666164  0.83051147  1
  I  I54  1  0.17298710  -0.00035914  0.16703220  1
  I  I55  1  0.16419432  0.00311187  0.49527127  1
  I  I56  1  0.17162872  -0.00322325  0.83603350  1
  I  I57  1  0.17275307  0.33352193  0.16726379  1
  I  I58  1  0.16375490  0.32962557  0.49551279  1
  I  I59  1  0.17088883  0.33654380  0.83599789  1
  I  I60  1  0.17392666  0.66687878  0.16146913  1
  I  I61  1  0.16771944  0.66690296  0.49721456  1
  I  I62  1  0.17178661  0.66696662  0.84160713  1
  I  I63  1  0.49449585  -0.00078791  0.16798804  1
  I  I64  1  0.49974957  -0.00311768  0.50058735  1
  I  I65  1  0.49592751  -0.00349489  0.83289961  1
  I  I66  1  0.49387736  0.33382682  0.16370935  1
  I  I67  1  0.50174842  0.33313589  0.50037830  1
  I  I68  1  0.49549474  0.33686633  0.83647755  1
  I  I69  1  0.49452917  0.66706295  0.16643751  1
  I  I70  1  0.49846330  0.67049810  0.49494030  1
  I  I71  1  0.49625313  0.66731499  0.83770213  1
  I  I72  1  0.83175509  0.00001449  0.16743504  1
  I  I73  1  0.83896686  0.00315701  0.49861233  1
  I  I74  1  0.83276400  -0.00021318  0.83368606  1
  I  I75  1  0.83196146  0.33332006  0.16844891  1
  I  I76  1  0.83648515  0.32927515  0.49874012  1
  I  I77  1  0.83333828  0.33356354  0.83288376  1
  I  I78  1  0.83222737  0.66666670  0.16807555  1
  I  I79  1  0.83281170  0.66695054  0.50037097  1
  I  I80  1  0.83277259  0.66670383  0.83156891  1
  I  I81  1  0.17221196  0.16629717  0.00368292  1
  I  I82  1  0.16664552  0.16631852  0.33157273  1
  I  I83  1  0.16135098  0.16603855  0.66426529  1
  I  I84  1  0.17108294  0.49847552  0.00092839  1
  I  I85  1  0.17168135  0.50187219  0.32959643  1
  I  I86  1  0.17108081  0.50321056  0.67031278  1
  I  I87  1  0.17459889  0.83532670  0.00087377  1
  I  I88  1  0.17162787  0.83177022  0.33003406  1
  I  I89  1  0.17162524  0.83086527  0.66972307  1
  I  I90  1  0.49238119  0.16216265  0.00471006  1
  I  I91  1  0.49871994  0.16675640  0.32943268  1
  I  I92  1  0.50139729  0.16603258  0.66665258  1
  I  I93  1  0.49578513  0.50411025  0.00081460  1
  I  I94  1  0.49578928  0.49998604  0.32953556  1
  I  I95  1  0.49611768  0.50367368  0.67022204  1
  I  I96  1  0.49584109  0.83298132  0.00058761  1
  I  I97  1  0.49639146  0.83470882  0.33144629  1
  I  I98  1  0.49609553  0.83045604  0.66805083  1
  I  I99  1  0.83319827  0.16690764  0.00019193  1
  I  I100  1  0.83503200  0.16595126  0.33584133  1
  I  I101  1  0.84016875  0.16596298  0.66240870  1
  I  I102  1  0.83291816  0.49772878  0.00004500  1
  I  I103  1  0.83238356  0.50033261  0.33317555  1
  I  I104  1  0.83293472  0.49859295  0.66687990  1
  I  I105  1  0.82882623  0.83534774  0.00002536  1
  I  I106  1  0.83284350  0.83364354  0.33337431  1
  I  I107  1  0.83350203  0.83534731  0.66668896  1
  I  I108  1  0.00388503  0.16659133  0.16827210  1
  I  I109  1  0.00139035  0.16610235  0.49339546  1
  I  I110  1  0.00050122  0.16671543  0.83793123  1
  I  I111  1  0.00442206  0.49831081  0.16180140  1
  I  I112  1  0.00040743  0.50284427  0.49975684  1
  I  I113  1  0.00401205  0.50268084  0.83836823  1
  I  I114  1  0.00460972  0.83466804  0.16169380  1
  I  I115  1  0.00021102  0.83292651  0.49997599  1
  I  I116  1  0.00417676  0.83029531  0.83869805  1
  I  I117  1  0.33256886  0.16621802  0.17311022  1
  I  I118  1  0.33062905  0.16578909  0.49709696  1
  I  I119  1  0.33328931  0.16636047  0.82542941  1
  I  I120  1  0.33341980  0.49941013  0.16321147  1
  I  I121  1  0.33337781  0.49519822  0.49996931  1
  I  I122  1  0.33345147  0.50421064  0.83784099  1
  I  I123  1  0.33383595  0.83437606  0.16637391  1
  I  I124  1  0.33636663  0.83680088  0.49897803  1
  I  I125  1  0.33393590  0.82999916  0.83434938  1
  I  I126  1  0.66334057  0.16578686  0.16782186  1
  I  I127  1  0.66840212  0.16451307  0.49862884  1
  I  I128  1  0.66611650  0.16622747  0.83318039  1
  I  I129  1  0.66257529  0.49979163  0.16292047  1
  I  I130  1  0.66614529  0.49763294  0.49970673  1
  I  I131  1  0.66279648  0.50443269  0.83782617  1
  I  I132  1  0.66242532  0.83433577  0.16615654  1
  I  I133  1  0.66197877  0.83550622  0.49896549  1
  I  I134  1  0.66260322  0.82985034  0.83410372  1
