# generated using pymatgen
data_Cs27Sn13Pb14I81
_symmetry_space_group_name_H-M   'P 1'
_cell_length_a   18.99454236
_cell_length_b   18.99878265
_cell_length_c   18.98113269
_cell_angle_alpha   90.00004295
_cell_angle_beta   89.99868402
_cell_angle_gamma   89.99954497
_symmetry_Int_Tables_number   1
_chemical_formula_structural   Cs27Sn13Pb14I81
_chemical_formula_sum   'Cs27 Sn13 Pb14 I81'
_cell_volume   6849.78174395
_cell_formula_units_Z   1
loop_
 _symmetry_equiv_pos_site_id
 _symmetry_equiv_pos_as_xyz
  1  'x, y, z'
loop_
 _atom_site_type_symbol
 _atom_site_label
 _atom_site_symmetry_multiplicity
 _atom_site_fract_x
 _atom_site_fract_y
 _atom_site_fract_z
 _atom_site_occupancy
  Cs  Cs0  1  0.00106098  -0.00092697  -0.00528429  1
  Cs  Cs1  1  -0.00743498  0.00625091  0.33270257  1
  Cs  Cs2  1  -0.00004204  0.00079294  0.66734164  1
  Cs  Cs3  1  -0.00214128  0.33562640  0.00177490  1
  Cs  Cs4  1  0.00154060  0.32258717  0.32707039  1
  Cs  Cs5  1  -0.00038074  0.33279564  0.66824594  1
  Cs  Cs6  1  -0.00005541  0.66473876  -0.00244037  1
  Cs  Cs7  1  0.00040205  0.66943375  0.33225520  1
  Cs  Cs8  1  0.00125853  0.66702491  0.66828123  1
  Cs  Cs9  1  0.34094283  -0.00092295  -0.00217077  1
  Cs  Cs10  1  0.33059280  0.00194489  0.33482680  1
  Cs  Cs11  1  0.33386748  -0.00047418  0.66796911  1
  Cs  Cs12  1  0.33424223  0.33145358  0.00704565  1
  Cs  Cs13  1  0.33122240  0.33256214  0.32928420  1
  Cs  Cs14  1  0.33446540  0.33559248  0.66514665  1
  Cs  Cs15  1  0.33241607  0.66879678  0.00224530  1
  Cs  Cs16  1  0.33339209  0.66457556  0.33709137  1
  Cs  Cs17  1  0.33247051  0.66603683  0.66484879  1
  Cs  Cs18  1  0.65666823  -0.00010442  0.00355899  1
  Cs  Cs19  1  0.67855714  -0.00124210  0.32891005  1
  Cs  Cs20  1  0.66612641  0.00078837  0.66742653  1
  Cs  Cs21  1  0.66819840  0.33375220  0.00776194  1
  Cs  Cs22  1  0.66624458  0.33146302  0.32859920  1
  Cs  Cs23  1  0.66418687  0.33753270  0.66675541  1
  Cs  Cs24  1  0.66850615  0.66706699  0.00933384  1
  Cs  Cs25  1  0.66784826  0.67018365  0.33051808  1
  Cs  Cs26  1  0.66552722  0.66299514  0.66526426  1
  Sn  Sn27  1  0.83311979  0.83393446  0.83272614  1
  Sn  Sn28  1  0.16649470  0.16704641  0.83283489  1
  Sn  Sn29  1  0.16665826  0.83351952  0.16697834  1
  Sn  Sn30  1  0.50004197  0.16644180  0.50027358  1
  Sn  Sn31  1  0.83421762  0.49986087  0.49996830  1
  Sn  Sn32  1  0.16633695  0.83328476  0.83314234  1
  Sn  Sn33  1  0.49998542  0.49990725  0.50063432  1
  Sn  Sn34  1  0.16695388  0.83316685  0.49982986  1
  Sn  Sn35  1  0.49911880  0.50034224  0.83329706  1
  Sn  Sn36  1  0.16794681  0.49973925  0.83260597  1
  Sn  Sn37  1  0.49973951  0.83370888  0.50040819  1
  Sn  Sn38  1  0.83318222  0.16585027  0.83266543  1
  Sn  Sn39  1  0.16589889  0.50010174  0.50059612  1
  Pb  Pb40  1  0.16657680  0.50195703  0.16685687  1
  Pb  Pb41  1  0.49725974  0.83324089  0.17053417  1
  Pb  Pb42  1  0.16676401  0.16335420  0.16297222  1
  Pb  Pb43  1  0.83623397  0.83332685  0.16313006  1
  Pb  Pb44  1  0.83350893  0.16637547  0.16269196  1
  Pb  Pb45  1  0.49966917  0.50026556  0.16721588  1
  Pb  Pb46  1  0.83392501  0.83173380  0.50219032  1
  Pb  Pb47  1  0.83393474  0.50018518  0.17070923  1
  Pb  Pb48  1  0.83090945  0.16928842  0.50253266  1
  Pb  Pb49  1  0.50003897  0.16938481  0.83188890  1
  Pb  Pb50  1  0.16802270  0.16668142  0.50203612  1
  Pb  Pb51  1  0.49974067  0.16637210  0.17046110  1
  Pb  Pb52  1  0.50002246  0.83075554  0.83144787  1
  Pb  Pb53  1  0.83326492  0.50012650  0.83227785  1
  I  I54  1  0.16691903  -0.00433741  0.16966761  1
  I  I55  1  0.17263144  -0.00318772  0.50186617  1
  I  I56  1  0.16126980  -0.00102483  0.83270624  1
  I  I57  1  0.16663137  0.33301452  0.16754171  1
  I  I58  1  0.16819515  0.33657499  0.50591848  1
  I  I59  1  0.16601455  0.33430069  0.82625094  1
  I  I60  1  0.16690855  0.66972018  0.16218482  1
  I  I61  1  0.17140430  0.66671401  0.50476044  1
  I  I62  1  0.16583011  0.66700662  0.83230521  1
  I  I63  1  0.49811033  -0.00029419  0.16479526  1
  I  I64  1  0.49239568  -0.00081222  0.50155251  1
  I  I65  1  0.49781577  -0.00010411  0.83068994  1
  I  I66  1  0.49965139  0.33341925  0.16739973  1
  I  I67  1  0.50013077  0.33489152  0.50567876  1
  I  I68  1  0.49621174  0.33701987  0.82470436  1
  I  I69  1  0.50036383  0.66682015  0.16741397  1
  I  I70  1  0.49807651  0.66591302  0.50420372  1
  I  I71  1  0.49609138  0.66312170  0.82548023  1
  I  I72  1  0.83451303  -0.00024096  0.17244473  1
  I  I73  1  0.83225668  0.00008798  0.49906653  1
  I  I74  1  0.84353026  -0.00046687  0.83128492  1
  I  I75  1  0.83370801  0.33323707  0.16437220  1
  I  I76  1  0.83424548  0.33704550  0.50476227  1
  I  I77  1  0.83720430  0.33139903  0.83012389  1
  I  I78  1  0.83279476  0.66694426  0.16284494  1
  I  I79  1  0.82921049  0.66399802  0.50465450  1
  I  I80  1  0.83824032  0.66889825  0.83092520  1
  I  I81  1  0.16289678  0.16938886  -0.00531696  1
  I  I82  1  0.16907359  0.16751582  0.33340878  1
  I  I83  1  0.16361939  0.16221361  0.67010334  1
  I  I84  1  0.17060720  0.50083523  -0.00385112  1
  I  I85  1  0.16889991  0.50532604  0.33732973  1
  I  I86  1  0.16794730  0.50500245  0.66663016  1
  I  I87  1  0.16074286  0.83262986  -0.00186498  1
  I  I88  1  0.17356967  0.82594766  0.33511308  1
  I  I89  1  0.16688873  0.83178648  0.66691214  1
  I  I90  1  0.50062211  0.16826348  -0.00026015  1
  I  I91  1  0.49767080  0.17172708  0.33867781  1
  I  I92  1  0.49921351  0.16591499  0.66394549  1
  I  I93  1  0.49478994  0.49959798  -0.00318129  1
  I  I94  1  0.49868561  0.50014719  0.33796015  1
  I  I95  1  0.49870391  0.50012135  0.66521561  1
  I  I96  1  0.49997413  0.83191032  -0.00012237  1
  I  I97  1  0.49509659  0.82836703  0.33885320  1
  I  I98  1  0.49361601  0.83363645  0.66332088  1
  I  I99  1  0.83813631  0.16504015  -0.00533023  1
  I  I100  1  0.83161632  0.16838840  0.33350642  1
  I  I101  1  0.83874981  0.16242351  0.67005842  1
  I  I102  1  0.83279195  0.49950361  -0.00020333  1
  I  I103  1  0.83119876  0.50214757  0.33895278  1
  I  I104  1  0.83246825  0.50055672  0.66428423  1
  I  I105  1  0.83875506  0.83481166  -0.00504831  1
  I  I106  1  0.83297059  0.83100680  0.33348111  1
  I  I107  1  0.84073288  0.83622608  0.66987755  1
  I  I108  1  0.00028479  0.16683523  0.17226699  1
  I  I109  1  -0.00009159  0.16712796  0.49892506  1
  I  I110  1  0.00117844  0.16720715  0.83152739  1
  I  I111  1  0.00035134  0.50151718  0.16458210  1
  I  I112  1  0.00169540  0.50705703  0.50653879  1
  I  I113  1  0.00320217  0.50090227  0.82867264  1
  I  I114  1  0.00398325  0.83191768  0.17273000  1
  I  I115  1  0.00368566  0.82740122  0.49972824  1
  I  I116  1  0.00227335  0.83176190  0.83130910  1
  I  I117  1  0.33304881  0.16705257  0.16358064  1
  I  I118  1  0.33583382  0.17050338  0.50398701  1
  I  I119  1  0.33049747  0.16301809  0.83150440  1
  I  I120  1  0.33313671  0.50040217  0.16992990  1
  I  I121  1  0.33305833  0.50192118  0.50469177  1
  I  I122  1  0.33185801  0.50068901  0.82439683  1
  I  I123  1  0.32960223  0.83265415  0.15923420  1
  I  I124  1  0.33209613  0.82843919  0.50238095  1
  I  I125  1  0.32983767  0.83613321  0.83481354  1
  I  I126  1  0.66666449  0.16629075  0.16460095  1
  I  I127  1  0.66309172  0.16652853  0.50388562  1
  I  I128  1  0.66901364  0.16284631  0.82990137  1
  I  I129  1  0.66665522  0.50054262  0.16399412  1
  I  I130  1  0.66522445  0.50009184  0.50617779  1
  I  I131  1  0.66434066  0.49975175  0.82604778  1
  I  I132  1  0.66674521  0.83338401  0.16653078  1
  I  I133  1  0.66420562  0.83092381  0.50371034  1
  I  I134  1  0.66888487  0.83672884  0.82903194  1
