# generated using pymatgen
data_Cs27Sn14Pb13I81
_symmetry_space_group_name_H-M   'P 1'
_cell_length_a   18.95279237
_cell_length_b   18.96812502
_cell_length_c   18.96424603
_cell_angle_alpha   89.99995258
_cell_angle_beta   89.99981371
_cell_angle_gamma   90.00004929
_symmetry_Int_Tables_number   1
_chemical_formula_structural   Cs27Sn14Pb13I81
_chemical_formula_sum   'Cs27 Sn14 Pb13 I81'
_cell_volume   6817.62625550
_cell_formula_units_Z   1
loop_
 _symmetry_equiv_pos_site_id
 _symmetry_equiv_pos_as_xyz
  1  'x, y, z'
loop_
 _atom_site_type_symbol
 _atom_site_label
 _atom_site_symmetry_multiplicity
 _atom_site_fract_x
 _atom_site_fract_y
 _atom_site_fract_z
 _atom_site_occupancy
  Cs  Cs0  1  0.00865501  0.00516985  0.00038385  1
  Cs  Cs1  1  0.00136821  0.00088860  0.33204121  1
  Cs  Cs2  1  -0.00036787  0.00072879  0.66766921  1
  Cs  Cs3  1  -0.00457323  0.33021881  -0.00524176  1
  Cs  Cs4  1  -0.00299605  0.33152141  0.33171356  1
  Cs  Cs5  1  0.00125841  0.33477962  0.67171709  1
  Cs  Cs6  1  0.00154758  0.66500358  -0.00254919  1
  Cs  Cs7  1  -0.00069665  0.66762201  0.33324704  1
  Cs  Cs8  1  0.00576664  0.66426234  0.66807150  1
  Cs  Cs9  1  0.33201439  -0.00013259  0.00089451  1
  Cs  Cs10  1  0.33140161  -0.00054979  0.33262806  1
  Cs  Cs11  1  0.33298790  -0.00070999  0.66654921  1
  Cs  Cs12  1  0.33560918  0.33390061  0.00116101  1
  Cs  Cs13  1  0.33431225  0.33475516  0.33357015  1
  Cs  Cs14  1  0.33258028  0.33527743  0.66561152  1
  Cs  Cs15  1  0.33414794  0.66605293  0.00135384  1
  Cs  Cs16  1  0.33102763  0.66483256  0.33684594  1
  Cs  Cs17  1  0.32655450  0.66409180  0.66013233  1
  Cs  Cs18  1  0.66524330  -0.00267662  -0.00141862  1
  Cs  Cs19  1  0.66657993  -0.00110497  0.33443430  1
  Cs  Cs20  1  0.66645772  -0.00102802  0.66642254  1
  Cs  Cs21  1  0.66774102  0.33492678  0.00046693  1
  Cs  Cs22  1  0.66728957  0.33358626  0.33305241  1
  Cs  Cs23  1  0.66624415  0.33202601  0.66659795  1
  Cs  Cs24  1  0.66654807  0.66742561  0.00045744  1
  Cs  Cs25  1  0.66694256  0.66768950  0.33351213  1
  Cs  Cs26  1  0.66595227  0.66981660  0.66553275  1
  Sn  Sn27  1  0.50043907  0.16645344  0.16661648  1
  Sn  Sn28  1  0.83296258  0.50007707  0.50018556  1
  Sn  Sn29  1  0.83300136  0.83310796  0.50017633  1
  Sn  Sn30  1  0.49940836  0.50036574  0.16619719  1
  Sn  Sn31  1  0.83297260  0.83362090  0.83373009  1
  Sn  Sn32  1  0.83295359  0.83367623  0.16602478  1
  Sn  Sn33  1  0.50012199  0.83271035  0.83372027  1
  Sn  Sn34  1  0.50038805  0.16652738  0.83347345  1
  Sn  Sn35  1  0.16664117  0.49966239  0.16634968  1
  Sn  Sn36  1  0.83354407  0.16682642  0.50000494  1
  Sn  Sn37  1  0.49982868  0.16654721  0.49992887  1
  Sn  Sn38  1  0.16662974  0.16665067  0.49993298  1
  Sn  Sn39  1  0.50025961  0.50075361  0.83360705  1
  Sn  Sn40  1  0.50058759  0.83317298  0.16631495  1
  Pb  Pb41  1  0.16374829  0.49759617  0.49784514  1
  Pb  Pb42  1  0.16716944  0.83135429  0.16666362  1
  Pb  Pb43  1  0.16943308  0.49985441  0.83597871  1
  Pb  Pb44  1  0.83279689  0.50191645  0.16783822  1
  Pb  Pb45  1  0.16332460  0.83557643  0.49984657  1
  Pb  Pb46  1  0.83120435  0.16441295  0.83142088  1
  Pb  Pb47  1  0.83087892  0.50236427  0.83114786  1
  Pb  Pb48  1  0.16745587  0.83329589  0.83349275  1
  Pb  Pb49  1  0.83124194  0.16420296  0.16814627  1
  Pb  Pb50  1  0.16960340  0.16675826  0.83116117  1
  Pb  Pb51  1  0.16902044  0.16904290  0.16831522  1
  Pb  Pb52  1  0.50150716  0.49797753  0.49979757  1
  Pb  Pb53  1  0.50114442  0.83525275  0.49995749  1
  I  I54  1  0.16705072  0.00027838  0.16823280  1
  I  I55  1  0.16735194  0.00367130  0.49882227  1
  I  I56  1  0.16848172  0.00008053  0.83303705  1
  I  I57  1  0.17333366  0.33664326  0.16915168  1
  I  I58  1  0.16697904  0.32982980  0.49884546  1
  I  I59  1  0.16773476  0.33333968  0.83231885  1
  I  I60  1  0.17324509  0.66367167  0.16819495  1
  I  I61  1  0.16568155  0.66631322  0.49954950  1
  I  I62  1  0.16816688  0.66652402  0.83199790  1
  I  I63  1  0.50511244  -0.00023695  0.16542516  1
  I  I64  1  0.50275171  0.00379063  0.49972378  1
  I  I65  1  0.50401775  -0.00026638  0.83478404  1
  I  I66  1  0.49551093  0.33333032  0.16543638  1
  I  I67  1  0.50307543  0.32952767  0.49974088  1
  I  I68  1  0.49870241  0.33307996  0.83518335  1
  I  I69  1  0.50073402  0.66696296  0.16006290  1
  I  I70  1  0.50285420  0.66667000  0.49997413  1
  I  I71  1  0.50516929  0.66735864  0.84163361  1
  I  I72  1  0.82732667  -0.00410461  0.16954899  1
  I  I73  1  0.83186908  0.00001463  0.49993731  1
  I  I74  1  0.82621782  -0.00378895  0.83081916  1
  I  I75  1  0.83181897  0.33325711  0.17103197  1
  I  I76  1  0.83169669  0.33231342  0.49826452  1
  I  I77  1  0.83151924  0.33330764  0.83050833  1
  I  I78  1  0.82732444  0.67016636  0.17027849  1
  I  I79  1  0.83105741  0.66767958  0.49896546  1
  I  I80  1  0.82658568  0.67053322  0.83127244  1
  I  I81  1  0.16776096  0.16674347  0.00013238  1
  I  I82  1  0.16822159  0.16679543  0.33649912  1
  I  I83  1  0.16763238  0.16691976  0.66282895  1
  I  I84  1  0.16849569  0.50085897  0.00382886  1
  I  I85  1  0.17556890  0.50020573  0.33043317  1
  I  I86  1  0.16733233  0.49961852  0.66651900  1
  I  I87  1  0.16196600  0.83400850  0.00017050  1
  I  I88  1  0.16733662  0.83343216  0.33326067  1
  I  I89  1  0.16822370  0.83285141  0.66657991  1
  I  I90  1  0.49987057  0.16647630  0.00021162  1
  I  I91  1  0.50086142  0.16684463  0.33338679  1
  I  I92  1  0.50109779  0.16633144  0.66646565  1
  I  I93  1  0.49717846  0.49613987  0.00068990  1
  I  I94  1  0.49835571  0.50005446  0.33027703  1
  I  I95  1  0.50375050  0.49979397  0.66919530  1
  I  I96  1  0.50764813  0.83711401  0.00036691  1
  I  I97  1  0.50439587  0.83340185  0.33038740  1
  I  I98  1  0.50486405  0.83439303  0.66944302  1
  I  I99  1  0.83218730  0.16647594  -0.00009381  1
  I  I100  1  0.83008334  0.16431807  0.33699373  1
  I  I101  1  0.83003065  0.16428792  0.66265407  1
  I  I102  1  0.83498097  0.50151573  -0.00014618  1
  I  I103  1  0.83051435  0.50159048  0.33611007  1
  I  I104  1  0.83092630  0.50044244  0.66302317  1
  I  I105  1  0.82617625  0.83145021  0.00016439  1
  I  I106  1  0.82876341  0.83362434  0.33345775  1
  I  I107  1  0.82775070  0.83478655  0.66653677  1
  I  I108  1  -0.00011044  0.16649896  0.16999354  1
  I  I109  1  -0.00119686  0.16530720  0.49859374  1
  I  I110  1  -0.00021349  0.16495292  0.83129693  1
  I  I111  1  0.00180175  0.50281631  0.17217600  1
  I  I112  1  -0.00416664  0.49982382  0.49765472  1
  I  I113  1  -0.00027576  0.50167368  0.83340563  1
  I  I114  1  -0.00318685  0.83108404  0.16854031  1
  I  I115  1  -0.00534170  0.83503177  0.49925012  1
  I  I116  1  -0.00341171  0.83315357  0.83208083  1
  I  I117  1  0.33800673  0.16169553  0.16886259  1
  I  I118  1  0.33478734  0.16731539  0.49996131  1
  I  I119  1  0.33853370  0.16360943  0.83151876  1
  I  I120  1  0.33609530  0.50116397  0.16400466  1
  I  I121  1  0.33342955  0.49802864  0.50175878  1
  I  I122  1  0.33821264  0.50197765  0.83282633  1
  I  I123  1  0.33740882  0.83602667  0.16151947  1
  I  I124  1  0.33329524  0.83515700  0.50001423  1
  I  I125  1  0.33798562  0.83487427  0.83919457  1
  I  I126  1  0.66236272  0.17153598  0.16923435  1
  I  I127  1  0.66643929  0.16604833  0.49989831  1
  I  I128  1  0.66245381  0.16801962  0.83103174  1
  I  I129  1  0.66307342  0.49836908  0.16466024  1
  I  I130  1  0.66947034  0.49830698  0.49766611  1
  I  I131  1  0.66252049  0.49729383  0.83988158  1
  I  I132  1  0.66547229  0.83166824  0.16708545  1
  I  I133  1  0.66975353  0.83602511  0.49964095  1
  I  I134  1  0.66559383  0.83398783  0.83340027  1
