# generated using pymatgen
data_Cs27Sn14Pb13I81
_symmetry_space_group_name_H-M   'P 1'
_cell_length_a   18.97202001
_cell_length_b   18.97808871
_cell_length_c   18.97817018
_cell_angle_alpha   90.00039609
_cell_angle_beta   89.99791086
_cell_angle_gamma   90.00118439
_symmetry_Int_Tables_number   1
_chemical_formula_structural   Cs27Sn14Pb13I81
_chemical_formula_sum   'Cs27 Sn14 Pb13 I81'
_cell_volume   6833.14100737
_cell_formula_units_Z   1
loop_
 _symmetry_equiv_pos_site_id
 _symmetry_equiv_pos_as_xyz
  1  'x, y, z'
loop_
 _atom_site_type_symbol
 _atom_site_label
 _atom_site_symmetry_multiplicity
 _atom_site_fract_x
 _atom_site_fract_y
 _atom_site_fract_z
 _atom_site_occupancy
  Cs  Cs0  1  0.00073835  0.00323708  0.00005251  1
  Cs  Cs1  1  0.00567562  -0.00182974  0.33180491  1
  Cs  Cs2  1  -0.00053070  -0.00237923  0.66780484  1
  Cs  Cs3  1  -0.00222783  0.32836790  0.00188285  1
  Cs  Cs4  1  -0.00338853  0.33958818  0.33307411  1
  Cs  Cs5  1  -0.00304129  0.33763330  0.66509554  1
  Cs  Cs6  1  -0.00167106  0.66655154  -0.00208103  1
  Cs  Cs7  1  -0.00153890  0.66470411  0.33485475  1
  Cs  Cs8  1  0.00031343  0.66618505  0.66701248  1
  Cs  Cs9  1  0.33261367  0.00073092  0.00039741  1
  Cs  Cs10  1  0.33194694  0.00122818  0.33351187  1
  Cs  Cs11  1  0.33293512  0.00013566  0.66526812  1
  Cs  Cs12  1  0.33376733  0.33309883  0.00195159  1
  Cs  Cs13  1  0.33345790  0.33269804  0.33092509  1
  Cs  Cs14  1  0.33401911  0.33503677  0.66780300  1
  Cs  Cs15  1  0.33646049  0.66590241  -0.00633783  1
  Cs  Cs16  1  0.33387953  0.66567061  0.33360442  1
  Cs  Cs17  1  0.33345058  0.66398112  0.67320310  1
  Cs  Cs18  1  0.66842346  -0.00184258  0.00281352  1
  Cs  Cs19  1  0.66718293  -0.00229896  0.33529653  1
  Cs  Cs20  1  0.66988954  0.00296344  0.66309314  1
  Cs  Cs21  1  0.66747560  0.33313424  -0.00125996  1
  Cs  Cs22  1  0.66817847  0.33446920  0.33649706  1
  Cs  Cs23  1  0.66777683  0.32908062  0.66512454  1
  Cs  Cs24  1  0.66498897  0.66903798  -0.00009864  1
  Cs  Cs25  1  0.66660650  0.66777868  0.33099365  1
  Cs  Cs26  1  0.66613123  0.66732261  0.66925011  1
  Sn  Sn27  1  0.16755977  0.16678707  0.83297623  1
  Sn  Sn28  1  0.83365447  0.83324486  0.50056634  1
  Sn  Sn29  1  0.16711080  0.83278402  0.16691166  1
  Sn  Sn30  1  0.83342255  0.83267959  0.83284713  1
  Sn  Sn31  1  0.49909377  0.49937077  0.16744182  1
  Sn  Sn32  1  0.16665513  0.16671215  0.49991003  1
  Sn  Sn33  1  0.49925515  0.16632726  0.83426186  1
  Sn  Sn34  1  0.16746299  0.50020245  0.16648477  1
  Sn  Sn35  1  0.16708374  0.83343111  0.49962939  1
  Sn  Sn36  1  0.49953473  0.16729512  0.16605489  1
  Sn  Sn37  1  0.49951339  0.50090572  0.49944819  1
  Sn  Sn38  1  0.16749938  0.16704287  0.16709244  1
  Sn  Sn39  1  0.49935850  0.83222825  0.50005482  1
  Sn  Sn40  1  0.83325320  0.50064040  0.83350971  1
  Pb  Pb41  1  0.83288349  0.16668508  0.16717231  1
  Pb  Pb42  1  0.49756137  0.83347091  0.16844742  1
  Pb  Pb43  1  0.83252947  0.50009429  0.16468834  1
  Pb  Pb44  1  0.83610746  0.83327232  0.16695455  1
  Pb  Pb45  1  0.83694185  0.16416836  0.49965522  1
  Pb  Pb46  1  0.16859176  0.50043801  0.49831008  1
  Pb  Pb47  1  0.16480082  0.49712964  0.83619370  1
  Pb  Pb48  1  0.83327338  0.16616607  0.83333492  1
  Pb  Pb49  1  0.16517261  0.83515091  0.83314118  1
  Pb  Pb50  1  0.49809789  0.16666991  0.49940053  1
  Pb  Pb51  1  0.83046770  0.50257255  0.50184378  1
  Pb  Pb52  1  0.50172892  0.49780863  0.83372088  1
  Pb  Pb53  1  0.50215342  0.83631381  0.83068673  1
  I  I54  1  0.16910947  0.00086309  0.16796557  1
  I  I55  1  0.16825666  -0.00064222  0.49517867  1
  I  I56  1  0.16746578  0.00325538  0.83780075  1
  I  I57  1  0.17076900  0.33243588  0.16601569  1
  I  I58  1  0.16993375  0.33076616  0.49954192  1
  I  I59  1  0.16805253  0.32900866  0.83193112  1
  I  I60  1  0.16897237  0.66670348  0.17301054  1
  I  I61  1  0.16419263  0.66992768  0.49446915  1
  I  I62  1  0.16628153  0.66651102  0.83377223  1
  I  I63  1  0.49570282  0.00286265  0.16400536  1
  I  I64  1  0.50184627  -0.00254912  0.50063825  1
  I  I65  1  0.49709647  0.00398280  0.83880275  1
  I  I66  1  0.49160299  0.33320445  0.16832108  1
  I  I67  1  0.49772557  0.33534923  0.49936615  1
  I  I68  1  0.49843025  0.33005694  0.83205609  1
  I  I69  1  0.49609507  0.66402736  0.16947045  1
  I  I70  1  0.49880964  0.66711192  0.49392894  1
  I  I71  1  0.50046300  0.66680417  0.83523595  1
  I  I72  1  0.83277654  -0.00026184  0.16353890  1
  I  I73  1  0.82699400  -0.00413252  0.50743089  1
  I  I74  1  0.83400594  -0.00266288  0.82807660  1
  I  I75  1  0.83890816  0.33351314  0.16320570  1
  I  I76  1  0.83302750  0.33365614  0.50232930  1
  I  I77  1  0.83348012  0.33518262  0.83542001  1
  I  I78  1  0.83430959  0.66676530  0.16730376  1
  I  I79  1  0.84000271  0.67054590  0.50168516  1
  I  I80  1  0.83372751  0.66750991  0.82940643  1
  I  I81  1  0.16954812  0.16629869  0.00093748  1
  I  I82  1  0.17089149  0.16384199  0.33249020  1
  I  I83  1  0.17047398  0.16010744  0.66647313  1
  I  I84  1  0.17317957  0.50158708  0.00437629  1
  I  I85  1  0.16748478  0.49528399  0.33007338  1
  I  I86  1  0.16710652  0.49926621  0.66681466  1
  I  I87  1  0.16441820  0.83520482  0.00268017  1
  I  I88  1  0.16484451  0.83910635  0.33405525  1
  I  I89  1  0.16741957  0.83909937  0.66348996  1
  I  I90  1  0.49211146  0.17227389  0.00101112  1
  I  I91  1  0.49478458  0.16752110  0.33056250  1
  I  I92  1  0.49611153  0.16635890  0.66839827  1
  I  I93  1  0.49711407  0.49704452  0.00305208  1
  I  I94  1  0.49631389  0.49765197  0.33248180  1
  I  I95  1  0.50188537  0.50259860  0.66437480  1
  I  I96  1  0.50079223  0.83128365  -0.00004856  1
  I  I97  1  0.50476128  0.83479093  0.33671795  1
  I  I98  1  0.49397364  0.82872236  0.66252510  1
  I  I99  1  0.83814121  0.16376802  -0.00009434  1
  I  I100  1  0.83155658  0.16518532  0.33360758  1
  I  I101  1  0.83214542  0.16881207  0.66661577  1
  I  I102  1  0.83239357  0.50665430  -0.00302713  1
  I  I103  1  0.83505052  0.50080946  0.33343254  1
  I  I104  1  0.83278342  0.50060278  0.66956748  1
  I  I105  1  0.83504843  0.83055581  -0.00269104  1
  I  I106  1  0.83184931  0.83492491  0.33668562  1
  I  I107  1  0.83581468  0.83010102  0.66580298  1
  I  I108  1  0.00416959  0.16649662  0.16489669  1
  I  I109  1  0.00536107  0.16179772  0.50014310  1
  I  I110  1  0.00303856  0.16586726  0.83512351  1
  I  I111  1  0.00313660  0.49817513  0.16550511  1
  I  I112  1  0.00007759  0.49926127  0.49906009  1
  I  I113  1  -0.00280772  0.50236556  0.83372338  1
  I  I114  1  0.00452982  0.83497430  0.17184490  1
  I  I115  1  0.00092660  0.83977843  0.49998889  1
  I  I116  1  -0.00271339  0.83219571  0.82793145  1
  I  I117  1  0.33220020  0.16727969  0.16581559  1
  I  I118  1  0.33010842  0.16003020  0.49956074  1
  I  I119  1  0.33260100  0.16659158  0.83466963  1
  I  I120  1  0.33339995  0.49783295  0.17056109  1
  I  I121  1  0.33647459  0.50523801  0.49932996  1
  I  I122  1  0.33341897  0.50067147  0.83164652  1
  I  I123  1  0.32943083  0.83531944  0.17269255  1
  I  I124  1  0.33242694  0.83533732  0.49390671  1
  I  I125  1  0.33337665  0.83282043  0.83227646  1
  I  I126  1  0.66264809  0.17153519  0.16066618  1
  I  I127  1  0.66643248  0.16583734  0.50117942  1
  I  I128  1  0.66383078  0.16710101  0.83812303  1
  I  I129  1  0.66284236  0.49461698  0.16973107  1
  I  I130  1  0.66255517  0.50334566  0.49314171  1
  I  I131  1  0.66934909  0.50211822  0.83470911  1
  I  I132  1  0.66637729  0.83359173  0.16769899  1
  I  I133  1  0.66641758  0.82898177  0.50486314  1
  I  I134  1  0.67007410  0.83181001  0.82866191  1
