# generated using pymatgen
data_Cs27Sn14Pb13I81
_symmetry_space_group_name_H-M   'P 1'
_cell_length_a   18.96858613
_cell_length_b   18.97870128
_cell_length_c   18.97851198
_cell_angle_alpha   90.00050754
_cell_angle_beta   89.99711907
_cell_angle_gamma   90.00045341
_symmetry_Int_Tables_number   1
_chemical_formula_structural   Cs27Sn14Pb13I81
_chemical_formula_sum   'Cs27 Sn14 Pb13 I81'
_cell_volume   6832.24779387
_cell_formula_units_Z   1
loop_
 _symmetry_equiv_pos_site_id
 _symmetry_equiv_pos_as_xyz
  1  'x, y, z'
loop_
 _atom_site_type_symbol
 _atom_site_label
 _atom_site_symmetry_multiplicity
 _atom_site_fract_x
 _atom_site_fract_y
 _atom_site_fract_z
 _atom_site_occupancy
  Cs  Cs0  1  -0.00048651  0.00099334  -0.00078483  1
  Cs  Cs1  1  -0.00266840  0.00963687  0.33357114  1
  Cs  Cs2  1  -0.00020544  -0.00196982  0.66654676  1
  Cs  Cs3  1  0.00082631  0.33322334  -0.00198046  1
  Cs  Cs4  1  0.00721633  0.32320779  0.33275012  1
  Cs  Cs5  1  0.00628787  0.33434455  0.67021603  1
  Cs  Cs6  1  -0.00079626  0.66559200  -0.00202376  1
  Cs  Cs7  1  -0.00152036  0.66735000  0.33196652  1
  Cs  Cs8  1  0.00017712  0.66843822  0.66959931  1
  Cs  Cs9  1  0.33397215  -0.00561709  -0.00306912  1
  Cs  Cs10  1  0.33195427  -0.00208932  0.33083703  1
  Cs  Cs11  1  0.33336418  -0.00107466  0.67024011  1
  Cs  Cs12  1  0.33468678  0.33459604  0.00090579  1
  Cs  Cs13  1  0.33244393  0.33372311  0.33543089  1
  Cs  Cs14  1  0.33405291  0.33321362  0.66402125  1
  Cs  Cs15  1  0.33226915  0.67103200  0.00560641  1
  Cs  Cs16  1  0.33267499  0.66724240  0.33150203  1
  Cs  Cs17  1  0.33216001  0.66742222  0.66454402  1
  Cs  Cs18  1  0.66542177  -0.00047740  -0.00251534  1
  Cs  Cs19  1  0.67077243  0.00231317  0.33540516  1
  Cs  Cs20  1  0.66748502  -0.00042690  0.66755518  1
  Cs  Cs21  1  0.66716339  0.33418885  0.00194437  1
  Cs  Cs22  1  0.66525998  0.33491806  0.33122865  1
  Cs  Cs23  1  0.66349755  0.33689102  0.66736285  1
  Cs  Cs24  1  0.66766076  0.66623967  0.00189107  1
  Cs  Cs25  1  0.66702356  0.66453270  0.33429259  1
  Cs  Cs26  1  0.66753157  0.66478747  0.66345154  1
  Sn  Sn27  1  0.16580676  0.83401977  0.83261078  1
  Sn  Sn28  1  0.49940518  0.83345825  0.50005012  1
  Sn  Sn29  1  0.16698932  0.83323413  0.50017093  1
  Sn  Sn30  1  0.50068954  0.49940233  0.16684432  1
  Sn  Sn31  1  0.83353342  0.49939406  0.49881309  1
  Sn  Sn32  1  0.16615206  0.16599045  0.83325437  1
  Sn  Sn33  1  0.50033626  0.16646261  0.49916047  1
  Sn  Sn34  1  0.83316203  0.83298032  0.16616429  1
  Sn  Sn35  1  0.50058371  0.50011829  0.49970811  1
  Sn  Sn36  1  0.83364970  0.83393399  0.83406342  1
  Sn  Sn37  1  0.50014048  0.16689159  0.16730850  1
  Sn  Sn38  1  0.49968940  0.50072597  0.83361165  1
  Sn  Sn39  1  0.83313771  0.50035517  0.16812640  1
  Sn  Sn40  1  0.83364357  0.16631678  0.83306661  1
  Pb  Pb41  1  0.50237720  0.83332792  0.16940146  1
  Pb  Pb42  1  0.16641328  0.50219836  0.49981060  1
  Pb  Pb43  1  0.49991585  0.16833209  0.83345637  1
  Pb  Pb44  1  0.83131771  0.17003587  0.50270785  1
  Pb  Pb45  1  0.83143408  0.16725466  0.16464507  1
  Pb  Pb46  1  0.50031893  0.83083289  0.83139273  1
  Pb  Pb47  1  0.83178543  0.50023917  0.83344857  1
  Pb  Pb48  1  0.83359492  0.83192526  0.50001809  1
  Pb  Pb49  1  0.17004299  0.16647139  0.16370448  1
  Pb  Pb50  1  0.16971776  0.50072079  0.83344208  1
  Pb  Pb51  1  0.16336636  0.83342958  0.16687707  1
  Pb  Pb52  1  0.16617019  0.49990478  0.16691844  1
  Pb  Pb53  1  0.16928504  0.16398153  0.50217115  1
  I  I54  1  0.16762068  -0.00013821  0.16910494  1
  I  I55  1  0.17144316  -0.00387689  0.50242131  1
  I  I56  1  0.16381021  -0.00095587  0.82901677  1
  I  I57  1  0.16249024  0.33304007  0.16401497  1
  I  I58  1  0.16734220  0.33297459  0.50212919  1
  I  I59  1  0.16267801  0.33074837  0.83432364  1
  I  I60  1  0.17208235  0.66696245  0.16377038  1
  I  I61  1  0.17319525  0.67010529  0.50817134  1
  I  I62  1  0.16253342  0.67020592  0.82912943  1
  I  I63  1  0.50133995  0.00230018  0.17045478  1
  I  I64  1  0.49554385  -0.00007154  0.49662558  1
  I  I65  1  0.50024713  -0.00027590  0.83294837  1
  I  I66  1  0.50555053  0.33482590  0.16976824  1
  I  I67  1  0.50512910  0.33433742  0.50042282  1
  I  I68  1  0.50113808  0.33617651  0.82913375  1
  I  I69  1  0.50206110  0.66374960  0.16669477  1
  I  I70  1  0.50010161  0.66575508  0.50129038  1
  I  I71  1  0.50116131  0.66302899  0.83343113  1
  I  I72  1  0.83173310  -0.00217072  0.16403843  1
  I  I73  1  0.83148961  0.00020157  0.49797181  1
  I  I74  1  0.83560017  -0.00111068  0.83842360  1
  I  I75  1  0.82883340  0.33638821  0.16826617  1
  I  I76  1  0.82574285  0.33781783  0.49568379  1
  I  I77  1  0.83551500  0.33129094  0.83287537  1
  I  I78  1  0.82737491  0.66592569  0.16419669  1
  I  I79  1  0.82635314  0.66405967  0.50137258  1
  I  I80  1  0.83647188  0.66925018  0.83390213  1
  I  I81  1  0.16489639  0.15994462  -0.00419161  1
  I  I82  1  0.16539902  0.16569100  0.33351996  1
  I  I83  1  0.16523055  0.16535014  0.67003163  1
  I  I84  1  0.16821865  0.50214938  -0.00015264  1
  I  I85  1  0.17090358  0.50298775  0.33351543  1
  I  I86  1  0.16711236  0.49838541  0.66677216  1
  I  I87  1  0.16569529  0.83698716  -0.00324685  1
  I  I88  1  0.17205776  0.83000830  0.33621712  1
  I  I89  1  0.16535685  0.83641743  0.66760364  1
  I  I90  1  0.50062492  0.17315066  0.00209579  1
  I  I91  1  0.50111554  0.17178563  0.33391115  1
  I  I92  1  0.49997491  0.16872829  0.66426037  1
  I  I93  1  0.50398862  0.49413856  0.00128178  1
  I  I94  1  0.50468874  0.49949548  0.33367514  1
  I  I95  1  0.50418470  0.49952947  0.66518780  1
  I  I96  1  0.49750902  0.83294887  0.00009505  1
  I  I97  1  0.49555870  0.82877112  0.33732163  1
  I  I98  1  0.50112989  0.83324208  0.66332895  1
  I  I99  1  0.83364225  0.16738909  -0.00326115  1
  I  I100  1  0.83366006  0.16333016  0.33342706  1
  I  I101  1  0.83379192  0.16053921  0.67038258  1
  I  I102  1  0.82733125  0.50124779  0.00243425  1
  I  I103  1  0.82247943  0.50846770  0.33277129  1
  I  I104  1  0.82650680  0.50057238  0.66458748  1
  I  I105  1  0.83773568  0.83045152  -0.00100943  1
  I  I106  1  0.83123876  0.82914352  0.33126763  1
  I  I107  1  0.83393345  0.83504013  0.66918288  1
  I  I108  1  -0.00014970  0.16712467  0.16747379  1
  I  I109  1  -0.00001212  0.16682394  0.49889371  1
  I  I110  1  -0.00035983  0.16355571  0.83360657  1
  I  I111  1  -0.00407148  0.50563038  0.16988455  1
  I  I112  1  -0.00317811  0.50366610  0.49671083  1
  I  I113  1  -0.00004857  0.49929266  0.83304739  1
  I  I114  1  -0.00450212  0.82595968  0.16652750  1
  I  I115  1  0.00220835  0.82952848  0.50275389  1
  I  I116  1  -0.00027165  0.83612922  0.83053655  1
  I  I117  1  0.33806593  0.17386183  0.16935530  1
  I  I118  1  0.33755385  0.17335328  0.49925402  1
  I  I119  1  0.33123244  0.16268653  0.83303425  1
  I  I120  1  0.33723904  0.49620075  0.16720395  1
  I  I121  1  0.33707822  0.49809464  0.50007928  1
  I  I122  1  0.33788207  0.49842526  0.83170363  1
  I  I123  1  0.33358679  0.83292805  0.16404015  1
  I  I124  1  0.33424078  0.83144127  0.50609624  1
  I  I125  1  0.33100645  0.83696475  0.83056795  1
  I  I126  1  0.66346276  0.16892518  0.16775087  1
  I  I127  1  0.66295398  0.16157847  0.49953803  1
  I  I128  1  0.66874904  0.16297997  0.83339039  1
  I  I129  1  0.66574328  0.50040180  0.16724232  1
  I  I130  1  0.66485931  0.50319727  0.50026444  1
  I  I131  1  0.66372724  0.49922395  0.83211339  1
  I  I132  1  0.66998594  0.83126007  0.16079682  1
  I  I133  1  0.66411357  0.83331592  0.50050388  1
  I  I134  1  0.66947324  0.83684344  0.83559651  1
