# generated using pymatgen
data_Cs27Sn13Pb14I81
_symmetry_space_group_name_H-M   'P 1'
_cell_length_a   18.97355717
_cell_length_b   18.97757546
_cell_length_c   18.97973411
_cell_angle_alpha   89.99786798
_cell_angle_beta   89.99949150
_cell_angle_gamma   90.00236836
_symmetry_Int_Tables_number   1
_chemical_formula_structural   Cs27Sn13Pb14I81
_chemical_formula_sum   'Cs27 Sn13 Pb14 I81'
_cell_volume   6834.07295073
_cell_formula_units_Z   1
loop_
 _symmetry_equiv_pos_site_id
 _symmetry_equiv_pos_as_xyz
  1  'x, y, z'
loop_
 _atom_site_type_symbol
 _atom_site_label
 _atom_site_symmetry_multiplicity
 _atom_site_fract_x
 _atom_site_fract_y
 _atom_site_fract_z
 _atom_site_occupancy
  Cs  Cs0  1  0.00237684  -0.00098804  -0.00087930  1
  Cs  Cs1  1  -0.00052522  0.00071125  0.33523575  1
  Cs  Cs2  1  -0.00123765  -0.00065244  0.66633116  1
  Cs  Cs3  1  -0.00135900  0.33126157  0.00476818  1
  Cs  Cs4  1  -0.00071013  0.33397866  0.33221572  1
  Cs  Cs5  1  -0.00154579  0.33157240  0.66537395  1
  Cs  Cs6  1  0.00667503  0.66984021  -0.00112249  1
  Cs  Cs7  1  -0.00163546  0.66368290  0.33545438  1
  Cs  Cs8  1  0.00116114  0.66962832  0.66703123  1
  Cs  Cs9  1  0.33243454  -0.00050488  0.00255380  1
  Cs  Cs10  1  0.33502460  -0.00352138  0.33123242  1
  Cs  Cs11  1  0.33559814  0.00189403  0.66562188  1
  Cs  Cs12  1  0.33188386  0.33547505  -0.00134946  1
  Cs  Cs13  1  0.32960377  0.33979407  0.33623160  1
  Cs  Cs14  1  0.33428533  0.33903464  0.66602337  1
  Cs  Cs15  1  0.32930233  0.66256935  0.00370927  1
  Cs  Cs16  1  0.34146600  0.66343685  0.32793080  1
  Cs  Cs17  1  0.33268471  0.65412288  0.66725150  1
  Cs  Cs18  1  0.66705232  0.00132393  -0.00250968  1
  Cs  Cs19  1  0.66590288  -0.00023794  0.33444434  1
  Cs  Cs20  1  0.66687939  0.00103383  0.66738473  1
  Cs  Cs21  1  0.66759657  0.33271674  -0.00091792  1
  Cs  Cs22  1  0.66848559  0.33267386  0.33220595  1
  Cs  Cs23  1  0.66715233  0.33087362  0.66738534  1
  Cs  Cs24  1  0.66523642  0.66416638  0.00265590  1
  Cs  Cs25  1  0.66313814  0.66867263  0.32838198  1
  Cs  Cs26  1  0.66720749  0.66763789  0.66748623  1
  Sn  Sn27  1  0.16665467  0.16631912  0.83237320  1
  Sn  Sn28  1  0.83375425  0.83342441  0.49915724  1
  Sn  Sn29  1  0.50054284  0.16665845  0.16618631  1
  Sn  Sn30  1  0.16596783  0.16543549  0.50087599  1
  Sn  Sn31  1  0.16665395  0.83393393  0.50013049  1
  Sn  Sn32  1  0.49947267  0.83373207  0.83294289  1
  Sn  Sn33  1  0.83314562  0.50011640  0.50102726  1
  Sn  Sn34  1  0.83365361  0.83443179  0.16703936  1
  Sn  Sn35  1  0.83392667  0.16642112  0.49994404  1
  Sn  Sn36  1  0.83250489  0.16530990  0.16665896  1
  Sn  Sn37  1  0.83349121  0.49949295  0.83279210  1
  Sn  Sn38  1  0.83356202  0.16725099  0.83343883  1
  Sn  Sn39  1  0.49970425  0.16554137  0.83413348  1
  Pb  Pb40  1  0.16428165  0.83363377  0.16966883  1
  Pb  Pb41  1  0.16634540  0.50016578  0.16677704  1
  Pb  Pb42  1  0.83234973  0.83333441  0.83338469  1
  Pb  Pb43  1  0.50222665  0.83560218  0.16410805  1
  Pb  Pb44  1  0.49972224  0.83337564  0.50225238  1
  Pb  Pb45  1  0.50340273  0.50004686  0.49997336  1
  Pb  Pb46  1  0.16424156  0.50013900  0.49993689  1
  Pb  Pb47  1  0.50240925  0.49939245  0.83341117  1
  Pb  Pb48  1  0.50037231  0.49639786  0.16633368  1
  Pb  Pb49  1  0.16975695  0.83544245  0.83079417  1
  Pb  Pb50  1  0.83351566  0.50014882  0.16641956  1
  Pb  Pb51  1  0.49953664  0.16671914  0.49984266  1
  Pb  Pb52  1  0.16333057  0.49700696  0.83333513  1
  Pb  Pb53  1  0.16674423  0.16663237  0.16728717  1
  I  I54  1  0.16741954  0.00037344  0.16465617  1
  I  I55  1  0.15673647  0.00128021  0.50393535  1
  I  I56  1  0.15984651  0.00401557  0.83167468  1
  I  I57  1  0.16418668  0.33246814  0.16893359  1
  I  I58  1  0.16302352  0.32981115  0.50317182  1
  I  I59  1  0.17191198  0.32832692  0.82669250  1
  I  I60  1  0.16354123  0.66723617  0.16717626  1
  I  I61  1  0.16017123  0.66968400  0.50024852  1
  I  I62  1  0.16669902  0.66671804  0.83221696  1
  I  I63  1  0.50331354  0.00366123  0.16457477  1
  I  I64  1  0.50530552  0.00027174  0.49969465  1
  I  I65  1  0.50428300  0.00258991  0.83566113  1
  I  I66  1  0.50864980  0.32810466  0.15988291  1
  I  I67  1  0.49977295  0.33290548  0.50166560  1
  I  I68  1  0.49932866  0.32931092  0.83687964  1
  I  I69  1  0.50203007  0.66696107  0.16560553  1
  I  I70  1  0.50001859  0.66686618  0.50307439  1
  I  I71  1  0.50463470  0.66910149  0.83048243  1
  I  I72  1  0.82988500  0.00166669  0.16977513  1
  I  I73  1  0.83667858  0.00098296  0.49985594  1
  I  I74  1  0.83381978  0.00343816  0.83122422  1
  I  I75  1  0.83018083  0.32972848  0.16847239  1
  I  I76  1  0.83623109  0.33168677  0.50058556  1
  I  I77  1  0.83133000  0.33085229  0.83013215  1
  I  I78  1  0.83367154  0.66969185  0.17038176  1
  I  I79  1  0.83717073  0.66736676  0.50080881  1
  I  I80  1  0.82945073  0.66457478  0.82967981  1
  I  I81  1  0.16336786  0.16781294  -0.00289330  1
  I  I82  1  0.16204031  0.16378217  0.33689564  1
  I  I83  1  0.16210371  0.16304610  0.66645245  1
  I  I84  1  0.16342890  0.49809412  -0.00047457  1
  I  I85  1  0.16291423  0.49524485  0.33399672  1
  I  I86  1  0.16797532  0.50117805  0.66665848  1
  I  I87  1  0.16503415  0.83441891  -0.00018786  1
  I  I88  1  0.16429079  0.84251231  0.33787844  1
  I  I89  1  0.15687930  0.83681672  0.66308739  1
  I  I90  1  0.50500637  0.16301709  -0.00122860  1
  I  I91  1  0.50575991  0.16652611  0.33063160  1
  I  I92  1  0.50394746  0.16351906  0.66987783  1
  I  I93  1  0.50452947  0.50178117  -0.00033203  1
  I  I94  1  0.50162942  0.49913811  0.33311352  1
  I  I95  1  0.49923196  0.49746309  0.66694171  1
  I  I96  1  0.50402276  0.83766634  -0.00352514  1
  I  I97  1  0.49925710  0.83464018  0.33318905  1
  I  I98  1  0.50492314  0.84251595  0.66981397  1
  I  I99  1  0.83267397  0.16749246  -0.00070601  1
  I  I100  1  0.83312386  0.16679411  0.33403810  1
  I  I101  1  0.83313979  0.16716174  0.66664341  1
  I  I102  1  0.83179649  0.49468566  -0.00290926  1
  I  I103  1  0.83462330  0.49664064  0.33639267  1
  I  I104  1  0.83296114  0.49563425  0.66626151  1
  I  I105  1  0.82967464  0.83730004  0.00220141  1
  I  I106  1  0.83616609  0.83703571  0.33448646  1
  I  I107  1  0.83494049  0.83563646  0.66375829  1
  I  I108  1  -0.00362627  0.16442745  0.16424568  1
  I  I109  1  -0.00187774  0.16634482  0.50297679  1
  I  I110  1  -0.00123341  0.17122193  0.83259496  1
  I  I111  1  -0.00104307  0.49595820  0.16658253  1
  I  I112  1  -0.00422531  0.49881903  0.50365115  1
  I  I113  1  -0.00471071  0.49581566  0.82886790  1
  I  I114  1  -0.00434435  0.84082678  0.16570527  1
  I  I115  1  -0.00201986  0.83512110  0.49759503  1
  I  I116  1  0.00004036  0.83328958  0.83533355  1
  I  I117  1  0.33622594  0.16695468  0.16230621  1
  I  I118  1  0.32990643  0.16134544  0.50306229  1
  I  I119  1  0.33362524  0.16061854  0.83360881  1
  I  I120  1  0.33366975  0.49854364  0.16725828  1
  I  I121  1  0.33297719  0.49900676  0.49957759  1
  I  I122  1  0.33321143  0.49924461  0.83332023  1
  I  I123  1  0.33360359  0.83487248  0.16793067  1
  I  I124  1  0.33012832  0.84219466  0.50276295  1
  I  I125  1  0.33724088  0.84179116  0.83183444  1
  I  I126  1  0.66864563  0.16362038  0.16365261  1
  I  I127  1  0.67023706  0.16605563  0.50239127  1
  I  I128  1  0.66788276  0.16696954  0.83341558  1
  I  I129  1  0.66732289  0.50158689  0.16750062  1
  I  I130  1  0.67206317  0.49785721  0.50429894  1
  I  I131  1  0.67047424  0.49326762  0.82899808  1
  I  I132  1  0.67043554  0.83545362  0.17394236  1
  I  I133  1  0.67041006  0.83491587  0.49776498  1
  I  I134  1  0.66484280  0.84034527  0.83126103  1
