# generated using pymatgen
data_Cs27Sn13Pb14I81
_symmetry_space_group_name_H-M   'P 1'
_cell_length_a   18.97032323
_cell_length_b   18.97030013
_cell_length_c   18.99167243
_cell_angle_alpha   90.00039306
_cell_angle_beta   89.99907106
_cell_angle_gamma   89.99798625
_symmetry_Int_Tables_number   1
_chemical_formula_structural   Cs27Sn13Pb14I81
_chemical_formula_sum   'Cs27 Sn13 Pb14 I81'
_cell_volume   6834.58490777
_cell_formula_units_Z   1
loop_
 _symmetry_equiv_pos_site_id
 _symmetry_equiv_pos_as_xyz
  1  'x, y, z'
loop_
 _atom_site_type_symbol
 _atom_site_label
 _atom_site_symmetry_multiplicity
 _atom_site_fract_x
 _atom_site_fract_y
 _atom_site_fract_z
 _atom_site_occupancy
  Cs  Cs0  1  0.00178962  0.00117839  0.00221998  1
  Cs  Cs1  1  -0.00245590  -0.00326831  0.33127306  1
  Cs  Cs2  1  -0.00028963  -0.00045000  0.66673111  1
  Cs  Cs3  1  -0.00124760  0.33330578  0.00264812  1
  Cs  Cs4  1  0.00305690  0.33601594  0.33334200  1
  Cs  Cs5  1  0.00061761  0.33096347  0.66581118  1
  Cs  Cs6  1  -0.00139190  0.66585972  0.00125766  1
  Cs  Cs7  1  0.00263109  0.66710629  0.33192503  1
  Cs  Cs8  1  0.00001387  0.66929247  0.66687073  1
  Cs  Cs9  1  0.33348110  0.00051584  0.00233890  1
  Cs  Cs10  1  0.34189938  0.00583769  0.33231014  1
  Cs  Cs11  1  0.33282207  0.00245890  0.66515728  1
  Cs  Cs12  1  0.33343976  0.33163476  -0.00189125  1
  Cs  Cs13  1  0.32933949  0.32967335  0.33439451  1
  Cs  Cs14  1  0.33303122  0.33410174  0.66718412  1
  Cs  Cs15  1  0.33514451  0.66803579  -0.00238420  1
  Cs  Cs16  1  0.33074382  0.66538498  0.33286664  1
  Cs  Cs17  1  0.33259888  0.66519569  0.66868316  1
  Cs  Cs18  1  0.66512908  -0.00041805  0.00084788  1
  Cs  Cs19  1  0.66320060  0.00032694  0.33408924  1
  Cs  Cs20  1  0.66745162  -0.00517401  0.66460095  1
  Cs  Cs21  1  0.66840608  0.33596389  -0.00199228  1
  Cs  Cs22  1  0.66692445  0.33280662  0.33493102  1
  Cs  Cs23  1  0.66651123  0.33436697  0.66721419  1
  Cs  Cs24  1  0.66627932  0.66480141  -0.00331656  1
  Cs  Cs25  1  0.66532609  0.66640082  0.33553987  1
  Cs  Cs26  1  0.66810039  0.67036683  0.66711037  1
  Sn  Sn27  1  0.83233378  0.16665463  0.83328048  1
  Sn  Sn28  1  0.83333899  0.16728569  0.49999437  1
  Sn  Sn29  1  0.50044789  0.49988983  0.50008906  1
  Sn  Sn30  1  0.83299592  0.49958836  0.50014796  1
  Sn  Sn31  1  0.49988743  0.49978381  0.16673534  1
  Sn  Sn32  1  0.50116155  0.16718460  0.83321768  1
  Sn  Sn33  1  0.83337536  0.83363638  0.16645679  1
  Sn  Sn34  1  0.16712205  0.83374402  0.49973251  1
  Sn  Sn35  1  0.16650630  0.83338919  0.16671475  1
  Sn  Sn36  1  0.16660198  0.83264779  0.83346684  1
  Sn  Sn37  1  0.49949628  0.49939419  0.83319305  1
  Sn  Sn38  1  0.83319955  0.16621329  0.16674253  1
  Sn  Sn39  1  0.16679854  0.50053395  0.83347418  1
  Pb  Pb40  1  0.16419696  0.16404777  0.49981382  1
  Pb  Pb41  1  0.50022444  0.83129525  0.16667676  1
  Pb  Pb42  1  0.50256009  0.16918604  0.16446480  1
  Pb  Pb43  1  0.83477053  0.83328079  0.49794645  1
  Pb  Pb44  1  0.16671833  0.16676654  0.83335468  1
  Pb  Pb45  1  0.83342461  0.49836838  0.83126268  1
  Pb  Pb46  1  0.16662445  0.50142744  0.50198813  1
  Pb  Pb47  1  0.16889248  0.50195252  0.16414965  1
  Pb  Pb48  1  0.50226470  0.16892459  0.50236412  1
  Pb  Pb49  1  0.83166063  0.50008967  0.16889784  1
  Pb  Pb50  1  0.16459352  0.16438391  0.16685551  1
  Pb  Pb51  1  0.83560557  0.83596052  0.83567138  1
  Pb  Pb52  1  0.49730480  0.83077955  0.50002462  1
  Pb  Pb53  1  0.49784860  0.83355531  0.83320035  1
  I  I54  1  0.16520073  -0.00426362  0.16238702  1
  I  I55  1  0.16382115  -0.00424085  0.50415250  1
  I  I56  1  0.16548022  -0.00296984  0.83381202  1
  I  I57  1  0.16550416  0.33361335  0.16468662  1
  I  I58  1  0.16743406  0.33350911  0.50256713  1
  I  I59  1  0.16869371  0.33607240  0.83197392  1
  I  I60  1  0.15947337  0.67014300  0.16824357  1
  I  I61  1  0.16424204  0.66947133  0.49863758  1
  I  I62  1  0.17252499  0.66655069  0.83321747  1
  I  I63  1  0.49792638  0.00030711  0.16460987  1
  I  I64  1  0.50016244  0.00030239  0.50137117  1
  I  I65  1  0.50316533  0.00309320  0.83400293  1
  I  I66  1  0.50224037  0.33710486  0.16789248  1
  I  I67  1  0.50087249  0.33722536  0.49870804  1
  I  I68  1  0.49794633  0.33469951  0.83352165  1
  I  I69  1  0.50196539  0.66315640  0.16338331  1
  I  I70  1  0.50765782  0.66225657  0.50369073  1
  I  I71  1  0.49713976  0.66321762  0.83346930  1
  I  I72  1  0.83826543  0.00040934  0.16757925  1
  I  I73  1  0.83666183  0.00278276  0.50209091  1
  I  I74  1  0.82877564  0.00414118  0.82802155  1
  I  I75  1  0.83021771  0.33059396  0.16459712  1
  I  I76  1  0.82965459  0.33307330  0.49854512  1
  I  I77  1  0.83441356  0.33017729  0.83803631  1
  I  I78  1  0.83697942  0.66914123  0.16889681  1
  I  I79  1  0.83033982  0.66407257  0.49876102  1
  I  I80  1  0.83144974  0.66671815  0.83327678  1
  I  I81  1  0.16397043  0.16480953  -0.00015390  1
  I  I82  1  0.16568709  0.16647638  0.33333921  1
  I  I83  1  0.16359339  0.16327523  0.66683085  1
  I  I84  1  0.17089896  0.50484065  -0.00381093  1
  I  I85  1  0.16764700  0.50242846  0.33334303  1
  I  I86  1  0.17163658  0.50584043  0.66983604  1
  I  I87  1  0.16252788  0.82933826  -0.00005907  1
  I  I88  1  0.16032651  0.83236762  0.33273727  1
  I  I89  1  0.16715991  0.82882575  0.66728959  1
  I  I90  1  0.50471611  0.17238828  -0.00336927  1
  I  I91  1  0.50079956  0.16777643  0.33339876  1
  I  I92  1  0.50415764  0.17212853  0.67022880  1
  I  I93  1  0.49568415  0.49705019  -0.00125885  1
  I  I94  1  0.50623383  0.50313483  0.33393164  1
  I  I95  1  0.49911239  0.49581427  0.66737040  1
  I  I96  1  0.49813501  0.83041268  -0.00011748  1
  I  I97  1  0.49746876  0.83107116  0.33330556  1
  I  I98  1  0.49890257  0.83141351  0.66674525  1
  I  I99  1  0.83012531  0.16202949  -0.00010735  1
  I  I100  1  0.83524678  0.16621767  0.33332378  1
  I  I101  1  0.83055172  0.17227042  0.66672873  1
  I  I102  1  0.83251979  0.49922380  -0.00007233  1
  I  I103  1  0.82849603  0.49560946  0.33666999  1
  I  I104  1  0.82922572  0.49552462  0.66347828  1
  I  I105  1  0.83871375  0.83705748  0.00345246  1
  I  I106  1  0.83996547  0.83779328  0.33025284  1
  I  I107  1  0.83563052  0.83427584  0.66669096  1
  I  I108  1  -0.00419606  0.16669630  0.16294264  1
  I  I109  1  -0.00445530  0.17371644  0.50335393  1
  I  I110  1  -0.00311005  0.16615372  0.83317806  1
  I  I111  1  -0.00007310  0.49857839  0.16660369  1
  I  I112  1  -0.00261490  0.49699987  0.50128807  1
  I  I113  1  0.00243101  0.50303037  0.83123730  1
  I  I114  1  0.00020814  0.83691099  0.16632572  1
  I  I115  1  0.00276894  0.83109299  0.50234611  1
  I  I116  1  0.00370312  0.82815099  0.83136377  1
  I  I117  1  0.33384856  0.16533288  0.16444524  1
  I  I118  1  0.33364972  0.16667513  0.50212192  1
  I  I119  1  0.33609868  0.16846481  0.83332471  1
  I  I120  1  0.33693580  0.50233928  0.17086389  1
  I  I121  1  0.33614633  0.50357112  0.49978046  1
  I  I122  1  0.33446441  0.49869141  0.83135172  1
  I  I123  1  0.33023292  0.82966921  0.16533439  1
  I  I124  1  0.32908120  0.83084185  0.49863313  1
  I  I125  1  0.32947489  0.83308083  0.83626535  1
  I  I126  1  0.67070560  0.15953712  0.16897278  1
  I  I127  1  0.67052178  0.16728575  0.49768634  1
  I  I128  1  0.66693438  0.17395198  0.83415343  1
  I  I129  1  0.66376804  0.50181305  0.16098204  1
  I  I130  1  0.66643652  0.49639913  0.50176377  1
  I  I131  1  0.66374719  0.49695615  0.83495229  1
  I  I132  1  0.66971915  0.83708829  0.16766159  1
  I  I133  1  0.66683025  0.83426279  0.49814777  1
  I  I134  1  0.66689302  0.83070860  0.83510430  1
