# generated using pymatgen
data_Cs27Sn14Pb13I81
_symmetry_space_group_name_H-M   'P 1'
_cell_length_a   18.95444256
_cell_length_b   18.96576108
_cell_length_c   18.96193021
_cell_angle_alpha   89.99969625
_cell_angle_beta   89.99975673
_cell_angle_gamma   90.00254384
_symmetry_Int_Tables_number   1
_chemical_formula_structural   Cs27Sn14Pb13I81
_chemical_formula_sum   'Cs27 Sn14 Pb13 I81'
_cell_volume   6816.53760913
_cell_formula_units_Z   1
loop_
 _symmetry_equiv_pos_site_id
 _symmetry_equiv_pos_as_xyz
  1  'x, y, z'
loop_
 _atom_site_type_symbol
 _atom_site_label
 _atom_site_symmetry_multiplicity
 _atom_site_fract_x
 _atom_site_fract_y
 _atom_site_fract_z
 _atom_site_occupancy
  Cs  Cs0  1  -0.00169437  0.00026075  -0.00936946  1
  Cs  Cs1  1  -0.00167659  -0.00181807  0.33586144  1
  Cs  Cs2  1  0.00020926  0.00249020  0.67048453  1
  Cs  Cs3  1  0.00110575  0.33382357  0.00192167  1
  Cs  Cs4  1  -0.00077207  0.33522297  0.33084943  1
  Cs  Cs5  1  -0.00736130  0.33065591  0.66709733  1
  Cs  Cs6  1  -0.00942184  0.66662817  0.00203408  1
  Cs  Cs7  1  0.00157566  0.66751543  0.32921799  1
  Cs  Cs8  1  0.00345532  0.66803584  0.66977069  1
  Cs  Cs9  1  0.33365997  0.00299441  -0.00026507  1
  Cs  Cs10  1  0.33409845  -0.00054780  0.33408826  1
  Cs  Cs11  1  0.33297886  -0.00128461  0.66598835  1
  Cs  Cs12  1  0.33264934  0.33271173  0.00259568  1
  Cs  Cs13  1  0.33209633  0.33299186  0.33087224  1
  Cs  Cs14  1  0.33495320  0.33656392  0.66630925  1
  Cs  Cs15  1  0.33458802  0.66575058  -0.00135941  1
  Cs  Cs16  1  0.33315156  0.66757599  0.33525773  1
  Cs  Cs17  1  0.33432142  0.66643771  0.66611490  1
  Cs  Cs18  1  0.66555893  -0.00133173  0.00362274  1
  Cs  Cs19  1  0.66685547  0.00003172  0.33218162  1
  Cs  Cs20  1  0.66528368  0.00203513  0.66518800  1
  Cs  Cs21  1  0.66482395  0.33318807  -0.00111952  1
  Cs  Cs22  1  0.66905007  0.33191758  0.33709579  1
  Cs  Cs23  1  0.67169136  0.33412765  0.66473422  1
  Cs  Cs24  1  0.66959973  0.66771632  0.00045922  1
  Cs  Cs25  1  0.66718549  0.66652718  0.33322580  1
  Cs  Cs26  1  0.66379493  0.66243617  0.66618574  1
  Sn  Sn27  1  0.49962415  0.83340788  0.83332107  1
  Sn  Sn28  1  0.49923528  0.49986239  0.83424282  1
  Sn  Sn29  1  0.16732205  0.50024346  0.83279150  1
  Sn  Sn30  1  0.83366096  0.16637161  0.16653377  1
  Sn  Sn31  1  0.49896216  0.83237483  0.16681949  1
  Sn  Sn32  1  0.16691667  0.49989640  0.50084841  1
  Sn  Sn33  1  0.50011832  0.83399993  0.49996595  1
  Sn  Sn34  1  0.49961183  0.16691694  0.83232669  1
  Sn  Sn35  1  0.16658066  0.83352385  0.49946318  1
  Sn  Sn36  1  0.16740800  0.16669657  0.49995592  1
  Sn  Sn37  1  0.49974916  0.50074806  0.16623903  1
  Sn  Sn38  1  0.16736848  0.83369872  0.16654995  1
  Sn  Sn39  1  0.83335563  0.83298579  0.50035076  1
  Sn  Sn40  1  0.49901000  0.16610397  0.50069393  1
  Pb  Pb41  1  0.83328977  0.83481812  0.16827806  1
  Pb  Pb42  1  0.83010345  0.49758012  0.16683986  1
  Pb  Pb43  1  0.16850526  0.50220824  0.16637930  1
  Pb  Pb44  1  0.16851781  0.83149451  0.83350695  1
  Pb  Pb45  1  0.16891729  0.16926437  0.83094063  1
  Pb  Pb46  1  0.83325497  0.50003039  0.83327672  1
  Pb  Pb47  1  0.83337772  0.16482366  0.49876002  1
  Pb  Pb48  1  0.50083339  0.16651889  0.16718458  1
  Pb  Pb49  1  0.16433918  0.16367248  0.16872586  1
  Pb  Pb50  1  0.83015280  0.83335302  0.83025355  1
  Pb  Pb51  1  0.83044444  0.16659590  0.83590328  1
  Pb  Pb52  1  0.49863956  0.49980058  0.49991809  1
  Pb  Pb53  1  0.83719864  0.50305885  0.49993506  1
  I  I54  1  0.17454510  -0.00436161  0.17288656  1
  I  I55  1  0.16835332  -0.00110370  0.49488282  1
  I  I56  1  0.16800557  -0.00004767  0.83309072  1
  I  I57  1  0.16720480  0.33339986  0.16846089  1
  I  I58  1  0.17315975  0.33309262  0.50385561  1
  I  I59  1  0.17364209  0.33719054  0.82918854  1
  I  I60  1  0.16896517  0.67023077  0.17377092  1
  I  I61  1  0.16781970  0.66782774  0.50008524  1
  I  I62  1  0.17453060  0.66370003  0.82655263  1
  I  I63  1  0.49867647  -0.00307750  0.16541430  1
  I  I64  1  0.49647439  -0.00115444  0.50211866  1
  I  I65  1  0.50101796  -0.00053337  0.83242980  1
  I  I66  1  0.50180868  0.33550628  0.16351937  1
  I  I67  1  0.49598729  0.33069745  0.50170571  1
  I  I68  1  0.49624888  0.33373647  0.83423532  1
  I  I69  1  0.49704468  0.66812726  0.16488704  1
  I  I70  1  0.49901333  0.66970721  0.50153379  1
  I  I71  1  0.49639473  0.66685324  0.83295766  1
  I  I72  1  0.82901096  0.00210044  0.16936702  1
  I  I73  1  0.83533111  -0.00305887  0.49795349  1
  I  I74  1  0.83303650  -0.00009485  0.83368874  1
  I  I75  1  0.83163568  0.33005677  0.16888639  1
  I  I76  1  0.83225970  0.33319814  0.49865951  1
  I  I77  1  0.83030504  0.33324149  0.83237141  1
  I  I78  1  0.83436554  0.66689833  0.16770776  1
  I  I79  1  0.82879683  0.67104860  0.49829640  1
  I  I80  1  0.83101562  0.66684611  0.83387465  1
  I  I81  1  0.16701450  0.16686163  -0.00012520  1
  I  I82  1  0.17379847  0.17028088  0.33733936  1
  I  I83  1  0.16790096  0.15996332  0.66249054  1
  I  I84  1  0.17093927  0.50125837  -0.00259189  1
  I  I85  1  0.16866676  0.49961689  0.33610715  1
  I  I86  1  0.17401991  0.50309281  0.66592184  1
  I  I87  1  0.17235564  0.83174795  0.00252906  1
  I  I88  1  0.17142860  0.83132843  0.33520175  1
  I  I89  1  0.16776058  0.83431524  0.66321200  1
  I  I90  1  0.50307432  0.16464062  -0.00235768  1
  I  I91  1  0.49836239  0.16332944  0.33637345  1
  I  I92  1  0.49673790  0.16286925  0.66586127  1
  I  I93  1  0.49499060  0.50206461  -0.00098744  1
  I  I94  1  0.49831144  0.50322975  0.33119815  1
  I  I95  1  0.49740440  0.50276983  0.66916137  1
  I  I96  1  0.49556130  0.83316765  0.00038489  1
  I  I97  1  0.49931910  0.83370085  0.33414928  1
  I  I98  1  0.49984895  0.83370821  0.66579266  1
  I  I99  1  0.83097028  0.16483680  0.00336124  1
  I  I100  1  0.82917799  0.16489189  0.33138971  1
  I  I101  1  0.83404522  0.16565852  0.66659798  1
  I  I102  1  0.83712119  0.50062923  0.00011930  1
  I  I103  1  0.83200308  0.49940012  0.33346736  1
  I  I104  1  0.82763877  0.49920609  0.66642108  1
  I  I105  1  0.83357521  0.83441075  0.00000084  1
  I  I106  1  0.82926268  0.83518187  0.33628583  1
  I  I107  1  0.83559178  0.83507955  0.66218860  1
  I  I108  1  -0.00285368  0.16529133  0.17032695  1
  I  I109  1  0.00297259  0.16554546  0.49720201  1
  I  I110  1  0.00029180  0.16813380  0.83266877  1
  I  I111  1  0.00028344  0.50122947  0.16650691  1
  I  I112  1  0.00547653  0.49841607  0.50521224  1
  I  I113  1  0.00342055  0.50091166  0.82794676  1
  I  I114  1  0.00274312  0.83428645  0.17327042  1
  I  I115  1  0.00168485  0.83268195  0.49389469  1
  I  I116  1  0.00019678  0.83106626  0.83389539  1
  I  I117  1  0.33329954  0.16779811  0.16578770  1
  I  I118  1  0.33410113  0.16129949  0.50249237  1
  I  I119  1  0.33746049  0.16385595  0.83312443  1
  I  I120  1  0.33677625  0.50084101  0.16534174  1
  I  I121  1  0.33057735  0.50454487  0.50105761  1
  I  I122  1  0.33494272  0.50076966  0.83233963  1
  I  I123  1  0.33492464  0.83056566  0.17253941  1
  I  I124  1  0.33378086  0.83404804  0.49919422  1
  I  I125  1  0.33728213  0.83441754  0.82896462  1
  I  I126  1  0.66813599  0.16450345  0.16891635  1
  I  I127  1  0.66341365  0.16225660  0.50171664  1
  I  I128  1  0.66166899  0.16885737  0.82620946  1
  I  I129  1  0.66177513  0.50680968  0.16135344  1
  I  I130  1  0.66652488  0.49988706  0.50004090  1
  I  I131  1  0.66243575  0.50062580  0.83700863  1
  I  I132  1  0.66307423  0.83172194  0.16752576  1
  I  I133  1  0.66455881  0.83870083  0.49962772  1
  I  I134  1  0.66126243  0.83096045  0.83491412  1
