# generated using pymatgen
data_Cs27Sn14Pb13I81
_symmetry_space_group_name_H-M   'P 1'
_cell_length_a   18.97968615
_cell_length_b   18.97628192
_cell_length_c   18.97071895
_cell_angle_alpha   90.00097408
_cell_angle_beta   89.99860832
_cell_angle_gamma   89.99997055
_symmetry_Int_Tables_number   1
_chemical_formula_structural   Cs27Sn14Pb13I81
_chemical_formula_sum   'Cs27 Sn14 Pb13 I81'
_cell_volume   6832.56764694
_cell_formula_units_Z   1
loop_
 _symmetry_equiv_pos_site_id
 _symmetry_equiv_pos_as_xyz
  1  'x, y, z'
loop_
 _atom_site_type_symbol
 _atom_site_label
 _atom_site_symmetry_multiplicity
 _atom_site_fract_x
 _atom_site_fract_y
 _atom_site_fract_z
 _atom_site_occupancy
  Cs  Cs0  1  -0.00012099  0.00076124  -0.00524866  1
  Cs  Cs1  1  0.00121537  0.00071836  0.33462805  1
  Cs  Cs2  1  0.00124962  -0.00239100  0.67027852  1
  Cs  Cs3  1  -0.00425822  0.33345434  -0.00050980  1
  Cs  Cs4  1  0.00398752  0.32946382  0.33278105  1
  Cs  Cs5  1  0.00011582  0.33500815  0.66781846  1
  Cs  Cs6  1  -0.00098741  0.66644328  0.00084725  1
  Cs  Cs7  1  -0.00006364  0.66745059  0.33094870  1
  Cs  Cs8  1  -0.00732789  0.66635773  0.66955470  1
  Cs  Cs9  1  0.33413368  -0.00114471  -0.00461132  1
  Cs  Cs10  1  0.33082575  -0.00183359  0.33664419  1
  Cs  Cs11  1  0.33257645  0.00067437  0.66538068  1
  Cs  Cs12  1  0.33670337  0.33559339  -0.00027521  1
  Cs  Cs13  1  0.33161358  0.33659898  0.33333005  1
  Cs  Cs14  1  0.33280538  0.33306824  0.66583769  1
  Cs  Cs15  1  0.33318757  0.66647605  0.00018973  1
  Cs  Cs16  1  0.33267435  0.66653620  0.33220250  1
  Cs  Cs17  1  0.33419355  0.66660102  0.66831791  1
  Cs  Cs18  1  0.66594264  0.00916435  0.00246611  1
  Cs  Cs19  1  0.66744612  -0.00047831  0.33265882  1
  Cs  Cs20  1  0.66513852  -0.00185662  0.66504183  1
  Cs  Cs21  1  0.66863679  0.32163690  0.00079094  1
  Cs  Cs22  1  0.66382394  0.33337306  0.33235806  1
  Cs  Cs23  1  0.66907483  0.33907849  0.66720728  1
  Cs  Cs24  1  0.66735878  0.66773736  -0.00107069  1
  Cs  Cs25  1  0.66709341  0.66635314  0.33485447  1
  Cs  Cs26  1  0.67227581  0.66334570  0.66681641  1
  Sn  Sn27  1  0.49934170  0.50066883  0.83362092  1
  Sn  Sn28  1  0.16744048  0.50033017  0.83270733  1
  Sn  Sn29  1  0.49995939  0.16629727  0.49989512  1
  Sn  Sn30  1  0.83347180  0.16658174  0.50004571  1
  Sn  Sn31  1  0.83351379  0.83287190  0.16683678  1
  Sn  Sn32  1  0.16660077  0.83442737  0.16704367  1
  Sn  Sn33  1  0.49982759  0.83322590  0.16675815  1
  Sn  Sn34  1  0.49943664  0.83351526  0.50010544  1
  Sn  Sn35  1  0.16667863  0.16639855  0.49951795  1
  Sn  Sn36  1  0.49999250  0.83244041  0.83309229  1
  Sn  Sn37  1  0.83303576  0.50016743  0.16699639  1
  Sn  Sn38  1  0.16667064  0.50080788  0.50090226  1
  Sn  Sn39  1  0.16721949  0.16551327  0.16683700  1
  Sn  Sn40  1  0.16697223  0.83275186  0.49972775  1
  Pb  Pb41  1  0.50239256  0.50206355  0.16414574  1
  Pb  Pb42  1  0.49822517  0.50069331  0.50149917  1
  Pb  Pb43  1  0.49978754  0.16662692  0.83040866  1
  Pb  Pb44  1  0.16826434  0.83129977  0.83321042  1
  Pb  Pb45  1  0.49696187  0.16416524  0.16935528  1
  Pb  Pb46  1  0.82985826  0.83357763  0.83644395  1
  Pb  Pb47  1  0.83347129  0.16644593  0.82980074  1
  Pb  Pb48  1  0.16556889  0.50026185  0.16653322  1
  Pb  Pb49  1  0.83298096  0.50002707  0.83592113  1
  Pb  Pb50  1  0.83567266  0.16596138  0.16855976  1
  Pb  Pb51  1  0.83350820  0.83485849  0.49812686  1
  Pb  Pb52  1  0.16684083  0.16927217  0.83325570  1
  Pb  Pb53  1  0.83622391  0.49779193  0.49752396  1
  I  I54  1  0.16509719  -0.00142909  0.17551716  1
  I  I55  1  0.16779667  -0.00023284  0.49434235  1
  I  I56  1  0.16782165  -0.00024861  0.83164947  1
  I  I57  1  0.16332443  0.33123997  0.17104071  1
  I  I58  1  0.16677349  0.33244913  0.49912540  1
  I  I59  1  0.17271357  0.33719064  0.82956725  1
  I  I60  1  0.16841572  0.66991448  0.17011306  1
  I  I61  1  0.17279552  0.66793020  0.49804612  1
  I  I62  1  0.16934132  0.66353184  0.82988674  1
  I  I63  1  0.50594442  -0.00430499  0.16128427  1
  I  I64  1  0.49530344  -0.00122581  0.50156003  1
  I  I65  1  0.50032883  -0.00332041  0.83547119  1
  I  I66  1  0.50069736  0.33306316  0.16619961  1
  I  I67  1  0.49851811  0.33090304  0.50209474  1
  I  I68  1  0.49591474  0.33615948  0.83130693  1
  I  I69  1  0.49405471  0.67079586  0.17230814  1
  I  I70  1  0.49474510  0.67024538  0.49744358  1
  I  I71  1  0.49485185  0.66762125  0.83189883  1
  I  I72  1  0.83078370  -0.00302488  0.16842591  1
  I  I73  1  0.83742515  0.00273743  0.49635117  1
  I  I74  1  0.83280758  -0.00023911  0.83671676  1
  I  I75  1  0.83695782  0.33498572  0.16733052  1
  I  I76  1  0.83237266  0.32989439  0.49720235  1
  I  I77  1  0.83107872  0.33354475  0.83734369  1
  I  I78  1  0.83652457  0.66819153  0.16740842  1
  I  I79  1  0.83332751  0.66665046  0.50055131  1
  I  I80  1  0.83504970  0.66679448  0.83034661  1
  I  I81  1  0.16540196  0.16228763  0.00303723  1
  I  I82  1  0.16640208  0.16807392  0.33500554  1
  I  I83  1  0.16705020  0.16372629  0.66271186  1
  I  I84  1  0.16899761  0.50058759  -0.00224025  1
  I  I85  1  0.16488081  0.49907368  0.33599602  1
  I  I86  1  0.17062426  0.49868571  0.66555958  1
  I  I87  1  0.16734854  0.83600736  0.00317097  1
  I  I88  1  0.17100106  0.83207843  0.33373151  1
  I  I89  1  0.17170078  0.83705104  0.66329621  1
  I  I90  1  0.49923814  0.16627619  0.00022187  1
  I  I91  1  0.50157820  0.16206458  0.33743470  1
  I  I92  1  0.49592963  0.16039240  0.66227411  1
  I  I93  1  0.49167726  0.50634416  -0.00367600  1
  I  I94  1  0.49938340  0.50015477  0.33330919  1
  I  I95  1  0.49843422  0.50517245  0.66942357  1
  I  I96  1  0.49915434  0.82694493  0.00050999  1
  I  I97  1  0.49901226  0.83846476  0.33365736  1
  I  I98  1  0.49363654  0.83488431  0.66544531  1
  I  I99  1  0.83461836  0.16769430  0.00051961  1
  I  I100  1  0.83263301  0.16629921  0.33633408  1
  I  I101  1  0.83686840  0.16684528  0.66162512  1
  I  I102  1  0.83725701  0.50488866  0.00350207  1
  I  I103  1  0.83505765  0.50551813  0.33017168  1
  I  I104  1  0.83249814  0.49774390  0.66648467  1
  I  I105  1  0.83679434  0.82911547  0.00476160  1
  I  I106  1  0.82949578  0.83028458  0.33004504  1
  I  I107  1  0.83377846  0.83517792  0.66649550  1
  I  I108  1  0.00339751  0.16233179  0.17400356  1
  I  I109  1  0.00173119  0.16744039  0.49481293  1
  I  I110  1  0.00041328  0.16894771  0.83213889  1
  I  I111  1  -0.00195392  0.50582746  0.16579873  1
  I  I112  1  0.00459125  0.50099534  0.50574347  1
  I  I113  1  0.00274459  0.49882855  0.82970469  1
  I  I114  1  0.00124668  0.83266868  0.17294293  1
  I  I115  1  0.00337937  0.83430529  0.49492818  1
  I  I116  1  0.00001496  0.83186907  0.83292538  1
  I  I117  1  0.32918875  0.16349322  0.17287551  1
  I  I118  1  0.33237529  0.16517040  0.49709191  1
  I  I119  1  0.33333952  0.16554111  0.83174696  1
  I  I120  1  0.33333396  0.49993597  0.16763076  1
  I  I121  1  0.32990444  0.49575943  0.49979171  1
  I  I122  1  0.33313153  0.50366485  0.83004465  1
  I  I123  1  0.33296689  0.83768641  0.16802411  1
  I  I124  1  0.33302902  0.83774799  0.49568255  1
  I  I125  1  0.33637384  0.83140021  0.83726934  1
  I  I126  1  0.66651547  0.16675692  0.16808887  1
  I  I127  1  0.66585270  0.16043395  0.50075900  1
  I  I128  1  0.66634306  0.16889342  0.83379888  1
  I  I129  1  0.66998669  0.50548699  0.16650126  1
  I  I130  1  0.66673282  0.49893824  0.50129918  1
  I  I131  1  0.66362156  0.50547456  0.83310751  1
  I  I132  1  0.66608898  0.82722230  0.16709266  1
  I  I133  1  0.66358517  0.83849957  0.49923353  1
  I  I134  1  0.66161477  0.82579145  0.82951329  1
