# generated using pymatgen
data_Cs27Sn13Pb14I81
_symmetry_space_group_name_H-M   'P 1'
_cell_length_a   18.96809747
_cell_length_b   18.97712565
_cell_length_c   18.98647670
_cell_angle_alpha   89.99973804
_cell_angle_beta   90.00126803
_cell_angle_gamma   90.00090702
_symmetry_Int_Tables_number   1
_chemical_formula_structural   Cs27Sn13Pb14I81
_chemical_formula_sum   'Cs27 Sn13 Pb14 I81'
_cell_volume   6834.37156161
_cell_formula_units_Z   1
loop_
 _symmetry_equiv_pos_site_id
 _symmetry_equiv_pos_as_xyz
  1  'x, y, z'
loop_
 _atom_site_type_symbol
 _atom_site_label
 _atom_site_symmetry_multiplicity
 _atom_site_fract_x
 _atom_site_fract_y
 _atom_site_fract_z
 _atom_site_occupancy
  Cs  Cs0  1  -0.00127183  -0.00272286  -0.00029292  1
  Cs  Cs1  1  0.00221978  -0.00211734  0.33524110  1
  Cs  Cs2  1  -0.00045260  0.00221548  0.66520303  1
  Cs  Cs3  1  -0.00047818  0.33192882  -0.00340311  1
  Cs  Cs4  1  -0.00530174  0.33332853  0.33560852  1
  Cs  Cs5  1  0.00030837  0.32429663  0.66739325  1
  Cs  Cs6  1  0.00116237  0.66784205  -0.00047905  1
  Cs  Cs7  1  0.00099696  0.66836263  0.33325911  1
  Cs  Cs8  1  -0.00004036  0.66758817  0.66748572  1
  Cs  Cs9  1  0.33574555  -0.00199681  0.00354896  1
  Cs  Cs10  1  0.33281194  0.00032716  0.33201580  1
  Cs  Cs11  1  0.33659630  0.00234150  0.66518798  1
  Cs  Cs12  1  0.33249355  0.33420591  -0.00232294  1
  Cs  Cs13  1  0.33408421  0.33389778  0.33268249  1
  Cs  Cs14  1  0.33253788  0.33042594  0.66899158  1
  Cs  Cs15  1  0.33174703  0.66711573  -0.00080994  1
  Cs  Cs16  1  0.33381775  0.66541529  0.33490978  1
  Cs  Cs17  1  0.33479905  0.66632462  0.66606755  1
  Cs  Cs18  1  0.66457313  0.00240914  0.00125433  1
  Cs  Cs19  1  0.66338708  0.00177039  0.32886399  1
  Cs  Cs20  1  0.66427001  0.00018944  0.66814994  1
  Cs  Cs21  1  0.66746799  0.33169650  0.00480815  1
  Cs  Cs22  1  0.67227920  0.34102207  0.32805095  1
  Cs  Cs23  1  0.66648208  0.33361947  0.66564941  1
  Cs  Cs24  1  0.66690881  0.66626126  -0.00289602  1
  Cs  Cs25  1  0.66234234  0.65712199  0.33620263  1
  Cs  Cs26  1  0.66522652  0.66584039  0.66692737  1
  Sn  Sn27  1  0.16632223  0.49997719  0.16755130  1
  Sn  Sn28  1  0.50055770  0.16708620  0.49975531  1
  Sn  Sn29  1  0.16626964  0.50029344  0.49978074  1
  Sn  Sn30  1  0.83411770  0.83268488  0.83314381  1
  Sn  Sn31  1  0.83294664  0.50044730  0.83299684  1
  Sn  Sn32  1  0.16619402  0.83264418  0.50022229  1
  Sn  Sn33  1  0.83366155  0.83286950  0.16698590  1
  Sn  Sn34  1  0.50004679  0.16768169  0.83277471  1
  Sn  Sn35  1  0.16612964  0.83302122  0.16682674  1
  Sn  Sn36  1  0.16621878  0.16686088  0.16666411  1
  Sn  Sn37  1  0.50085870  0.49914742  0.83329309  1
  Sn  Sn38  1  0.16618645  0.83345940  0.83287764  1
  Sn  Sn39  1  0.83342175  0.83327798  0.49984230  1
  Pb  Pb40  1  0.49822771  0.16695858  0.16684310  1
  Pb  Pb41  1  0.50030685  0.83278521  0.16697243  1
  Pb  Pb42  1  0.16795870  0.16650360  0.49806135  1
  Pb  Pb43  1  0.16626518  0.50158587  0.83290569  1
  Pb  Pb44  1  0.50009851  0.83483456  0.49986603  1
  Pb  Pb45  1  0.50045358  0.83324332  0.83332367  1
  Pb  Pb46  1  0.49769271  0.49765042  0.50217720  1
  Pb  Pb47  1  0.83609088  0.16424899  0.16675657  1
  Pb  Pb48  1  0.83097762  0.16618903  0.83330758  1
  Pb  Pb49  1  0.83600680  0.50253385  0.16442303  1
  Pb  Pb50  1  0.49760700  0.50015208  0.16403058  1
  Pb  Pb51  1  0.83047860  0.16405340  0.49976705  1
  Pb  Pb52  1  0.16875346  0.16333607  0.83542502  1
  Pb  Pb53  1  0.83592127  0.50208365  0.50248340  1
  I  I54  1  0.16429606  -0.00175556  0.16621334  1
  I  I55  1  0.16448712  -0.00343381  0.49931191  1
  I  I56  1  0.16199378  -0.00487266  0.83262438  1
  I  I57  1  0.17044326  0.33403000  0.17061656  1
  I  I58  1  0.16985771  0.33588553  0.49613589  1
  I  I59  1  0.16487330  0.33327284  0.83404955  1
  I  I60  1  0.16336365  0.66795300  0.16656518  1
  I  I61  1  0.16445702  0.66823392  0.49568415  1
  I  I62  1  0.16768363  0.66982519  0.83754188  1
  I  I63  1  0.49727854  0.00002019  0.16364323  1
  I  I64  1  0.49740914  0.00260540  0.50770184  1
  I  I65  1  0.49843231  0.00228334  0.83008796  1
  I  I66  1  0.49661844  0.33346786  0.16723245  1
  I  I67  1  0.49566043  0.33010512  0.50361610  1
  I  I68  1  0.50318979  0.33370373  0.82931684  1
  I  I69  1  0.49637725  0.66644408  0.16457698  1
  I  I70  1  0.50041220  0.66632692  0.50143015  1
  I  I71  1  0.50040000  0.66425612  0.83439561  1
  I  I72  1  0.83871693  -0.00450454  0.16322726  1
  I  I73  1  0.84144593  -0.00475526  0.50324427  1
  I  I74  1  0.83660280  -0.00386896  0.83382714  1
  I  I75  1  0.83487560  0.33380254  0.16437497  1
  I  I76  1  0.83525693  0.33368251  0.50265077  1
  I  I77  1  0.83227392  0.33617865  0.83348977  1
  I  I78  1  0.84072232  0.67074264  0.16744363  1
  I  I79  1  0.83519479  0.67065928  0.49834247  1
  I  I80  1  0.83122231  0.66817424  0.83395024  1
  I  I81  1  0.16910948  0.16704639  0.00323883  1
  I  I82  1  0.17033809  0.16100139  0.33034871  1
  I  I83  1  0.16699438  0.16661867  0.66675064  1
  I  I84  1  0.16753939  0.50200623  0.00218975  1
  I  I85  1  0.16786517  0.50579723  0.33304235  1
  I  I86  1  0.16782422  0.50654383  0.66444577  1
  I  I87  1  0.16214432  0.83311265  0.00042612  1
  I  I88  1  0.16160353  0.83334723  0.33308295  1
  I  I89  1  0.16160476  0.82814001  0.66631516  1
  I  I90  1  0.49844140  0.16924048  -0.00281294  1
  I  I91  1  0.49643355  0.16200037  0.33578244  1
  I  I92  1  0.49767214  0.16867884  0.66758995  1
  I  I93  1  0.50126433  0.49452261  -0.00408770  1
  I  I94  1  0.50047832  0.49865379  0.33355487  1
  I  I95  1  0.50053679  0.49962744  0.67011367  1
  I  I96  1  0.49768768  0.83610022  -0.00019989  1
  I  I97  1  0.49880459  0.83774401  0.33348833  1
  I  I98  1  0.49803539  0.83290162  0.66682425  1
  I  I99  1  0.83127375  0.16372046  -0.00010839  1
  I  I100  1  0.83014772  0.16535357  0.33326644  1
  I  I101  1  0.83654944  0.16367328  0.66672649  1
  I  I102  1  0.83172677  0.50638906  -0.00342733  1
  I  I103  1  0.83190202  0.50086762  0.33338538  1
  I  I104  1  0.83150159  0.50747911  0.67023968  1
  I  I105  1  0.84051076  0.82986746  -0.00045781  1
  I  I106  1  0.84196063  0.83633962  0.33329505  1
  I  I107  1  0.83991841  0.82993307  0.66718541  1
  I  I108  1  0.00434847  0.16763657  0.16678749  1
  I  I109  1  0.00012109  0.16790775  0.49910146  1
  I  I110  1  0.00016338  0.16925145  0.83443342  1
  I  I111  1  0.00427423  0.49940611  0.16759736  1
  I  I112  1  0.00402345  0.50199159  0.49752629  1
  I  I113  1  -0.00227418  0.50516325  0.83461229  1
  I  I114  1  0.00154501  0.83366252  0.16556339  1
  I  I115  1  0.00125761  0.83053558  0.50003060  1
  I  I116  1  -0.00008082  0.82767295  0.83443183  1
  I  I117  1  0.32986473  0.16185341  0.16602203  1
  I  I118  1  0.33566196  0.16416159  0.50442345  1
  I  I119  1  0.33642127  0.17158938  0.83023179  1
  I  I120  1  0.32896702  0.50395408  0.16767231  1
  I  I121  1  0.32963449  0.50752144  0.49806433  1
  I  I122  1  0.33511584  0.49785145  0.83396303  1
  I  I123  1  0.32904789  0.83416328  0.16563696  1
  I  I124  1  0.32962446  0.83115289  0.49997860  1
  I  I125  1  0.33036179  0.83295344  0.83429542  1
  I  I126  1  0.66676720  0.16307222  0.16565148  1
  I  I127  1  0.66267301  0.16353807  0.50615573  1
  I  I128  1  0.66299321  0.16454559  0.83018977  1
  I  I129  1  0.66715453  0.50160739  0.16741307  1
  I  I130  1  0.66684318  0.50138503  0.49983771  1
  I  I131  1  0.66700911  0.50395551  0.83266308  1
  I  I132  1  0.67041079  0.83512318  0.16429289  1
  I  I133  1  0.67004414  0.83625879  0.50209575  1
  I  I134  1  0.67012966  0.83259714  0.83348061  1
