# generated using pymatgen
data_Cs27Sn14Pb13I81
_symmetry_space_group_name_H-M   'P 1'
_cell_length_a   18.98177629
_cell_length_b   18.95932870
_cell_length_c   18.98688629
_cell_angle_alpha   90.00110373
_cell_angle_beta   90.00018664
_cell_angle_gamma   90.00193408
_symmetry_Int_Tables_number   1
_chemical_formula_structural   Cs27Sn14Pb13I81
_chemical_formula_sum   'Cs27 Sn14 Pb13 I81'
_cell_volume   6833.03359187
_cell_formula_units_Z   1
loop_
 _symmetry_equiv_pos_site_id
 _symmetry_equiv_pos_as_xyz
  1  'x, y, z'
loop_
 _atom_site_type_symbol
 _atom_site_label
 _atom_site_symmetry_multiplicity
 _atom_site_fract_x
 _atom_site_fract_y
 _atom_site_fract_z
 _atom_site_occupancy
  Cs  Cs0  1  -0.00461471  -0.00411725  -0.00163638  1
  Cs  Cs1  1  0.00307331  0.00037845  0.33671798  1
  Cs  Cs2  1  -0.00170508  0.00237825  0.66492268  1
  Cs  Cs3  1  0.00297312  0.33406925  0.00118569  1
  Cs  Cs4  1  -0.00053260  0.33277050  0.33385951  1
  Cs  Cs5  1  -0.00206624  0.33170631  0.66473567  1
  Cs  Cs6  1  0.00766783  0.67229878  -0.00041584  1
  Cs  Cs7  1  -0.00211160  0.66636874  0.33147131  1
  Cs  Cs8  1  0.00139366  0.66506295  0.66745607  1
  Cs  Cs9  1  0.33572333  0.00339798  -0.00028889  1
  Cs  Cs10  1  0.33193099  -0.00423951  0.33633754  1
  Cs  Cs11  1  0.33191142  -0.00603667  0.66454026  1
  Cs  Cs12  1  0.33335052  0.33245747  0.00005901  1
  Cs  Cs13  1  0.33628315  0.33307887  0.33130438  1
  Cs  Cs14  1  0.33629869  0.33352295  0.66865531  1
  Cs  Cs15  1  0.32276574  0.67209701  -0.00169435  1
  Cs  Cs16  1  0.33097379  0.67280132  0.33373130  1
  Cs  Cs17  1  0.33131748  0.67241329  0.66734223  1
  Cs  Cs18  1  0.66936494  -0.00549977  -0.00083494  1
  Cs  Cs19  1  0.66518752  -0.00142302  0.33024125  1
  Cs  Cs20  1  0.66956679  -0.00070413  0.67128081  1
  Cs  Cs21  1  0.66369373  0.33360382  0.00118810  1
  Cs  Cs22  1  0.66515504  0.33521729  0.33193578  1
  Cs  Cs23  1  0.66599530  0.33436213  0.66696849  1
  Cs  Cs24  1  0.66736988  0.66991502  0.00058961  1
  Cs  Cs25  1  0.66857573  0.66445427  0.33512306  1
  Cs  Cs26  1  0.66608702  0.66345953  0.66402359  1
  Sn  Sn27  1  0.83288632  0.49918756  0.16579138  1
  Sn  Sn28  1  0.50023798  0.50026540  0.16620733  1
  Sn  Sn29  1  0.50030096  0.16719048  0.50010682  1
  Sn  Sn30  1  0.83345670  0.50035731  0.49998736  1
  Sn  Sn31  1  0.16723343  0.49916664  0.49985905  1
  Sn  Sn32  1  0.16682539  0.16724185  0.16600950  1
  Sn  Sn33  1  0.83284782  0.83270231  0.49999619  1
  Sn  Sn34  1  0.49936414  0.49937660  0.49985243  1
  Sn  Sn35  1  0.50022922  0.16729051  0.16662925  1
  Sn  Sn36  1  0.83304741  0.16766838  0.16666310  1
  Sn  Sn37  1  0.49939841  0.16735515  0.83336579  1
  Sn  Sn38  1  0.83287015  0.49945110  0.83411827  1
  Sn  Sn39  1  0.50050054  0.49996808  0.83391392  1
  Sn  Sn40  1  0.16723206  0.16743266  0.83368513  1
  Pb  Pb41  1  0.83309750  0.82968393  0.83075584  1
  Pb  Pb42  1  0.50010962  0.83280762  0.83337365  1
  Pb  Pb43  1  0.83285165  0.16890881  0.83580430  1
  Pb  Pb44  1  0.16658637  0.83730906  0.16674902  1
  Pb  Pb45  1  0.16705507  0.49831120  0.16855763  1
  Pb  Pb46  1  0.16928968  0.16862840  0.50012953  1
  Pb  Pb47  1  0.16659903  0.83744886  0.83313209  1
  Pb  Pb48  1  0.50221173  0.83290411  0.50000683  1
  Pb  Pb49  1  0.83317742  0.83259364  0.16862645  1
  Pb  Pb50  1  0.83074853  0.16744646  0.49784445  1
  Pb  Pb51  1  0.16374015  0.83026865  0.49997828  1
  Pb  Pb52  1  0.50006138  0.83246151  0.16660977  1
  Pb  Pb53  1  0.16714982  0.49802137  0.83131119  1
  I  I54  1  0.16728847  0.00583261  0.16449170  1
  I  I55  1  0.16613478  0.00030626  0.49976467  1
  I  I56  1  0.17349407  0.00559691  0.83682992  1
  I  I57  1  0.16705926  0.33004102  0.16374785  1
  I  I58  1  0.16015472  0.33637973  0.49970374  1
  I  I59  1  0.16918050  0.33019175  0.83761112  1
  I  I60  1  0.16650306  0.66643879  0.16843592  1
  I  I61  1  0.17306051  0.66204158  0.50025461  1
  I  I62  1  0.16677530  0.66639259  0.83161362  1
  I  I63  1  0.50051669  0.00427059  0.16698844  1
  I  I64  1  0.50099573  0.00322373  0.49890492  1
  I  I65  1  0.49552621  0.00397577  0.83346491  1
  I  I66  1  0.50108965  0.33306785  0.16758579  1
  I  I67  1  0.50252211  0.33459325  0.49961490  1
  I  I68  1  0.50013688  0.33354330  0.83284093  1
  I  I69  1  0.50715300  0.66200208  0.16881323  1
  I  I70  1  0.49892681  0.66233131  0.49996271  1
  I  I71  1  0.50554446  0.66217225  0.83142127  1
  I  I72  1  0.83241969  0.00325558  0.16829873  1
  I  I73  1  0.83129408  -0.00147972  0.49713222  1
  I  I74  1  0.83374987  0.00024564  0.83293881  1
  I  I75  1  0.83198168  0.33435935  0.16998873  1
  I  I76  1  0.83467029  0.33708796  0.50143682  1
  I  I77  1  0.83167566  0.33703823  0.82630938  1
  I  I78  1  0.82724940  0.66240612  0.16651986  1
  I  I79  1  0.83105212  0.66342533  0.49808188  1
  I  I80  1  0.82680453  0.66115908  0.83767389  1
  I  I81  1  0.17234348  0.16899444  0.00055417  1
  I  I82  1  0.16689230  0.16868588  0.33070864  1
  I  I83  1  0.17103122  0.16903955  0.66911357  1
  I  I84  1  0.16553759  0.50084124  -0.00001002  1
  I  I85  1  0.16594126  0.49648792  0.33631516  1
  I  I86  1  0.16548715  0.49677328  0.66358148  1
  I  I87  1  0.16504519  0.82736038  -0.00008210  1
  I  I88  1  0.16685935  0.83597854  0.33365754  1
  I  I89  1  0.16640743  0.83533937  0.66634604  1
  I  I90  1  0.49819155  0.17279917  0.00041028  1
  I  I91  1  0.50079856  0.17281206  0.33263720  1
  I  I92  1  0.49554634  0.17383286  0.66699923  1
  I  I93  1  0.50898992  0.49198865  0.00025284  1
  I  I94  1  0.50380184  0.49314198  0.33342181  1
  I  I95  1  0.50388226  0.49338429  0.66638365  1
  I  I96  1  0.50149187  0.83398232  -0.00002027  1
  I  I97  1  0.50051824  0.83499004  0.33341566  1
  I  I98  1  0.50115357  0.83459129  0.66659313  1
  I  I99  1  0.82959941  0.17207044  0.00380568  1
  I  I100  1  0.83391436  0.17198244  0.32986288  1
  I  I101  1  0.83423166  0.16640661  0.66668033  1
  I  I102  1  0.82539929  0.49302228  0.00079468  1
  I  I103  1  0.83068806  0.50021735  0.33342791  1
  I  I104  1  0.83055489  0.50440825  0.66608781  1
  I  I105  1  0.83371084  0.83373717  -0.00004797  1
  I  I106  1  0.83243026  0.82598990  0.33617833  1
  I  I107  1  0.83226304  0.82884620  0.66293513  1
  I  I108  1  -0.00039754  0.17158843  0.16317158  1
  I  I109  1  -0.00015746  0.16723689  0.49946507  1
  I  I110  1  0.00199120  0.16860480  0.83770062  1
  I  I111  1  -0.00288573  0.49521706  0.16857030  1
  I  I112  1  -0.00125727  0.50446445  0.49989014  1
  I  I113  1  -0.00252105  0.49813590  0.83171487  1
  I  I114  1  -0.00023868  0.83253136  0.16814369  1
  I  I115  1  -0.00399363  0.82860070  0.49904124  1
  I  I116  1  -0.00024588  0.83309616  0.83265848  1
  I  I117  1  0.33472425  0.17122946  0.16566409  1
  I  I118  1  0.33728005  0.17291910  0.49561607  1
  I  I119  1  0.33504685  0.17312144  0.83836229  1
  I  I120  1  0.33674048  0.49471277  0.16719133  1
  I  I121  1  0.33489735  0.49320221  0.49978053  1
  I  I122  1  0.33679703  0.49684165  0.83313431  1
  I  I123  1  0.33331945  0.83118451  0.16836937  1
  I  I124  1  0.33330975  0.83312924  0.49994340  1
  I  I125  1  0.33332560  0.82765042  0.83176489  1
  I  I126  1  0.66574439  0.17101721  0.16807098  1
  I  I127  1  0.66274056  0.17244185  0.50107999  1
  I  I128  1  0.66336570  0.16890074  0.83261253  1
  I  I129  1  0.66658206  0.49199502  0.17159770  1
  I  I130  1  0.66644586  0.50055530  0.49993743  1
  I  I131  1  0.66586336  0.49416723  0.82863071  1
  I  I132  1  0.66673532  0.83920704  0.16726903  1
  I  I133  1  0.66957560  0.82570565  0.49900911  1
  I  I134  1  0.66680469  0.83969908  0.83331311  1
