# generated using pymatgen
data_Cs27Sn14Pb13I81
_symmetry_space_group_name_H-M   'P 1'
_cell_length_a   18.97349911
_cell_length_b   18.97432115
_cell_length_c   18.98027283
_cell_angle_alpha   89.99851280
_cell_angle_beta   89.99899059
_cell_angle_gamma   90.00150252
_symmetry_Int_Tables_number   1
_chemical_formula_structural   Cs27Sn14Pb13I81
_chemical_formula_sum   'Cs27 Sn14 Pb13 I81'
_cell_volume   6833.07407142
_cell_formula_units_Z   1
loop_
 _symmetry_equiv_pos_site_id
 _symmetry_equiv_pos_as_xyz
  1  'x, y, z'
loop_
 _atom_site_type_symbol
 _atom_site_label
 _atom_site_symmetry_multiplicity
 _atom_site_fract_x
 _atom_site_fract_y
 _atom_site_fract_z
 _atom_site_occupancy
  Cs  Cs0  1  -0.00013974  -0.00059884  0.00045109  1
  Cs  Cs1  1  -0.00144564  0.00166954  0.33141518  1
  Cs  Cs2  1  -0.00150144  -0.00138723  0.66772612  1
  Cs  Cs3  1  -0.00154744  0.33097195  0.00372155  1
  Cs  Cs4  1  0.00173885  0.33349068  0.32925934  1
  Cs  Cs5  1  0.00193447  0.33755182  0.66656070  1
  Cs  Cs6  1  -0.00072288  0.66891115  -0.00238139  1
  Cs  Cs7  1  0.00000637  0.66553815  0.33450331  1
  Cs  Cs8  1  0.00049322  0.66657464  0.66756832  1
  Cs  Cs9  1  0.33193483  -0.00231052  0.00283247  1
  Cs  Cs10  1  0.33601474  0.00057090  0.33060505  1
  Cs  Cs11  1  0.33260857  0.00111349  0.66775514  1
  Cs  Cs12  1  0.33604837  0.33190675  -0.00052106  1
  Cs  Cs13  1  0.32951464  0.33234232  0.33507540  1
  Cs  Cs14  1  0.33428003  0.33451506  0.66639569  1
  Cs  Cs15  1  0.33654582  0.66852420  -0.00070408  1
  Cs  Cs16  1  0.33424819  0.66701885  0.33292483  1
  Cs  Cs17  1  0.32942515  0.66374423  0.66819859  1
  Cs  Cs18  1  0.66694136  -0.00029138  -0.00303480  1
  Cs  Cs19  1  0.66179946  -0.00283802  0.34492106  1
  Cs  Cs20  1  0.66607735  0.00733587  0.66043951  1
  Cs  Cs21  1  0.66537558  0.33205219  -0.00034151  1
  Cs  Cs22  1  0.67087968  0.33322913  0.32962428  1
  Cs  Cs23  1  0.66372509  0.32630904  0.67002868  1
  Cs  Cs24  1  0.66537388  0.66582945  0.00253537  1
  Cs  Cs25  1  0.66403516  0.66957551  0.32966565  1
  Cs  Cs26  1  0.67014911  0.66733730  0.66682160  1
  Sn  Sn27  1  0.50032717  0.16667535  0.16671376  1
  Sn  Sn28  1  0.83388570  0.83349444  0.16636712  1
  Sn  Sn29  1  0.83188924  0.83266651  0.83376140  1
  Sn  Sn30  1  0.16636433  0.16790522  0.83281449  1
  Sn  Sn31  1  0.50158470  0.83313083  0.83264155  1
  Sn  Sn32  1  0.83396916  0.50056157  0.83279669  1
  Sn  Sn33  1  0.16657441  0.83347828  0.49888516  1
  Sn  Sn34  1  0.50056915  0.50019229  0.50007226  1
  Sn  Sn35  1  0.16640212  0.50020184  0.49989219  1
  Sn  Sn36  1  0.16596250  0.49902766  0.83397986  1
  Sn  Sn37  1  0.16579521  0.83231553  0.16767410  1
  Sn  Sn38  1  0.16680030  0.50109100  0.16611509  1
  Sn  Sn39  1  0.83308640  0.50016355  0.50078430  1
  Sn  Sn40  1  0.16642222  0.16647543  0.50096983  1
  Pb  Pb41  1  0.83531117  0.50179696  0.16619980  1
  Pb  Pb42  1  0.83537451  0.83141460  0.50029577  1
  Pb  Pb43  1  0.50037246  0.50143618  0.83153107  1
  Pb  Pb44  1  0.49746167  0.49828496  0.16886093  1
  Pb  Pb45  1  0.50013818  0.83473999  0.16519974  1
  Pb  Pb46  1  0.49729696  0.83120546  0.50264102  1
  Pb  Pb47  1  0.49731182  0.16429401  0.83472583  1
  Pb  Pb48  1  0.83615298  0.17000691  0.50004998  1
  Pb  Pb49  1  0.49759758  0.16929189  0.49828679  1
  Pb  Pb50  1  0.16742333  0.16641878  0.16663820  1
  Pb  Pb51  1  0.16599288  0.83296189  0.83342321  1
  Pb  Pb52  1  0.83021401  0.16300444  0.16684388  1
  Pb  Pb53  1  0.83574140  0.16698323  0.83335210  1
  I  I54  1  0.16523333  -0.00291406  0.16872612  1
  I  I55  1  0.16712657  -0.00028883  0.50068797  1
  I  I56  1  0.16785664  0.00163599  0.83030970  1
  I  I57  1  0.16854963  0.33596487  0.16955847  1
  I  I58  1  0.16702160  0.33499480  0.50024594  1
  I  I59  1  0.16258420  0.33516786  0.83015776  1
  I  I60  1  0.16411873  0.66671315  0.17005113  1
  I  I61  1  0.16661604  0.66518764  0.50011584  1
  I  I62  1  0.16598514  0.66388183  0.83030575  1
  I  I63  1  0.49471141  0.00212718  0.16544162  1
  I  I64  1  0.49790917  -0.00001659  0.49965732  1
  I  I65  1  0.50302487  -0.00356331  0.83409232  1
  I  I66  1  0.49575217  0.33082430  0.16629734  1
  I  I67  1  0.49583186  0.33711570  0.50125756  1
  I  I68  1  0.50137594  0.33335689  0.83346390  1
  I  I69  1  0.50016297  0.66669528  0.16692946  1
  I  I70  1  0.49541772  0.66340479  0.49915070  1
  I  I71  1  0.49688691  0.66929098  0.83439836  1
  I  I72  1  0.84345714  -0.00488983  0.15905130  1
  I  I73  1  0.83541169  -0.00017327  0.49964959  1
  I  I74  1  0.83274014  -0.00323214  0.83869409  1
  I  I75  1  0.83460223  0.33348596  0.16672107  1
  I  I76  1  0.83572620  0.33840477  0.50620269  1
  I  I77  1  0.83654218  0.33695940  0.82830337  1
  I  I78  1  0.83536519  0.66971735  0.16510782  1
  I  I79  1  0.83830816  0.66328667  0.50170698  1
  I  I80  1  0.83729742  0.66624375  0.83278883  1
  I  I81  1  0.16855473  0.16949403  -0.00232078  1
  I  I82  1  0.16847516  0.16991117  0.33587755  1
  I  I83  1  0.16752955  0.16955674  0.66628056  1
  I  I84  1  0.16200866  0.50013596  -0.00075691  1
  I  I85  1  0.16660956  0.49986818  0.33461922  1
  I  I86  1  0.16641519  0.50011524  0.66603578  1
  I  I87  1  0.16663952  0.83089368  0.00222330  1
  I  I88  1  0.16215170  0.82975258  0.33297832  1
  I  I89  1  0.16733298  0.83062964  0.66454229  1
  I  I90  1  0.49506338  0.16708367  0.00223325  1
  I  I91  1  0.49556603  0.16465206  0.33089791  1
  I  I92  1  0.49998976  0.16617430  0.66650899  1
  I  I93  1  0.49851271  0.49991837  -0.00001969  1
  I  I94  1  0.49868869  0.50070273  0.33692013  1
  I  I95  1  0.49240272  0.50101226  0.66372804  1
  I  I96  1  0.49693431  0.83271714  -0.00265404  1
  I  I97  1  0.50174845  0.83403258  0.33363113  1
  I  I98  1  0.50371790  0.83312288  0.67018526  1
  I  I99  1  0.83696539  0.17115050  0.00005001  1
  I  I100  1  0.83685957  0.16797180  0.33339155  1
  I  I101  1  0.83064357  0.16051062  0.66673013  1
  I  I102  1  0.83937013  0.50263496  -0.00310585  1
  I  I103  1  0.83575706  0.50068863  0.33594184  1
  I  I104  1  0.84065545  0.50697421  0.66724104  1
  I  I105  1  0.83654923  0.82757399  -0.00077748  1
  I  I106  1  0.83712005  0.83181198  0.33107205  1
  I  I107  1  0.83287276  0.82998398  0.66950060  1
  I  I108  1  0.00009362  0.16792633  0.16692188  1
  I  I109  1  0.00466744  0.16824754  0.50240465  1
  I  I110  1  0.00401837  0.16571483  0.83055867  1
  I  I111  1  0.00382897  0.50020392  0.17151414  1
  I  I112  1  0.00178119  0.50034979  0.50134287  1
  I  I113  1  0.00119785  0.50301533  0.82795667  1
  I  I114  1  0.00136581  0.82974579  0.16383302  1
  I  I115  1  0.00382226  0.83012804  0.50145250  1
  I  I116  1  -0.00221322  0.83175428  0.83428707  1
  I  I117  1  0.33464355  0.16467759  0.16672943  1
  I  I118  1  0.32923700  0.16966634  0.50321211  1
  I  I119  1  0.32931005  0.17137321  0.82939855  1
  I  I120  1  0.32873095  0.50621330  0.16642812  1
  I  I121  1  0.33082352  0.49984444  0.49993034  1
  I  I122  1  0.32998913  0.49890460  0.83157962  1
  I  I123  1  0.33028219  0.83120273  0.16834542  1
  I  I124  1  0.32892005  0.83032843  0.49596179  1
  I  I125  1  0.33428911  0.83355532  0.83323120  1
  I  I126  1  0.66291852  0.16794582  0.16540567  1
  I  I127  1  0.66653168  0.16728807  0.49803841  1
  I  I128  1  0.66659412  0.16890463  0.83570321  1
  I  I129  1  0.66677670  0.50040144  0.16777640  1
  I  I130  1  0.66747270  0.50163222  0.50530125  1
  I  I131  1  0.66990164  0.50359053  0.82852073  1
  I  I132  1  0.66941745  0.83416277  0.16299975  1
  I  I133  1  0.66670466  0.83078152  0.49678618  1
  I  I134  1  0.66833091  0.82608109  0.84079088  1
