# generated using pymatgen
data_Cs27Sn14Pb13I81
_symmetry_space_group_name_H-M   'P 1'
_cell_length_a   18.96322904
_cell_length_b   18.95927783
_cell_length_c   18.95972980
_cell_angle_alpha   89.99927680
_cell_angle_beta   90.00047838
_cell_angle_gamma   89.99917615
_symmetry_Int_Tables_number   1
_chemical_formula_structural   Cs27Sn14Pb13I81
_chemical_formula_sum   'Cs27 Sn14 Pb13 I81'
_cell_volume   6816.57511586
_cell_formula_units_Z   1
loop_
 _symmetry_equiv_pos_site_id
 _symmetry_equiv_pos_as_xyz
  1  'x, y, z'
loop_
 _atom_site_type_symbol
 _atom_site_label
 _atom_site_symmetry_multiplicity
 _atom_site_fract_x
 _atom_site_fract_y
 _atom_site_fract_z
 _atom_site_occupancy
  Cs  Cs0  1  -0.00249854  0.00113895  -0.00212669  1
  Cs  Cs1  1  -0.00154038  0.00185844  0.33446438  1
  Cs  Cs2  1  0.00150604  -0.00308602  0.66949239  1
  Cs  Cs3  1  0.00226513  0.33427010  0.00104513  1
  Cs  Cs4  1  -0.00051866  0.33234353  0.33248509  1
  Cs  Cs5  1  -0.00202639  0.33422329  0.66679729  1
  Cs  Cs6  1  0.00112669  0.66443656  -0.00080946  1
  Cs  Cs7  1  0.00497496  0.66537956  0.33419521  1
  Cs  Cs8  1  -0.00083970  0.66869191  0.66689390  1
  Cs  Cs9  1  0.33391285  0.00180249  -0.00118370  1
  Cs  Cs10  1  0.33246629  -0.00069183  0.33379473  1
  Cs  Cs11  1  0.33274538  0.00042605  0.66760890  1
  Cs  Cs12  1  0.33263120  0.33096608  0.00121995  1
  Cs  Cs13  1  0.33292022  0.33398228  0.33097956  1
  Cs  Cs14  1  0.33990179  0.32945664  0.66815259  1
  Cs  Cs15  1  0.33236450  0.66636107  0.00232634  1
  Cs  Cs16  1  0.33071940  0.66666110  0.33235348  1
  Cs  Cs17  1  0.33307180  0.66922678  0.66499389  1
  Cs  Cs18  1  0.67074575  -0.00338696  0.00353044  1
  Cs  Cs19  1  0.66977030  0.00174549  0.32982771  1
  Cs  Cs20  1  0.66647947  0.00031438  0.66586549  1
  Cs  Cs21  1  0.66548242  0.33685095  -0.00142962  1
  Cs  Cs22  1  0.66803606  0.33093130  0.34013652  1
  Cs  Cs23  1  0.66106539  0.34012753  0.65946888  1
  Cs  Cs24  1  0.66653005  0.66814609  -0.00006952  1
  Cs  Cs25  1  0.66492235  0.66823777  0.33134092  1
  Cs  Cs26  1  0.66759432  0.66217498  0.66754522  1
  Sn  Sn27  1  0.16671222  0.16786709  0.49969180  1
  Sn  Sn28  1  0.83261186  0.16697782  0.83277972  1
  Sn  Sn29  1  0.50006659  0.83332840  0.83254008  1
  Sn  Sn30  1  0.16698716  0.50037667  0.83184725  1
  Sn  Sn31  1  0.50141963  0.83345348  0.50070400  1
  Sn  Sn32  1  0.83310451  0.83403456  0.83245044  1
  Sn  Sn33  1  0.49974663  0.16743075  0.16657998  1
  Sn  Sn34  1  0.16713974  0.16539047  0.16732620  1
  Sn  Sn35  1  0.50142777  0.49895310  0.16670792  1
  Sn  Sn36  1  0.16635106  0.83476134  0.16553878  1
  Sn  Sn37  1  0.16689326  0.49833550  0.50180912  1
  Sn  Sn38  1  0.83202932  0.49996415  0.16689174  1
  Sn  Sn39  1  0.83206562  0.83336195  0.50055406  1
  Sn  Sn40  1  0.16689431  0.83261913  0.83445859  1
  Pb  Pb41  1  0.83341739  0.16885356  0.16497667  1
  Pb  Pb42  1  0.16557327  0.16662615  0.83335782  1
  Pb  Pb43  1  0.16697607  0.49952632  0.16650631  1
  Pb  Pb44  1  0.83541122  0.50238680  0.49781575  1
  Pb  Pb45  1  0.49741442  0.50220916  0.83526485  1
  Pb  Pb46  1  0.83492566  0.50029829  0.83453001  1
  Pb  Pb47  1  0.50310318  0.16440157  0.83548711  1
  Pb  Pb48  1  0.49796274  0.16423371  0.49784480  1
  Pb  Pb49  1  0.16657496  0.83364925  0.50041303  1
  Pb  Pb50  1  0.49761586  0.50222893  0.49777854  1
  Pb  Pb51  1  0.83612636  0.83156578  0.16650046  1
  Pb  Pb52  1  0.83543697  0.16461887  0.50262892  1
  Pb  Pb53  1  0.49807717  0.83364363  0.16655116  1
  I  I54  1  0.17175619  0.00038806  0.16724426  1
  I  I55  1  0.16670785  0.00188882  0.49786461  1
  I  I56  1  0.16733700  -0.00305731  0.83422379  1
  I  I57  1  0.16734034  0.33093082  0.16710412  1
  I  I58  1  0.16581802  0.33330899  0.49771719  1
  I  I59  1  0.16295582  0.33552642  0.83438696  1
  I  I60  1  0.16681460  0.66849074  0.16619629  1
  I  I61  1  0.16651048  0.66516742  0.49908757  1
  I  I62  1  0.16430714  0.66830486  0.83464759  1
  I  I63  1  0.49573813  0.00210621  0.16646902  1
  I  I64  1  0.49967229  -0.00384270  0.50145883  1
  I  I65  1  0.49322887  -0.00410500  0.83220011  1
  I  I66  1  0.49551234  0.33311299  0.16570255  1
  I  I67  1  0.49983255  0.33328364  0.50011315  1
  I  I68  1  0.49953062  0.33335403  0.83417953  1
  I  I69  1  0.50049278  0.66489597  0.16652803  1
  I  I70  1  0.49983195  0.67029435  0.50117586  1
  I  I71  1  0.50376389  0.67074634  0.83281444  1
  I  I72  1  0.83214913  -0.00015846  0.16751548  1
  I  I73  1  0.83327326  -0.00370758  0.49999433  1
  I  I74  1  0.83733933  -0.00232225  0.83192322  1
  I  I75  1  0.83643809  0.33641085  0.16347128  1
  I  I76  1  0.83418019  0.33337897  0.50077602  1
  I  I77  1  0.83893814  0.33138425  0.83849808  1
  I  I78  1  0.83049363  0.66397735  0.16468970  1
  I  I79  1  0.83356975  0.67048115  0.50648036  1
  I  I80  1  0.83346600  0.67010315  0.83139769  1
  I  I81  1  0.16866202  0.16588421  0.00258545  1
  I  I82  1  0.16938367  0.16577991  0.33225286  1
  I  I83  1  0.16376360  0.16614274  0.66451144  1
  I  I84  1  0.16598535  0.50262987  -0.00190588  1
  I  I85  1  0.16658593  0.50133313  0.33500926  1
  I  I86  1  0.16470012  0.50289910  0.66698210  1
  I  I87  1  0.16698999  0.83190520  -0.00105293  1
  I  I88  1  0.16737941  0.83266472  0.33152779  1
  I  I89  1  0.16617758  0.83237403  0.66939526  1
  I  I90  1  0.49171244  0.16810821  0.00350186  1
  I  I91  1  0.49799157  0.16756012  0.32967041  1
  I  I92  1  0.49822271  0.16618873  0.66665195  1
  I  I93  1  0.49985872  0.49971388  0.00339661  1
  I  I94  1  0.49986008  0.49989977  0.32972076  1
  I  I95  1  0.49995245  0.49977646  0.66662188  1
  I  I96  1  0.50121485  0.83305826  -0.00254120  1
  I  I97  1  0.50135045  0.83283729  0.33536638  1
  I  I98  1  0.49674506  0.83340653  0.66740558  1
  I  I99  1  0.83676623  0.15852147  -0.00268578  1
  I  I100  1  0.83318733  0.16548773  0.33341976  1
  I  I101  1  0.83765718  0.16335776  0.67036374  1
  I  I102  1  0.83409694  0.50256743  0.00256268  1
  I  I103  1  0.83347085  0.50134467  0.32997870  1
  I  I104  1  0.83483445  0.49924366  0.66655897  1
  I  I105  1  0.83197222  0.83549466  -0.00301079  1
  I  I106  1  0.83118440  0.83099564  0.33561593  1
  I  I107  1  0.83686207  0.83647170  0.66798099  1
  I  I108  1  0.00295032  0.16458301  0.16859149  1
  I  I109  1  0.00362969  0.16739530  0.49281663  1
  I  I110  1  -0.00203209  0.16010493  0.83554020  1
  I  I111  1  -0.00113495  0.50160708  0.16604152  1
  I  I112  1  0.00363118  0.50048251  0.49968345  1
  I  I113  1  0.00319452  0.50591323  0.83395988  1
  I  I114  1  0.00421440  0.83595786  0.16385358  1
  I  I115  1  -0.00171640  0.83299857  0.50273957  1
  I  I116  1  0.00033644  0.83346197  0.83306860  1
  I  I117  1  0.33211278  0.16846423  0.16895532  1
  I  I118  1  0.32967874  0.16700177  0.49902733  1
  I  I119  1  0.33348223  0.16557402  0.83284584  1
  I  I120  1  0.33507005  0.50019488  0.16668874  1
  I  I121  1  0.32946586  0.50056003  0.50026664  1
  I  I122  1  0.32918341  0.50536984  0.83299655  1
  I  I123  1  0.33000567  0.83164603  0.16403769  1
  I  I124  1  0.33494996  0.83305115  0.50195291  1
  I  I125  1  0.33246190  0.82861795  0.83359942  1
  I  I126  1  0.66423305  0.16762257  0.16384703  1
  I  I127  1  0.66663581  0.16601825  0.49856499  1
  I  I128  1  0.67058306  0.15968074  0.83704926  1
  I  I129  1  0.66603084  0.49708079  0.16495420  1
  I  I130  1  0.66651622  0.50014832  0.49966606  1
  I  I131  1  0.66644685  0.50127128  0.83534417  1
  I  I132  1  0.66672554  0.83429141  0.16508085  1
  I  I133  1  0.66674624  0.83293900  0.50671175  1
  I  I134  1  0.66715899  0.83828936  0.82993843  1
