# generated using pymatgen
data_Cs27Sn14Pb13I81
_symmetry_space_group_name_H-M   'P 1'
_cell_length_a   18.97184606
_cell_length_b   18.97279590
_cell_length_c   18.98734121
_cell_angle_alpha   89.99883612
_cell_angle_beta   89.99965425
_cell_angle_gamma   89.99887630
_symmetry_Int_Tables_number   1
_chemical_formula_structural   Cs27Sn14Pb13I81
_chemical_formula_sum   'Cs27 Sn14 Pb13 I81'
_cell_volume   6834.47377631
_cell_formula_units_Z   1
loop_
 _symmetry_equiv_pos_site_id
 _symmetry_equiv_pos_as_xyz
  1  'x, y, z'
loop_
 _atom_site_type_symbol
 _atom_site_label
 _atom_site_symmetry_multiplicity
 _atom_site_fract_x
 _atom_site_fract_y
 _atom_site_fract_z
 _atom_site_occupancy
  Cs  Cs0  1  0.00194949  -0.00251285  0.00102859  1
  Cs  Cs1  1  0.00073021  0.00273463  0.33384173  1
  Cs  Cs2  1  0.00098856  0.00026716  0.66574046  1
  Cs  Cs3  1  -0.00128187  0.33295149  0.00101982  1
  Cs  Cs4  1  -0.00045956  0.33148437  0.33251913  1
  Cs  Cs5  1  -0.00019229  0.33324883  0.66589306  1
  Cs  Cs6  1  0.00087442  0.66940655  -0.00031600  1
  Cs  Cs7  1  -0.00038924  0.66623230  0.33222971  1
  Cs  Cs8  1  -0.00003025  0.66656456  0.66759617  1
  Cs  Cs9  1  0.33209919  -0.00063814  0.00155221  1
  Cs  Cs10  1  0.33707251  -0.00209009  0.33300196  1
  Cs  Cs11  1  0.33296053  0.00274345  0.66666956  1
  Cs  Cs12  1  0.33243065  0.33254698  -0.00083256  1
  Cs  Cs13  1  0.33659088  0.33695180  0.33426156  1
  Cs  Cs14  1  0.33249868  0.33386331  0.66607661  1
  Cs  Cs15  1  0.33211468  0.66865765  -0.00057765  1
  Cs  Cs16  1  0.34181629  0.66462808  0.33527718  1
  Cs  Cs17  1  0.33283328  0.66362372  0.66687547  1
  Cs  Cs18  1  0.66485466  0.00052499  0.00160800  1
  Cs  Cs19  1  0.65931087  -0.00919564  0.33588344  1
  Cs  Cs20  1  0.66425365  -0.00167499  0.66412429  1
  Cs  Cs21  1  0.66845781  0.33419500  -0.00058607  1
  Cs  Cs22  1  0.66741539  0.33397747  0.33004289  1
  Cs  Cs23  1  0.67054440  0.33139253  0.66955426  1
  Cs  Cs24  1  0.66698152  0.66549358  -0.00087408  1
  Cs  Cs25  1  0.65882663  0.67497685  0.33383709  1
  Cs  Cs26  1  0.66731430  0.67037720  0.66820589  1
  Sn  Sn27  1  0.49999518  0.50054386  0.83333903  1
  Sn  Sn28  1  0.83378011  0.16747260  0.49967952  1
  Sn  Sn29  1  0.49967883  0.83285054  0.83348300  1
  Sn  Sn30  1  0.83422105  0.49973682  0.16690401  1
  Sn  Sn31  1  0.16578855  0.49917692  0.16607508  1
  Sn  Sn32  1  0.83348929  0.49957077  0.49959108  1
  Sn  Sn33  1  0.16603223  0.16785552  0.16674753  1
  Sn  Sn34  1  0.16553599  0.16756717  0.83350171  1
  Sn  Sn35  1  0.16630003  0.49914795  0.83421857  1
  Sn  Sn36  1  0.83448320  0.16709320  0.83346134  1
  Sn  Sn37  1  0.83380820  0.49944612  0.83338708  1
  Sn  Sn38  1  0.16614094  0.16598156  0.49975176  1
  Sn  Sn39  1  0.83385714  0.16696094  0.16687800  1
  Sn  Sn40  1  0.16603692  0.83383277  0.49996213  1
  Pb  Pb41  1  0.49972634  0.83322343  0.16359249  1
  Pb  Pb42  1  0.49679115  0.83327383  0.50265114  1
  Pb  Pb43  1  0.50019342  0.16701611  0.16665094  1
  Pb  Pb44  1  0.16804674  0.83345713  0.83174119  1
  Pb  Pb45  1  0.83365586  0.83352697  0.16662696  1
  Pb  Pb46  1  0.83182426  0.83398368  0.83339495  1
  Pb  Pb47  1  0.50008627  0.16723328  0.83338493  1
  Pb  Pb48  1  0.50397715  0.49943160  0.50287139  1
  Pb  Pb49  1  0.16497381  0.49927994  0.49955342  1
  Pb  Pb50  1  0.50047714  0.16718927  0.49995833  1
  Pb  Pb51  1  0.83538806  0.83372533  0.50004168  1
  Pb  Pb52  1  0.16652255  0.83290050  0.16923607  1
  Pb  Pb53  1  0.50016641  0.49970839  0.16422085  1
  I  I54  1  0.16213142  0.00375745  0.16297029  1
  I  I55  1  0.16086485  0.00264364  0.50155602  1
  I  I56  1  0.16403183  0.00357783  0.83545919  1
  I  I57  1  0.16248416  0.33293668  0.16663666  1
  I  I58  1  0.16438315  0.33011669  0.50132993  1
  I  I59  1  0.16840655  0.33346360  0.83147830  1
  I  I60  1  0.16189133  0.66284909  0.16187888  1
  I  I61  1  0.16482443  0.66788015  0.50196082  1
  I  I62  1  0.16416688  0.66315959  0.83556532  1
  I  I63  1  0.50045428  0.00012056  0.16371181  1
  I  I64  1  0.50479154  -0.00002509  0.50360609  1
  I  I65  1  0.49968845  -0.00203912  0.83240193  1
  I  I66  1  0.49950142  0.33353468  0.16371598  1
  I  I67  1  0.49288233  0.33356735  0.50293572  1
  I  I68  1  0.50055074  0.33644844  0.83381742  1
  I  I69  1  0.49986483  0.66620659  0.16829665  1
  I  I70  1  0.49894095  0.66639986  0.49884049  1
  I  I71  1  0.50018102  0.66486404  0.83303763  1
  I  I72  1  0.83853769  0.00430813  0.16529960  1
  I  I73  1  0.83538553  0.00390024  0.50126466  1
  I  I74  1  0.83666520  0.00408941  0.83290319  1
  I  I75  1  0.83718767  0.33342272  0.16582958  1
  I  I76  1  0.83944140  0.33260985  0.50173494  1
  I  I77  1  0.83141154  0.33391094  0.83283190  1
  I  I78  1  0.83798588  0.66253183  0.16494065  1
  I  I79  1  0.83549784  0.66351170  0.50183994  1
  I  I80  1  0.83573485  0.66292132  0.83314963  1
  I  I81  1  0.16203584  0.17106173  -0.00038817  1
  I  I82  1  0.16006850  0.16628154  0.33308805  1
  I  I83  1  0.16193251  0.16626753  0.66722165  1
  I  I84  1  0.16348875  0.49355901  -0.00105687  1
  I  I85  1  0.16115246  0.49741411  0.33054473  1
  I  I86  1  0.16660589  0.49792094  0.66956584  1
  I  I87  1  0.16945761  0.83570998  -0.00006663  1
  I  I88  1  0.16486590  0.83821498  0.33688336  1
  I  I89  1  0.16717427  0.83798547  0.66405355  1
  I  I90  1  0.50006173  0.16503634  -0.00027171  1
  I  I91  1  0.49967277  0.16523122  0.33331146  1
  I  I92  1  0.49952064  0.16644923  0.66695681  1
  I  I93  1  0.50439262  0.50342499  -0.00393388  1
  I  I94  1  0.49847824  0.50080617  0.33330764  1
  I  I95  1  0.49698604  0.50329847  0.67114757  1
  I  I96  1  0.49866731  0.82891957  -0.00416787  1
  I  I97  1  0.50020827  0.83381694  0.33364971  1
  I  I98  1  0.50133766  0.82841939  0.66998941  1
  I  I99  1  0.83813463  0.17272114  -0.00032082  1
  I  I100  1  0.84122743  0.17443401  0.33331537  1
  I  I101  1  0.83890179  0.17321775  0.66700519  1
  I  I102  1  0.83258400  0.49446965  -0.00066258  1
  I  I103  1  0.84079902  0.49282368  0.33264305  1
  I  I104  1  0.83315960  0.49440045  0.66773910  1
  I  I105  1  0.83227742  0.83366688  -0.00012326  1
  I  I106  1  0.83307196  0.83197683  0.33341278  1
  I  I107  1  0.83264506  0.83233010  0.66673582  1
  I  I108  1  0.00015350  0.17096659  0.16648042  1
  I  I109  1  0.00002091  0.16640373  0.50092780  1
  I  I110  1  0.00021253  0.17367648  0.83255894  1
  I  I111  1  -0.00030675  0.49609569  0.16152509  1
  I  I112  1  -0.00311773  0.49888769  0.50565954  1
  I  I113  1  -0.00024411  0.49538481  0.83343399  1
  I  I114  1  0.00030422  0.83206436  0.16431443  1
  I  I115  1  0.00298766  0.83594142  0.50265227  1
  I  I116  1  0.00025480  0.83065233  0.83224047  1
  I  I117  1  0.32914497  0.17028419  0.16547291  1
  I  I118  1  0.32947078  0.16202186  0.50140811  1
  I  I119  1  0.32975186  0.16939084  0.83300469  1
  I  I120  1  0.32979375  0.49564154  0.16265413  1
  I  I121  1  0.33322217  0.50075574  0.50004651  1
  I  I122  1  0.33180082  0.49981512  0.83769118  1
  I  I123  1  0.33286289  0.83406479  0.16763607  1
  I  I124  1  0.32916975  0.84023449  0.50002830  1
  I  I125  1  0.33588571  0.82823174  0.83128717  1
  I  I126  1  0.67094984  0.17201739  0.16451730  1
  I  I127  1  0.67102204  0.17158563  0.50225766  1
  I  I128  1  0.67032222  0.16977361  0.83309097  1
  I  I129  1  0.67045498  0.49461746  0.16543835  1
  I  I130  1  0.67226244  0.49307412  0.49899871  1
  I  I131  1  0.66833607  0.49974390  0.83284982  1
  I  I132  1  0.66669684  0.83402179  0.16800114  1
  I  I133  1  0.66645527  0.83361277  0.50013342  1
  I  I134  1  0.66379464  0.82859670  0.83256115  1
