# generated using pymatgen
data_Cs27Sn13Pb14I81
_symmetry_space_group_name_H-M   'P 1'
_cell_length_a   18.97831184
_cell_length_b   18.97791522
_cell_length_c   18.97448650
_cell_angle_alpha   89.99899186
_cell_angle_beta   89.99835328
_cell_angle_gamma   89.99901308
_symmetry_Int_Tables_number   1
_chemical_formula_structural   Cs27Sn13Pb14I81
_chemical_formula_sum   'Cs27 Sn13 Pb14 I81'
_cell_volume   6834.01789625
_cell_formula_units_Z   1
loop_
 _symmetry_equiv_pos_site_id
 _symmetry_equiv_pos_as_xyz
  1  'x, y, z'
loop_
 _atom_site_type_symbol
 _atom_site_label
 _atom_site_symmetry_multiplicity
 _atom_site_fract_x
 _atom_site_fract_y
 _atom_site_fract_z
 _atom_site_occupancy
  Cs  Cs0  1  0.00012528  0.00688891  0.00271859  1
  Cs  Cs1  1  -0.00033701  -0.00320323  0.33207433  1
  Cs  Cs2  1  0.00010044  -0.00386881  0.66548353  1
  Cs  Cs3  1  0.00036385  0.33106910  0.00040885  1
  Cs  Cs4  1  0.00116651  0.33508133  0.33379757  1
  Cs  Cs5  1  -0.00250918  0.33408021  0.66564186  1
  Cs  Cs6  1  0.00067737  0.66469498  0.00049978  1
  Cs  Cs7  1  0.00197626  0.66701871  0.33411818  1
  Cs  Cs8  1  0.00038520  0.67007176  0.66522297  1
  Cs  Cs9  1  0.33850270  0.00495713  -0.00446734  1
  Cs  Cs10  1  0.33689295  0.00292792  0.33214962  1
  Cs  Cs11  1  0.33434647  -0.00111219  0.67262917  1
  Cs  Cs12  1  0.33007972  0.32792391  -0.00851588  1
  Cs  Cs13  1  0.33247936  0.33449747  0.33465772  1
  Cs  Cs14  1  0.33533274  0.33164863  0.66929757  1
  Cs  Cs15  1  0.33455228  0.66824393  -0.00450009  1
  Cs  Cs16  1  0.33162983  0.66523014  0.33338064  1
  Cs  Cs17  1  0.33211367  0.66947371  0.67162009  1
  Cs  Cs18  1  0.66205776  -0.00413705  0.00885968  1
  Cs  Cs19  1  0.66328021  -0.00251326  0.32540484  1
  Cs  Cs20  1  0.66755120  0.00390975  0.66594272  1
  Cs  Cs21  1  0.66950817  0.33442100  -0.00143061  1
  Cs  Cs22  1  0.66528094  0.33509280  0.33592975  1
  Cs  Cs23  1  0.66820019  0.33270572  0.66500234  1
  Cs  Cs24  1  0.66430272  0.66813068  0.00009701  1
  Cs  Cs25  1  0.66573010  0.66632279  0.33346150  1
  Cs  Cs26  1  0.66775485  0.66608121  0.66609808  1
  Sn  Sn27  1  0.16675251  0.49948698  0.49974025  1
  Sn  Sn28  1  0.16733666  0.50087895  0.16703809  1
  Sn  Sn29  1  0.50001846  0.83246498  0.50010571  1
  Sn  Sn30  1  0.49921240  0.49981509  0.16701692  1
  Sn  Sn31  1  0.49966601  0.50132124  0.49952747  1
  Sn  Sn32  1  0.16688857  0.83280590  0.16645909  1
  Sn  Sn33  1  0.83437412  0.16706144  0.50010728  1
  Sn  Sn34  1  0.83359368  0.50031315  0.83307999  1
  Sn  Sn35  1  0.83332675  0.50015265  0.16703878  1
  Sn  Sn36  1  0.83352682  0.83368399  0.83352077  1
  Sn  Sn37  1  0.16572563  0.16725242  0.49982823  1
  Sn  Sn38  1  0.83326410  0.16612211  0.83270005  1
  Sn  Sn39  1  0.83354256  0.49976788  0.49987073  1
  Pb  Pb40  1  0.50027262  0.16715307  0.49995031  1
  Pb  Pb41  1  0.16668746  0.16738640  0.16904375  1
  Pb  Pb42  1  0.50240610  0.49990501  0.83301572  1
  Pb  Pb43  1  0.50254479  0.83312462  0.83089622  1
  Pb  Pb44  1  0.49979222  0.17033230  0.16680179  1
  Pb  Pb45  1  0.49723678  0.83070577  0.16846858  1
  Pb  Pb46  1  0.83322014  0.16902294  0.16755631  1
  Pb  Pb47  1  0.16401770  0.16668167  0.83010681  1
  Pb  Pb48  1  0.83165354  0.83363253  0.50100860  1
  Pb  Pb49  1  0.16880542  0.83346326  0.49866110  1
  Pb  Pb50  1  0.16435239  0.83341393  0.83656500  1
  Pb  Pb51  1  0.83513347  0.83063546  0.16439458  1
  Pb  Pb52  1  0.50343439  0.16675508  0.83328471  1
  Pb  Pb53  1  0.16422976  0.50009228  0.83301452  1
  I  I54  1  0.16429304  -0.00240286  0.16879724  1
  I  I55  1  0.16175792  0.00267119  0.49843074  1
  I  I56  1  0.16299645  0.00008777  0.83282850  1
  I  I57  1  0.16541110  0.33744107  0.16937014  1
  I  I58  1  0.16648683  0.33535967  0.49431754  1
  I  I59  1  0.16451905  0.33350649  0.83827816  1
  I  I60  1  0.16479239  0.66396126  0.17330533  1
  I  I61  1  0.16309013  0.66321255  0.49754811  1
  I  I62  1  0.16220235  0.66653566  0.82855701  1
  I  I63  1  0.49938055  -0.00044962  0.16866269  1
  I  I64  1  0.50061857  -0.00237702  0.50128403  1
  I  I65  1  0.50199013  -0.00014283  0.83041709  1
  I  I66  1  0.49955248  0.33888749  0.17556032  1
  I  I67  1  0.50110688  0.33710085  0.49586847  1
  I  I68  1  0.50195907  0.33366126  0.83196739  1
  I  I69  1  0.50410011  0.66250156  0.16970186  1
  I  I70  1  0.50171558  0.66403813  0.49622766  1
  I  I71  1  0.50423185  0.66635942  0.83404755  1
  I  I72  1  0.83525518  -0.00017994  0.16635441  1
  I  I73  1  0.83669485  0.00304343  0.50636154  1
  I  I74  1  0.83463127  0.00084464  0.82516385  1
  I  I75  1  0.83603306  0.33793176  0.16297018  1
  I  I76  1  0.83212025  0.33519677  0.50393444  1
  I  I77  1  0.83311260  0.33414132  0.83216976  1
  I  I78  1  0.83159432  0.66197560  0.16836796  1
  I  I79  1  0.83548760  0.66314645  0.50070290  1
  I  I80  1  0.83315999  0.66525672  0.83295835  1
  I  I81  1  0.16519220  0.16749088  -0.00004495  1
  I  I82  1  0.15941645  0.16943223  0.33716306  1
  I  I83  1  0.16530479  0.17371284  0.66203824  1
  I  I84  1  0.16597501  0.50444379  0.00332110  1
  I  I85  1  0.16206203  0.50002862  0.33396324  1
  I  I86  1  0.16664754  0.49615024  0.66289495  1
  I  I87  1  0.16574073  0.82338922  0.00428633  1
  I  I88  1  0.16485789  0.82953408  0.33092730  1
  I  I89  1  0.16732405  0.83288432  0.66656748  1
  I  I90  1  0.50113578  0.16741885  0.00002222  1
  I  I91  1  0.50380315  0.16372029  0.33385380  1
  I  I92  1  0.49815675  0.16925412  0.66617070  1
  I  I93  1  0.50122004  0.50003933  0.00317775  1
  I  I94  1  0.50502147  0.50320435  0.33440641  1
  I  I95  1  0.50053164  0.50242260  0.66293524  1
  I  I96  1  0.50070565  0.83207929  0.00021100  1
  I  I97  1  0.50272647  0.83117407  0.33636573  1
  I  I98  1  0.49861299  0.82540587  0.66293478  1
  I  I99  1  0.83291595  0.16908752  -0.00271842  1
  I  I100  1  0.83659881  0.17239865  0.33707936  1
  I  I101  1  0.83642479  0.17260635  0.66582937  1
  I  I102  1  0.83323964  0.50004685  0.00011066  1
  I  I103  1  0.83316638  0.49564457  0.33418396  1
  I  I104  1  0.83282612  0.49904066  0.66572279  1
  I  I105  1  0.83399712  0.83310350  -0.00364637  1
  I  I106  1  0.83283932  0.83364194  0.33308828  1
  I  I107  1  0.83280736  0.82783333  0.66909668  1
  I  I108  1  -0.00014849  0.16882134  0.16446613  1
  I  I109  1  -0.00100949  0.17542163  0.50356393  1
  I  I110  1  -0.00426459  0.16893214  0.83234914  1
  I  I111  1  -0.00010060  0.50331855  0.16931081  1
  I  I112  1  -0.00058467  0.49564083  0.49786417  1
  I  I113  1  -0.00454977  0.49936145  0.83315418  1
  I  I114  1  0.00272257  0.82621573  0.16862550  1
  I  I115  1  0.00005796  0.83121356  0.50053248  1
  I  I116  1  -0.00396488  0.83110364  0.83004399  1
  I  I117  1  0.33307315  0.16799421  0.17001258  1
  I  I118  1  0.33056821  0.17095469  0.49688550  1
  I  I119  1  0.33314563  0.16647954  0.83262924  1
  I  I120  1  0.33281946  0.50446768  0.17745810  1
  I  I121  1  0.33296802  0.49931175  0.49175120  1
  I  I122  1  0.33328606  0.50062841  0.83331591  1
  I  I123  1  0.32983947  0.82601207  0.16907203  1
  I  I124  1  0.33638422  0.82801983  0.49812893  1
  I  I125  1  0.33342094  0.83279656  0.83292617  1
  I  I126  1  0.66687122  0.16705423  0.16845699  1
  I  I127  1  0.67010367  0.17167185  0.50567178  1
  I  I128  1  0.67188774  0.16977458  0.82433272  1
  I  I129  1  0.66724194  0.49846054  0.16958508  1
  I  I130  1  0.66765251  0.49971307  0.49808130  1
  I  I131  1  0.67125905  0.49923013  0.83284484  1
  I  I132  1  0.66645539  0.83282911  0.16612210  1
  I  I133  1  0.66398110  0.82756725  0.50093300  1
  I  I134  1  0.67078080  0.83144014  0.83340439  1
