# generated using pymatgen
data_Cs27Sn13Pb14I81
_symmetry_space_group_name_H-M   'P 1'
_cell_length_a   18.98639434
_cell_length_b   19.00886019
_cell_length_c   18.98203133
_cell_angle_alpha   90.00089555
_cell_angle_beta   90.00146355
_cell_angle_gamma   89.99908443
_symmetry_Int_Tables_number   1
_chemical_formula_structural   Cs27Sn13Pb14I81
_chemical_formula_sum   'Cs27 Sn13 Pb14 I81'
_cell_volume   6850.79952311
_cell_formula_units_Z   1
loop_
 _symmetry_equiv_pos_site_id
 _symmetry_equiv_pos_as_xyz
  1  'x, y, z'
loop_
 _atom_site_type_symbol
 _atom_site_label
 _atom_site_symmetry_multiplicity
 _atom_site_fract_x
 _atom_site_fract_y
 _atom_site_fract_z
 _atom_site_occupancy
  Cs  Cs0  1  0.00163989  -0.00069147  -0.00224345  1
  Cs  Cs1  1  -0.00077443  0.00140273  0.33195392  1
  Cs  Cs2  1  -0.00175075  0.00209426  0.66930407  1
  Cs  Cs3  1  -0.00075582  0.33692442  -0.00009437  1
  Cs  Cs4  1  0.00224975  0.32929444  0.33336023  1
  Cs  Cs5  1  -0.00057294  0.33346893  0.66622623  1
  Cs  Cs6  1  -0.00074901  0.66506368  -0.00039670  1
  Cs  Cs7  1  0.00260430  0.66709712  0.33193409  1
  Cs  Cs8  1  -0.00302210  0.66580528  0.66848504  1
  Cs  Cs9  1  0.33653534  0.00180071  -0.00803229  1
  Cs  Cs10  1  0.33294933  -0.00198815  0.33347670  1
  Cs  Cs11  1  0.33322810  0.00029712  0.67390479  1
  Cs  Cs12  1  0.33983990  0.33239310  -0.00046849  1
  Cs  Cs13  1  0.32898132  0.33315774  0.33554984  1
  Cs  Cs14  1  0.33258299  0.33106062  0.66632802  1
  Cs  Cs15  1  0.33756436  0.66711902  -0.00271701  1
  Cs  Cs16  1  0.33020628  0.66732434  0.33591073  1
  Cs  Cs17  1  0.33543254  0.66747972  0.66514552  1
  Cs  Cs18  1  0.65998526  0.00099596  0.00877871  1
  Cs  Cs19  1  0.66706357  0.00180118  0.33036416  1
  Cs  Cs20  1  0.67008661  -0.00039413  0.66432378  1
  Cs  Cs21  1  0.65878687  0.33393349  0.00543912  1
  Cs  Cs22  1  0.66753765  0.33032275  0.32844685  1
  Cs  Cs23  1  0.66865099  0.33484535  0.66715602  1
  Cs  Cs24  1  0.66097257  0.66516635  0.00778212  1
  Cs  Cs25  1  0.66650632  0.66743863  0.33259291  1
  Cs  Cs26  1  0.66941862  0.66548869  0.66574181  1
  Sn  Sn27  1  0.16648630  0.16638268  0.16626905  1
  Sn  Sn28  1  0.16654423  0.83356353  0.16652360  1
  Sn  Sn29  1  0.16632816  0.50025950  0.83393704  1
  Sn  Sn30  1  0.83361710  0.50022032  0.83317555  1
  Sn  Sn31  1  0.83296548  0.16693263  0.83385727  1
  Sn  Sn32  1  0.50005181  0.16661801  0.50035169  1
  Sn  Sn33  1  0.83294394  0.83292196  0.83342368  1
  Sn  Sn34  1  0.50034489  0.83363994  0.50024920  1
  Sn  Sn35  1  0.83283612  0.50052936  0.50010212  1
  Sn  Sn36  1  0.83363538  0.83260846  0.50040590  1
  Sn  Sn37  1  0.16609968  0.83347384  0.50013927  1
  Sn  Sn38  1  0.50121673  0.49968137  0.50013600  1
  Sn  Sn39  1  0.16644922  0.50013431  0.16532869  1
  Pb  Pb40  1  0.16483793  0.16940414  0.83554694  1
  Pb  Pb41  1  0.83543428  0.16669592  0.16351808  1
  Pb  Pb42  1  0.83518344  0.50003920  0.16703480  1
  Pb  Pb43  1  0.16595918  0.50159649  0.50038745  1
  Pb  Pb44  1  0.50065229  0.50009842  0.83094766  1
  Pb  Pb45  1  0.50365627  0.83317019  0.83083966  1
  Pb  Pb46  1  0.49683685  0.83321573  0.16923294  1
  Pb  Pb47  1  0.50303418  0.16667586  0.83092370  1
  Pb  Pb48  1  0.16854276  0.16347949  0.49882474  1
  Pb  Pb49  1  0.49674392  0.50015408  0.17013027  1
  Pb  Pb50  1  0.83545187  0.83325520  0.16689140  1
  Pb  Pb51  1  0.16482327  0.83123834  0.83322730  1
  Pb  Pb52  1  0.83179112  0.16676631  0.50115501  1
  Pb  Pb53  1  0.49713158  0.16662676  0.16928252  1
  I  I54  1  0.16519504  -0.00072121  0.17497335  1
  I  I55  1  0.16488575  -0.00470488  0.49447909  1
  I  I56  1  0.16472338  -0.00009993  0.83384308  1
  I  I57  1  0.16581262  0.33398266  0.16274806  1
  I  I58  1  0.16741755  0.33337929  0.49844045  1
  I  I59  1  0.16044486  0.33721137  0.83613394  1
  I  I60  1  0.16524046  0.66677563  0.16897644  1
  I  I61  1  0.17045752  0.66946948  0.49459998  1
  I  I62  1  0.16028556  0.66365949  0.83742972  1
  I  I63  1  0.49856101  -0.00009404  0.16968678  1
  I  I64  1  0.49971904  -0.00108623  0.49941230  1
  I  I65  1  0.49950136  -0.00010676  0.83007328  1
  I  I66  1  0.49764994  0.33345481  0.16973692  1
  I  I67  1  0.50440076  0.33415629  0.50048983  1
  I  I68  1  0.50085586  0.33346885  0.82927310  1
  I  I69  1  0.49832792  0.66662364  0.16830449  1
  I  I70  1  0.50007063  0.66701817  0.50016507  1
  I  I71  1  0.49970515  0.66661682  0.83090180  1
  I  I72  1  0.83714691  -0.00009315  0.16766941  1
  I  I73  1  0.83338614  -0.00315966  0.50409900  1
  I  I74  1  0.83440221  -0.00089503  0.82660927  1
  I  I75  1  0.83784927  0.33344426  0.16887340  1
  I  I76  1  0.82957144  0.33639731  0.50444090  1
  I  I77  1  0.83904478  0.33484399  0.82745881  1
  I  I78  1  0.83710967  0.66665101  0.16342166  1
  I  I79  1  0.82956671  0.66701156  0.50775581  1
  I  I80  1  0.83957886  0.66618155  0.82603955  1
  I  I81  1  0.16494989  0.16018297  0.00349518  1
  I  I82  1  0.16666533  0.17298828  0.33070176  1
  I  I83  1  0.16767237  0.16702510  0.66692615  1
  I  I84  1  0.15851181  0.50205499  -0.00010105  1
  I  I85  1  0.16779880  0.49926388  0.33126158  1
  I  I86  1  0.16502158  0.50227032  0.66891223  1
  I  I87  1  0.16261084  0.83428852  0.00257143  1
  I  I88  1  0.16547084  0.83017355  0.33412410  1
  I  I89  1  0.16903279  0.83058155  0.66359258  1
  I  I90  1  0.50036460  0.16690931  0.00007046  1
  I  I91  1  0.50199906  0.16600210  0.33728186  1
  I  I92  1  0.49769727  0.16612747  0.66281082  1
  I  I93  1  0.50245332  0.49900179  0.00015187  1
  I  I94  1  0.50524676  0.50140746  0.33821288  1
  I  I95  1  0.49807024  0.50147370  0.66265424  1
  I  I96  1  0.50004733  0.83403720  -0.00001515  1
  I  I97  1  0.50566861  0.83279121  0.33801025  1
  I  I98  1  0.49265899  0.83274511  0.66202232  1
  I  I99  1  0.83554276  0.16699717  -0.00465898  1
  I  I100  1  0.83264785  0.16674868  0.33332533  1
  I  I101  1  0.83405676  0.16674092  0.66920364  1
  I  I102  1  0.83814584  0.50122543  -0.00340209  1
  I  I103  1  0.83035463  0.50597475  0.33702832  1
  I  I104  1  0.83613320  0.50096621  0.66659956  1
  I  I105  1  0.83830444  0.83200652  -0.00321025  1
  I  I106  1  0.83136719  0.82823631  0.33718993  1
  I  I107  1  0.83565886  0.83236205  0.66532283  1
  I  I108  1  0.00356710  0.16690160  0.16980134  1
  I  I109  1  0.00001419  0.16708237  0.49930845  1
  I  I110  1  -0.00303614  0.16438058  0.83105768  1
  I  I111  1  0.00356817  0.50082069  0.16853586  1
  I  I112  1  -0.00284894  0.50539208  0.50128220  1
  I  I113  1  -0.00114668  0.50028130  0.83072289  1
  I  I114  1  0.00359961  0.83265445  0.17418443  1
  I  I115  1  -0.00070533  0.82728056  0.49930544  1
  I  I116  1  -0.00314376  0.83462106  0.82640063  1
  I  I117  1  0.32924205  0.16717552  0.16731171  1
  I  I118  1  0.33657537  0.16934204  0.49836898  1
  I  I119  1  0.33336004  0.16783534  0.83367255  1
  I  I120  1  0.32855627  0.50069078  0.16183383  1
  I  I121  1  0.33526495  0.50159996  0.49879174  1
  I  I122  1  0.33057277  0.50030764  0.83655364  1
  I  I123  1  0.32861783  0.83183773  0.17337549  1
  I  I124  1  0.33329017  0.83203420  0.49304413  1
  I  I125  1  0.33332301  0.83222404  0.83258529  1
  I  I126  1  0.66634235  0.16662774  0.16607995  1
  I  I127  1  0.66382875  0.16229728  0.50161521  1
  I  I128  1  0.67102853  0.16978623  0.83142377  1
  I  I129  1  0.66642041  0.49931445  0.16387587  1
  I  I130  1  0.66765357  0.50525674  0.50700558  1
  I  I131  1  0.67050734  0.50022389  0.82851701  1
  I  I132  1  0.66656787  0.83400896  0.16641754  1
  I  I133  1  0.66722675  0.83215236  0.50658309  1
  I  I134  1  0.67189595  0.82981863  0.82613456  1
