# generated using pymatgen
data_Cs27Sn13Pb14I81
_symmetry_space_group_name_H-M   'P 1'
_cell_length_a   18.97846568
_cell_length_b   18.96989484
_cell_length_c   18.98332049
_cell_angle_alpha   89.99955983
_cell_angle_beta   90.00043934
_cell_angle_gamma   89.99762563
_symmetry_Int_Tables_number   1
_chemical_formula_structural   Cs27Sn13Pb14I81
_chemical_formula_sum   'Cs27 Sn13 Pb14 I81'
_cell_volume   6834.36551061
_cell_formula_units_Z   1
loop_
 _symmetry_equiv_pos_site_id
 _symmetry_equiv_pos_as_xyz
  1  'x, y, z'
loop_
 _atom_site_type_symbol
 _atom_site_label
 _atom_site_symmetry_multiplicity
 _atom_site_fract_x
 _atom_site_fract_y
 _atom_site_fract_z
 _atom_site_occupancy
  Cs  Cs0  1  0.00091151  0.00320035  0.00263666  1
  Cs  Cs1  1  -0.00197960  -0.00058658  0.33440738  1
  Cs  Cs2  1  0.00315412  -0.00068537  0.66521157  1
  Cs  Cs3  1  0.00143239  0.33090605  -0.00074613  1
  Cs  Cs4  1  -0.00429355  0.33231593  0.33652450  1
  Cs  Cs5  1  -0.00408249  0.33393047  0.66428719  1
  Cs  Cs6  1  -0.00120081  0.66709932  0.00011006  1
  Cs  Cs7  1  0.00286983  0.66664281  0.33546319  1
  Cs  Cs8  1  -0.00083757  0.66649086  0.66480621  1
  Cs  Cs9  1  0.33125479  0.00393741  0.00050107  1
  Cs  Cs10  1  0.33917059  0.00170616  0.33488744  1
  Cs  Cs11  1  0.33276898  -0.00137899  0.66594705  1
  Cs  Cs12  1  0.33318665  0.33320636  -0.00173961  1
  Cs  Cs13  1  0.33495019  0.33614627  0.33183777  1
  Cs  Cs14  1  0.33320718  0.33450295  0.66984802  1
  Cs  Cs15  1  0.33287137  0.66458284  0.00039140  1
  Cs  Cs16  1  0.33086555  0.66479823  0.33354886  1
  Cs  Cs17  1  0.33288907  0.66688208  0.66599140  1
  Cs  Cs18  1  0.66928895  -0.00803005  0.00463615  1
  Cs  Cs19  1  0.66285825  0.00678228  0.32976070  1
  Cs  Cs20  1  0.66347444  -0.00004403  0.66556675  1
  Cs  Cs21  1  0.66558169  0.33560427  -0.00291194  1
  Cs  Cs22  1  0.66763212  0.32670463  0.33526962  1
  Cs  Cs23  1  0.66964914  0.33229336  0.66721266  1
  Cs  Cs24  1  0.66987541  0.67046741  -0.00120647  1
  Cs  Cs25  1  0.66370112  0.66821732  0.32903484  1
  Cs  Cs26  1  0.66818370  0.66879935  0.67092785  1
  Sn  Sn27  1  0.16687125  0.50083843  0.83378581  1
  Sn  Sn28  1  0.16618636  0.50053583  0.16587028  1
  Sn  Sn29  1  0.50033146  0.49996935  0.16635118  1
  Sn  Sn30  1  0.83316198  0.83327629  0.49978292  1
  Sn  Sn31  1  0.50130228  0.16689606  0.83352040  1
  Sn  Sn32  1  0.16614914  0.83430005  0.49967653  1
  Sn  Sn33  1  0.16677585  0.83246135  0.83360401  1
  Sn  Sn34  1  0.49948267  0.49961427  0.83310869  1
  Sn  Sn35  1  0.50042483  0.50021881  0.50052621  1
  Sn  Sn36  1  0.16690616  0.16632512  0.49982811  1
  Sn  Sn37  1  0.83216147  0.16627115  0.83356538  1
  Sn  Sn38  1  0.16684479  0.83287453  0.16670809  1
  Sn  Sn39  1  0.83362339  0.49985361  0.16664125  1
  Pb  Pb40  1  0.16692388  0.16718277  0.83177202  1
  Pb  Pb41  1  0.83614106  0.83585724  0.83172246  1
  Pb  Pb42  1  0.83019161  0.50214651  0.49766586  1
  Pb  Pb43  1  0.16771320  0.50028872  0.50014220  1
  Pb  Pb44  1  0.16669134  0.16719066  0.16954722  1
  Pb  Pb45  1  0.83569773  0.83145201  0.16894346  1
  Pb  Pb46  1  0.83364562  0.49895900  0.83489909  1
  Pb  Pb47  1  0.49770852  0.83314591  0.83349197  1
  Pb  Pb48  1  0.83336023  0.16880107  0.16428031  1
  Pb  Pb49  1  0.49789314  0.16904221  0.50234465  1
  Pb  Pb50  1  0.83494619  0.16428238  0.50185673  1
  Pb  Pb51  1  0.49983859  0.83139847  0.49993073  1
  Pb  Pb52  1  0.49991555  0.16902783  0.16371779  1
  Pb  Pb53  1  0.49731289  0.83118350  0.16656666  1
  I  I54  1  0.16528711  -0.00316125  0.16279057  1
  I  I55  1  0.16317743  -0.00167542  0.50205282  1
  I  I56  1  0.16647836  -0.00252709  0.83462109  1
  I  I57  1  0.16827291  0.33733200  0.16229716  1
  I  I58  1  0.16950674  0.33174197  0.50156776  1
  I  I59  1  0.16856089  0.33642098  0.83662395  1
  I  I60  1  0.16760551  0.66557416  0.16823136  1
  I  I61  1  0.16497847  0.66938275  0.50013825  1
  I  I62  1  0.17181858  0.66576643  0.83187757  1
  I  I63  1  0.49841271  0.00006417  0.16603161  1
  I  I64  1  0.50001935  0.00015583  0.50247232  1
  I  I65  1  0.50108820  0.00284226  0.83088038  1
  I  I66  1  0.49524168  0.33805538  0.16897258  1
  I  I67  1  0.49693217  0.33715551  0.49710023  1
  I  I68  1  0.49652344  0.33526678  0.83383957  1
  I  I69  1  0.50138581  0.66208992  0.16357153  1
  I  I70  1  0.49612569  0.66300558  0.50226340  1
  I  I71  1  0.49683096  0.66288683  0.83364724  1
  I  I72  1  0.83577611  -0.00025606  0.16629151  1
  I  I73  1  0.83770664  -0.00351683  0.50098127  1
  I  I74  1  0.82862917  0.00352890  0.83221147  1
  I  I75  1  0.83665841  0.33743987  0.16761896  1
  I  I76  1  0.83517199  0.33337845  0.49951008  1
  I  I77  1  0.83510973  0.33105098  0.83330655  1
  I  I78  1  0.83075221  0.66316459  0.16493283  1
  I  I79  1  0.84293123  0.66949386  0.50106889  1
  I  I80  1  0.83150206  0.66688234  0.83330386  1
  I  I81  1  0.16684573  0.16432148  -0.00015196  1
  I  I82  1  0.16599766  0.16369737  0.33719113  1
  I  I83  1  0.16718354  0.16267075  0.66425274  1
  I  I84  1  0.17116334  0.50656870  -0.00007002  1
  I  I85  1  0.16873498  0.50282690  0.33059318  1
  I  I86  1  0.17219276  0.50221161  0.66935121  1
  I  I87  1  0.16826278  0.82729932  -0.00010942  1
  I  I88  1  0.16279362  0.83099486  0.33339165  1
  I  I89  1  0.16376124  0.83303116  0.66659262  1
  I  I90  1  0.49969688  0.17346825  -0.00427023  1
  I  I91  1  0.49858097  0.16851111  0.33345878  1
  I  I92  1  0.50213734  0.17409884  0.67007204  1
  I  I93  1  0.49713739  0.49533020  -0.00036238  1
  I  I94  1  0.49734229  0.50299895  0.33245075  1
  I  I95  1  0.49322440  0.49680738  0.66808107  1
  I  I96  1  0.49937485  0.83176272  -0.00011796  1
  I  I97  1  0.49672483  0.82957594  0.33332338  1
  I  I98  1  0.49651166  0.82926611  0.66678014  1
  I  I99  1  0.83210763  0.16703323  -0.00367429  1
  I  I100  1  0.83532821  0.16742735  0.33348722  1
  I  I101  1  0.83074957  0.16941149  0.66962239  1
  I  I102  1  0.83062622  0.49980255  0.00288661  1
  I  I103  1  0.83675913  0.50102779  0.32978793  1
  I  I104  1  0.83381898  0.49947444  0.66663023  1
  I  I105  1  0.83426618  0.83368152  0.00012622  1
  I  I106  1  0.84125212  0.83131310  0.33653813  1
  I  I107  1  0.84068742  0.83178928  0.66397241  1
  I  I108  1  0.00027080  0.17070965  0.16295766  1
  I  I109  1  0.00303432  0.16708702  0.50350655  1
  I  I110  1  -0.00146393  0.16687626  0.83147279  1
  I  I111  1  0.00157495  0.50413759  0.16178364  1
  I  I112  1  -0.00005981  0.49800735  0.49997503  1
  I  I113  1  0.00322907  0.50166791  0.83751922  1
  I  I114  1  0.00407712  0.82631713  0.16464687  1
  I  I115  1  0.00236568  0.83568266  0.50037289  1
  I  I116  1  0.00444946  0.82841210  0.83446760  1
  I  I117  1  0.33312865  0.16858154  0.16430299  1
  I  I118  1  0.33014739  0.15956148  0.50247032  1
  I  I119  1  0.33539896  0.16957893  0.83164010  1
  I  I120  1  0.33289910  0.50392775  0.16598115  1
  I  I121  1  0.33561798  0.50141909  0.49693917  1
  I  I122  1  0.33317731  0.49780733  0.83717545  1
  I  I123  1  0.32870574  0.82717540  0.16926318  1
  I  I124  1  0.32962697  0.83549276  0.50044093  1
  I  I125  1  0.32910951  0.83325973  0.83008666  1
  I  I126  1  0.66655618  0.16875761  0.17005356  1
  I  I127  1  0.66645963  0.16599984  0.49975237  1
  I  I128  1  0.66563510  0.17562584  0.83187903  1
  I  I129  1  0.66577194  0.49854548  0.16659035  1
  I  I130  1  0.66239004  0.50130100  0.50202373  1
  I  I131  1  0.66368664  0.49698839  0.83402252  1
  I  I132  1  0.66683461  0.83103991  0.16843043  1
  I  I133  1  0.66919987  0.82928614  0.50158810  1
  I  I134  1  0.66684723  0.83092402  0.83056513  1
