# generated using pymatgen
data_Cs27Sn14Pb13I81
_symmetry_space_group_name_H-M   'P 1'
_cell_length_a   18.96390287
_cell_length_b   18.96390290
_cell_length_c   18.95341285
_cell_angle_alpha   89.99867971
_cell_angle_beta   90.00132036
_cell_angle_gamma   89.99967377
_symmetry_Int_Tables_number   1
_chemical_formula_structural   Cs27Sn14Pb13I81
_chemical_formula_sum   'Cs27 Sn14 Pb13 I81'
_cell_volume   6816.20851710
_cell_formula_units_Z   1
loop_
 _symmetry_equiv_pos_site_id
 _symmetry_equiv_pos_as_xyz
  1  'x, y, z'
loop_
 _atom_site_type_symbol
 _atom_site_label
 _atom_site_symmetry_multiplicity
 _atom_site_fract_x
 _atom_site_fract_y
 _atom_site_fract_z
 _atom_site_occupancy
  Cs  Cs0  1  0.00248944  -0.00248943  0.00004835  1
  Cs  Cs1  1  -0.00186316  0.00186302  0.33279705  1
  Cs  Cs2  1  -0.00096314  0.00096308  0.66676488  1
  Cs  Cs3  1  0.00330828  0.33502185  -0.00220061  1
  Cs  Cs4  1  -0.00368152  0.32687058  0.33125196  1
  Cs  Cs5  1  -0.00071901  0.33414361  0.66782138  1
  Cs  Cs6  1  0.00057902  0.66748912  0.00062618  1
  Cs  Cs7  1  0.00026280  0.66867924  0.33263907  1
  Cs  Cs8  1  0.00086888  0.66516405  0.66646251  1
  Cs  Cs9  1  0.33251091  -0.00057894  0.00062608  1
  Cs  Cs10  1  0.33132076  -0.00026270  0.33263909  1
  Cs  Cs11  1  0.33483586  -0.00086893  0.66646251  1
  Cs  Cs12  1  0.33309551  0.33203449  0.00085181  1
  Cs  Cs13  1  0.33820501  0.33359092  0.33037293  1
  Cs  Cs14  1  0.33259332  0.33396513  0.66705592  1
  Cs  Cs15  1  0.33032771  0.66967222  -0.00113967  1
  Cs  Cs16  1  0.33390358  0.66609642  0.34024182  1
  Cs  Cs17  1  0.33363836  0.66636165  0.65751397  1
  Cs  Cs18  1  0.66497832  -0.00330824  -0.00220054  1
  Cs  Cs19  1  0.67312951  0.00368160  0.33125192  1
  Cs  Cs20  1  0.66585651  0.00071898  0.66782143  1
  Cs  Cs21  1  0.66319632  0.33680365  0.00030587  1
  Cs  Cs22  1  0.66524166  0.33475848  0.32719992  1
  Cs  Cs23  1  0.66840981  0.33159021  0.66769354  1
  Cs  Cs24  1  0.66796530  0.66690457  0.00085197  1
  Cs  Cs25  1  0.66640890  0.66179503  0.33037277  1
  Cs  Cs26  1  0.66603481  0.66740674  0.66705595  1
  Sn  Sn27  1  0.83332591  0.16667413  0.83318865  1
  Sn  Sn28  1  0.83334476  0.83226454  0.50098467  1
  Sn  Sn29  1  0.49919367  0.83331921  0.16687081  1
  Sn  Sn30  1  0.16773541  0.16665524  0.50098466  1
  Sn  Sn31  1  0.83252883  0.50023481  0.83264537  1
  Sn  Sn32  1  0.49976517  0.16747119  0.83264537  1
  Sn  Sn33  1  0.83424429  0.83313155  0.83237308  1
  Sn  Sn34  1  0.16623876  0.83376118  0.83326253  1
  Sn  Sn35  1  0.49925885  0.16655716  0.50061915  1
  Sn  Sn36  1  0.16785880  0.83214122  0.16624579  1
  Sn  Sn37  1  0.83344284  0.50074118  0.50061912  1
  Sn  Sn38  1  0.50012001  0.49988001  0.83296775  1
  Sn  Sn39  1  0.16668082  0.50080629  0.16687082  1
  Sn  Sn40  1  0.16686840  0.16575573  0.83237303  1
  Pb  Pb41  1  0.83547816  0.50001608  0.16619677  1
  Pb  Pb42  1  0.49998397  0.16452182  0.16619679  1
  Pb  Pb43  1  0.16684224  0.50029164  0.83401092  1
  Pb  Pb44  1  0.83317363  0.16682637  0.16243105  1
  Pb  Pb45  1  0.49970837  0.83315774  0.83401094  1
  Pb  Pb46  1  0.49749365  0.50250622  0.16414476  1
  Pb  Pb47  1  0.83304928  0.16695078  0.50175692  1
  Pb  Pb48  1  0.83382451  0.83326894  0.16641751  1
  Pb  Pb49  1  0.50236873  0.49763126  0.50219026  1
  Pb  Pb50  1  0.16427815  0.49699962  0.49723578  1
  Pb  Pb51  1  0.16673101  0.16617551  0.16641750  1
  Pb  Pb52  1  0.16480726  0.83519273  0.50019828  1
  Pb  Pb53  1  0.50300041  0.83572191  0.49723576  1
  I  I54  1  0.16951611  -0.00306693  0.16407943  1
  I  I55  1  0.16682399  0.00323462  0.50014398  1
  I  I56  1  0.16343268  0.00016718  0.83598355  1
  I  I57  1  0.16449502  0.33529654  0.16516132  1
  I  I58  1  0.16718635  0.32921753  0.50639691  1
  I  I59  1  0.16403569  0.33056332  0.83226097  1
  I  I60  1  0.16851969  0.66833112  0.15932134  1
  I  I61  1  0.16652889  0.66667333  0.50196807  1
  I  I62  1  0.16291576  0.66944605  0.83765817  1
  I  I63  1  0.49362465  -0.00312446  0.16325993  1
  I  I64  1  0.49867356  0.00357794  0.50777884  1
  I  I65  1  0.50243670  0.00280419  0.83188700  1
  I  I66  1  0.49894596  0.33353708  0.16761599  1
  I  I67  1  0.49797051  0.32954607  0.50173830  1
  I  I68  1  0.50334087  0.33217532  0.83080206  1
  I  I69  1  0.49910851  0.67006705  0.16378385  1
  I  I70  1  0.49948878  0.66660768  0.50085959  1
  I  I71  1  0.50420465  0.66442328  0.83738382  1
  I  I72  1  0.83551477  -0.00029855  0.16916140  1
  I  I73  1  0.83357341  -0.00201475  0.50339810  1
  I  I74  1  0.83383523  -0.00024974  0.82993164  1
  I  I75  1  0.83603822  0.33358273  0.16898007  1
  I  I76  1  0.83459304  0.33549844  0.50498286  1
  I  I77  1  0.83354109  0.33333173  0.82951073  1
  I  I78  1  0.83203689  0.66679571  0.16244265  1
  I  I79  1  0.83426421  0.66688529  0.50836860  1
  I  I80  1  0.83339497  0.66691672  0.83033155  1
  I  I81  1  0.16617388  0.16564488  -0.00359721  1
  I  I82  1  0.17021298  0.16698947  0.33610113  1
  I  I83  1  0.16665704  0.16164458  0.66867942  1
  I  I84  1  0.16453200  0.49980207  0.00187610  1
  I  I85  1  0.16520435  0.50607985  0.32974366  1
  I  I86  1  0.16776647  0.50187179  0.66651383  1
  I  I87  1  0.16431076  0.83568922  -0.00112813  1
  I  I88  1  0.16825216  0.83174789  0.33080935  1
  I  I89  1  0.16374996  0.83625000  0.66970802  1
  I  I90  1  0.49985629  0.16918936  -0.00390080  1
  I  I91  1  0.49524853  0.16440310  0.33613570  1
  I  I92  1  0.49953057  0.16886897  0.66850671  1
  I  I93  1  0.50741730  0.49258279  -0.00388321  1
  I  I94  1  0.50170803  0.49829223  0.33335263  1
  I  I95  1  0.50035077  0.49964889  0.67054337  1
  I  I96  1  0.50019804  0.83546785  0.00187612  1
  I  I97  1  0.49392020  0.83479556  0.32974368  1
  I  I98  1  0.49812819  0.83223369  0.66651384  1
  I  I99  1  0.83437352  0.16562663  -0.00615716  1
  I  I100  1  0.83398258  0.16601738  0.33371443  1
  I  I101  1  0.83377143  0.16622837  0.67026010  1
  I  I102  1  0.83081073  0.50014369  -0.00390083  1
  I  I103  1  0.83559665  0.50475142  0.33613568  1
  I  I104  1  0.83113119  0.50046938  0.66850671  1
  I  I105  1  0.83435503  0.83382597  -0.00359721  1
  I  I106  1  0.83301045  0.82978702  0.33610114  1
  I  I107  1  0.83835559  0.83334321  0.66867942  1
  I  I108  1  0.00029857  0.16448486  0.16916156  1
  I  I109  1  0.00201471  0.16642670  0.50339828  1
  I  I110  1  0.00024974  0.16616455  0.82993147  1
  I  I111  1  0.00312441  0.50637507  0.16326003  1
  I  I112  1  -0.00357796  0.50132612  0.50777877  1
  I  I113  1  -0.00280419  0.49756330  0.83188691  1
  I  I114  1  0.00306690  0.83048449  0.16407949  1
  I  I115  1  -0.00323458  0.83317606  0.50014378  1
  I  I116  1  -0.00016717  0.83656744  0.83598365  1
  I  I117  1  0.33320429  0.16796338  0.16244255  1
  I  I118  1  0.33311469  0.16573599  0.50836850  1
  I  I119  1  0.33308329  0.16660518  0.83033171  1
  I  I120  1  0.32993291  0.50089213  0.16378390  1
  I  I121  1  0.33339233  0.50051116  0.50085929  1
  I  I122  1  0.33557676  0.49579509  0.83738407  1
  I  I123  1  0.33166888  0.83147966  0.15932139  1
  I  I124  1  0.33332672  0.83347098  0.50196808  1
  I  I125  1  0.33055393  0.83708439  0.83765819  1
  I  I126  1  0.66641724  0.16396179  0.16897988  1
  I  I127  1  0.66450155  0.16540662  0.50498278  1
  I  I128  1  0.66666825  0.16645892  0.82951081  1
  I  I129  1  0.66646293  0.50105400  0.16761582  1
  I  I130  1  0.67045390  0.50202975  0.50173860  1
  I  I131  1  0.66782467  0.49665928  0.83080191  1
  I  I132  1  0.66470345  0.83550515  0.16516141  1
  I  I133  1  0.67078252  0.83281366  0.50639702  1
  I  I134  1  0.66943671  0.83596411  0.83226082  1
