# generated using pymatgen
data_Cs27Sn13Pb14I81
_symmetry_space_group_name_H-M   'P 1'
_cell_length_a   18.96962704
_cell_length_b   18.97843873
_cell_length_c   18.98260393
_cell_angle_alpha   90.00004969
_cell_angle_beta   90.00018640
_cell_angle_gamma   90.00186855
_symmetry_Int_Tables_number   1
_chemical_formula_structural   Cs27Sn13Pb14I81
_chemical_formula_sum   'Cs27 Sn13 Pb14 I81'
_cell_volume   6834.00135296
_cell_formula_units_Z   1
loop_
 _symmetry_equiv_pos_site_id
 _symmetry_equiv_pos_as_xyz
  1  'x, y, z'
loop_
 _atom_site_type_symbol
 _atom_site_label
 _atom_site_symmetry_multiplicity
 _atom_site_fract_x
 _atom_site_fract_y
 _atom_site_fract_z
 _atom_site_occupancy
  Cs  Cs0  1  -0.00039790  -0.00175783  0.00115040  1
  Cs  Cs1  1  -0.00097888  -0.00168996  0.33308029  1
  Cs  Cs2  1  0.00018568  0.00036722  0.66587744  1
  Cs  Cs3  1  0.00076383  0.33406728  -0.00112682  1
  Cs  Cs4  1  -0.00028764  0.33309918  0.33451879  1
  Cs  Cs5  1  -0.00029189  0.33194172  0.66667663  1
  Cs  Cs6  1  -0.00207596  0.66880605  0.00574756  1
  Cs  Cs7  1  -0.00263480  0.67045273  0.32533048  1
  Cs  Cs8  1  0.00117773  0.66749750  0.66651821  1
  Cs  Cs9  1  0.33592986  0.00465959  0.00049213  1
  Cs  Cs10  1  0.33358019  0.00093636  0.33479372  1
  Cs  Cs11  1  0.33697300  -0.00355966  0.66481413  1
  Cs  Cs12  1  0.33212522  0.33479736  0.00331900  1
  Cs  Cs13  1  0.33413024  0.33209649  0.33172647  1
  Cs  Cs14  1  0.32984132  0.33654048  0.66566518  1
  Cs  Cs15  1  0.33573902  0.66408758  -0.00184246  1
  Cs  Cs16  1  0.33279771  0.66754507  0.33434518  1
  Cs  Cs17  1  0.33306552  0.66695710  0.66734176  1
  Cs  Cs18  1  0.66542109  0.00134440  -0.00317776  1
  Cs  Cs19  1  0.66780417  0.00251327  0.33483213  1
  Cs  Cs20  1  0.66277496  -0.00001666  0.66791334  1
  Cs  Cs21  1  0.66794574  0.33011267  -0.00530638  1
  Cs  Cs22  1  0.66604798  0.33202315  0.33600203  1
  Cs  Cs23  1  0.67043212  0.33241474  0.66775709  1
  Cs  Cs24  1  0.66547383  0.66701083  0.00353626  1
  Cs  Cs25  1  0.66890074  0.66475262  0.32898255  1
  Cs  Cs26  1  0.66692350  0.66595864  0.66642353  1
  Sn  Sn27  1  0.83340051  0.83384203  0.50084449  1
  Sn  Sn28  1  0.16605359  0.16706278  0.50088466  1
  Sn  Sn29  1  0.83422183  0.16563725  0.49950969  1
  Sn  Sn30  1  0.49951219  0.83337086  0.16693662  1
  Sn  Sn31  1  0.16697660  0.49971853  0.50032198  1
  Sn  Sn32  1  0.16670528  0.16662070  0.83235629  1
  Sn  Sn33  1  0.83384703  0.83300534  0.83239093  1
  Sn  Sn34  1  0.16616410  0.83324297  0.83325519  1
  Sn  Sn35  1  0.49984116  0.50043950  0.16673064  1
  Sn  Sn36  1  0.83366926  0.16688306  0.16728833  1
  Sn  Sn37  1  0.16704115  0.50024367  0.83268786  1
  Sn  Sn38  1  0.49958162  0.49994008  0.83301091  1
  Sn  Sn39  1  0.49933739  0.49998831  0.50017546  1
  Pb  Pb40  1  0.83551287  0.16443321  0.83250539  1
  Pb  Pb41  1  0.83427552  0.50264036  0.83334573  1
  Pb  Pb42  1  0.16457143  0.16667969  0.16728233  1
  Pb  Pb43  1  0.50265324  0.83067988  0.49804080  1
  Pb  Pb44  1  0.16853824  0.50006034  0.16705606  1
  Pb  Pb45  1  0.49980352  0.83137411  0.83470833  1
  Pb  Pb46  1  0.16495308  0.83301627  0.50153865  1
  Pb  Pb47  1  0.50221518  0.16698174  0.16670875  1
  Pb  Pb48  1  0.83068890  0.49710518  0.16652487  1
  Pb  Pb49  1  0.83435469  0.50001986  0.50004476  1
  Pb  Pb50  1  0.49669206  0.16961075  0.83293598  1
  Pb  Pb51  1  0.83135828  0.83529133  0.16652468  1
  Pb  Pb52  1  0.49961022  0.16890554  0.50029733  1
  Pb  Pb53  1  0.16945757  0.83351931  0.16373021  1
  I  I54  1  0.17020169  0.00008702  0.16612088  1
  I  I55  1  0.16339937  0.00276536  0.50397790  1
  I  I56  1  0.16059913  0.00004092  0.83050992  1
  I  I57  1  0.16835802  0.33337307  0.16180484  1
  I  I58  1  0.16478046  0.33339733  0.50748504  1
  I  I59  1  0.17139450  0.33387389  0.82964676  1
  I  I60  1  0.16338126  0.66672303  0.16755322  1
  I  I61  1  0.17027507  0.66367468  0.50511598  1
  I  I62  1  0.16778460  0.66575135  0.82895131  1
  I  I63  1  0.50165404  -0.00238115  0.16492548  1
  I  I64  1  0.49778802  -0.00020031  0.49692361  1
  I  I65  1  0.49934503  -0.00015942  0.83716164  1
  I  I66  1  0.50055821  0.33674994  0.16653342  1
  I  I67  1  0.50096976  0.33734719  0.49747332  1
  I  I68  1  0.49687442  0.33803717  0.83642779  1
  I  I69  1  0.50120398  0.66533452  0.16583465  1
  I  I70  1  0.49472162  0.66258183  0.50270166  1
  I  I71  1  0.49448365  0.66320927  0.83155433  1
  I  I72  1  0.83071333  0.00279084  0.16849733  1
  I  I73  1  0.83928974  0.00083244  0.49910153  1
  I  I74  1  0.83816005  -0.00336016  0.83306875  1
  I  I75  1  0.83262100  0.32944122  0.17316029  1
  I  I76  1  0.83376534  0.33046668  0.49583146  1
  I  I77  1  0.83262343  0.33316925  0.83356844  1
  I  I78  1  0.83375973  0.66688096  0.16738500  1
  I  I79  1  0.83216065  0.66927230  0.50455972  1
  I  I80  1  0.83793107  0.67052270  0.82781450  1
  I  I81  1  0.16589687  0.16790983  -0.00321715  1
  I  I82  1  0.16504502  0.17236577  0.33708480  1
  I  I83  1  0.16022548  0.16922503  0.66620957  1
  I  I84  1  0.17061767  0.49881494  -0.00344905  1
  I  I85  1  0.17049829  0.49413289  0.33690449  1
  I  I86  1  0.17501983  0.49900785  0.66705096  1
  I  I87  1  0.15920408  0.83229395  -0.00491371  1
  I  I88  1  0.16532365  0.83298909  0.33351148  1
  I  I89  1  0.16575540  0.83250404  0.66994607  1
  I  I90  1  0.50114453  0.16888522  -0.00017742  1
  I  I91  1  0.49646957  0.16939064  0.33350491  1
  I  I92  1  0.50651442  0.16642319  0.66663861  1
  I  I93  1  0.49612880  0.50408842  -0.00044246  1
  I  I94  1  0.49682468  0.50346021  0.33367731  1
  I  I95  1  0.49516427  0.49938448  0.66675449  1
  I  I96  1  0.50188169  0.82663048  0.00241765  1
  I  I97  1  0.50218981  0.82705409  0.33035125  1
  I  I98  1  0.49959535  0.83188374  0.66666174  1
  I  I99  1  0.83305739  0.16567164  0.00147345  1
  I  I100  1  0.83791108  0.16131553  0.33521367  1
  I  I101  1  0.83581700  0.16546655  0.66361257  1
  I  I102  1  0.83338972  0.49967880  -0.00014942  1
  I  I103  1  0.83328565  0.50457889  0.33350100  1
  I  I104  1  0.82696343  0.49670138  0.66661685  1
  I  I105  1  0.83649293  0.83403859  -0.00257475  1
  I  I106  1  0.83162969  0.83502919  0.33582266  1
  I  I107  1  0.83651103  0.83818599  0.66660381  1
  I  I108  1  -0.00325218  0.16475359  0.16826919  1
  I  I109  1  0.00038564  0.16973746  0.50020956  1
  I  I110  1  0.00358741  0.17261102  0.83222605  1
  I  I111  1  -0.00001278  0.49979079  0.16649985  1
  I  I112  1  0.00351225  0.49775804  0.50743358  1
  I  I113  1  0.00395130  0.49743126  0.82691144  1
  I  I114  1  -0.00026104  0.83408348  0.16744800  1
  I  I115  1  -0.00312726  0.83259134  0.50120513  1
  I  I116  1  0.00059198  0.83136056  0.82969662  1
  I  I117  1  0.33340248  0.16669788  0.16626844  1
  I  I118  1  0.32975662  0.16909079  0.50423117  1
  I  I119  1  0.32844515  0.16069595  0.82794834  1
  I  I120  1  0.33690000  0.50256776  0.16584473  1
  I  I121  1  0.33271345  0.49487260  0.50080262  1
  I  I122  1  0.33255369  0.50186286  0.83296396  1
  I  I123  1  0.33722914  0.82859167  0.16575074  1
  I  I124  1  0.33331145  0.83588941  0.50024587  1
  I  I125  1  0.33028521  0.83418165  0.83515717  1
  I  I126  1  0.67007610  0.16711994  0.17318587  1
  I  I127  1  0.66971093  0.16482804  0.49527200  1
  I  I128  1  0.66684797  0.16684368  0.83414983  1
  I  I129  1  0.66228091  0.50472466  0.16704396  1
  I  I130  1  0.66398715  0.50053303  0.50000736  1
  I  I131  1  0.66380061  0.50216855  0.83326404  1
  I  I132  1  0.66384916  0.82777139  0.16459877  1
  I  I133  1  0.67060377  0.83871494  0.50645718  1
  I  I134  1  0.66911347  0.83212475  0.83155856  1
