# generated using pymatgen
data_Cs27Sn14Pb13I81
_symmetry_space_group_name_H-M   'P 1'
_cell_length_a   18.97569722
_cell_length_b   18.97259084
_cell_length_c   18.97968998
_cell_angle_alpha   89.99827890
_cell_angle_beta   89.99909161
_cell_angle_gamma   89.99954628
_symmetry_Int_Tables_number   1
_chemical_formula_structural   Cs27Sn14Pb13I81
_chemical_formula_sum   'Cs27 Sn14 Pb13 I81'
_cell_volume   6833.03266671
_cell_formula_units_Z   1
loop_
 _symmetry_equiv_pos_site_id
 _symmetry_equiv_pos_as_xyz
  1  'x, y, z'
loop_
 _atom_site_type_symbol
 _atom_site_label
 _atom_site_symmetry_multiplicity
 _atom_site_fract_x
 _atom_site_fract_y
 _atom_site_fract_z
 _atom_site_occupancy
  Cs  Cs0  1  -0.00029618  -0.00117006  0.00132833  1
  Cs  Cs1  1  -0.00087284  0.00125886  0.33474533  1
  Cs  Cs2  1  -0.00236034  0.00124259  0.66323261  1
  Cs  Cs3  1  -0.00204247  0.33408429  0.00096457  1
  Cs  Cs4  1  0.00191872  0.33260166  0.33275167  1
  Cs  Cs5  1  -0.00003888  0.33718085  0.66780186  1
  Cs  Cs6  1  0.00403248  0.66702450  -0.00047637  1
  Cs  Cs7  1  -0.00255497  0.66580584  0.33376082  1
  Cs  Cs8  1  0.00342446  0.66080283  0.66676365  1
  Cs  Cs9  1  0.33232842  -0.00095179  0.00198861  1
  Cs  Cs10  1  0.33365973  0.00029083  0.33246332  1
  Cs  Cs11  1  0.33335815  0.00208434  0.66656614  1
  Cs  Cs12  1  0.33484346  0.33057503  0.00134367  1
  Cs  Cs13  1  0.33167608  0.33224498  0.33187091  1
  Cs  Cs14  1  0.33247595  0.33149810  0.66624328  1
  Cs  Cs15  1  0.32863815  0.67242341  -0.00188693  1
  Cs  Cs16  1  0.34245867  0.66804255  0.33416250  1
  Cs  Cs17  1  0.33362629  0.66173361  0.66750474  1
  Cs  Cs18  1  0.66778739  0.00087635  -0.00149803  1
  Cs  Cs19  1  0.66893948  -0.00013232  0.33531395  1
  Cs  Cs20  1  0.66766121  -0.00056148  0.66708737  1
  Cs  Cs21  1  0.66703919  0.33674436  -0.00010262  1
  Cs  Cs22  1  0.66593898  0.33965390  0.32867666  1
  Cs  Cs23  1  0.66819259  0.33256989  0.67030889  1
  Cs  Cs24  1  0.66748825  0.66412126  0.00015036  1
  Cs  Cs25  1  0.66096975  0.65970284  0.33346786  1
  Cs  Cs26  1  0.66365019  0.66918698  0.66450948  1
  Sn  Sn27  1  0.83320337  0.83404543  0.16719478  1
  Sn  Sn28  1  0.83308363  0.16666907  0.49912547  1
  Sn  Sn29  1  0.16687427  0.16619537  0.83330465  1
  Sn  Sn30  1  0.16640550  0.16592460  0.50015470  1
  Sn  Sn31  1  0.50043805  0.16648210  0.50039263  1
  Sn  Sn32  1  0.83315274  0.83354468  0.83301461  1
  Sn  Sn33  1  0.16618773  0.83392296  0.50000772  1
  Sn  Sn34  1  0.16565360  0.16713240  0.16665913  1
  Sn  Sn35  1  0.49941797  0.16641022  0.83272523  1
  Sn  Sn36  1  0.49978217  0.49980981  0.83340949  1
  Sn  Sn37  1  0.83396816  0.16578277  0.16742779  1
  Sn  Sn38  1  0.16686813  0.49971561  0.16697597  1
  Sn  Sn39  1  0.83414791  0.83377205  0.49974664  1
  Sn  Sn40  1  0.50048335  0.83365731  0.83330312  1
  Pb  Pb41  1  0.50053633  0.16643310  0.16666789  1
  Pb  Pb42  1  0.16638023  0.83557280  0.83082219  1
  Pb  Pb43  1  0.16678621  0.49990774  0.49776718  1
  Pb  Pb44  1  0.83339260  0.16529832  0.83336950  1
  Pb  Pb45  1  0.83124321  0.50363668  0.83326299  1
  Pb  Pb46  1  0.83334736  0.49983901  0.50004952  1
  Pb  Pb47  1  0.16475321  0.83393203  0.16945530  1
  Pb  Pb48  1  0.50318003  0.83364315  0.16410618  1
  Pb  Pb49  1  0.83536512  0.49980867  0.16665276  1
  Pb  Pb50  1  0.50016671  0.83544882  0.50191395  1
  Pb  Pb51  1  0.16866375  0.49702780  0.83542766  1
  Pb  Pb52  1  0.49986658  0.49645652  0.50229029  1
  Pb  Pb53  1  0.49688389  0.50002171  0.16404655  1
  I  I54  1  0.16502182  0.00347804  0.16489700  1
  I  I55  1  0.16570789  0.00199339  0.49842561  1
  I  I56  1  0.17270126  0.00371762  0.83814334  1
  I  I57  1  0.16145738  0.33034023  0.16800270  1
  I  I58  1  0.16626718  0.32924781  0.50210282  1
  I  I59  1  0.17105661  0.32862627  0.82803098  1
  I  I60  1  0.16489775  0.66499539  0.16646302  1
  I  I61  1  0.16030213  0.66978526  0.49958923  1
  I  I62  1  0.16757954  0.66690161  0.83407704  1
  I  I63  1  0.49438176  0.00024969  0.16292071  1
  I  I64  1  0.49970382  0.00364592  0.50669022  1
  I  I65  1  0.50069351  0.00086138  0.82927678  1
  I  I66  1  0.50495509  0.33294940  0.16426375  1
  I  I67  1  0.49891531  0.32805022  0.50542876  1
  I  I68  1  0.49417287  0.33175069  0.82919902  1
  I  I69  1  0.49933561  0.66681634  0.16571994  1
  I  I70  1  0.49980112  0.66685575  0.50153687  1
  I  I71  1  0.50656961  0.66745367  0.83496422  1
  I  I72  1  0.83924659  0.00081566  0.16706651  1
  I  I73  1  0.83421827  0.00061326  0.49958172  1
  I  I74  1  0.82761252  -0.00270425  0.83330028  1
  I  I75  1  0.83497867  0.32973769  0.17149082  1
  I  I76  1  0.83448526  0.32893584  0.49539544  1
  I  I77  1  0.83246465  0.33308330  0.83370116  1
  I  I78  1  0.83458163  0.66997048  0.16618267  1
  I  I79  1  0.83854614  0.67069580  0.50019349  1
  I  I80  1  0.82893660  0.67213557  0.83363361  1
  I  I81  1  0.16736137  0.17092068  0.00026120  1
  I  I82  1  0.16637906  0.16728797  0.33378780  1
  I  I83  1  0.16791738  0.16161485  0.66597206  1
  I  I84  1  0.16677343  0.49479368  0.00313639  1
  I  I85  1  0.16522210  0.49222968  0.33021815  1
  I  I86  1  0.16774542  0.49960926  0.66682610  1
  I  I87  1  0.16623743  0.83392781  -0.00001425  1
  I  I88  1  0.16151377  0.83951137  0.33713766  1
  I  I89  1  0.16149362  0.84006004  0.66321894  1
  I  I90  1  0.49673386  0.16657076  -0.00345001  1
  I  I91  1  0.49715606  0.16506746  0.33636303  1
  I  I92  1  0.49681286  0.16633762  0.66733009  1
  I  I93  1  0.50105161  0.49556498  -0.00386607  1
  I  I94  1  0.50026194  0.49951669  0.33327619  1
  I  I95  1  0.49874759  0.50285035  0.67025073  1
  I  I96  1  0.50348823  0.83703084  -0.00454316  1
  I  I97  1  0.49957413  0.83468372  0.33366412  1
  I  I98  1  0.50604023  0.83292249  0.67004208  1
  I  I99  1  0.83663709  0.16228253  0.00237843  1
  I  I100  1  0.83674575  0.15868856  0.33377046  1
  I  I101  1  0.83496646  0.16219884  0.66392406  1
  I  I102  1  0.83272988  0.49863406  -0.00002777  1
  I  I103  1  0.83228875  0.50414647  0.33323381  1
  I  I104  1  0.83441625  0.49776591  0.66677892  1
  I  I105  1  0.82805920  0.83805743  0.00014070  1
  I  I106  1  0.84015210  0.83925570  0.33397887  1
  I  I107  1  0.83190823  0.83897162  0.66596031  1
  I  I108  1  0.00033727  0.16664816  0.16888436  1
  I  I109  1  0.00016550  0.16215907  0.49933206  1
  I  I110  1  0.00250269  0.16395348  0.83171462  1
  I  I111  1  0.00297151  0.49647913  0.16545399  1
  I  I112  1  0.00017174  0.49652299  0.50141479  1
  I  I113  1  0.00034922  0.49995632  0.83409949  1
  I  I114  1  -0.00335457  0.83510728  0.16073247  1
  I  I115  1  -0.00109211  0.84227079  0.50186938  1
  I  I116  1  -0.00277369  0.83692906  0.83538777  1
  I  I117  1  0.33031508  0.17107786  0.16847108  1
  I  I118  1  0.33240847  0.16325578  0.50122754  1
  I  I119  1  0.33381151  0.16501097  0.83027060  1
  I  I120  1  0.32935468  0.49088447  0.16728638  1
  I  I121  1  0.33330728  0.50158465  0.49941243  1
  I  I122  1  0.33657858  0.50538685  0.83395210  1
  I  I123  1  0.33308285  0.83300682  0.16628842  1
  I  I124  1  0.33090746  0.83839185  0.50120979  1
  I  I125  1  0.33585956  0.83223598  0.83142356  1
  I  I126  1  0.67010731  0.16150109  0.16924823  1
  I  I127  1  0.66746429  0.16170678  0.50150783  1
  I  I128  1  0.66394413  0.16758767  0.83023025  1
  I  I129  1  0.66658148  0.49967355  0.16575799  1
  I  I130  1  0.66649999  0.50062278  0.49936729  1
  I  I131  1  0.66317121  0.49204094  0.83415025  1
  I  I132  1  0.67153101  0.84058581  0.17163883  1
  I  I133  1  0.66985865  0.83852124  0.49957481  1
  I  I134  1  0.66676083  0.83637028  0.83175066  1
