# generated using pymatgen
data_Cs27Sn13Pb14I81
_symmetry_space_group_name_H-M   'P 1'
_cell_length_a   18.97309624
_cell_length_b   18.97795231
_cell_length_c   18.97884474
_cell_angle_alpha   90.00109502
_cell_angle_beta   90.00021316
_cell_angle_gamma   90.00185537
_symmetry_Int_Tables_number   1
_chemical_formula_structural   Cs27Sn13Pb14I81
_chemical_formula_sum   'Cs27 Sn13 Pb14 I81'
_cell_volume   6833.72240555
_cell_formula_units_Z   1
loop_
 _symmetry_equiv_pos_site_id
 _symmetry_equiv_pos_as_xyz
  1  'x, y, z'
loop_
 _atom_site_type_symbol
 _atom_site_label
 _atom_site_symmetry_multiplicity
 _atom_site_fract_x
 _atom_site_fract_y
 _atom_site_fract_z
 _atom_site_occupancy
  Cs  Cs0  1  -0.00256544  -0.00319670  -0.00014638  1
  Cs  Cs1  1  0.00369834  0.00396151  0.33780815  1
  Cs  Cs2  1  0.00037904  0.00111650  0.66233846  1
  Cs  Cs3  1  0.00834454  0.33462275  0.00108479  1
  Cs  Cs4  1  0.00025556  0.33425828  0.33430511  1
  Cs  Cs5  1  -0.00230798  0.33088101  0.66376628  1
  Cs  Cs6  1  -0.00185835  0.66802286  0.00213973  1
  Cs  Cs7  1  -0.00366331  0.66169040  0.33095926  1
  Cs  Cs8  1  -0.00181248  0.66772080  0.66728520  1
  Cs  Cs9  1  0.33341700  0.00025059  0.00051978  1
  Cs  Cs10  1  0.33329487  -0.00224551  0.33412464  1
  Cs  Cs11  1  0.33001383  -0.00186580  0.66496044  1
  Cs  Cs12  1  0.32775693  0.33444700  -0.00642683  1
  Cs  Cs13  1  0.33522571  0.33487284  0.33103894  1
  Cs  Cs14  1  0.33379202  0.33609317  0.67600813  1
  Cs  Cs15  1  0.33272941  0.66653222  -0.00087061  1
  Cs  Cs16  1  0.33540532  0.66836481  0.33627723  1
  Cs  Cs17  1  0.33305738  0.66754435  0.66439965  1
  Cs  Cs18  1  0.66813151  0.00003471  0.00030782  1
  Cs  Cs19  1  0.66389035  0.00205744  0.33103108  1
  Cs  Cs20  1  0.66733452  -0.00056572  0.66719423  1
  Cs  Cs21  1  0.66431679  0.32955077  -0.00261987  1
  Cs  Cs22  1  0.66734566  0.33316808  0.33499325  1
  Cs  Cs23  1  0.66787568  0.33324828  0.66730528  1
  Cs  Cs24  1  0.66886311  0.66956063  0.00064924  1
  Cs  Cs25  1  0.66586346  0.66438614  0.33271190  1
  Cs  Cs26  1  0.66752062  0.66728927  0.66713238  1
  Sn  Sn27  1  0.49935366  0.83324424  0.16565040  1
  Sn  Sn28  1  0.49919029  0.49872618  0.49966601  1
  Sn  Sn29  1  0.16750237  0.83332091  0.83394691  1
  Sn  Sn30  1  0.49975747  0.16771130  0.49977896  1
  Sn  Sn31  1  0.50008836  0.49961538  0.16667069  1
  Sn  Sn32  1  0.83299862  0.83332524  0.49923548  1
  Sn  Sn33  1  0.83324468  0.49889106  0.83391579  1
  Sn  Sn34  1  0.83333250  0.16778639  0.83443196  1
  Sn  Sn35  1  0.83307702  0.16681549  0.16588538  1
  Sn  Sn36  1  0.50031488  0.16717835  0.16708065  1
  Sn  Sn37  1  0.49929839  0.83336617  0.83399518  1
  Sn  Sn38  1  0.16749562  0.49970442  0.49997019  1
  Sn  Sn39  1  0.16730419  0.83334419  0.16622588  1
  Pb  Pb40  1  0.83094736  0.49713600  0.16435775  1
  Pb  Pb41  1  0.16356735  0.16394387  0.83334345  1
  Pb  Pb42  1  0.83255275  0.50130526  0.50139100  1
  Pb  Pb43  1  0.50141087  0.50228776  0.83342426  1
  Pb  Pb44  1  0.83318184  0.83542647  0.16905920  1
  Pb  Pb45  1  0.50124350  0.83316896  0.49955276  1
  Pb  Pb46  1  0.16741515  0.16459207  0.16669904  1
  Pb  Pb47  1  0.16412800  0.50242626  0.83136698  1
  Pb  Pb48  1  0.17034311  0.16974989  0.49992449  1
  Pb  Pb49  1  0.83121345  0.16517011  0.49959803  1
  Pb  Pb50  1  0.83345304  0.83383466  0.83218136  1
  Pb  Pb51  1  0.16922560  0.50244032  0.16839021  1
  Pb  Pb52  1  0.50120204  0.16428599  0.83353667  1
  Pb  Pb53  1  0.16444105  0.83148458  0.49940612  1
  I  I54  1  0.17192856  -0.00368104  0.16402261  1
  I  I55  1  0.16593509  -0.00013992  0.50061736  1
  I  I56  1  0.16922917  -0.00419585  0.83571424  1
  I  I57  1  0.16647327  0.33359458  0.16839277  1
  I  I58  1  0.16529053  0.33750728  0.49952216  1
  I  I59  1  0.16733262  0.33355492  0.83206819  1
  I  I60  1  0.17101689  0.67049063  0.16334351  1
  I  I61  1  0.17403351  0.66407057  0.50032048  1
  I  I62  1  0.16796655  0.67027207  0.83645908  1
  I  I63  1  0.50085097  -0.00004521  0.16729799  1
  I  I64  1  0.50431072  0.00194047  0.49706572  1
  I  I65  1  0.50013162  -0.00366326  0.83629965  1
  I  I66  1  0.50652068  0.33299093  0.17344781  1
  I  I67  1  0.49846146  0.33383506  0.49158485  1
  I  I68  1  0.50087191  0.33330363  0.83473237  1
  I  I69  1  0.49576265  0.66713839  0.16774688  1
  I  I70  1  0.49857490  0.66416572  0.49732091  1
  I  I71  1  0.50042118  0.67023075  0.83611730  1
  I  I72  1  0.82640253  0.00301609  0.16030647  1
  I  I73  1  0.83186606  -0.00243868  0.50313949  1
  I  I74  1  0.83227045  0.00229603  0.83570735  1
  I  I75  1  0.82713720  0.32926017  0.16731194  1
  I  I76  1  0.83473181  0.33322080  0.49996747  1
  I  I77  1  0.83009997  0.33267980  0.83461168  1
  I  I78  1  0.83239629  0.66666478  0.16599450  1
  I  I79  1  0.83100579  0.66901305  0.50315274  1
  I  I80  1  0.83255836  0.66535736  0.82927668  1
  I  I81  1  0.17081069  0.16931565  0.00002526  1
  I  I82  1  0.16062465  0.16257253  0.33335879  1
  I  I83  1  0.16585116  0.16254300  0.66655620  1
  I  I84  1  0.16691896  0.49968666  0.00001663  1
  I  I85  1  0.16705089  0.50343596  0.33627428  1
  I  I86  1  0.17413101  0.50332433  0.66367604  1
  I  I87  1  0.17029836  0.83306936  0.00014107  1
  I  I88  1  0.17151063  0.83300576  0.33054255  1
  I  I89  1  0.16957989  0.83178731  0.66901284  1
  I  I90  1  0.50329259  0.16735502  0.00317157  1
  I  I91  1  0.50615721  0.16475187  0.33201130  1
  I  I92  1  0.50255470  0.16943254  0.66430638  1
  I  I93  1  0.50314110  0.49865339  0.00290117  1
  I  I94  1  0.49743524  0.50236115  0.33323402  1
  I  I95  1  0.49834339  0.49758027  0.66390216  1
  I  I96  1  0.49782541  0.83326210  0.00117167  1
  I  I97  1  0.49751342  0.83385552  0.33025841  1
  I  I98  1  0.49875583  0.83327634  0.66869707  1
  I  I99  1  0.82547482  0.16770969  0.00035202  1
  I  I100  1  0.82980243  0.16278195  0.33066404  1
  I  I101  1  0.83163028  0.16768985  0.66887518  1
  I  I102  1  0.83130480  0.50207782  -0.00328318  1
  I  I103  1  0.83489502  0.50082185  0.33307954  1
  I  I104  1  0.83098177  0.49606142  0.66924567  1
  I  I105  1  0.83325940  0.83233350  0.00031532  1
  I  I106  1  0.83217788  0.83359795  0.33615681  1
  I  I107  1  0.83210279  0.83449881  0.66469881  1
  I  I108  1  -0.00277064  0.16334291  0.16229776  1
  I  I109  1  -0.00007418  0.16592672  0.49999712  1
  I  I110  1  -0.00462480  0.16822249  0.83846295  1
  I  I111  1  -0.00001983  0.50099409  0.16823979  1
  I  I112  1  0.00170491  0.50505249  0.50281218  1
  I  I113  1  -0.00355027  0.49884174  0.83062980  1
  I  I114  1  0.00235378  0.83474874  0.16302287  1
  I  I115  1  -0.00289344  0.83225935  0.50205157  1
  I  I116  1  0.00227755  0.83282864  0.83602621  1
  I  I117  1  0.33733492  0.16679647  0.17187697  1
  I  I118  1  0.33832256  0.16383325  0.49259071  1
  I  I119  1  0.33339922  0.16690585  0.83323261  1
  I  I120  1  0.33774624  0.49564410  0.16745269  1
  I  I121  1  0.33517939  0.49886199  0.49626140  1
  I  I122  1  0.33341295  0.50008127  0.83410160  1
  I  I123  1  0.33507690  0.83531122  0.16350489  1
  I  I124  1  0.33345792  0.83465996  0.50101215  1
  I  I125  1  0.33402505  0.83268515  0.83626333  1
  I  I126  1  0.66511042  0.16352558  0.16665477  1
  I  I127  1  0.66332717  0.17164690  0.49818896  1
  I  I128  1  0.66921859  0.16643112  0.83424639  1
  I  I129  1  0.66261670  0.50645829  0.17366749  1
  I  I130  1  0.66331819  0.49836924  0.49711239  1
  I  I131  1  0.66910693  0.49991666  0.83060631  1
  I  I132  1  0.66328909  0.83227081  0.16352710  1
  I  I133  1  0.66865203  0.83176651  0.50209454  1
  I  I134  1  0.66441036  0.83325547  0.83619955  1
