# generated using pymatgen
data_Cs27Sn13Pb14I81
_symmetry_space_group_name_H-M   'P 1'
_cell_length_a   18.99211858
_cell_length_b   19.00201124
_cell_length_c   18.98209742
_cell_angle_alpha   89.99925059
_cell_angle_beta   89.99773933
_cell_angle_gamma   90.00188979
_symmetry_Int_Tables_number   1
_chemical_formula_structural   Cs27Sn13Pb14I81
_chemical_formula_sum   'Cs27 Sn13 Pb14 I81'
_cell_volume   6850.41972031
_cell_formula_units_Z   1
loop_
 _symmetry_equiv_pos_site_id
 _symmetry_equiv_pos_as_xyz
  1  'x, y, z'
loop_
 _atom_site_type_symbol
 _atom_site_label
 _atom_site_symmetry_multiplicity
 _atom_site_fract_x
 _atom_site_fract_y
 _atom_site_fract_z
 _atom_site_occupancy
  Cs  Cs0  1  0.00470438  0.00284414  -0.00069902  1
  Cs  Cs1  1  -0.00160600  -0.00070446  0.33648533  1
  Cs  Cs2  1  -0.00004542  -0.00021150  0.66485204  1
  Cs  Cs3  1  0.00244739  0.32880223  0.00343680  1
  Cs  Cs4  1  0.00185996  0.33331507  0.33413252  1
  Cs  Cs5  1  -0.00312294  0.33167624  0.66535707  1
  Cs  Cs6  1  -0.00139101  0.66773599  0.00247813  1
  Cs  Cs7  1  -0.00005457  0.66728269  0.33217513  1
  Cs  Cs8  1  -0.00022860  0.66788622  0.66525243  1
  Cs  Cs9  1  0.32686278  0.00333552  0.00132931  1
  Cs  Cs10  1  0.33914645  0.00122906  0.33231795  1
  Cs  Cs11  1  0.33174704  -0.00238621  0.66615799  1
  Cs  Cs12  1  0.33133154  0.33026873  0.00690673  1
  Cs  Cs13  1  0.33680961  0.33777883  0.32537210  1
  Cs  Cs14  1  0.33721318  0.33975633  0.66414247  1
  Cs  Cs15  1  0.33345844  0.66685444  -0.00573903  1
  Cs  Cs16  1  0.33754887  0.66060003  0.33383478  1
  Cs  Cs17  1  0.33353594  0.66480789  0.66805068  1
  Cs  Cs18  1  0.66720445  -0.00150095  0.00039316  1
  Cs  Cs19  1  0.66166516  -0.00093877  0.33182783  1
  Cs  Cs20  1  0.66806170  0.00049994  0.66599286  1
  Cs  Cs21  1  0.66723752  0.33521431  -0.00395489  1
  Cs  Cs22  1  0.66192181  0.33092482  0.33073520  1
  Cs  Cs23  1  0.66874771  0.33291502  0.66878444  1
  Cs  Cs24  1  0.66809864  0.66720318  0.00248025  1
  Cs  Cs25  1  0.66352502  0.66991147  0.32214065  1
  Cs  Cs26  1  0.66781652  0.66668115  0.66767021  1
  Sn  Sn27  1  0.83403920  0.50084387  0.83254076  1
  Sn  Sn28  1  0.16656334  0.83302526  0.16844537  1
  Sn  Sn29  1  0.16630309  0.83383098  0.49875053  1
  Sn  Sn30  1  0.50096900  0.83385289  0.83283307  1
  Sn  Sn31  1  0.83342327  0.16641160  0.16790316  1
  Sn  Sn32  1  0.16682488  0.16654607  0.50030966  1
  Sn  Sn33  1  0.50032137  0.49992742  0.83302548  1
  Sn  Sn34  1  0.49977268  0.16633034  0.83273042  1
  Sn  Sn35  1  0.83299812  0.50059012  0.50014856  1
  Sn  Sn36  1  0.83378647  0.16651280  0.49876547  1
  Sn  Sn37  1  0.83294374  0.83281859  0.83265559  1
  Sn  Sn38  1  0.83359806  0.83282075  0.50035892  1
  Sn  Sn39  1  0.16561287  0.49962191  0.83319108  1
  Pb  Pb40  1  0.49989489  0.16674090  0.50191761  1
  Pb  Pb41  1  0.50353356  0.50023523  0.50169871  1
  Pb  Pb42  1  0.16475415  0.50022755  0.50151436  1
  Pb  Pb43  1  0.83487547  0.83536451  0.16665203  1
  Pb  Pb44  1  0.83236693  0.16634233  0.83273235  1
  Pb  Pb45  1  0.50020273  0.50013717  0.16363723  1
  Pb  Pb46  1  0.50260128  0.16643197  0.16386644  1
  Pb  Pb47  1  0.16478641  0.16467997  0.16994784  1
  Pb  Pb48  1  0.49677267  0.83348225  0.16346004  1
  Pb  Pb49  1  0.16596825  0.83201182  0.83236637  1
  Pb  Pb50  1  0.16917724  0.16941439  0.83033539  1
  Pb  Pb51  1  0.83350952  0.49765884  0.16670053  1
  Pb  Pb52  1  0.16625601  0.50259608  0.16430149  1
  Pb  Pb53  1  0.50013452  0.83320050  0.50190166  1
  I  I54  1  0.16511047  -0.00295291  0.16369630  1
  I  I55  1  0.15741958  -0.00072421  0.49902368  1
  I  I56  1  0.16752515  0.00007636  0.83570787  1
  I  I57  1  0.16635689  0.33314024  0.16561656  1
  I  I58  1  0.16063087  0.33089999  0.50518109  1
  I  I59  1  0.16392602  0.33707892  0.83125518  1
  I  I60  1  0.16406015  0.67027940  0.17328473  1
  I  I61  1  0.16177996  0.66976237  0.49871564  1
  I  I62  1  0.17097356  0.66423060  0.83153024  1
  I  I63  1  0.50055300  -0.00006438  0.16225198  1
  I  I64  1  0.50416303  -0.00005075  0.50565459  1
  I  I65  1  0.50670123  -0.00082767  0.83242797  1
  I  I66  1  0.49939862  0.33309369  0.16413655  1
  I  I67  1  0.50025544  0.33339991  0.50539751  1
  I  I68  1  0.50225370  0.33422570  0.83194412  1
  I  I69  1  0.50155515  0.66701382  0.16476640  1
  I  I70  1  0.49734653  0.66677025  0.50430195  1
  I  I71  1  0.50037740  0.66651853  0.83290323  1
  I  I72  1  0.83438003  0.00288214  0.16927241  1
  I  I73  1  0.83798659  -0.00048699  0.50211077  1
  I  I74  1  0.82834580  -0.00277915  0.83059549  1
  I  I75  1  0.83404806  0.32991941  0.16904382  1
  I  I76  1  0.83734220  0.33313917  0.50245207  1
  I  I77  1  0.83135829  0.33600833  0.83041136  1
  I  I78  1  0.83404226  0.66687559  0.16768063  1
  I  I79  1  0.83856919  0.66743449  0.50852777  1
  I  I80  1  0.82905465  0.66664500  0.82611026  1
  I  I81  1  0.16588099  0.16572735  -0.00007283  1
  I  I82  1  0.16368068  0.16599761  0.33779485  1
  I  I83  1  0.15740648  0.15822884  0.66322894  1
  I  I84  1  0.16507485  0.50205565  -0.00440260  1
  I  I85  1  0.16426134  0.49803086  0.33359191  1
  I  I86  1  0.16927583  0.50299377  0.66979255  1
  I  I87  1  0.16727320  0.83043287  0.00117708  1
  I  I88  1  0.15769363  0.83737319  0.33520785  1
  I  I89  1  0.16493563  0.83616359  0.66383037  1
  I  I90  1  0.50200906  0.16785212  -0.00435928  1
  I  I91  1  0.49870141  0.16637996  0.33331950  1
  I  I92  1  0.50368725  0.16748506  0.67014167  1
  I  I93  1  0.50414795  0.50060047  -0.00550817  1
  I  I94  1  0.50034262  0.49935995  0.33336168  1
  I  I95  1  0.49756664  0.50025760  0.67088351  1
  I  I96  1  0.50617116  0.83138554  -0.00497815  1
  I  I97  1  0.50347618  0.83424006  0.33319417  1
  I  I98  1  0.49936704  0.83231049  0.67059143  1
  I  I99  1  0.82999097  0.16662617  0.00137802  1
  I  I100  1  0.83805874  0.16667130  0.33547242  1
  I  I101  1  0.83537496  0.16672612  0.66369071  1
  I  I102  1  0.83116723  0.50370728  -0.00389966  1
  I  I103  1  0.83613332  0.50312284  0.33684124  1
  I  I104  1  0.83299535  0.49829068  0.66777339  1
  I  I105  1  0.83068332  0.82973730  -0.00319337  1
  I  I106  1  0.83679082  0.83057658  0.33674073  1
  I  I107  1  0.83546406  0.83488583  0.66656177  1
  I  I108  1  -0.00296898  0.16666743  0.16471821  1
  I  I109  1  -0.00154581  0.16566888  0.49823725  1
  I  I110  1  0.00012286  0.16684535  0.83579277  1
  I  I111  1  -0.00021589  0.49957184  0.16061679  1
  I  I112  1  -0.00345481  0.49942461  0.50845504  1
  I  I113  1  -0.00154487  0.50629259  0.82905016  1
  I  I114  1  0.00248164  0.83414466  0.16418446  1
  I  I115  1  -0.00126697  0.83447665  0.50373287  1
  I  I116  1  -0.00304182  0.82834543  0.83223399  1
  I  I117  1  0.33322341  0.16598892  0.16579525  1
  I  I118  1  0.33026547  0.15976112  0.50495246  1
  I  I119  1  0.33693495  0.16433791  0.83190468  1
  I  I120  1  0.33316275  0.49902872  0.16526952  1
  I  I121  1  0.33328666  0.49999177  0.50347926  1
  I  I122  1  0.33388724  0.50192510  0.83361505  1
  I  I123  1  0.32921760  0.83466716  0.17169333  1
  I  I124  1  0.32997632  0.83967594  0.49866647  1
  I  I125  1  0.33543515  0.83120489  0.83389334  1
  I  I126  1  0.67030475  0.16527859  0.17487443  1
  I  I127  1  0.67038515  0.16595814  0.49816788  1
  I  I128  1  0.66445922  0.17079156  0.83166037  1
  I  I129  1  0.66705563  0.50072853  0.16492698  1
  I  I130  1  0.67195779  0.49874066  0.50787404  1
  I  I131  1  0.66731193  0.50002450  0.82895857  1
  I  I132  1  0.66665865  0.83419601  0.16798476  1
  I  I133  1  0.67043848  0.83481971  0.50430089  1
  I  I134  1  0.66786372  0.82927889  0.82819804  1
