# generated using pymatgen
data_Cs27Sn13Pb14I81
_symmetry_space_group_name_H-M   'P 1'
_cell_length_a   19.00263419
_cell_length_b   18.98425196
_cell_length_c   18.99020197
_cell_angle_alpha   90.00389070
_cell_angle_beta   90.00009617
_cell_angle_gamma   89.99979610
_symmetry_Int_Tables_number   1
_chemical_formula_structural   Cs27Sn13Pb14I81
_chemical_formula_sum   'Cs27 Sn13 Pb14 I81'
_cell_volume   6850.73044978
_cell_formula_units_Z   1
loop_
 _symmetry_equiv_pos_site_id
 _symmetry_equiv_pos_as_xyz
  1  'x, y, z'
loop_
 _atom_site_type_symbol
 _atom_site_label
 _atom_site_symmetry_multiplicity
 _atom_site_fract_x
 _atom_site_fract_y
 _atom_site_fract_z
 _atom_site_occupancy
  Cs  Cs0  1  -0.00216065  0.00150359  0.00083327  1
  Cs  Cs1  1  -0.00165578  -0.00221581  0.33651811  1
  Cs  Cs2  1  -0.00003238  0.00203185  0.66293823  1
  Cs  Cs3  1  0.00265725  0.33135201  0.00032835  1
  Cs  Cs4  1  -0.00029048  0.33374374  0.33172956  1
  Cs  Cs5  1  0.00193691  0.33124620  0.66909455  1
  Cs  Cs6  1  0.00003365  0.66614404  -0.00041287  1
  Cs  Cs7  1  -0.00279942  0.66703904  0.33558643  1
  Cs  Cs8  1  0.00191821  0.66661248  0.66555958  1
  Cs  Cs9  1  0.33527193  0.00258275  0.00011869  1
  Cs  Cs10  1  0.33523535  -0.00095929  0.33352169  1
  Cs  Cs11  1  0.33798653  0.00113059  0.66686738  1
  Cs  Cs12  1  0.32959502  0.32756640  0.01065528  1
  Cs  Cs13  1  0.34023830  0.33204907  0.32786874  1
  Cs  Cs14  1  0.33157476  0.33413356  0.66419680  1
  Cs  Cs15  1  0.33245821  0.66787250  -0.00330016  1
  Cs  Cs16  1  0.33352919  0.66891117  0.33211665  1
  Cs  Cs17  1  0.33004910  0.66618446  0.67016697  1
  Cs  Cs18  1  0.66841595  -0.00204363  -0.00150989  1
  Cs  Cs19  1  0.66832270  -0.00045151  0.33246262  1
  Cs  Cs20  1  0.66303968  0.00298798  0.67002985  1
  Cs  Cs21  1  0.66763896  0.33278080  0.00126012  1
  Cs  Cs22  1  0.65984065  0.34005657  0.33562011  1
  Cs  Cs23  1  0.66365955  0.33161952  0.66405849  1
  Cs  Cs24  1  0.66751730  0.66893160  -0.00187091  1
  Cs  Cs25  1  0.66822333  0.66107716  0.33540902  1
  Cs  Cs26  1  0.66702386  0.66463608  0.66811712  1
  Sn  Sn27  1  0.83469178  0.83263137  0.83357407  1
  Sn  Sn28  1  0.16622603  0.16785069  0.49973480  1
  Sn  Sn29  1  0.83353453  0.83364768  0.16628672  1
  Sn  Sn30  1  0.50048697  0.83301572  0.16753611  1
  Sn  Sn31  1  0.16611253  0.83325666  0.16576340  1
  Sn  Sn32  1  0.83338247  0.16618626  0.16818815  1
  Sn  Sn33  1  0.49929987  0.49959599  0.83381250  1
  Sn  Sn34  1  0.16551248  0.83330437  0.83408590  1
  Sn  Sn35  1  0.50030069  0.83286807  0.49951388  1
  Sn  Sn36  1  0.83369262  0.50063357  0.83327237  1
  Sn  Sn37  1  0.16679829  0.50037671  0.83294498  1
  Sn  Sn38  1  0.16654413  0.49901682  0.50002102  1
  Sn  Sn39  1  0.83379381  0.16684291  0.49879166  1
  Pb  Pb40  1  0.83343872  0.16644840  0.83337410  1
  Pb  Pb41  1  0.16806652  0.83333084  0.50045945  1
  Pb  Pb42  1  0.16439421  0.16364428  0.16947689  1
  Pb  Pb43  1  0.49994502  0.83225652  0.83376508  1
  Pb  Pb44  1  0.83547188  0.49739182  0.50261443  1
  Pb  Pb45  1  0.49998046  0.50288720  0.16398259  1
  Pb  Pb46  1  0.83341614  0.50022334  0.16452580  1
  Pb  Pb47  1  0.50311529  0.16403946  0.16665706  1
  Pb  Pb48  1  0.16654945  0.50224911  0.16658447  1
  Pb  Pb49  1  0.83127797  0.83478877  0.50063541  1
  Pb  Pb50  1  0.49995440  0.16484237  0.49988012  1
  Pb  Pb51  1  0.49724438  0.50243360  0.50191037  1
  Pb  Pb52  1  0.16671731  0.16629711  0.83148311  1
  Pb  Pb53  1  0.49970306  0.17052767  0.83357414  1
  I  I54  1  0.16936050  -0.00444106  0.16121369  1
  I  I55  1  0.16377643  0.00197540  0.49934001  1
  I  I56  1  0.16115732  -0.00369598  0.83604324  1
  I  I57  1  0.16476087  0.33306142  0.16323185  1
  I  I58  1  0.16194875  0.33380413  0.50888043  1
  I  I59  1  0.16518280  0.33675644  0.82966588  1
  I  I60  1  0.16370142  0.67077640  0.16763150  1
  I  I61  1  0.16958407  0.66467471  0.50276859  1
  I  I62  1  0.16605886  0.66676373  0.83066056  1
  I  I63  1  0.49654661  -0.00439885  0.16894368  1
  I  I64  1  0.49679304  -0.00314911  0.49790726  1
  I  I65  1  0.50053598  -0.00042867  0.83246851  1
  I  I66  1  0.50093969  0.33336335  0.16490970  1
  I  I67  1  0.50195361  0.33357944  0.50289359  1
  I  I68  1  0.50203331  0.33871495  0.83004828  1
  I  I69  1  0.50330131  0.67119942  0.17102765  1
  I  I70  1  0.49914875  0.67009293  0.49511709  1
  I  I71  1  0.49972663  0.66442469  0.83329724  1
  I  I72  1  0.83337952  -0.00179591  0.16398523  1
  I  I73  1  0.84035566  0.00256704  0.50101943  1
  I  I74  1  0.83777419  -0.00336662  0.83473264  1
  I  I75  1  0.83437151  0.33043591  0.16838573  1
  I  I76  1  0.83428739  0.32948534  0.49509421  1
  I  I77  1  0.83402400  0.33635423  0.83281585  1
  I  I78  1  0.83313061  0.67044977  0.16373511  1
  I  I79  1  0.83385918  0.66658227  0.49758502  1
  I  I80  1  0.83383553  0.66768784  0.83905049  1
  I  I81  1  0.16550739  0.16975076  0.00040438  1
  I  I82  1  0.16436757  0.17130208  0.33715010  1
  I  I83  1  0.15931538  0.16486271  0.66356506  1
  I  I84  1  0.16630049  0.50363590  -0.00362465  1
  I  I85  1  0.16636178  0.49816617  0.33628283  1
  I  I86  1  0.16632191  0.50320065  0.66809263  1
  I  I87  1  0.16789557  0.82690225  -0.00070969  1
  I  I88  1  0.16475900  0.83387342  0.33090146  1
  I  I89  1  0.16367817  0.83163841  0.66962139  1
  I  I90  1  0.50164042  0.16362903  0.00028905  1
  I  I91  1  0.49763570  0.16835020  0.33327627  1
  I  I92  1  0.50374032  0.16043578  0.66639400  1
  I  I93  1  0.49777215  0.50367575  -0.00412132  1
  I  I94  1  0.49872740  0.49918998  0.33335604  1
  I  I95  1  0.50285110  0.50501983  0.66977977  1
  I  I96  1  0.50057454  0.83129844  0.00263074  1
  I  I97  1  0.49815129  0.83452772  0.33225393  1
  I  I98  1  0.49896103  0.83252021  0.66516104  1
  I  I99  1  0.83189216  0.16415912  0.00253657  1
  I  I100  1  0.83868198  0.15763069  0.33297563  1
  I  I101  1  0.83723637  0.16653946  0.66414701  1
  I  I102  1  0.83654766  0.50007958  -0.00396866  1
  I  I103  1  0.83510604  0.50314897  0.33353120  1
  I  I104  1  0.83159701  0.50651934  0.67067576  1
  I  I105  1  0.83131958  0.83556549  0.00018592  1
  I  I106  1  0.83613460  0.83671355  0.33048448  1
  I  I107  1  0.83693537  0.83051590  0.66994266  1
  I  I108  1  -0.00317779  0.15989635  0.16711773  1
  I  I109  1  -0.00001331  0.16808415  0.49750192  1
  I  I110  1  -0.00008393  0.17069148  0.83443931  1
  I  I111  1  -0.00001021  0.50292418  0.16451080  1
  I  I112  1  0.00323240  0.50164202  0.50637508  1
  I  I113  1  0.00050626  0.50529162  0.82930446  1
  I  I114  1  -0.00052305  0.83706289  0.16114049  1
  I  I115  1  -0.00000355  0.83232602  0.49790156  1
  I  I116  1  -0.00006094  0.82527833  0.84071687  1
  I  I117  1  0.33320012  0.16593742  0.16719928  1
  I  I118  1  0.33034497  0.16906037  0.50298821  1
  I  I119  1  0.33305447  0.16292705  0.82992453  1
  I  I120  1  0.33317073  0.50199878  0.16416476  1
  I  I121  1  0.32954798  0.49476932  0.50741910  1
  I  I122  1  0.33185789  0.50740213  0.82752112  1
  I  I123  1  0.33300643  0.83047742  0.16669994  1
  I  I124  1  0.33563465  0.83477688  0.49647468  1
  I  I125  1  0.33064837  0.82864076  0.83534589  1
  I  I126  1  0.67101455  0.16056227  0.17181709  1
  I  I127  1  0.66964091  0.16347661  0.49731426  1
  I  I128  1  0.66703588  0.16485854  0.83033446  1
  I  I129  1  0.66680151  0.50171976  0.16450928  1
  I  I130  1  0.66663430  0.49897459  0.50207416  1
  I  I131  1  0.66743392  0.50600924  0.83517921  1
  I  I132  1  0.66765401  0.83839143  0.16491785  1
  I  I133  1  0.66370295  0.83567219  0.49701143  1
  I  I134  1  0.66933235  0.82971338  0.83601809  1
