# generated using pymatgen
data_Cs27Sn13Pb14I81
_symmetry_space_group_name_H-M   'P 1'
_cell_length_a   18.97364879
_cell_length_b   18.97326304
_cell_length_c   18.98242766
_cell_angle_alpha   89.99890430
_cell_angle_beta   89.99982497
_cell_angle_gamma   90.00156289
_symmetry_Int_Tables_number   1
_chemical_formula_structural   Cs27Sn13Pb14I81
_chemical_formula_sum   'Cs27 Sn13 Pb14 I81'
_cell_volume   6833.52265116
_cell_formula_units_Z   1
loop_
 _symmetry_equiv_pos_site_id
 _symmetry_equiv_pos_as_xyz
  1  'x, y, z'
loop_
 _atom_site_type_symbol
 _atom_site_label
 _atom_site_symmetry_multiplicity
 _atom_site_fract_x
 _atom_site_fract_y
 _atom_site_fract_z
 _atom_site_occupancy
  Cs  Cs0  1  0.00148841  0.00262628  0.00560490  1
  Cs  Cs1  1  -0.00141864  0.00209517  0.33339227  1
  Cs  Cs2  1  -0.00303797  0.00322081  0.66182826  1
  Cs  Cs3  1  -0.00381035  0.33540124  -0.00172753  1
  Cs  Cs4  1  -0.00015915  0.33247534  0.33717168  1
  Cs  Cs5  1  0.00124286  0.33190875  0.66494137  1
  Cs  Cs6  1  0.00109075  0.66418676  -0.00077024  1
  Cs  Cs7  1  0.00236717  0.66759195  0.33308224  1
  Cs  Cs8  1  0.00065275  0.66614463  0.66716789  1
  Cs  Cs9  1  0.33550559  0.00697732  0.00084453  1
  Cs  Cs10  1  0.33260531  -0.00225495  0.33076779  1
  Cs  Cs11  1  0.33547497  0.00101170  0.66909541  1
  Cs  Cs12  1  0.33573822  0.32602860  -0.00170959  1
  Cs  Cs13  1  0.33878880  0.33313094  0.33226850  1
  Cs  Cs14  1  0.33134293  0.33503206  0.66757416  1
  Cs  Cs15  1  0.32875262  0.66864909  -0.00363264  1
  Cs  Cs16  1  0.33360114  0.66746819  0.33507636  1
  Cs  Cs17  1  0.33285437  0.66535944  0.66598175  1
  Cs  Cs18  1  0.66476423  0.00029312  -0.00180931  1
  Cs  Cs19  1  0.66896041  -0.00139543  0.33511395  1
  Cs  Cs20  1  0.66770916  -0.00354677  0.66686545  1
  Cs  Cs21  1  0.66982656  0.33295411  0.00438936  1
  Cs  Cs22  1  0.66200701  0.33663732  0.33058475  1
  Cs  Cs23  1  0.66628240  0.33459291  0.66481588  1
  Cs  Cs24  1  0.67084103  0.66660715  -0.00196912  1
  Cs  Cs25  1  0.66349944  0.66588931  0.33237697  1
  Cs  Cs26  1  0.66780184  0.67019228  0.66958865  1
  Sn  Sn27  1  0.49966715  0.50018101  0.83376808  1
  Sn  Sn28  1  0.83325165  0.16607603  0.16621497  1
  Sn  Sn29  1  0.16730508  0.83294063  0.50106470  1
  Sn  Sn30  1  0.50056122  0.83293679  0.16672940  1
  Sn  Sn31  1  0.16709738  0.49956581  0.16671927  1
  Sn  Sn32  1  0.16595975  0.50079778  0.49968219  1
  Sn  Sn33  1  0.83336317  0.16636395  0.83355738  1
  Sn  Sn34  1  0.49967292  0.16550584  0.50015201  1
  Sn  Sn35  1  0.16765127  0.50050551  0.83346322  1
  Sn  Sn36  1  0.49913211  0.83415991  0.49952173  1
  Sn  Sn37  1  0.16646437  0.83351071  0.83237620  1
  Sn  Sn38  1  0.83381119  0.50066187  0.49996219  1
  Sn  Sn39  1  0.83263246  0.83356691  0.16673714  1
  Pb  Pb40  1  0.16468244  0.16660993  0.83319403  1
  Pb  Pb41  1  0.83353327  0.83135137  0.49820573  1
  Pb  Pb42  1  0.49936009  0.50103055  0.50143078  1
  Pb  Pb43  1  0.50226210  0.16424617  0.16859260  1
  Pb  Pb44  1  0.83647372  0.83547758  0.83574746  1
  Pb  Pb45  1  0.49749558  0.50258340  0.16374259  1
  Pb  Pb46  1  0.83506657  0.50021709  0.16874545  1
  Pb  Pb47  1  0.16443528  0.16989558  0.16684708  1
  Pb  Pb48  1  0.16916580  0.16640024  0.49992586  1
  Pb  Pb49  1  0.83389962  0.49858249  0.83137830  1
  Pb  Pb50  1  0.83108040  0.16874468  0.49946246  1
  Pb  Pb51  1  0.49806770  0.83188570  0.83331508  1
  Pb  Pb52  1  0.16685518  0.83215814  0.16675305  1
  Pb  Pb53  1  0.50236681  0.16896776  0.83132134  1
  I  I54  1  0.16748358  -0.00016631  0.16638529  1
  I  I55  1  0.16834733  -0.00366261  0.50448486  1
  I  I56  1  0.16521856  -0.00312853  0.82837052  1
  I  I57  1  0.16510728  0.33811429  0.16694659  1
  I  I58  1  0.16363157  0.33679326  0.50137518  1
  I  I59  1  0.16906815  0.33688796  0.83197223  1
  I  I60  1  0.16404227  0.66410909  0.16672621  1
  I  I61  1  0.16858457  0.66629347  0.50054543  1
  I  I62  1  0.16964560  0.66551024  0.83240683  1
  I  I63  1  0.49921045  -0.00381394  0.16742636  1
  I  I64  1  0.49582914  -0.00174137  0.49685114  1
  I  I65  1  0.49863765  -0.00011376  0.83442121  1
  I  I66  1  0.50065352  0.33346664  0.16851062  1
  I  I67  1  0.50150519  0.33212851  0.50244760  1
  I  I68  1  0.49241487  0.33677480  0.83019778  1
  I  I69  1  0.50662560  0.67025254  0.17515627  1
  I  I70  1  0.49830842  0.66966751  0.49699207  1
  I  I71  1  0.49833209  0.66390008  0.83026546  1
  I  I72  1  0.83079055  -0.00036255  0.16384565  1
  I  I73  1  0.83544692  -0.00016245  0.50083847  1
  I  I74  1  0.83386247  0.00307938  0.83309732  1
  I  I75  1  0.83617137  0.33112354  0.16397917  1
  I  I76  1  0.83822524  0.33655035  0.49929893  1
  I  I77  1  0.83432224  0.33085202  0.83910229  1
  I  I78  1  0.83103351  0.66919864  0.16925836  1
  I  I79  1  0.83376479  0.66358432  0.49907771  1
  I  I80  1  0.83187329  0.66677283  0.83400360  1
  I  I81  1  0.16868752  0.16548010  -0.00000612  1
  I  I82  1  0.16343077  0.16659867  0.33347692  1
  I  I83  1  0.16313792  0.17083599  0.66651206  1
  I  I84  1  0.16957342  0.50544821  -0.00111218  1
  I  I85  1  0.16108697  0.50448746  0.33469248  1
  I  I86  1  0.16674627  0.50416468  0.66642095  1
  I  I87  1  0.16518681  0.82712946  -0.00216013  1
  I  I88  1  0.16805082  0.82802663  0.33610388  1
  I  I89  1  0.17203778  0.82442134  0.66555423  1
  I  I90  1  0.49919348  0.16636026  0.00007370  1
  I  I91  1  0.50198136  0.16796811  0.33644832  1
  I  I92  1  0.50266996  0.16059532  0.66362195  1
  I  I93  1  0.49538274  0.50121045  -0.00372129  1
  I  I94  1  0.49961118  0.49791511  0.33326072  1
  I  I95  1  0.49502415  0.50100869  0.66901709  1
  I  I96  1  0.50255614  0.83006661  0.00242554  1
  I  I97  1  0.49772540  0.83604849  0.33436698  1
  I  I98  1  0.49746855  0.83503539  0.66378263  1
  I  I99  1  0.83398452  0.16471078  0.00069274  1
  I  I100  1  0.83276455  0.16370938  0.33072354  1
  I  I101  1  0.83284397  0.17012656  0.66833583  1
  I  I102  1  0.83459395  0.50045928  0.00009182  1
  I  I103  1  0.83848842  0.49808286  0.33647418  1
  I  I104  1  0.83810194  0.49785177  0.66367900  1
  I  I105  1  0.82873998  0.83301809  0.00365325  1
  I  I106  1  0.83486884  0.83895422  0.33036992  1
  I  I107  1  0.83101692  0.83411363  0.66661715  1
  I  I108  1  -0.00365539  0.15923540  0.16464976  1
  I  I109  1  -0.00019733  0.16574478  0.49998625  1
  I  I110  1  -0.00307938  0.16923191  0.83632878  1
  I  I111  1  0.00307388  0.50279339  0.16245044  1
  I  I112  1  0.00198329  0.50403828  0.50178565  1
  I  I113  1  0.00342192  0.50252449  0.83443288  1
  I  I114  1  -0.00211832  0.83579996  0.16662496  1
  I  I115  1  0.00297693  0.82965010  0.50212131  1
  I  I116  1  0.00419271  0.82507113  0.82836701  1
  I  I117  1  0.33372292  0.16598006  0.16742736  1
  I  I118  1  0.33686636  0.16792375  0.50051071  1
  I  I119  1  0.33345253  0.16627458  0.83238009  1
  I  I120  1  0.32960440  0.50335834  0.17328837  1
  I  I121  1  0.33012748  0.50137135  0.49931591  1
  I  I122  1  0.33142357  0.50374414  0.83001608  1
  I  I123  1  0.33553486  0.82965993  0.16917783  1
  I  I124  1  0.33305096  0.83049716  0.49731957  1
  I  I125  1  0.32999188  0.83005094  0.83367324  1
  I  I126  1  0.67016696  0.16719036  0.16333303  1
  I  I127  1  0.66354418  0.16274345  0.50054557  1
  I  I128  1  0.66993265  0.16894877  0.83705211  1
  I  I129  1  0.66658875  0.49858826  0.16730455  1
  I  I130  1  0.66821125  0.49870650  0.50182768  1
  I  I131  1  0.66474644  0.49847339  0.82967983  1
  I  I132  1  0.66646808  0.83620526  0.17286577  1
  I  I133  1  0.66402122  0.83475295  0.49743133  1
  I  I134  1  0.66677055  0.83150510  0.83120160  1
