# generated using pymatgen
data_Cs27Sn14Pb13I81
_symmetry_space_group_name_H-M   'P 1'
_cell_length_a   18.97815453
_cell_length_b   18.96784825
_cell_length_c   18.98242678
_cell_angle_alpha   89.99933822
_cell_angle_beta   90.00058591
_cell_angle_gamma   90.00263759
_symmetry_Int_Tables_number   1
_chemical_formula_structural   Cs27Sn14Pb13I81
_chemical_formula_sum   'Cs27 Sn14 Pb13 I81'
_cell_volume   6833.19442405
_cell_formula_units_Z   1
loop_
 _symmetry_equiv_pos_site_id
 _symmetry_equiv_pos_as_xyz
  1  'x, y, z'
loop_
 _atom_site_type_symbol
 _atom_site_label
 _atom_site_symmetry_multiplicity
 _atom_site_fract_x
 _atom_site_fract_y
 _atom_site_fract_z
 _atom_site_occupancy
  Cs  Cs0  1  -0.00075489  0.00188049  0.00254405  1
  Cs  Cs1  1  0.00076215  0.00045445  0.33184019  1
  Cs  Cs2  1  -0.00326654  -0.00500610  0.66590631  1
  Cs  Cs3  1  0.00457802  0.32978893  0.00010352  1
  Cs  Cs4  1  -0.00040841  0.33053400  0.33335437  1
  Cs  Cs5  1  0.00109217  0.33124602  0.66672446  1
  Cs  Cs6  1  -0.00124680  0.66622358  -0.00064275  1
  Cs  Cs7  1  0.00057779  0.66740039  0.33193544  1
  Cs  Cs8  1  0.00013324  0.66903573  0.66996135  1
  Cs  Cs9  1  0.33773154  0.00221358  -0.00231746  1
  Cs  Cs10  1  0.33286632  0.00036910  0.33593458  1
  Cs  Cs11  1  0.33811940  -0.00062453  0.66351455  1
  Cs  Cs12  1  0.33082802  0.33435147  -0.00111544  1
  Cs  Cs13  1  0.33409838  0.33272760  0.33330451  1
  Cs  Cs14  1  0.33139897  0.33295329  0.66812478  1
  Cs  Cs15  1  0.33291847  0.66443593  0.00140560  1
  Cs  Cs16  1  0.33283701  0.66809181  0.33441185  1
  Cs  Cs17  1  0.33191121  0.66828330  0.66201455  1
  Cs  Cs18  1  0.66413250  -0.00050767  -0.00499184  1
  Cs  Cs19  1  0.66643997  0.00188128  0.33120165  1
  Cs  Cs20  1  0.66724126  0.00266208  0.67442671  1
  Cs  Cs21  1  0.66518457  0.33588050  0.00125660  1
  Cs  Cs22  1  0.66564319  0.33414629  0.33650350  1
  Cs  Cs23  1  0.66853311  0.33307031  0.66221652  1
  Cs  Cs24  1  0.66875369  0.66723102  0.00148793  1
  Cs  Cs25  1  0.66530970  0.66405557  0.33219776  1
  Cs  Cs26  1  0.66719532  0.66421043  0.66566501  1
  Sn  Sn27  1  0.83375261  0.50034311  0.16598320  1
  Sn  Sn28  1  0.49999152  0.16753500  0.16728590  1
  Sn  Sn29  1  0.49997391  0.49926640  0.16615570  1
  Sn  Sn30  1  0.83270989  0.50029772  0.83427520  1
  Sn  Sn31  1  0.16630526  0.50055297  0.16759375  1
  Sn  Sn32  1  0.83405354  0.83263174  0.16670458  1
  Sn  Sn33  1  0.83273241  0.83304452  0.49950798  1
  Sn  Sn34  1  0.16624458  0.49926990  0.49909518  1
  Sn  Sn35  1  0.16622295  0.83275311  0.16550066  1
  Sn  Sn36  1  0.16708430  0.16734674  0.49990362  1
  Sn  Sn37  1  0.16646248  0.83334094  0.83474209  1
  Sn  Sn38  1  0.50077037  0.50037635  0.83382050  1
  Sn  Sn39  1  0.83428065  0.83213759  0.83392412  1
  Sn  Sn40  1  0.49940048  0.16684872  0.49917414  1
  Pb  Pb41  1  0.49987548  0.83288394  0.16672030  1
  Pb  Pb42  1  0.16621605  0.50151703  0.83369496  1
  Pb  Pb43  1  0.16523961  0.83339461  0.49953341  1
  Pb  Pb44  1  0.83343565  0.16414172  0.49984660  1
  Pb  Pb45  1  0.83580880  0.50167298  0.49988633  1
  Pb  Pb46  1  0.83081028  0.16696611  0.16648960  1
  Pb  Pb47  1  0.16872339  0.16629645  0.16804702  1
  Pb  Pb48  1  0.50008538  0.83027849  0.83345001  1
  Pb  Pb49  1  0.49787810  0.49854601  0.49986344  1
  Pb  Pb50  1  0.50001482  0.16989129  0.83340235  1
  Pb  Pb51  1  0.50330233  0.83612427  0.49996266  1
  Pb  Pb52  1  0.83361268  0.16739820  0.83375759  1
  Pb  Pb53  1  0.16666081  0.16289705  0.83038606  1
  I  I54  1  0.16232901  -0.00315205  0.16516086  1
  I  I55  1  0.16976566  0.00214266  0.50041561  1
  I  I56  1  0.15954864  -0.00517155  0.83884602  1
  I  I57  1  0.16408156  0.33656295  0.16880786  1
  I  I58  1  0.16952086  0.33401077  0.49431717  1
  I  I59  1  0.16638559  0.33350759  0.83472642  1
  I  I60  1  0.16812536  0.66579492  0.16945372  1
  I  I61  1  0.16536005  0.66445011  0.49869152  1
  I  I62  1  0.16481778  0.66944537  0.83176814  1
  I  I63  1  0.49971801  0.00246746  0.17207299  1
  I  I64  1  0.49175414  0.00404455  0.49322066  1
  I  I65  1  0.50047808  0.00001960  0.83297511  1
  I  I66  1  0.50022326  0.33506884  0.16685896  1
  I  I67  1  0.49911179  0.33058172  0.49827298  1
  I  I68  1  0.50575324  0.33775776  0.83523528  1
  I  I69  1  0.50026301  0.66312654  0.16231678  1
  I  I70  1  0.49802128  0.66641790  0.49968089  1
  I  I71  1  0.50173264  0.66257557  0.84097023  1
  I  I72  1  0.83737552  -0.00355440  0.16669991  1
  I  I73  1  0.83592860  -0.00409043  0.50002042  1
  I  I74  1  0.83718914  -0.00379547  0.83298614  1
  I  I75  1  0.83625719  0.33728260  0.16203053  1
  I  I76  1  0.83247878  0.33349240  0.50042730  1
  I  I77  1  0.82873254  0.33752791  0.83781308  1
  I  I78  1  0.83195764  0.66642569  0.16615243  1
  I  I79  1  0.83648484  0.66965081  0.50013944  1
  I  I80  1  0.83314806  0.66709453  0.83417214  1
  I  I81  1  0.16831385  0.16895779  0.00012332  1
  I  I82  1  0.16884996  0.16558711  0.33599527  1
  I  I83  1  0.17320969  0.17312382  0.66240372  1
  I  I84  1  0.16751753  0.50274161  0.00318490  1
  I  I85  1  0.16720201  0.50275018  0.33157362  1
  I  I86  1  0.16733133  0.49822218  0.66470067  1
  I  I87  1  0.15895495  0.82681305  0.00123191  1
  I  I88  1  0.16212737  0.83200254  0.33047590  1
  I  I89  1  0.16152250  0.83285511  0.66853788  1
  I  I90  1  0.50094481  0.16785414  0.00290069  1
  I  I91  1  0.49700859  0.17242029  0.33288663  1
  I  I92  1  0.49584310  0.16620591  0.66385090  1
  I  I93  1  0.49873635  0.49454670  0.00169927  1
  I  I94  1  0.50292896  0.49808421  0.33012279  1
  I  I95  1  0.50397638  0.49981732  0.66909796  1
  I  I96  1  0.50261543  0.83977218  0.00021572  1
  I  I97  1  0.49997947  0.82908530  0.33319664  1
  I  I98  1  0.49843812  0.83300474  0.66674043  1
  I  I99  1  0.83112617  0.16139030  0.00030650  1
  I  I100  1  0.83398548  0.16534140  0.33319207  1
  I  I101  1  0.83078283  0.16610483  0.66657087  1
  I  I102  1  0.83294519  0.50802929  0.00098737  1
  I  I103  1  0.83053549  0.50456863  0.33004667  1
  I  I104  1  0.82951725  0.50462900  0.66938734  1
  I  I105  1  0.83773478  0.82840883  0.00031450  1
  I  I106  1  0.83771291  0.83021623  0.33165793  1
  I  I107  1  0.83815418  0.83061526  0.66802984  1
  I  I108  1  0.00018264  0.16849555  0.16897536  1
  I  I109  1  0.00291337  0.16964758  0.50019789  1
  I  I110  1  0.00030324  0.17226458  0.83096621  1
  I  I111  1  -0.00001967  0.50573933  0.16692792  1
  I  I112  1  0.00369767  0.49445660  0.49605353  1
  I  I113  1  -0.00285443  0.50350834  0.83551414  1
  I  I114  1  -0.00033736  0.82607409  0.16656565  1
  I  I115  1  -0.00262255  0.83483763  0.50046824  1
  I  I116  1  -0.00123389  0.82695344  0.83283260  1
  I  I117  1  0.33658063  0.17075489  0.16883266  1
  I  I118  1  0.33316076  0.16981878  0.49547045  1
  I  I119  1  0.33337176  0.16659301  0.83496034  1
  I  I120  1  0.33307418  0.50023445  0.16630250  1
  I  I121  1  0.32989477  0.50029758  0.49680243  1
  I  I122  1  0.33517592  0.50056535  0.83679661  1
  I  I123  1  0.33010083  0.82968304  0.16304983  1
  I  I124  1  0.33312888  0.83217060  0.50058701  1
  I  I125  1  0.33042138  0.83212731  0.83770703  1
  I  I126  1  0.66286689  0.17050511  0.17377398  1
  I  I127  1  0.66378654  0.16529968  0.49602809  1
  I  I128  1  0.66653036  0.16055434  0.83058792  1
  I  I129  1  0.66702760  0.50068511  0.16211684  1
  I  I130  1  0.66683254  0.49936977  0.49847910  1
  I  I131  1  0.66759098  0.50556738  0.84085462  1
  I  I132  1  0.67005750  0.83074538  0.16594523  1
  I  I133  1  0.67131838  0.83280290  0.49950878  1
  I  I134  1  0.67025641  0.83267409  0.83435591  1
