# generated using pymatgen
data_Cs27Sn13Pb14I81
_symmetry_space_group_name_H-M   'P 1'
_cell_length_a   18.97543744
_cell_length_b   18.98110367
_cell_length_c   18.97406155
_cell_angle_alpha   89.99935141
_cell_angle_beta   89.99952626
_cell_angle_gamma   90.00018017
_symmetry_Int_Tables_number   1
_chemical_formula_structural   Cs27Sn13Pb14I81
_chemical_formula_sum   'Cs27 Sn13 Pb14 I81'
_cell_volume   6833.97778004
_cell_formula_units_Z   1
loop_
 _symmetry_equiv_pos_site_id
 _symmetry_equiv_pos_as_xyz
  1  'x, y, z'
loop_
 _atom_site_type_symbol
 _atom_site_label
 _atom_site_symmetry_multiplicity
 _atom_site_fract_x
 _atom_site_fract_y
 _atom_site_fract_z
 _atom_site_occupancy
  Cs  Cs0  1  -0.00315486  0.00142428  -0.00357306  1
  Cs  Cs1  1  0.00083474  0.00140455  0.33460020  1
  Cs  Cs2  1  0.00045657  0.00041739  0.66574767  1
  Cs  Cs3  1  -0.00007504  0.33314284  -0.00303840  1
  Cs  Cs4  1  0.00188875  0.33155023  0.33557241  1
  Cs  Cs5  1  0.00144212  0.33215811  0.66262799  1
  Cs  Cs6  1  0.00212895  0.66557860  0.00112374  1
  Cs  Cs7  1  0.00113980  0.66658891  0.33198573  1
  Cs  Cs8  1  -0.00334421  0.66793783  0.66692914  1
  Cs  Cs9  1  0.33351178  -0.00108739  -0.00551882  1
  Cs  Cs10  1  0.33307902  0.00244964  0.33451374  1
  Cs  Cs11  1  0.33429956  -0.00681247  0.67163768  1
  Cs  Cs12  1  0.33168165  0.33642747  -0.00502079  1
  Cs  Cs13  1  0.33177965  0.33001291  0.33302403  1
  Cs  Cs14  1  0.33289521  0.33464575  0.67238863  1
  Cs  Cs15  1  0.32492197  0.66377309  -0.00272710  1
  Cs  Cs16  1  0.33119667  0.67065097  0.33242478  1
  Cs  Cs17  1  0.34097054  0.67346765  0.67207089  1
  Cs  Cs18  1  0.66890565  0.00109194  0.00166188  1
  Cs  Cs19  1  0.66632220  0.00082384  0.33089893  1
  Cs  Cs20  1  0.66642706  -0.00092808  0.66927826  1
  Cs  Cs21  1  0.66756100  0.33131626  0.00148833  1
  Cs  Cs22  1  0.66609371  0.33403654  0.33253415  1
  Cs  Cs23  1  0.66354083  0.33766135  0.66628033  1
  Cs  Cs24  1  0.66838836  0.66753890  0.00221011  1
  Cs  Cs25  1  0.66675477  0.66520433  0.33314908  1
  Cs  Cs26  1  0.66438328  0.66410279  0.66573647  1
  Sn  Sn27  1  0.83331631  0.50042407  0.83419003  1
  Sn  Sn28  1  0.83306993  0.83232082  0.83365258  1
  Sn  Sn29  1  0.16749194  0.50017261  0.50006992  1
  Sn  Sn30  1  0.16753232  0.16740087  0.49939109  1
  Sn  Sn31  1  0.83312120  0.83408856  0.49952574  1
  Sn  Sn32  1  0.49869798  0.16674342  0.16717080  1
  Sn  Sn33  1  0.83270520  0.16609433  0.49964499  1
  Sn  Sn34  1  0.83298713  0.50043590  0.16612353  1
  Sn  Sn35  1  0.83282866  0.83268118  0.16688430  1
  Sn  Sn36  1  0.16764675  0.16657079  0.16686546  1
  Sn  Sn37  1  0.49970347  0.16677586  0.49966195  1
  Sn  Sn38  1  0.50012151  0.50004005  0.16708460  1
  Sn  Sn39  1  0.50026379  0.83323953  0.16678656  1
  Pb  Pb40  1  0.16404826  0.50009096  0.82992148  1
  Pb  Pb41  1  0.83335540  0.16691825  0.16834965  1
  Pb  Pb42  1  0.16637063  0.83623857  0.16665987  1
  Pb  Pb43  1  0.16493783  0.83365773  0.49992843  1
  Pb  Pb44  1  0.16664586  0.16667719  0.83282660  1
  Pb  Pb45  1  0.50253889  0.50007617  0.83632895  1
  Pb  Pb46  1  0.50248553  0.83550220  0.49778137  1
  Pb  Pb47  1  0.83313402  0.16714679  0.82997296  1
  Pb  Pb48  1  0.16641170  0.49783448  0.16817764  1
  Pb  Pb49  1  0.83433615  0.50013199  0.49945629  1
  Pb  Pb50  1  0.16385607  0.83321105  0.83345726  1
  Pb  Pb51  1  0.50015453  0.16670339  0.83367198  1
  Pb  Pb52  1  0.50281765  0.83317171  0.83675098  1
  Pb  Pb53  1  0.49694063  0.49809355  0.49771477  1
  I  I54  1  0.16875917  0.00416807  0.17478949  1
  I  I55  1  0.16642854  0.00370199  0.49519358  1
  I  I56  1  0.16369543  0.00007803  0.83204929  1
  I  I57  1  0.16895351  0.32990109  0.17052320  1
  I  I58  1  0.16202121  0.33138849  0.49531547  1
  I  I59  1  0.16269843  0.33343807  0.83515322  1
  I  I60  1  0.16843451  0.66654247  0.16862692  1
  I  I61  1  0.16131820  0.66421552  0.49856755  1
  I  I62  1  0.16728657  0.66642130  0.83265719  1
  I  I63  1  0.50184519  0.00037815  0.17101260  1
  I  I64  1  0.49625064  0.00391004  0.49345607  1
  I  I65  1  0.50290884  -0.00015350  0.83532950  1
  I  I66  1  0.50213898  0.33293102  0.17110013  1
  I  I67  1  0.50677458  0.32956137  0.49314776  1
  I  I68  1  0.50391069  0.33343916  0.83536981  1
  I  I69  1  0.50776445  0.66669709  0.16672512  1
  I  I70  1  0.50015677  0.66673518  0.49839460  1
  I  I71  1  0.49905509  0.66669420  0.83192400  1
  I  I72  1  0.83084447  -0.00258533  0.16492668  1
  I  I73  1  0.83558361  0.00009476  0.49890237  1
  I  I74  1  0.83320688  -0.00305437  0.83674867  1
  I  I75  1  0.83047766  0.33587629  0.16417737  1
  I  I76  1  0.83304290  0.33074820  0.49895879  1
  I  I77  1  0.83356841  0.33638576  0.83840765  1
  I  I78  1  0.82653414  0.66708297  0.16849241  1
  I  I79  1  0.83634079  0.66923600  0.49954937  1
  I  I80  1  0.83375871  0.66724225  0.83219242  1
  I  I81  1  0.17088017  0.16614765  0.00320007  1
  I  I82  1  0.16655715  0.16988728  0.33420303  1
  I  I83  1  0.16478642  0.17077081  0.66257208  1
  I  I84  1  0.16782451  0.49808985  0.00007038  1
  I  I85  1  0.16220395  0.49632551  0.33581603  1
  I  I86  1  0.16290467  0.49031786  0.66229652  1
  I  I87  1  0.16480566  0.83545979  0.00042766  1
  I  I88  1  0.16200502  0.83163708  0.33321647  1
  I  I89  1  0.16420620  0.83613899  0.66644663  1
  I  I90  1  0.49654618  0.16636479  0.00437142  1
  I  I91  1  0.49995027  0.16626204  0.33252509  1
  I  I92  1  0.50052855  0.16704313  0.66312426  1
  I  I93  1  0.50109654  0.49632915  0.00497294  1
  I  I94  1  0.50878029  0.50107140  0.32939792  1
  I  I95  1  0.50100516  0.49712904  0.66649154  1
  I  I96  1  0.50656072  0.83780590  0.00500197  1
  I  I97  1  0.50705087  0.83205015  0.32954423  1
  I  I98  1  0.50096531  0.83599167  0.66666773  1
  I  I99  1  0.83377422  0.16437145  0.00017930  1
  I  I100  1  0.83403295  0.16359441  0.33640711  1
  I  I101  1  0.83485507  0.16309704  0.66169078  1
  I  I102  1  0.83026141  0.50698136  0.00139700  1
  I  I103  1  0.83071822  0.50278080  0.33041661  1
  I  I104  1  0.83688079  0.50260060  0.66846392  1
  I  I105  1  0.82938365  0.82929423  0.00103482  1
  I  I106  1  0.83026692  0.83347370  0.33250284  1
  I  I107  1  0.83629718  0.83401149  0.66638897  1
  I  I108  1  0.00183675  0.16687366  0.17218700  1
  I  I109  1  0.00011228  0.16667605  0.49601259  1
  I  I110  1  -0.00037148  0.16567646  0.83473249  1
  I  I111  1  -0.00313162  0.50366336  0.16468148  1
  I  I112  1  0.00182566  0.49314555  0.49795418  1
  I  I113  1  -0.00412166  0.50409787  0.84098562  1
  I  I114  1  -0.00386082  0.82981748  0.16665985  1
  I  I115  1  -0.00409167  0.83883281  0.49748222  1
  I  I116  1  -0.00502438  0.83050187  0.83623673  1
  I  I117  1  0.33440478  0.16657362  0.17583134  1
  I  I118  1  0.33328202  0.17255503  0.49258416  1
  I  I119  1  0.33339917  0.16683108  0.83045004  1
  I  I120  1  0.33611281  0.50189937  0.17026798  1
  I  I121  1  0.32943708  0.49282861  0.49620024  1
  I  I122  1  0.33334581  0.49857343  0.83438476  1
  I  I123  1  0.33653640  0.83122425  0.16869675  1
  I  I124  1  0.33373681  0.83395733  0.49769334  1
  I  I125  1  0.33384660  0.83453552  0.83363894  1
  I  I126  1  0.66410033  0.16666915  0.17103621  1
  I  I127  1  0.66661950  0.16195120  0.49510363  1
  I  I128  1  0.66695865  0.16627365  0.83397763  1
  I  I129  1  0.66739868  0.49824474  0.16424309  1
  I  I130  1  0.66653987  0.49835952  0.50161978  1
  I  I131  1  0.67078052  0.50376655  0.83215486  1
  I  I132  1  0.66784352  0.83551675  0.16694220  1
  I  I133  1  0.67099063  0.83772067  0.50120751  1
  I  I134  1  0.67105829  0.83011269  0.83046101  1
