# generated using pymatgen
data_Cs27Sn13Pb14I81
_symmetry_space_group_name_H-M   'P 1'
_cell_length_a   18.97495225
_cell_length_b   18.97988674
_cell_length_c   18.97514911
_cell_angle_alpha   90.00018462
_cell_angle_beta   89.99796064
_cell_angle_gamma   89.99902876
_symmetry_Int_Tables_number   1
_chemical_formula_structural   Cs27Sn13Pb14I81
_chemical_formula_sum   'Cs27 Sn13 Pb14 I81'
_cell_volume   6833.75658316
_cell_formula_units_Z   1
loop_
 _symmetry_equiv_pos_site_id
 _symmetry_equiv_pos_as_xyz
  1  'x, y, z'
loop_
 _atom_site_type_symbol
 _atom_site_label
 _atom_site_symmetry_multiplicity
 _atom_site_fract_x
 _atom_site_fract_y
 _atom_site_fract_z
 _atom_site_occupancy
  Cs  Cs0  1  0.00079372  -0.00224910  0.00222238  1
  Cs  Cs1  1  -0.00086719  -0.00051193  0.33310157  1
  Cs  Cs2  1  0.00024936  0.00278485  0.66463507  1
  Cs  Cs3  1  -0.00130003  0.33405191  0.00176426  1
  Cs  Cs4  1  0.00067462  0.33052151  0.33019981  1
  Cs  Cs5  1  -0.00381736  0.32673956  0.66861548  1
  Cs  Cs6  1  0.00202800  0.66820815  -0.00032567  1
  Cs  Cs7  1  0.00096889  0.66840921  0.33313202  1
  Cs  Cs8  1  0.00152200  0.66829803  0.66812640  1
  Cs  Cs9  1  0.33567232  -0.00124504  -0.00193280  1
  Cs  Cs10  1  0.33426151  0.00020388  0.33421179  1
  Cs  Cs11  1  0.33239396  0.00129950  0.66646777  1
  Cs  Cs12  1  0.33404778  0.33439010  0.00005355  1
  Cs  Cs13  1  0.33390054  0.33498624  0.33310749  1
  Cs  Cs14  1  0.33259040  0.33049291  0.66772672  1
  Cs  Cs15  1  0.33566410  0.66686038  0.00077672  1
  Cs  Cs16  1  0.33321480  0.66431330  0.33357048  1
  Cs  Cs17  1  0.33147422  0.66793843  0.66526331  1
  Cs  Cs18  1  0.66368004  -0.00136899  0.00103712  1
  Cs  Cs19  1  0.66616477  0.00025007  0.33244815  1
  Cs  Cs20  1  0.66645510  0.00153854  0.66605242  1
  Cs  Cs21  1  0.66947452  0.33344437  -0.00770674  1
  Cs  Cs22  1  0.66429541  0.33352590  0.33493268  1
  Cs  Cs23  1  0.67305283  0.34332153  0.67446363  1
  Cs  Cs24  1  0.66107790  0.66817582  -0.00146197  1
  Cs  Cs25  1  0.66421480  0.66427049  0.33664580  1
  Cs  Cs26  1  0.66809625  0.65669851  0.66473139  1
  Sn  Sn27  1  0.83384448  0.83350455  0.83392304  1
  Sn  Sn28  1  0.50046033  0.16624730  0.49976949  1
  Sn  Sn29  1  0.16600367  0.83275765  0.83341614  1
  Sn  Sn30  1  0.16618914  0.50021747  0.50105573  1
  Sn  Sn31  1  0.83314004  0.50078722  0.16702777  1
  Sn  Sn32  1  0.16652109  0.83409071  0.16667573  1
  Sn  Sn33  1  0.83289179  0.16648951  0.16686216  1
  Sn  Sn34  1  0.50002346  0.16653465  0.16730369  1
  Sn  Sn35  1  0.16644898  0.50059864  0.83225464  1
  Sn  Sn36  1  0.16722446  0.16564753  0.16669008  1
  Sn  Sn37  1  0.16734173  0.83292082  0.49986339  1
  Sn  Sn38  1  0.49945621  0.83406276  0.50005952  1
  Sn  Sn39  1  0.83366583  0.83285819  0.16596768  1
  Pb  Pb40  1  0.83351530  0.16359397  0.83582488  1
  Pb  Pb41  1  0.16664382  0.16615776  0.83606582  1
  Pb  Pb42  1  0.16805472  0.16647803  0.49782069  1
  Pb  Pb43  1  0.50006227  0.83467613  0.16855525  1
  Pb  Pb44  1  0.83017058  0.16677581  0.49805582  1
  Pb  Pb45  1  0.83678800  0.49998979  0.49786076  1
  Pb  Pb46  1  0.50008516  0.83329261  0.83005858  1
  Pb  Pb47  1  0.83609120  0.50284096  0.83573133  1
  Pb  Pb48  1  0.50318990  0.49687994  0.16660081  1
  Pb  Pb49  1  0.49673929  0.50030313  0.83334467  1
  Pb  Pb50  1  0.83345466  0.83333332  0.50004137  1
  Pb  Pb51  1  0.49757227  0.49949666  0.50005163  1
  Pb  Pb52  1  0.50012428  0.16657626  0.83276105  1
  Pb  Pb53  1  0.16544011  0.50046389  0.16658554  1
  I  I54  1  0.16210333  -0.00123363  0.16724103  1
  I  I55  1  0.16849881  -0.00325058  0.50157477  1
  I  I56  1  0.16348698  -0.00383905  0.83128039  1
  I  I57  1  0.16540668  0.33096984  0.16738114  1
  I  I58  1  0.16814644  0.33571398  0.50176548  1
  I  I59  1  0.16825760  0.33605166  0.83021166  1
  I  I60  1  0.16163683  0.66996473  0.16718475  1
  I  I61  1  0.17199173  0.66861560  0.49763380  1
  I  I62  1  0.16276685  0.66838407  0.83462845  1
  I  I63  1  0.50325371  0.00288706  0.16911159  1
  I  I64  1  0.49358910  -0.00053343  0.49533990  1
  I  I65  1  0.49732679  -0.00031319  0.83521386  1
  I  I66  1  0.49649449  0.32843801  0.17396945  1
  I  I67  1  0.49767646  0.33017458  0.49267718  1
  I  I68  1  0.49850834  0.33335597  0.83276663  1
  I  I69  1  0.49968210  0.66671684  0.16835226  1
  I  I70  1  0.49762566  0.66946701  0.49976036  1
  I  I71  1  0.50257565  0.66716281  0.83286303  1
  I  I72  1  0.83484206  -0.00049006  0.16325276  1
  I  I73  1  0.83786263  -0.00018202  0.49793487  1
  I  I74  1  0.84064870  -0.00431826  0.83829902  1
  I  I75  1  0.83501672  0.33243426  0.16942538  1
  I  I76  1  0.83406986  0.33335216  0.49698487  1
  I  I77  1  0.83385207  0.33363055  0.83489413  1
  I  I78  1  0.84095807  0.66823742  0.16366144  1
  I  I79  1  0.82801617  0.66695320  0.49580929  1
  I  I80  1  0.83576344  0.67054222  0.83957854  1
  I  I81  1  0.16805184  0.16351967  0.00464263  1
  I  I82  1  0.16391008  0.16328126  0.32948091  1
  I  I83  1  0.16978027  0.16492932  0.66654174  1
  I  I84  1  0.16442606  0.50292655  -0.00214733  1
  I  I85  1  0.16559486  0.50357462  0.33537935  1
  I  I86  1  0.16793530  0.50971797  0.66649436  1
  I  I87  1  0.16168173  0.83334804  0.00058492  1
  I  I88  1  0.16601264  0.83319855  0.33287981  1
  I  I89  1  0.16673834  0.82819541  0.66656432  1
  I  I90  1  0.50017848  0.16639665  0.00361083  1
  I  I91  1  0.50002583  0.16201478  0.33227328  1
  I  I92  1  0.49598496  0.16076837  0.66307417  1
  I  I93  1  0.49684868  0.49874702  0.00026062  1
  I  I94  1  0.49735369  0.50188948  0.33327564  1
  I  I95  1  0.50351891  0.49787878  0.66643833  1
  I  I96  1  0.49769305  0.83509556  0.00006638  1
  I  I97  1  0.49564340  0.83545962  0.33635854  1
  I  I98  1  0.49486844  0.84042319  0.66225711  1
  I  I99  1  0.83170775  0.16926262  0.00476153  1
  I  I100  1  0.83678867  0.16238537  0.32883706  1
  I  I101  1  0.83214246  0.16548872  0.66689803  1
  I  I102  1  0.83704698  0.49599363  0.00358879  1
  I  I103  1  0.83601544  0.50274730  0.32949332  1
  I  I104  1  0.83120650  0.50153967  0.66712825  1
  I  I105  1  0.84193141  0.83416000  0.00163891  1
  I  I106  1  0.83732003  0.83482872  0.32973122  1
  I  I107  1  0.83737245  0.83309203  0.66949857  1
  I  I108  1  -0.00002163  0.16584498  0.16590297  1
  I  I109  1  0.00010205  0.16617823  0.49787055  1
  I  I110  1  0.00021125  0.16877205  0.83413139  1
  I  I111  1  -0.00237195  0.49570177  0.16718961  1
  I  I112  1  0.00468580  0.50832146  0.50236817  1
  I  I113  1  0.00380246  0.50294900  0.83023763  1
  I  I114  1  0.00074282  0.83773211  0.16809424  1
  I  I115  1  0.00349232  0.82916357  0.49878660  1
  I  I116  1  0.00152251  0.82951708  0.83395881  1
  I  I117  1  0.33277900  0.16178462  0.17023752  1
  I  I118  1  0.33592663  0.16494554  0.49213983  1
  I  I119  1  0.33309673  0.16531031  0.83785165  1
  I  I120  1  0.33313518  0.49922709  0.16651593  1
  I  I121  1  0.32944657  0.50251341  0.50111992  1
  I  I122  1  0.32843502  0.50703047  0.83200077  1
  I  I123  1  0.33006729  0.83742897  0.16438343  1
  I  I124  1  0.33152856  0.83349939  0.49926569  1
  I  I125  1  0.32964091  0.82977493  0.83679995  1
  I  I126  1  0.66712925  0.16559323  0.17149742  1
  I  I127  1  0.66216366  0.15781065  0.49229033  1
  I  I128  1  0.66690882  0.16439711  0.83603850  1
  I  I129  1  0.67123406  0.50314321  0.16722152  1
  I  I130  1  0.66671895  0.50091320  0.49829826  1
  I  I131  1  0.66731661  0.50033027  0.83417116  1
  I  I132  1  0.66973342  0.83467472  0.16331036  1
  I  I133  1  0.66394053  0.83894380  0.49797799  1
  I  I134  1  0.66967167  0.83582080  0.83984643  1
