# generated using pymatgen
data_Cs27Sn14Pb13I81
_symmetry_space_group_name_H-M   'P 1'
_cell_length_a   18.97700152
_cell_length_b   18.96615610
_cell_length_c   18.98216997
_cell_angle_alpha   89.99817320
_cell_angle_beta   90.00068767
_cell_angle_gamma   89.99899420
_symmetry_Int_Tables_number   1
_chemical_formula_structural   Cs27Sn14Pb13I81
_chemical_formula_sum   'Cs27 Sn14 Pb13 I81'
_cell_volume   6832.07728560
_cell_formula_units_Z   1
loop_
 _symmetry_equiv_pos_site_id
 _symmetry_equiv_pos_as_xyz
  1  'x, y, z'
loop_
 _atom_site_type_symbol
 _atom_site_label
 _atom_site_symmetry_multiplicity
 _atom_site_fract_x
 _atom_site_fract_y
 _atom_site_fract_z
 _atom_site_occupancy
  Cs  Cs0  1  0.00080758  -0.00254033  0.00365043  1
  Cs  Cs1  1  -0.00189769  -0.01064179  0.33160959  1
  Cs  Cs2  1  -0.00524161  0.00697929  0.66278003  1
  Cs  Cs3  1  -0.00222152  0.33437039  -0.00093705  1
  Cs  Cs4  1  -0.00037625  0.33499288  0.33341278  1
  Cs  Cs5  1  0.00168358  0.33058050  0.66672109  1
  Cs  Cs6  1  -0.00037510  0.66793115  -0.00004376  1
  Cs  Cs7  1  0.00082406  0.67268273  0.33361204  1
  Cs  Cs8  1  0.01091322  0.66529448  0.66828345  1
  Cs  Cs9  1  0.33021810  0.00150370  0.00132946  1
  Cs  Cs10  1  0.33025090  0.00439389  0.33075795  1
  Cs  Cs11  1  0.33554642  -0.00327697  0.66790854  1
  Cs  Cs12  1  0.33461995  0.33140326  0.00126935  1
  Cs  Cs13  1  0.33476659  0.33131853  0.33335351  1
  Cs  Cs14  1  0.33190788  0.33358730  0.66576612  1
  Cs  Cs15  1  0.33455224  0.66760229  -0.00430337  1
  Cs  Cs16  1  0.33415394  0.66598980  0.33736762  1
  Cs  Cs17  1  0.32763830  0.67425090  0.66774316  1
  Cs  Cs18  1  0.66642518  -0.00039811  -0.00157810  1
  Cs  Cs19  1  0.66929063  -0.00465823  0.33571799  1
  Cs  Cs20  1  0.66772885  -0.00050117  0.66464676  1
  Cs  Cs21  1  0.66653083  0.33466785  0.00004928  1
  Cs  Cs22  1  0.66450530  0.33509483  0.33271730  1
  Cs  Cs23  1  0.66735484  0.33273124  0.66706051  1
  Cs  Cs24  1  0.66674087  0.66526481  0.00042272  1
  Cs  Cs25  1  0.66635520  0.66487557  0.33107215  1
  Cs  Cs26  1  0.66381203  0.66663867  0.66899785  1
  Sn  Sn27  1  0.83314490  0.16718633  0.16695773  1
  Sn  Sn28  1  0.50029319  0.49928717  0.83279359  1
  Sn  Sn29  1  0.16761217  0.16722066  0.83288642  1
  Sn  Sn30  1  0.16687198  0.49978910  0.16655561  1
  Sn  Sn31  1  0.83328227  0.83203249  0.83289504  1
  Sn  Sn32  1  0.50057382  0.49939734  0.50072862  1
  Sn  Sn33  1  0.49961485  0.50092358  0.16652150  1
  Sn  Sn34  1  0.16739141  0.16714299  0.50035634  1
  Sn  Sn35  1  0.83365731  0.49916556  0.16692387  1
  Sn  Sn36  1  0.83290974  0.50004943  0.50032663  1
  Sn  Sn37  1  0.83283881  0.50107736  0.83285525  1
  Sn  Sn38  1  0.49981146  0.83244995  0.16664559  1
  Sn  Sn39  1  0.49929707  0.16755506  0.83253145  1
  Sn  Sn40  1  0.49938646  0.16751637  0.50095131  1
  Pb  Pb41  1  0.50176675  0.16700440  0.16684414  1
  Pb  Pb42  1  0.50133504  0.83349874  0.83500389  1
  Pb  Pb43  1  0.50001845  0.83328120  0.49776857  1
  Pb  Pb44  1  0.83148454  0.83230318  0.16506067  1
  Pb  Pb45  1  0.83281295  0.16868491  0.49738623  1
  Pb  Pb46  1  0.16687824  0.83717641  0.50012230  1
  Pb  Pb47  1  0.83281382  0.16736410  0.83489465  1
  Pb  Pb48  1  0.16360488  0.83696569  0.83328993  1
  Pb  Pb49  1  0.83300623  0.82917076  0.50317635  1
  Pb  Pb50  1  0.16405152  0.16851039  0.16696522  1
  Pb  Pb51  1  0.16712376  0.49838102  0.49797469  1
  Pb  Pb52  1  0.16985732  0.82996805  0.16644705  1
  Pb  Pb53  1  0.16699432  0.49814649  0.83517764  1
  I  I54  1  0.16577008  0.00015241  0.16692358  1
  I  I55  1  0.17296317  0.00545952  0.50288049  1
  I  I56  1  0.17253298  0.00494170  0.83126477  1
  I  I57  1  0.17157412  0.33628948  0.16637191  1
  I  I58  1  0.16820806  0.33051253  0.50348409  1
  I  I59  1  0.16553912  0.33029350  0.83061727  1
  I  I60  1  0.15960610  0.66193711  0.16649704  1
  I  I61  1  0.16632464  0.66634452  0.49800811  1
  I  I62  1  0.16862193  0.66651114  0.83524324  1
  I  I63  1  0.50402049  -0.00149893  0.16577103  1
  I  I64  1  0.49588815  0.00355414  0.50296302  1
  I  I65  1  0.49891641  0.00323334  0.83140337  1
  I  I66  1  0.49957095  0.33679493  0.16642341  1
  I  I67  1  0.50025447  0.33431397  0.49794834  1
  I  I68  1  0.50277557  0.33439686  0.83583306  1
  I  I69  1  0.50304705  0.66348363  0.16627679  1
  I  I70  1  0.50533840  0.66274041  0.50098283  1
  I  I71  1  0.50315616  0.66310966  0.83257780  1
  I  I72  1  0.83126748  0.00186770  0.16387364  1
  I  I73  1  0.83403011  0.00002771  0.49891086  1
  I  I74  1  0.83350687  -0.00130239  0.83806941  1
  I  I75  1  0.83053240  0.33606667  0.16343076  1
  I  I76  1  0.83157519  0.33695540  0.50419147  1
  I  I77  1  0.83193609  0.33668927  0.83347488  1
  I  I78  1  0.83408272  0.66253021  0.16813074  1
  I  I79  1  0.82595149  0.66113612  0.49185037  1
  I  I80  1  0.82648322  0.66379861  0.83674665  1
  I  I81  1  0.17049632  0.16846341  -0.00230966  1
  I  I82  1  0.17212881  0.16995111  0.33581248  1
  I  I83  1  0.16897321  0.16909335  0.66685290  1
  I  I84  1  0.16648990  0.49616650  0.00298272  1
  I  I85  1  0.16682861  0.49608282  0.33016393  1
  I  I86  1  0.16500071  0.49995150  0.66666564  1
  I  I87  1  0.16641288  0.83699008  -0.00001603  1
  I  I88  1  0.16510024  0.83570748  0.33298033  1
  I  I89  1  0.16778789  0.82745497  0.66696118  1
  I  I90  1  0.49801695  0.17000842  -0.00252115  1
  I  I91  1  0.49681961  0.17051576  0.33589367  1
  I  I92  1  0.49733069  0.17447874  0.66701072  1
  I  I93  1  0.50308910  0.49935018  -0.00011254  1
  I  I94  1  0.50291157  0.49948104  0.33316941  1
  I  I95  1  0.50900645  0.49365019  0.66696147  1
  I  I96  1  0.50246721  0.82810731  0.00274943  1
  I  I97  1  0.50243076  0.82831829  0.32993092  1
  I  I98  1  0.50132278  0.83141222  0.66679602  1
  I  I99  1  0.83244869  0.17319940  0.00247137  1
  I  I100  1  0.83209010  0.17366468  0.32989178  1
  I  I101  1  0.83453963  0.16652015  0.66649347  1
  I  I102  1  0.83029606  0.49935417  0.00020236  1
  I  I103  1  0.82980802  0.49325597  0.33254743  1
  I  I104  1  0.82528057  0.50355223  0.66721839  1
  I  I105  1  0.83139650  0.82816023  -0.00251632  1
  I  I106  1  0.83286756  0.83473605  0.33338868  1
  I  I107  1  0.83066410  0.83188446  0.67085595  1
  I  I108  1  -0.00353307  0.17374797  0.16475166  1
  I  I109  1  0.00198152  0.16933845  0.50446441  1
  I  I110  1  0.00177635  0.16697372  0.83062508  1
  I  I111  1  -0.00144534  0.49307879  0.16593490  1
  I  I112  1  -0.00266037  0.49789161  0.49939480  1
  I  I113  1  -0.00294055  0.50171023  0.83463557  1
  I  I114  1  -0.00009053  0.83423458  0.16567309  1
  I  I115  1  -0.00032046  0.83354464  0.49834825  1
  I  I116  1  -0.00404685  0.82588702  0.83607305  1
  I  I117  1  0.33343264  0.16703419  0.16631861  1
  I  I118  1  0.33473438  0.17348190  0.50228082  1
  I  I119  1  0.33484546  0.17283258  0.83140315  1
  I  I120  1  0.33488210  0.50369058  0.16662463  1
  I  I121  1  0.33677595  0.49729658  0.49827181  1
  I  I122  1  0.33671110  0.49694213  0.83471058  1
  I  I123  1  0.33764166  0.82973517  0.16525287  1
  I  I124  1  0.33365133  0.82696526  0.50008616  1
  I  I125  1  0.33331936  0.83107748  0.83481958  1
  I  I126  1  0.66928958  0.17342149  0.16505514  1
  I  I127  1  0.66356943  0.16918412  0.50371860  1
  I  I128  1  0.66378927  0.16830042  0.83087580  1
  I  I129  1  0.66653299  0.49987584  0.16638992  1
  I  I130  1  0.66565465  0.49387281  0.49569377  1
  I  I131  1  0.66620175  0.49764297  0.83767802  1
  I  I132  1  0.66398432  0.82753102  0.16579114  1
  I  I133  1  0.66665643  0.84031695  0.49931459  1
  I  I134  1  0.66918098  0.83315536  0.83571283  1
