# generated using pymatgen
data_Cs27Sn14Pb13I81
_symmetry_space_group_name_H-M   'P 1'
_cell_length_a   18.96654890
_cell_length_b   18.98650560
_cell_length_c   18.97505335
_cell_angle_alpha   89.99986608
_cell_angle_beta   89.99853702
_cell_angle_gamma   90.00022400
_symmetry_Int_Tables_number   1
_chemical_formula_structural   Cs27Sn14Pb13I81
_chemical_formula_sum   'Cs27 Sn14 Pb13 I81'
_cell_volume   6833.07774653
_cell_formula_units_Z   1
loop_
 _symmetry_equiv_pos_site_id
 _symmetry_equiv_pos_as_xyz
  1  'x, y, z'
loop_
 _atom_site_type_symbol
 _atom_site_label
 _atom_site_symmetry_multiplicity
 _atom_site_fract_x
 _atom_site_fract_y
 _atom_site_fract_z
 _atom_site_occupancy
  Cs  Cs0  1  -0.00634831  -0.00066117  -0.00105728  1
  Cs  Cs1  1  0.00150627  -0.00002345  0.33357833  1
  Cs  Cs2  1  0.00062386  -0.00008324  0.66386100  1
  Cs  Cs3  1  -0.00015004  0.33318511  -0.00019268  1
  Cs  Cs4  1  0.00109554  0.33378033  0.33533627  1
  Cs  Cs5  1  0.00029680  0.33568859  0.66299702  1
  Cs  Cs6  1  -0.00025663  0.66720727  -0.00320840  1
  Cs  Cs7  1  0.00042933  0.66605581  0.33522083  1
  Cs  Cs8  1  0.00050225  0.66426957  0.66479903  1
  Cs  Cs9  1  0.33109947  -0.00016421  0.00468939  1
  Cs  Cs10  1  0.33134635  -0.00024565  0.33191360  1
  Cs  Cs11  1  0.34009815  -0.00046804  0.66854429  1
  Cs  Cs12  1  0.33355738  0.33507903  0.00197852  1
  Cs  Cs13  1  0.33183451  0.33166198  0.33110917  1
  Cs  Cs14  1  0.33803461  0.33176819  0.67037803  1
  Cs  Cs15  1  0.33359929  0.66531753  -0.00378759  1
  Cs  Cs16  1  0.33368562  0.66876976  0.33166871  1
  Cs  Cs17  1  0.33860845  0.66879415  0.67673032  1
  Cs  Cs18  1  0.67631639  0.00090931  -0.00435373  1
  Cs  Cs19  1  0.66650434  -0.00167661  0.33210523  1
  Cs  Cs20  1  0.65715278  0.00104582  0.67338174  1
  Cs  Cs21  1  0.66615034  0.33209233  -0.00235243  1
  Cs  Cs22  1  0.66641267  0.33684798  0.33380177  1
  Cs  Cs23  1  0.66199370  0.33041703  0.66756897  1
  Cs  Cs24  1  0.66731867  0.66699839  -0.00022194  1
  Cs  Cs25  1  0.66589480  0.66454549  0.33360207  1
  Cs  Cs26  1  0.66099503  0.66887757  0.66525120  1
  Sn  Sn27  1  0.16626955  0.83295785  0.49959020  1
  Sn  Sn28  1  0.16624265  0.16669882  0.50042089  1
  Sn  Sn29  1  0.83361822  0.16641368  0.49978440  1
  Sn  Sn30  1  0.16559095  0.50028524  0.16735122  1
  Sn  Sn31  1  0.83366193  0.50000231  0.83266916  1
  Sn  Sn32  1  0.16674080  0.16649196  0.16644613  1
  Sn  Sn33  1  0.83381456  0.83360532  0.49988728  1
  Sn  Sn34  1  0.49955939  0.83456503  0.16704921  1
  Sn  Sn35  1  0.16607130  0.16637882  0.83318571  1
  Sn  Sn36  1  0.16714625  0.50032508  0.49958212  1
  Sn  Sn37  1  0.49988937  0.16545092  0.16720565  1
  Sn  Sn38  1  0.83389379  0.49996902  0.50006184  1
  Sn  Sn39  1  0.16691573  0.83318628  0.16723859  1
  Sn  Sn40  1  0.83450182  0.49989660  0.16675394  1
  Pb  Pb41  1  0.83380669  0.16882035  0.16872508  1
  Pb  Pb42  1  0.50331159  0.49976578  0.83350365  1
  Pb  Pb43  1  0.49935699  0.50007411  0.16689530  1
  Pb  Pb44  1  0.83381121  0.83103663  0.82952273  1
  Pb  Pb45  1  0.83572979  0.16857533  0.83005810  1
  Pb  Pb46  1  0.49721354  0.16662939  0.83703801  1
  Pb  Pb47  1  0.83395340  0.83097991  0.16855564  1
  Pb  Pb48  1  0.49921384  0.83337564  0.49784585  1
  Pb  Pb49  1  0.16527024  0.49806793  0.83306105  1
  Pb  Pb50  1  0.49939775  0.16665869  0.49744945  1
  Pb  Pb51  1  0.16635527  0.83591824  0.83310329  1
  Pb  Pb52  1  0.49994707  0.83359436  0.83753252  1
  Pb  Pb53  1  0.49879468  0.50002814  0.49982841  1
  I  I54  1  0.17255031  0.00028025  0.17005218  1
  I  I55  1  0.15970223  0.00024636  0.49612803  1
  I  I56  1  0.16632672  0.00386520  0.83358195  1
  I  I57  1  0.16703499  0.33311586  0.16925286  1
  I  I58  1  0.15997683  0.33330238  0.49597036  1
  I  I59  1  0.16488647  0.33031714  0.83397793  1
  I  I60  1  0.16678782  0.66649733  0.17380476  1
  I  I61  1  0.15900618  0.66638024  0.49096716  1
  I  I62  1  0.16597751  0.66653647  0.83374892  1
  I  I63  1  0.48970349  0.00017628  0.16885048  1
  I  I64  1  0.50197573  0.00006111  0.50038084  1
  I  I65  1  0.50086354  0.00030241  0.82977026  1
  I  I66  1  0.49567705  0.33074048  0.16684307  1
  I  I67  1  0.50110222  0.33321781  0.49687768  1
  I  I68  1  0.49966723  0.33296411  0.83572895  1
  I  I69  1  0.49680462  0.66935846  0.16791717  1
  I  I70  1  0.50172256  0.66676248  0.49625611  1
  I  I71  1  0.49870422  0.66669514  0.83480559  1
  I  I72  1  0.83448805  -0.00002305  0.16836941  1
  I  I73  1  0.84171720  0.00014832  0.49744414  1
  I  I74  1  0.83328001  0.00021554  0.83345614  1
  I  I75  1  0.83700455  0.33689282  0.16977597  1
  I  I76  1  0.83980665  0.33407880  0.49908117  1
  I  I77  1  0.83524285  0.33642796  0.83247361  1
  I  I78  1  0.83634919  0.66289225  0.16931456  1
  I  I79  1  0.83960227  0.66581484  0.49935111  1
  I  I80  1  0.83573130  0.66289788  0.83358879  1
  I  I81  1  0.17240595  0.16820520  0.00160227  1
  I  I82  1  0.16701229  0.16717199  0.33334795  1
  I  I83  1  0.15992770  0.16791417  0.66500100  1
  I  I84  1  0.16307789  0.49950818  0.00324397  1
  I  I85  1  0.15920480  0.49604597  0.33308496  1
  I  I86  1  0.16138325  0.49963299  0.66318137  1
  I  I87  1  0.17190956  0.83222350  0.00365188  1
  I  I88  1  0.16646718  0.83656670  0.33322838  1
  I  I89  1  0.16077298  0.83217560  0.66282673  1
  I  I90  1  0.49475377  0.16392966  0.00490969  1
  I  I91  1  0.49295928  0.16384558  0.32976759  1
  I  I92  1  0.49994422  0.16764163  0.66677802  1
  I  I93  1  0.49973739  0.50013964  0.00054018  1
  I  I94  1  0.50642459  0.49954820  0.33304966  1
  I  I95  1  0.49872719  0.49995194  0.66663058  1
  I  I96  1  0.49234616  0.83588431  0.00548696  1
  I  I97  1  0.49745519  0.83688508  0.32996988  1
  I  I98  1  0.50030117  0.83220683  0.66670957  1
  I  I99  1  0.83349918  0.16920675  0.00008774  1
  I  I100  1  0.83920185  0.16932482  0.33676214  1
  I  I101  1  0.83990220  0.16934475  0.66191723  1
  I  I102  1  0.83760773  0.49955482  0.00099543  1
  I  I103  1  0.83694063  0.49982100  0.33428034  1
  I  I104  1  0.83902856  0.49992785  0.66471148  1
  I  I105  1  0.83229320  0.83123728  0.00013749  1
  I  I106  1  0.83521304  0.83096946  0.33670152  1
  I  I107  1  0.84168916  0.83122672  0.66126647  1
  I  I108  1  0.00373652  0.16430806  0.16565400  1
  I  I109  1  0.00146732  0.16758295  0.49726632  1
  I  I110  1  0.00343207  0.16684997  0.84005143  1
  I  I111  1  0.00117586  0.49928561  0.16832608  1
  I  I112  1  0.00003675  0.49953473  0.49884125  1
  I  I113  1  -0.00270514  0.49883472  0.83288173  1
  I  I114  1  0.00349476  0.83648042  0.16882019  1
  I  I115  1  0.00116559  0.83311043  0.49396148  1
  I  I116  1  0.00007885  0.83415473  0.84019874  1
  I  I117  1  0.33076014  0.16855800  0.16878582  1
  I  I118  1  0.32903452  0.16685202  0.50126890  1
  I  I119  1  0.32923296  0.16843563  0.82628850  1
  I  I120  1  0.32936504  0.49896622  0.17203998  1
  I  I121  1  0.32856922  0.49863731  0.49250509  1
  I  I122  1  0.33311006  0.49914013  0.83360010  1
  I  I123  1  0.33113129  0.83276686  0.17291598  1
  I  I124  1  0.32931900  0.83440226  0.49715046  1
  I  I125  1  0.33302628  0.83207083  0.82727579  1
  I  I126  1  0.66464962  0.16421757  0.16970836  1
  I  I127  1  0.66961725  0.16903238  0.49752666  1
  I  I128  1  0.66684665  0.16842863  0.83334253  1
  I  I129  1  0.66975799  0.49988161  0.16804430  1
  I  I130  1  0.67061992  0.49995614  0.49860251  1
  I  I131  1  0.67165307  0.49888076  0.83354607  1
  I  I132  1  0.66466894  0.83601746  0.16873615  1
  I  I133  1  0.66958485  0.83085237  0.49813620  1
  I  I134  1  0.66691279  0.83276648  0.83319887  1
