# generated using pymatgen
data_Cs27Sn13Pb14I81
_symmetry_space_group_name_H-M   'P 1'
_cell_length_a   18.98006234
_cell_length_b   18.97044332
_cell_length_c   18.97919828
_cell_angle_alpha   90.00020284
_cell_angle_beta   90.00225045
_cell_angle_gamma   89.99905019
_symmetry_Int_Tables_number   1
_chemical_formula_structural   Cs27Sn13Pb14I81
_chemical_formula_sum   'Cs27 Sn13 Pb14 I81'
_cell_volume   6833.65386612
_cell_formula_units_Z   1
loop_
 _symmetry_equiv_pos_site_id
 _symmetry_equiv_pos_as_xyz
  1  'x, y, z'
loop_
 _atom_site_type_symbol
 _atom_site_label
 _atom_site_symmetry_multiplicity
 _atom_site_fract_x
 _atom_site_fract_y
 _atom_site_fract_z
 _atom_site_occupancy
  Cs  Cs0  1  0.00504655  0.00284468  0.00714670  1
  Cs  Cs1  1  0.00104856  -0.00138157  0.32929916  1
  Cs  Cs2  1  -0.00157587  -0.00083536  0.66620002  1
  Cs  Cs3  1  -0.00313925  0.33337059  -0.00307713  1
  Cs  Cs4  1  -0.00286612  0.33311792  0.33183826  1
  Cs  Cs5  1  0.00221990  0.33203607  0.66985201  1
  Cs  Cs6  1  -0.00210181  0.66333307  -0.00156806  1
  Cs  Cs7  1  0.00134980  0.66798842  0.33524316  1
  Cs  Cs8  1  -0.00021478  0.66851242  0.66670001  1
  Cs  Cs9  1  0.33238910  -0.00507115  0.00864601  1
  Cs  Cs10  1  0.33317090  0.00519735  0.32750778  1
  Cs  Cs11  1  0.33189135  0.00214675  0.66568134  1
  Cs  Cs12  1  0.33137177  0.33477817  -0.00549398  1
  Cs  Cs13  1  0.33580666  0.33405017  0.33670072  1
  Cs  Cs14  1  0.33274535  0.33160695  0.66665549  1
  Cs  Cs15  1  0.33460986  0.66952085  0.00219228  1
  Cs  Cs16  1  0.33199041  0.66540866  0.33358774  1
  Cs  Cs17  1  0.33327099  0.66585172  0.66583542  1
  Cs  Cs18  1  0.66303295  -0.00123316  -0.00091265  1
  Cs  Cs19  1  0.66663036  0.00357168  0.33140271  1
  Cs  Cs20  1  0.66922802  -0.00108878  0.66854177  1
  Cs  Cs21  1  0.67037798  0.33318528  0.00057901  1
  Cs  Cs22  1  0.66667671  0.33249363  0.33160407  1
  Cs  Cs23  1  0.66516673  0.33193840  0.66628856  1
  Cs  Cs24  1  0.66755585  0.66844950  -0.00314032  1
  Cs  Cs25  1  0.66793948  0.66461671  0.33677774  1
  Cs  Cs26  1  0.66711790  0.67045978  0.66588870  1
  Sn  Sn27  1  0.16802530  0.83292796  0.50075655  1
  Sn  Sn28  1  0.83281709  0.83282921  0.16670238  1
  Sn  Sn29  1  0.16717134  0.50003527  0.16731246  1
  Sn  Sn30  1  0.83347066  0.16742917  0.50079748  1
  Sn  Sn31  1  0.49886887  0.83322717  0.49991626  1
  Sn  Sn32  1  0.49942747  0.50008486  0.16667514  1
  Sn  Sn33  1  0.83273178  0.16649591  0.83254218  1
  Sn  Sn34  1  0.16661423  0.50052041  0.49948924  1
  Sn  Sn35  1  0.49994926  0.50059115  0.50019309  1
  Sn  Sn36  1  0.16681364  0.83324135  0.83254156  1
  Sn  Sn37  1  0.50050243  0.16699369  0.83314657  1
  Sn  Sn38  1  0.50024367  0.49958104  0.83307224  1
  Sn  Sn39  1  0.83349087  0.49909440  0.50048116  1
  Pb  Pb40  1  0.16880384  0.50171031  0.83294371  1
  Pb  Pb41  1  0.83322100  0.50146064  0.16870772  1
  Pb  Pb42  1  0.16418051  0.16678509  0.49986389  1
  Pb  Pb43  1  0.49819844  0.83348483  0.83127303  1
  Pb  Pb44  1  0.83569357  0.83613070  0.83574376  1
  Pb  Pb45  1  0.83354064  0.83354796  0.49894066  1
  Pb  Pb46  1  0.83090127  0.49847313  0.83058696  1
  Pb  Pb47  1  0.49990785  0.16978665  0.16350935  1
  Pb  Pb48  1  0.50191584  0.83082367  0.16971257  1
  Pb  Pb49  1  0.16714660  0.16394921  0.83324393  1
  Pb  Pb50  1  0.16534838  0.83092331  0.16754548  1
  Pb  Pb51  1  0.83310564  0.16460396  0.16651485  1
  Pb  Pb52  1  0.16692534  0.17077678  0.16688272  1
  Pb  Pb53  1  0.50178463  0.16665704  0.50155763  1
  I  I54  1  0.16431272  -0.00041047  0.16644912  1
  I  I55  1  0.16933444  -0.00335346  0.50467874  1
  I  I56  1  0.16713758  -0.00382172  0.82610256  1
  I  I57  1  0.16929922  0.33887726  0.17297705  1
  I  I58  1  0.16981305  0.33711084  0.49615635  1
  I  I59  1  0.16536482  0.33350075  0.83404634  1
  I  I60  1  0.17025126  0.66320357  0.16914618  1
  I  I61  1  0.16531145  0.66561481  0.49998400  1
  I  I62  1  0.16819815  0.66939692  0.83102245  1
  I  I63  1  0.50163181  -0.00024459  0.16683053  1
  I  I64  1  0.49773980  -0.00263101  0.50285693  1
  I  I65  1  0.50399400  0.00246344  0.82948343  1
  I  I66  1  0.49800725  0.33808751  0.17407440  1
  I  I67  1  0.49789315  0.33692713  0.49855315  1
  I  I68  1  0.50277516  0.33450101  0.83126601  1
  I  I69  1  0.49663871  0.66265853  0.16242651  1
  I  I70  1  0.50203339  0.66468860  0.50213292  1
  I  I71  1  0.49770806  0.66375703  0.83406819  1
  I  I72  1  0.83511861  -0.00303907  0.17003176  1
  I  I73  1  0.83257113  0.00236515  0.50248208  1
  I  I74  1  0.82573878  0.00373428  0.82496891  1
  I  I75  1  0.83399299  0.33356841  0.16587931  1
  I  I76  1  0.83268274  0.33449487  0.50221509  1
  I  I77  1  0.83314158  0.33040190  0.83280149  1
  I  I78  1  0.83383638  0.66888736  0.16973893  1
  I  I79  1  0.83262136  0.66396145  0.49702669  1
  I  I80  1  0.83246055  0.66679567  0.83299195  1
  I  I81  1  0.16377326  0.16541446  -0.00018388  1
  I  I82  1  0.16398481  0.16100166  0.33363298  1
  I  I83  1  0.16749949  0.17088492  0.66657498  1
  I  I84  1  0.17139483  0.50219616  0.00221747  1
  I  I85  1  0.17069402  0.50573576  0.33510552  1
  I  I86  1  0.16724481  0.50210607  0.66332423  1
  I  I87  1  0.16468607  0.83313322  -0.00166542  1
  I  I88  1  0.16781480  0.82999923  0.33663651  1
  I  I89  1  0.16892554  0.82723674  0.66477030  1
  I  I90  1  0.50718629  0.17074917  -0.00453499  1
  I  I91  1  0.50201005  0.16667687  0.33343542  1
  I  I92  1  0.50215433  0.17294376  0.66941184  1
  I  I93  1  0.49496105  0.49515775  -0.00006543  1
  I  I94  1  0.49944636  0.50510159  0.33467909  1
  I  I95  1  0.50005626  0.49961823  0.66551447  1
  I  I96  1  0.49933169  0.83263914  0.00004443  1
  I  I97  1  0.49493714  0.82777512  0.33774200  1
  I  I98  1  0.50006880  0.82654135  0.66331226  1
  I  I99  1  0.82949448  0.16496213  -0.00310034  1
  I  I100  1  0.83374718  0.16989761  0.33626908  1
  I  I101  1  0.82946855  0.17017444  0.66627400  1
  I  I102  1  0.83395049  0.49961106  -0.00015521  1
  I  I103  1  0.82921487  0.49532423  0.33710646  1
  I  I104  1  0.83441245  0.50024107  0.66225614  1
  I  I105  1  0.83459910  0.83262401  0.00298156  1
  I  I106  1  0.83515290  0.83380154  0.33159829  1
  I  I107  1  0.83248804  0.83222656  0.66656244  1
  I  I108  1  -0.00024092  0.16770824  0.16459329  1
  I  I109  1  -0.00393004  0.17047050  0.50635986  1
  I  I110  1  -0.00278434  0.16506502  0.82923252  1
  I  I111  1  0.00248149  0.50264893  0.17220552  1
  I  I112  1  0.00073513  0.50100922  0.49455645  1
  I  I113  1  0.00001358  0.49920212  0.83414155  1
  I  I114  1  -0.00210189  0.83156575  0.16932133  1
  I  I115  1  0.00268195  0.82949342  0.50177375  1
  I  I116  1  0.00322173  0.83275555  0.82580933  1
  I  I117  1  0.33359457  0.16155175  0.16518469  1
  I  I118  1  0.33347797  0.16875105  0.50224149  1
  I  I119  1  0.33644514  0.17209593  0.83219894  1
  I  I120  1  0.33380374  0.50117776  0.17188190  1
  I  I121  1  0.33377990  0.50501095  0.49906710  1
  I  I122  1  0.33692202  0.49400708  0.82889857  1
  I  I123  1  0.33339383  0.83416213  0.16459735  1
  I  I124  1  0.33297044  0.82392319  0.50409397  1
  I  I125  1  0.33047959  0.83391379  0.83162226  1
  I  I126  1  0.66657646  0.16849026  0.16907672  1
  I  I127  1  0.66977782  0.17019313  0.50174341  1
  I  I128  1  0.66655886  0.17074934  0.82883271  1
  I  I129  1  0.66379570  0.50140546  0.16821139  1
  I  I130  1  0.66564854  0.50079955  0.49966434  1
  I  I131  1  0.66264035  0.49964086  0.83420740  1
  I  I132  1  0.66921909  0.83144514  0.16861237  1
  I  I133  1  0.66449154  0.82863377  0.49837718  1
  I  I134  1  0.66650246  0.83182650  0.83273027  1
