# generated using pymatgen
data_Cs27Sn14Pb13I81
_symmetry_space_group_name_H-M   'P 1'
_cell_length_a   18.95611010
_cell_length_b   18.96347506
_cell_length_c   18.95995154
_cell_angle_alpha   89.99715835
_cell_angle_beta   90.00138511
_cell_angle_gamma   89.99910165
_symmetry_Int_Tables_number   1
_chemical_formula_structural   Cs27Sn14Pb13I81
_chemical_formula_sum   'Cs27 Sn14 Pb13 I81'
_cell_volume   6815.60431736
_cell_formula_units_Z   1
loop_
 _symmetry_equiv_pos_site_id
 _symmetry_equiv_pos_as_xyz
  1  'x, y, z'
loop_
 _atom_site_type_symbol
 _atom_site_label
 _atom_site_symmetry_multiplicity
 _atom_site_fract_x
 _atom_site_fract_y
 _atom_site_fract_z
 _atom_site_occupancy
  Cs  Cs0  1  0.00010316  0.00026570  0.00130257  1
  Cs  Cs1  1  -0.00353424  0.00086455  0.33417649  1
  Cs  Cs2  1  -0.00090773  0.00411538  0.66589341  1
  Cs  Cs3  1  -0.00060350  0.33367494  -0.00153375  1
  Cs  Cs4  1  0.00183791  0.33092549  0.33683696  1
  Cs  Cs5  1  0.00149794  0.33354995  0.66530213  1
  Cs  Cs6  1  0.00017715  0.66687728  -0.00076784  1
  Cs  Cs7  1  0.00071600  0.66765995  0.33091862  1
  Cs  Cs8  1  0.00160606  0.66284133  0.67164122  1
  Cs  Cs9  1  0.33366686  0.00042122  -0.00182764  1
  Cs  Cs10  1  0.33082966  -0.00447414  0.33348936  1
  Cs  Cs11  1  0.33850325  -0.00312055  0.66864952  1
  Cs  Cs12  1  0.33687224  0.33101429  0.00226768  1
  Cs  Cs13  1  0.33372667  0.33358764  0.33441415  1
  Cs  Cs14  1  0.33248668  0.33400435  0.66291900  1
  Cs  Cs15  1  0.33014438  0.66887734  0.00270291  1
  Cs  Cs16  1  0.33319542  0.66849196  0.33099177  1
  Cs  Cs17  1  0.33180835  0.66909298  0.66836117  1
  Cs  Cs18  1  0.66669779  0.00539403  -0.00009037  1
  Cs  Cs19  1  0.67568524  -0.00194042  0.33527067  1
  Cs  Cs20  1  0.66219254  -0.00336106  0.66523692  1
  Cs  Cs21  1  0.66397972  0.33355576  -0.00011134  1
  Cs  Cs22  1  0.66403438  0.33357822  0.33220963  1
  Cs  Cs23  1  0.66656872  0.33518473  0.66785474  1
  Cs  Cs24  1  0.67031356  0.66238814  0.00024179  1
  Cs  Cs25  1  0.66597596  0.66702825  0.33560759  1
  Cs  Cs26  1  0.66635127  0.66584215  0.66479906  1
  Sn  Sn27  1  0.83431710  0.49976770  0.16690634  1
  Sn  Sn28  1  0.16591861  0.49956826  0.16661973  1
  Sn  Sn29  1  0.50042606  0.49940723  0.50085932  1
  Sn  Sn30  1  0.50036091  0.83358624  0.16643671  1
  Sn  Sn31  1  0.83381374  0.16677814  0.83330219  1
  Sn  Sn32  1  0.83298257  0.49985885  0.49998485  1
  Sn  Sn33  1  0.16637501  0.16693913  0.83386836  1
  Sn  Sn34  1  0.50007482  0.50025242  0.83269353  1
  Sn  Sn35  1  0.16667130  0.16666002  0.16616434  1
  Sn  Sn36  1  0.83313899  0.83350295  0.83332511  1
  Sn  Sn37  1  0.83272785  0.49973244  0.83318240  1
  Sn  Sn38  1  0.50015464  0.16680998  0.49956252  1
  Sn  Sn39  1  0.16624855  0.83317305  0.49996586  1
  Sn  Sn40  1  0.16719885  0.83370711  0.16740812  1
  Pb  Pb41  1  0.16697024  0.50180093  0.49777577  1
  Pb  Pb42  1  0.83377298  0.83159738  0.16496177  1
  Pb  Pb43  1  0.50237231  0.83062891  0.83586638  1
  Pb  Pb44  1  0.16841543  0.16451011  0.50009724  1
  Pb  Pb45  1  0.83587277  0.83083500  0.50243791  1
  Pb  Pb46  1  0.49863429  0.83262229  0.49820389  1
  Pb  Pb47  1  0.83104865  0.16892080  0.50248071  1
  Pb  Pb48  1  0.50001336  0.50129717  0.16693071  1
  Pb  Pb49  1  0.49795208  0.16387247  0.16919429  1
  Pb  Pb50  1  0.16696242  0.49794173  0.83551356  1
  Pb  Pb51  1  0.16488836  0.83570227  0.83384193  1
  Pb  Pb52  1  0.83534682  0.16935531  0.16488737  1
  Pb  Pb53  1  0.49995972  0.16871032  0.83173428  1
  I  I54  1  0.17213442  -0.00039723  0.16605060  1
  I  I55  1  0.16863950  -0.00308271  0.49482554  1
  I  I56  1  0.16168574  0.00351119  0.83789550  1
  I  I57  1  0.16196829  0.33351023  0.16198376  1
  I  I58  1  0.16580924  0.33346537  0.49875751  1
  I  I59  1  0.16152612  0.33012827  0.83770434  1
  I  I60  1  0.16692160  0.66683664  0.17074758  1
  I  I61  1  0.16798568  0.66945509  0.49454806  1
  I  I62  1  0.16546930  0.66654856  0.83433142  1
  I  I63  1  0.49411864  -0.00367548  0.16705804  1
  I  I64  1  0.49618877  0.00174325  0.49955161  1
  I  I65  1  0.50119282  -0.00001370  0.83188094  1
  I  I66  1  0.49878195  0.33335906  0.16551156  1
  I  I67  1  0.50213888  0.33508881  0.50313676  1
  I  I68  1  0.50553562  0.33680253  0.83355004  1
  I  I69  1  0.49380925  0.66887672  0.16773648  1
  I  I70  1  0.50336443  0.66347975  0.50219671  1
  I  I71  1  0.50491288  0.66257540  0.82759071  1
  I  I72  1  0.83340072  0.00017888  0.16429612  1
  I  I73  1  0.83208473  -0.00001993  0.50155398  1
  I  I74  1  0.83934065  0.00062771  0.83466785  1
  I  I75  1  0.83712465  0.33774662  0.16437702  1
  I  I76  1  0.83368130  0.33737779  0.50172216  1
  I  I77  1  0.83376165  0.33454896  0.83376903  1
  I  I78  1  0.83818697  0.66314758  0.16323398  1
  I  I79  1  0.82720904  0.66253896  0.50160607  1
  I  I80  1  0.82972983  0.66495700  0.83385124  1
  I  I81  1  0.16324811  0.16518261  0.00053788  1
  I  I82  1  0.16918573  0.16831740  0.33047063  1
  I  I83  1  0.16316993  0.16589080  0.66921220  1
  I  I84  1  0.16307516  0.50511381  0.00368925  1
  I  I85  1  0.16335175  0.49658293  0.32948571  1
  I  I86  1  0.16466316  0.50053862  0.66671600  1
  I  I87  1  0.16859759  0.83126048  0.00312768  1
  I  I88  1  0.17036333  0.83381384  0.33142722  1
  I  I89  1  0.16540332  0.83392202  0.66483680  1
  I  I90  1  0.50082399  0.16768015  0.00003209  1
  I  I91  1  0.49779377  0.17513650  0.33669143  1
  I  I92  1  0.49785860  0.16832775  0.66393158  1
  I  I93  1  0.50395670  0.50140725  -0.00204700  1
  I  I94  1  0.50295099  0.49821632  0.33592181  1
  I  I95  1  0.50790142  0.49715899  0.66637353  1
  I  I96  1  0.49189184  0.83144630  0.00336185  1
  I  I97  1  0.49683035  0.83025842  0.33036146  1
  I  I98  1  0.49828220  0.83431995  0.66676431  1
  I  I99  1  0.83407017  0.16897051  -0.00356517  1
  I  I100  1  0.83403612  0.16800121  0.33350375  1
  I  I101  1  0.84062691  0.16936089  0.67073212  1
  I  I102  1  0.83330014  0.50068449  -0.00097567  1
  I  I103  1  0.83304282  0.50133171  0.33325789  1
  I  I104  1  0.82848234  0.50032180  0.66761401  1
  I  I105  1  0.83556122  0.82950711  -0.00302358  1
  I  I106  1  0.83209258  0.83091183  0.33332553  1
  I  I107  1  0.83478261  0.83103005  0.67032604  1
  I  I108  1  0.00385323  0.16191951  0.16596608  1
  I  I109  1  -0.00007416  0.16723959  0.49928189  1
  I  I110  1  -0.00048575  0.16889781  0.83679665  1
  I  I111  1  -0.00010504  0.50262745  0.16555730  1
  I  I112  1  -0.00262047  0.50217995  0.50310689  1
  I  I113  1  -0.00309219  0.50127486  0.83165743  1
  I  I114  1  0.00314016  0.83386274  0.16860899  1
  I  I115  1  0.00345768  0.83327997  0.49203287  1
  I  I116  1  -0.00304875  0.82683443  0.83513973  1
  I  I117  1  0.32937767  0.17189821  0.16032918  1
  I  I118  1  0.33606289  0.17393237  0.50157423  1
  I  I119  1  0.33087781  0.16798490  0.83651883  1
  I  I120  1  0.33070796  0.49964344  0.16641075  1
  I  I121  1  0.33617644  0.49778728  0.50312835  1
  I  I122  1  0.33582121  0.49813670  0.82995196  1
  I  I123  1  0.33136774  0.82991820  0.16972658  1
  I  I124  1  0.33054608  0.83147259  0.49791731  1
  I  I125  1  0.33330081  0.83317934  0.83204419  1
  I  I126  1  0.66673536  0.16659607  0.16538126  1
  I  I127  1  0.66332819  0.16767139  0.50134538  1
  I  I128  1  0.66947102  0.16650583  0.83166599  1
  I  I129  1  0.66926177  0.50287931  0.16548098  1
  I  I130  1  0.66681500  0.49725412  0.49935060  1
  I  I131  1  0.66840458  0.49829535  0.83538951  1
  I  I132  1  0.66487073  0.82935466  0.16523509  1
  I  I133  1  0.66688391  0.83471048  0.49866351  1
  I  I134  1  0.67037669  0.83677673  0.83455286  1
