# generated using pymatgen
data_Cs27Sn14Pb13I81
_symmetry_space_group_name_H-M   'P 1'
_cell_length_a   18.97619963
_cell_length_b   18.97736555
_cell_length_c   18.97841145
_cell_angle_alpha   90.00101795
_cell_angle_beta   90.00085416
_cell_angle_gamma   89.99974155
_symmetry_Int_Tables_number   1
_chemical_formula_structural   Cs27Sn14Pb13I81
_chemical_formula_sum   'Cs27 Sn14 Pb13 I81'
_cell_volume   6834.47283220
_cell_formula_units_Z   1
loop_
 _symmetry_equiv_pos_site_id
 _symmetry_equiv_pos_as_xyz
  1  'x, y, z'
loop_
 _atom_site_type_symbol
 _atom_site_label
 _atom_site_symmetry_multiplicity
 _atom_site_fract_x
 _atom_site_fract_y
 _atom_site_fract_z
 _atom_site_occupancy
  Cs  Cs0  1  0.00574481  0.00834759  -0.00065058  1
  Cs  Cs1  1  -0.00033044  -0.00088196  0.33700272  1
  Cs  Cs2  1  -0.00008655  0.00065178  0.66439514  1
  Cs  Cs3  1  0.00457417  0.32483194  -0.00077414  1
  Cs  Cs4  1  0.00247147  0.33559268  0.33461231  1
  Cs  Cs5  1  0.00269906  0.33229832  0.66609926  1
  Cs  Cs6  1  0.00210927  0.66695130  0.00188424  1
  Cs  Cs7  1  -0.00203334  0.66505804  0.33206108  1
  Cs  Cs8  1  -0.00156689  0.66512860  0.66654990  1
  Cs  Cs9  1  0.32794218  0.00006702  0.00107513  1
  Cs  Cs10  1  0.33340097  0.00209659  0.33478911  1
  Cs  Cs11  1  0.33319889  -0.00147771  0.66512627  1
  Cs  Cs12  1  0.32838690  0.33426331  0.00145886  1
  Cs  Cs13  1  0.33533281  0.33168121  0.33432201  1
  Cs  Cs14  1  0.33544218  0.33696858  0.66490595  1
  Cs  Cs15  1  0.33240567  0.66659603  -0.00013612  1
  Cs  Cs16  1  0.33199165  0.66572310  0.33029031  1
  Cs  Cs17  1  0.33390803  0.66601618  0.66893524  1
  Cs  Cs18  1  0.66752721  0.00002254  -0.00055964  1
  Cs  Cs19  1  0.66670141  -0.00062741  0.33245372  1
  Cs  Cs20  1  0.66747615  -0.00211007  0.66753780  1
  Cs  Cs21  1  0.66766757  0.33543714  -0.00058937  1
  Cs  Cs22  1  0.66274282  0.33349749  0.33291566  1
  Cs  Cs23  1  0.66431059  0.33671723  0.66753597  1
  Cs  Cs24  1  0.66630905  0.66651072  -0.00022043  1
  Cs  Cs25  1  0.66850815  0.66781499  0.32999212  1
  Cs  Cs26  1  0.66693745  0.66782355  0.66914404  1
  Sn  Sn27  1  0.83255565  0.50053018  0.16523231  1
  Sn  Sn28  1  0.83284212  0.83321982  0.16589957  1
  Sn  Sn29  1  0.83297681  0.50074283  0.83459863  1
  Sn  Sn30  1  0.50101063  0.50027758  0.83459666  1
  Sn  Sn31  1  0.50114068  0.50095643  0.16560313  1
  Sn  Sn32  1  0.50080696  0.83286003  0.16626191  1
  Sn  Sn33  1  0.16647663  0.83335884  0.50010521  1
  Sn  Sn34  1  0.50012516  0.83314144  0.49978008  1
  Sn  Sn35  1  0.16607243  0.16584631  0.50028575  1
  Sn  Sn36  1  0.83331574  0.16628902  0.50001927  1
  Sn  Sn37  1  0.83300159  0.83300539  0.83401665  1
  Sn  Sn38  1  0.50021243  0.16643127  0.83364265  1
  Sn  Sn39  1  0.83320383  0.83393866  0.50008415  1
  Sn  Sn40  1  0.50071429  0.83349521  0.83385712  1
  Pb  Pb41  1  0.16631709  0.83335301  0.16908861  1
  Pb  Pb42  1  0.16603508  0.83319568  0.83114775  1
  Pb  Pb43  1  0.50047140  0.16432005  0.50185425  1
  Pb  Pb44  1  0.50021182  0.50303962  0.49968735  1
  Pb  Pb45  1  0.16671020  0.50024685  0.50000916  1
  Pb  Pb46  1  0.16672599  0.16651865  0.16983646  1
  Pb  Pb47  1  0.83309915  0.16673559  0.16906553  1
  Pb  Pb48  1  0.83317461  0.50023742  0.49999153  1
  Pb  Pb49  1  0.16605766  0.50029403  0.83348165  1
  Pb  Pb50  1  0.16978137  0.16654311  0.83046661  1
  Pb  Pb51  1  0.50026803  0.16643795  0.16396851  1
  Pb  Pb52  1  0.83170002  0.16675200  0.83123273  1
  Pb  Pb53  1  0.16639510  0.50023783  0.16647586  1
  I  I54  1  0.16762042  -0.00040814  0.16424794  1
  I  I55  1  0.16563631  -0.00131162  0.50029897  1
  I  I56  1  0.16721394  -0.00015637  0.83498943  1
  I  I57  1  0.16729502  0.33350321  0.17003957  1
  I  I58  1  0.16066907  0.32998597  0.50047823  1
  I  I59  1  0.16648178  0.33330227  0.82929069  1
  I  I60  1  0.16708555  0.66694876  0.17147838  1
  I  I61  1  0.16592201  0.67042332  0.49997280  1
  I  I62  1  0.17137294  0.66690248  0.82855559  1
  I  I63  1  0.50435467  -0.00387583  0.16741893  1
  I  I64  1  0.50027115  -0.00419972  0.49987846  1
  I  I65  1  0.50406996  -0.00204074  0.83128050  1
  I  I66  1  0.50437212  0.33682630  0.16323215  1
  I  I67  1  0.49816163  0.33331558  0.50060135  1
  I  I68  1  0.50427728  0.33474486  0.83604233  1
  I  I69  1  0.50354911  0.66778096  0.16377362  1
  I  I70  1  0.50125181  0.67149467  0.50492427  1
  I  I71  1  0.50352637  0.66742638  0.83234223  1
  I  I72  1  0.82818664  -0.00376257  0.16536103  1
  I  I73  1  0.83397867  -0.00246478  0.50034358  1
  I  I74  1  0.82818292  -0.00340884  0.83426724  1
  I  I75  1  0.82838236  0.33690864  0.16369703  1
  I  I76  1  0.84002119  0.33070161  0.50066968  1
  I  I77  1  0.82819667  0.33636631  0.83559180  1
  I  I78  1  0.82936547  0.66791132  0.16943920  1
  I  I79  1  0.83330959  0.67041051  0.50024956  1
  I  I80  1  0.82558684  0.66784034  0.82996667  1
  I  I81  1  0.16707678  0.16785687  -0.00036039  1
  I  I82  1  0.16399487  0.16112875  0.33801422  1
  I  I83  1  0.16173224  0.16084998  0.66281467  1
  I  I84  1  0.16758521  0.50006088  -0.00001984  1
  I  I85  1  0.16693068  0.49937625  0.33327744  1
  I  I86  1  0.16748543  0.49998733  0.66670740  1
  I  I87  1  0.16752243  0.83245537  0.00006398  1
  I  I88  1  0.16724984  0.83794961  0.33739036  1
  I  I89  1  0.16740850  0.83776408  0.66282466  1
  I  I90  1  0.50234128  0.16129567  -0.00390825  1
  I  I91  1  0.49826856  0.16745286  0.33352253  1
  I  I92  1  0.50017463  0.16735699  0.66969607  1
  I  I93  1  0.50397653  0.50499076  -0.00062972  1
  I  I94  1  0.50422399  0.50419334  0.32987297  1
  I  I95  1  0.50369122  0.50029385  0.67007971  1
  I  I96  1  0.50698004  0.83281253  -0.00043976  1
  I  I97  1  0.50253221  0.82929847  0.33310735  1
  I  I98  1  0.50212112  0.83383834  0.66717962  1
  I  I99  1  0.83199701  0.16385088  -0.00021086  1
  I  I100  1  0.83655560  0.16140422  0.33720941  1
  I  I101  1  0.83621498  0.16117810  0.66335567  1
  I  I102  1  0.82775224  0.50913291  -0.00029774  1
  I  I103  1  0.82924430  0.50360593  0.33026333  1
  I  I104  1  0.82845441  0.50359740  0.66976917  1
  I  I105  1  0.82427362  0.82772389  -0.00022006  1
  I  I106  1  0.83080754  0.83313457  0.33343787  1
  I  I107  1  0.83049818  0.83323740  0.66673509  1
  I  I108  1  -0.00033749  0.16699184  0.16336506  1
  I  I109  1  -0.00054484  0.15740726  0.50045466  1
  I  I110  1  -0.00008947  0.16706084  0.83388981  1
  I  I111  1  -0.00398938  0.50570163  0.16472150  1
  I  I112  1  -0.00035400  0.50440307  0.49995953  1
  I  I113  1  -0.00414133  0.50624107  0.83568371  1
  I  I114  1  -0.00389045  0.82824176  0.16769208  1
  I  I115  1  -0.00131738  0.83751026  0.50010308  1
  I  I116  1  -0.00402645  0.82795261  0.83256128  1
  I  I117  1  0.33380244  0.16689688  0.16875028  1
  I  I118  1  0.33118149  0.16139104  0.50182587  1
  I  I119  1  0.33787034  0.16572444  0.83133732  1
  I  I120  1  0.33713961  0.50500665  0.16271746  1
  I  I121  1  0.33372172  0.49982248  0.50043801  1
  I  I122  1  0.33733510  0.50127520  0.83619836  1
  I  I123  1  0.33700460  0.82916647  0.16625648  1
  I  I124  1  0.33413109  0.83714313  0.50067719  1
  I  I125  1  0.33707005  0.83235735  0.83272013  1
  I  I126  1  0.66660002  0.16608759  0.17231573  1
  I  I127  1  0.66925427  0.16168479  0.50084867  1
  I  I128  1  0.66382453  0.16551760  0.82923892  1
  I  I129  1  0.66653310  0.50503719  0.16294004  1
  I  I130  1  0.66667712  0.49621538  0.50055327  1
  I  I131  1  0.66603714  0.50129447  0.83631534  1
  I  I132  1  0.66660139  0.82974850  0.17160454  1
  I  I133  1  0.66713823  0.83733188  0.50055410  1
  I  I134  1  0.66615996  0.83279295  0.82816583  1
