# generated using pymatgen
data_Cs27Sn14Pb13I81
_symmetry_space_group_name_H-M   'P 1'
_cell_length_a   18.97427863
_cell_length_b   18.98024867
_cell_length_c   18.97354627
_cell_angle_alpha   90.00019185
_cell_angle_beta   90.00132264
_cell_angle_gamma   90.00022100
_symmetry_Int_Tables_number   1
_chemical_formula_structural   Cs27Sn14Pb13I81
_chemical_formula_sum   'Cs27 Sn14 Pb13 I81'
_cell_volume   6833.06705187
_cell_formula_units_Z   1
loop_
 _symmetry_equiv_pos_site_id
 _symmetry_equiv_pos_as_xyz
  1  'x, y, z'
loop_
 _atom_site_type_symbol
 _atom_site_label
 _atom_site_symmetry_multiplicity
 _atom_site_fract_x
 _atom_site_fract_y
 _atom_site_fract_z
 _atom_site_occupancy
  Cs  Cs0  1  0.00205943  -0.00283182  0.00204867  1
  Cs  Cs1  1  -0.00104243  -0.00051732  0.33191694  1
  Cs  Cs2  1  -0.00263533  0.00080831  0.66412441  1
  Cs  Cs3  1  -0.00064182  0.33243771  -0.00050964  1
  Cs  Cs4  1  0.00181267  0.33489612  0.33304976  1
  Cs  Cs5  1  0.00174680  0.33422364  0.66982399  1
  Cs  Cs6  1  -0.00077207  0.67040348  0.00040695  1
  Cs  Cs7  1  -0.00050050  0.66478203  0.33411083  1
  Cs  Cs8  1  0.00020032  0.66388098  0.66462807  1
  Cs  Cs9  1  0.33066319  -0.00328291  -0.00070081  1
  Cs  Cs10  1  0.33338325  0.00113677  0.33179980  1
  Cs  Cs11  1  0.34041440  -0.00254625  0.66801852  1
  Cs  Cs12  1  0.33449795  0.33350823  0.00158883  1
  Cs  Cs13  1  0.33185806  0.33524114  0.33308628  1
  Cs  Cs14  1  0.32878077  0.33166671  0.66478863  1
  Cs  Cs15  1  0.33587113  0.67054263  -0.00272544  1
  Cs  Cs16  1  0.33246743  0.66207085  0.33368869  1
  Cs  Cs17  1  0.33404348  0.67041037  0.66658466  1
  Cs  Cs18  1  0.66809270  0.00014066  0.00203153  1
  Cs  Cs19  1  0.66708264  -0.00115998  0.33728092  1
  Cs  Cs20  1  0.65933056  0.00528900  0.65852220  1
  Cs  Cs21  1  0.66602083  0.33682182  -0.00454892  1
  Cs  Cs22  1  0.66521743  0.33475590  0.33155845  1
  Cs  Cs23  1  0.66665939  0.32640828  0.67605919  1
  Cs  Cs24  1  0.66734680  0.66314709  -0.00045519  1
  Cs  Cs25  1  0.66724190  0.66712117  0.33303433  1
  Cs  Cs26  1  0.66447527  0.66903529  0.66803462  1
  Sn  Sn27  1  0.50184533  0.49946858  0.50031744  1
  Sn  Sn28  1  0.16646859  0.16696598  0.83376478  1
  Sn  Sn29  1  0.83312335  0.16701569  0.16687812  1
  Sn  Sn30  1  0.16641812  0.16508402  0.49981538  1
  Sn  Sn31  1  0.50002282  0.16587530  0.16675468  1
  Sn  Sn32  1  0.83234780  0.83323650  0.16608977  1
  Sn  Sn33  1  0.83152752  0.49945607  0.49988487  1
  Sn  Sn34  1  0.50089660  0.83386568  0.16695636  1
  Sn  Sn35  1  0.16660705  0.49981662  0.83509724  1
  Sn  Sn36  1  0.83423970  0.49978165  0.16731024  1
  Sn  Sn37  1  0.83305898  0.83392399  0.83313438  1
  Sn  Sn38  1  0.16658048  0.16747258  0.16651535  1
  Sn  Sn39  1  0.16648904  0.83458088  0.49973609  1
  Sn  Sn40  1  0.16595171  0.49955123  0.16526738  1
  Pb  Pb41  1  0.83541757  0.16406723  0.83561367  1
  Pb  Pb42  1  0.83527624  0.16942409  0.49788832  1
  Pb  Pb43  1  0.49737536  0.16663927  0.83630211  1
  Pb  Pb44  1  0.49695537  0.49990342  0.83010799  1
  Pb  Pb45  1  0.16625996  0.49947828  0.49986120  1
  Pb  Pb46  1  0.50332968  0.83352201  0.83591911  1
  Pb  Pb47  1  0.50003913  0.49992736  0.16746729  1
  Pb  Pb48  1  0.83459607  0.83163314  0.49964608  1
  Pb  Pb49  1  0.16488482  0.83373389  0.83075521  1
  Pb  Pb50  1  0.16643805  0.83300869  0.16805575  1
  Pb  Pb51  1  0.83514972  0.50151790  0.83364229  1
  Pb  Pb52  1  0.49782535  0.83147450  0.49731453  1
  Pb  Pb53  1  0.49779071  0.16893704  0.49762468  1
  I  I54  1  0.16467635  0.00298165  0.16510512  1
  I  I55  1  0.16547644  0.00111486  0.49769597  1
  I  I56  1  0.16475049  0.00299611  0.83803380  1
  I  I57  1  0.16441446  0.33264433  0.16911172  1
  I  I58  1  0.16703606  0.33095234  0.49864383  1
  I  I59  1  0.16523524  0.33308660  0.83165477  1
  I  I60  1  0.16381388  0.66382605  0.16589943  1
  I  I61  1  0.16630559  0.66785664  0.49880362  1
  I  I62  1  0.16467380  0.66422031  0.83609453  1
  I  I63  1  0.50135319  0.00056643  0.16715603  1
  I  I64  1  0.49942575  0.00022053  0.50045750  1
  I  I65  1  0.49624998  0.00002032  0.83111505  1
  I  I66  1  0.49979823  0.33077964  0.16919291  1
  I  I67  1  0.49972587  0.33644912  0.49484885  1
  I  I68  1  0.50323401  0.33331370  0.83651058  1
  I  I69  1  0.50248127  0.66878715  0.16907238  1
  I  I70  1  0.49905509  0.66375909  0.49571932  1
  I  I71  1  0.49569957  0.66671007  0.83599222  1
  I  I72  1  0.83482275  0.00011215  0.16146507  1
  I  I73  1  0.83511219  0.00026176  0.49892021  1
  I  I74  1  0.83815873  -0.00335505  0.84097293  1
  I  I75  1  0.83585081  0.33358339  0.17252038  1
  I  I76  1  0.83392107  0.33741181  0.49315453  1
  I  I77  1  0.83339442  0.33311105  0.83335895  1
  I  I78  1  0.83419811  0.66630997  0.16697070  1
  I  I79  1  0.83521931  0.66366445  0.49301163  1
  I  I80  1  0.83763907  0.66909972  0.84032460  1
  I  I81  1  0.16640826  0.17210838  0.00158601  1
  I  I82  1  0.16668053  0.16785458  0.33170877  1
  I  I83  1  0.16562545  0.16943990  0.66661635  1
  I  I84  1  0.16122766  0.49252337  0.00171170  1
  I  I85  1  0.16579041  0.49724548  0.33071382  1
  I  I86  1  0.16647707  0.49707807  0.66843627  1
  I  I87  1  0.16837053  0.83441877  0.00016335  1
  I  I88  1  0.16472751  0.83557091  0.33564336  1
  I  I89  1  0.16382884  0.83420708  0.66316777  1
  I  I90  1  0.49783309  0.16472083  0.00487364  1
  I  I91  1  0.49709568  0.16368551  0.32932503  1
  I  I92  1  0.49817678  0.16785754  0.66650634  1
  I  I93  1  0.50110115  0.50012460  0.00001823  1
  I  I94  1  0.49686598  0.50012340  0.33510220  1
  I  I95  1  0.50375970  0.50131106  0.66224799  1
  I  I96  1  0.49780007  0.83563714  0.00427048  1
  I  I97  1  0.50663822  0.83720751  0.32954790  1
  I  I98  1  0.49953455  0.83120423  0.66636144  1
  I  I99  1  0.83565349  0.17185119  0.00460408  1
  I  I100  1  0.83675444  0.16144546  0.32900874  1
  I  I101  1  0.83653928  0.16653760  0.66664663  1
  I  I102  1  0.83617732  0.49841199  0.00365135  1
  I  I103  1  0.83732055  0.50239943  0.33130835  1
  I  I104  1  0.83396665  0.50408073  0.66427255  1
  I  I105  1  0.83202756  0.83088172  0.00269283  1
  I  I106  1  0.83158775  0.83465607  0.32973568  1
  I  I107  1  0.84017271  0.82887133  0.66859247  1
  I  I108  1  0.00073748  0.16725698  0.16692649  1
  I  I109  1  0.00377356  0.16606315  0.49646287  1
  I  I110  1  0.00375645  0.17092700  0.83570384  1
  I  I111  1  -0.00001377  0.49769339  0.16981366  1
  I  I112  1  -0.00189516  0.50084072  0.49728999  1
  I  I113  1  0.00322651  0.49629429  0.83207758  1
  I  I114  1  -0.00274558  0.83480084  0.16475785  1
  I  I115  1  0.00260904  0.83369542  0.49660954  1
  I  I116  1  -0.00241029  0.83296127  0.84266233  1
  I  I117  1  0.33180769  0.16718073  0.16736718  1
  I  I118  1  0.32932786  0.16696779  0.49670810  1
  I  I119  1  0.32875155  0.17036565  0.83506823  1
  I  I120  1  0.33048830  0.49680588  0.16687217  1
  I  I121  1  0.33448962  0.50002140  0.49838120  1
  I  I122  1  0.32860588  0.49690701  0.83888338  1
  I  I123  1  0.33511680  0.83597141  0.17021021  1
  I  I124  1  0.32987246  0.83375766  0.49868448  1
  I  I125  1  0.33320799  0.83258144  0.83350893  1
  I  I126  1  0.66733610  0.16618659  0.16755320  1
  I  I127  1  0.66669317  0.16575622  0.49820754  1
  I  I128  1  0.66685533  0.16600662  0.83459796  1
  I  I129  1  0.66964021  0.49832907  0.16989783  1
  I  I130  1  0.66780222  0.50260926  0.48990840  1
  I  I131  1  0.66682345  0.50199715  0.83570587  1
  I  I132  1  0.66793398  0.83570875  0.16358467  1
  I  I133  1  0.66662495  0.83243940  0.50142091  1
  I  I134  1  0.67113181  0.83018539  0.83584914  1
