# generated using pymatgen
data_Cs27Sn14Pb13I81
_symmetry_space_group_name_H-M   'P 1'
_cell_length_a   18.97587901
_cell_length_b   18.98066843
_cell_length_c   18.97085296
_cell_angle_alpha   90.00169404
_cell_angle_beta   90.00124378
_cell_angle_gamma   90.00044629
_symmetry_Int_Tables_number   1
_chemical_formula_structural   Cs27Sn14Pb13I81
_chemical_formula_sum   'Cs27 Sn14 Pb13 I81'
_cell_volume   6832.82445046
_cell_formula_units_Z   1
loop_
 _symmetry_equiv_pos_site_id
 _symmetry_equiv_pos_as_xyz
  1  'x, y, z'
loop_
 _atom_site_type_symbol
 _atom_site_label
 _atom_site_symmetry_multiplicity
 _atom_site_fract_x
 _atom_site_fract_y
 _atom_site_fract_z
 _atom_site_occupancy
  Cs  Cs0  1  -0.00947966  0.00122539  -0.00039491  1
  Cs  Cs1  1  -0.00106059  0.00313959  0.33280815  1
  Cs  Cs2  1  0.00100820  -0.00288972  0.66682386  1
  Cs  Cs3  1  0.00212331  0.33143105  -0.00005233  1
  Cs  Cs4  1  -0.00050617  0.33338934  0.33412459  1
  Cs  Cs5  1  0.00220054  0.33580458  0.66494926  1
  Cs  Cs6  1  -0.00083176  0.66824310  -0.00098056  1
  Cs  Cs7  1  -0.00332762  0.66403171  0.33344287  1
  Cs  Cs8  1  0.00271330  0.66510788  0.66742211  1
  Cs  Cs9  1  0.33325329  -0.00037421  0.00439614  1
  Cs  Cs10  1  0.33448789  -0.00005831  0.33311042  1
  Cs  Cs11  1  0.33267000  -0.00810765  0.66565337  1
  Cs  Cs12  1  0.33280951  0.33522683  -0.00007206  1
  Cs  Cs13  1  0.33303496  0.33239665  0.33302851  1
  Cs  Cs14  1  0.33169979  0.33403054  0.66648756  1
  Cs  Cs15  1  0.33345972  0.66397749  0.00266707  1
  Cs  Cs16  1  0.33399134  0.66789588  0.33172407  1
  Cs  Cs17  1  0.33262667  0.67281973  0.66755154  1
  Cs  Cs18  1  0.67687501  0.00088095  -0.00837406  1
  Cs  Cs19  1  0.66415897  -0.00074604  0.33506450  1
  Cs  Cs20  1  0.66695995  -0.00017057  0.67069478  1
  Cs  Cs21  1  0.66597002  0.33043597  -0.00590260  1
  Cs  Cs22  1  0.66552669  0.33566462  0.33530644  1
  Cs  Cs23  1  0.66568484  0.33216955  0.66688165  1
  Cs  Cs24  1  0.66793098  0.66904167  0.00074350  1
  Cs  Cs25  1  0.66828356  0.66489369  0.33216404  1
  Cs  Cs26  1  0.66299554  0.66749847  0.66782122  1
  Sn  Sn27  1  0.83402299  0.49975733  0.83325978  1
  Sn  Sn28  1  0.49863043  0.49936096  0.49936414  1
  Sn  Sn29  1  0.16595125  0.49934748  0.83323395  1
  Sn  Sn30  1  0.16664975  0.83277317  0.16688509  1
  Sn  Sn31  1  0.49971645  0.83349861  0.16671248  1
  Sn  Sn32  1  0.16784839  0.49954073  0.49982605  1
  Sn  Sn33  1  0.83348198  0.83394774  0.49972748  1
  Sn  Sn34  1  0.49933133  0.49962678  0.16747815  1
  Sn  Sn35  1  0.83330001  0.16584515  0.49985272  1
  Sn  Sn36  1  0.49962264  0.16725683  0.49950881  1
  Sn  Sn37  1  0.16705920  0.16715049  0.50093551  1
  Sn  Sn38  1  0.16732944  0.16690243  0.83248025  1
  Sn  Sn39  1  0.50019371  0.16686709  0.16692049  1
  Sn  Sn40  1  0.16707508  0.50074728  0.16706152  1
  Pb  Pb41  1  0.49901466  0.50000456  0.83312283  1
  Pb  Pb42  1  0.83619955  0.16886526  0.83029104  1
  Pb  Pb43  1  0.16504001  0.83322610  0.49757181  1
  Pb  Pb44  1  0.50169807  0.83312294  0.49823155  1
  Pb  Pb45  1  0.16805202  0.16690603  0.16691298  1
  Pb  Pb46  1  0.49708106  0.16661795  0.83258637  1
  Pb  Pb47  1  0.16673023  0.83349628  0.83646162  1
  Pb  Pb48  1  0.83366923  0.83061582  0.83030348  1
  Pb  Pb49  1  0.83305442  0.49967449  0.16422706  1
  Pb  Pb50  1  0.83299814  0.49954728  0.50158452  1
  Pb  Pb51  1  0.83335789  0.83330360  0.16860979  1
  Pb  Pb52  1  0.82979362  0.16711979  0.16913294  1
  Pb  Pb53  1  0.49977653  0.83352498  0.83707451  1
  I  I54  1  0.17221650  -0.00183012  0.16784454  1
  I  I55  1  0.16895411  0.00317198  0.50300686  1
  I  I56  1  0.16874350  0.00304983  0.82809903  1
  I  I57  1  0.17057601  0.33640371  0.16626933  1
  I  I58  1  0.16497589  0.33376809  0.49852753  1
  I  I59  1  0.16290354  0.33471876  0.83435656  1
  I  I60  1  0.17451767  0.66482893  0.16672502  1
  I  I61  1  0.16918998  0.66323390  0.50253913  1
  I  I62  1  0.16330308  0.66309103  0.83045927  1
  I  I63  1  0.49373581  0.00028832  0.17258245  1
  I  I64  1  0.49753588  0.00309902  0.49543707  1
  I  I65  1  0.49825589  0.00032280  0.83240003  1
  I  I66  1  0.49540883  0.33414479  0.17148225  1
  I  I67  1  0.50140553  0.33326296  0.49212539  1
  I  I68  1  0.50292480  0.33343240  0.83877815  1
  I  I69  1  0.49541769  0.66555878  0.17051691  1
  I  I70  1  0.49766728  0.66346970  0.49691255  1
  I  I71  1  0.49900459  0.66633354  0.83076217  1
  I  I72  1  0.83521056  0.00018500  0.16458435  1
  I  I73  1  0.83352226  0.00144845  0.49844533  1
  I  I74  1  0.83427039  0.00028877  0.83516020  1
  I  I75  1  0.83516459  0.33342018  0.16945559  1
  I  I76  1  0.83317099  0.33069245  0.50152454  1
  I  I77  1  0.83497259  0.33637583  0.83153038  1
  I  I78  1  0.82917233  0.66644492  0.16987929  1
  I  I79  1  0.83348808  0.66808242  0.50102474  1
  I  I80  1  0.84047550  0.66299284  0.83135138  1
  I  I81  1  0.16967362  0.17086875  -0.00190444  1
  I  I82  1  0.16496995  0.16957369  0.33655019  1
  I  I83  1  0.16738232  0.17559295  0.66503500  1
  I  I84  1  0.16715194  0.49965653  0.00044600  1
  I  I85  1  0.17100837  0.49955948  0.33369993  1
  I  I86  1  0.16584000  0.49470493  0.66586199  1
  I  I87  1  0.17197604  0.82874797  0.00433945  1
  I  I88  1  0.17085737  0.82928469  0.32990175  1
  I  I89  1  0.16437867  0.83091547  0.66640144  1
  I  I90  1  0.49643168  0.16830702  0.00302659  1
  I  I91  1  0.49750835  0.16760332  0.33427626  1
  I  I92  1  0.50273124  0.17333854  0.66265416  1
  I  I93  1  0.49682161  0.50009781  0.00340400  1
  I  I94  1  0.49336617  0.49912759  0.33331156  1
  I  I95  1  0.49869795  0.49395066  0.66322887  1
  I  I96  1  0.49530410  0.83078140  0.00561098  1
  I  I97  1  0.49613773  0.83301581  0.33020425  1
  I  I98  1  0.50219173  0.83275226  0.66626948  1
  I  I99  1  0.83324350  0.16673692  -0.00050301  1
  I  I100  1  0.84020186  0.16506519  0.33754456  1
  I  I101  1  0.82703108  0.16347059  0.66236852  1
  I  I102  1  0.83767465  0.50043472  -0.00351478  1
  I  I103  1  0.83563668  0.50034744  0.33365841  1
  I  I104  1  0.83865511  0.49974876  0.66911408  1
  I  I105  1  0.83229659  0.83252702  -0.00011551  1
  I  I106  1  0.83340263  0.83576404  0.33635092  1
  I  I107  1  0.83358651  0.83845421  0.66270501  1
  I  I108  1  0.00015627  0.16594811  0.16715848  1
  I  I109  1  0.00113663  0.16744213  0.50451874  1
  I  I110  1  0.00402170  0.16926062  0.82988417  1
  I  I111  1  0.00365007  0.50487547  0.16982882  1
  I  I112  1  0.00307116  0.49736148  0.49772002  1
  I  I113  1  0.00234682  0.49656452  0.83198258  1
  I  I114  1  0.00293894  0.82717015  0.16789667  1
  I  I115  1  -0.00258275  0.83686615  0.49699834  1
  I  I116  1  0.00022948  0.83485120  0.83683883  1
  I  I117  1  0.33619353  0.16674780  0.17226550  1
  I  I118  1  0.33322609  0.17257380  0.49917393  1
  I  I119  1  0.32937291  0.17573825  0.82872680  1
  I  I120  1  0.33305852  0.50081977  0.16539893  1
  I  I121  1  0.33265514  0.49248087  0.50038219  1
  I  I122  1  0.32969185  0.49550272  0.83429689  1
  I  I123  1  0.33370618  0.83163355  0.16814517  1
  I  I124  1  0.33333799  0.83533437  0.50085274  1
  I  I125  1  0.33292447  0.83102307  0.82801375  1
  I  I126  1  0.66132869  0.16768361  0.17196205  1
  I  I127  1  0.66560119  0.16774165  0.49350795  1
  I  I128  1  0.66684401  0.16788578  0.83411843  1
  I  I129  1  0.66282521  0.50119830  0.17145238  1
  I  I130  1  0.66375418  0.49764503  0.49647827  1
  I  I131  1  0.66851785  0.50120067  0.83227932  1
  I  I132  1  0.66338016  0.83113323  0.16933265  1
  I  I133  1  0.66934337  0.83595092  0.49723101  1
  I  I134  1  0.66699270  0.83105438  0.83540361  1
