# generated using pymatgen
data_Cs27Sn14Pb13I81
_symmetry_space_group_name_H-M   'P 1'
_cell_length_a   18.96537367
_cell_length_b   18.95544824
_cell_length_c   18.96114829
_cell_angle_alpha   89.99794483
_cell_angle_beta   89.99921684
_cell_angle_gamma   90.00087901
_symmetry_Int_Tables_number   1
_chemical_formula_structural   Cs27Sn14Pb13I81
_chemical_formula_sum   'Cs27 Sn14 Pb13 I81'
_cell_volume   6816.47893761
_cell_formula_units_Z   1
loop_
 _symmetry_equiv_pos_site_id
 _symmetry_equiv_pos_as_xyz
  1  'x, y, z'
loop_
 _atom_site_type_symbol
 _atom_site_label
 _atom_site_symmetry_multiplicity
 _atom_site_fract_x
 _atom_site_fract_y
 _atom_site_fract_z
 _atom_site_occupancy
  Cs  Cs0  1  -0.00006568  0.00089387  -0.00037151  1
  Cs  Cs1  1  -0.00155764  -0.00582506  0.33510451  1
  Cs  Cs2  1  -0.00116679  -0.00110179  0.66499832  1
  Cs  Cs3  1  0.00126127  0.33832352  -0.00381499  1
  Cs  Cs4  1  0.00072179  0.33133267  0.33749983  1
  Cs  Cs5  1  0.00092149  0.33486487  0.66764376  1
  Cs  Cs6  1  -0.00108547  0.66009322  0.00576053  1
  Cs  Cs7  1  0.00086085  0.67597994  0.32822672  1
  Cs  Cs8  1  0.00012107  0.66561827  0.66622026  1
  Cs  Cs9  1  0.33653107  0.00186100  -0.00172847  1
  Cs  Cs10  1  0.33280054  0.00112458  0.33286072  1
  Cs  Cs11  1  0.33393187  -0.00096502  0.66849309  1
  Cs  Cs12  1  0.32928963  0.33178109  0.00019249  1
  Cs  Cs13  1  0.33530835  0.33372420  0.33482879  1
  Cs  Cs14  1  0.33129993  0.33327241  0.66512420  1
  Cs  Cs15  1  0.33149180  0.66729101  0.00191376  1
  Cs  Cs16  1  0.33154453  0.66356385  0.33267361  1
  Cs  Cs17  1  0.33645401  0.67044163  0.66502954  1
  Cs  Cs18  1  0.66440059  0.00048450  -0.00123872  1
  Cs  Cs19  1  0.66873344  0.00204344  0.33300448  1
  Cs  Cs20  1  0.66702911  -0.00026807  0.66789636  1
  Cs  Cs21  1  0.66805090  0.33247475  0.00017564  1
  Cs  Cs22  1  0.66362095  0.33257623  0.33459351  1
  Cs  Cs23  1  0.66758168  0.33376468  0.66515823  1
  Cs  Cs24  1  0.67040637  0.66541813  -0.00123679  1
  Cs  Cs25  1  0.66652439  0.66245657  0.33007775  1
  Cs  Cs26  1  0.66387611  0.66501684  0.66951218  1
  Sn  Sn27  1  0.16510542  0.83333727  0.83357279  1
  Sn  Sn28  1  0.83276798  0.16602847  0.83390562  1
  Sn  Sn29  1  0.83490503  0.83385866  0.83333875  1
  Sn  Sn30  1  0.16630448  0.16650675  0.16751773  1
  Sn  Sn31  1  0.50001104  0.16600873  0.16674009  1
  Sn  Sn32  1  0.83451774  0.50024829  0.49961639  1
  Sn  Sn33  1  0.50072771  0.16804055  0.83320377  1
  Sn  Sn34  1  0.50024070  0.83427963  0.49839859  1
  Sn  Sn35  1  0.16734046  0.16697056  0.49935100  1
  Sn  Sn36  1  0.83371333  0.16665340  0.16592207  1
  Sn  Sn37  1  0.50007960  0.83405797  0.16802092  1
  Sn  Sn38  1  0.49922725  0.16569547  0.50014641  1
  Sn  Sn39  1  0.16534837  0.49982044  0.49996667  1
  Sn  Sn40  1  0.49961626  0.49850444  0.83368011  1
  Pb  Pb41  1  0.83192790  0.49951358  0.83191676  1
  Pb  Pb42  1  0.16904503  0.50278039  0.83118384  1
  Pb  Pb43  1  0.16641752  0.16551566  0.83298415  1
  Pb  Pb44  1  0.49965549  0.49969446  0.50133526  1
  Pb  Pb45  1  0.50039968  0.83382845  0.83380019  1
  Pb  Pb46  1  0.83337598  0.16757796  0.50024220  1
  Pb  Pb47  1  0.83045716  0.83071286  0.50191676  1
  Pb  Pb48  1  0.16883995  0.83590050  0.16429284  1
  Pb  Pb49  1  0.83097733  0.83561424  0.16430753  1
  Pb  Pb50  1  0.16665230  0.49736477  0.16956297  1
  Pb  Pb51  1  0.16855084  0.83383089  0.50125991  1
  Pb  Pb52  1  0.49995283  0.49947894  0.16384316  1
  Pb  Pb53  1  0.83344416  0.49705488  0.16961307  1
  I  I54  1  0.16572700  0.00428675  0.17323393  1
  I  I55  1  0.16992992  0.00321456  0.49788268  1
  I  I56  1  0.16919880  -0.00211087  0.83108727  1
  I  I57  1  0.17105120  0.32865061  0.16586887  1
  I  I58  1  0.16966179  0.33181550  0.49753327  1
  I  I59  1  0.16563892  0.33322496  0.83453402  1
  I  I60  1  0.16920869  0.66701678  0.16657041  1
  I  I61  1  0.16616536  0.66452193  0.50478667  1
  I  I62  1  0.16489539  0.67043733  0.83074009  1
  I  I63  1  0.49972571  0.00210846  0.16466635  1
  I  I64  1  0.49498487  0.00195954  0.50266228  1
  I  I65  1  0.50075156  0.00308483  0.83317145  1
  I  I66  1  0.50035691  0.32910241  0.16982473  1
  I  I67  1  0.49941418  0.33003090  0.49822347  1
  I  I68  1  0.50522892  0.33058329  0.83193644  1
  I  I69  1  0.49977475  0.66955042  0.16941578  1
  I  I70  1  0.50018564  0.66896226  0.50000767  1
  I  I71  1  0.49980502  0.66532694  0.83082903  1
  I  I72  1  0.83386590  0.00412693  0.16663775  1
  I  I73  1  0.83484460  -0.00002389  0.49951925  1
  I  I74  1  0.82965373  0.00134910  0.83541862  1
  I  I75  1  0.82928478  0.32846705  0.15971088  1
  I  I76  1  0.83176457  0.33526200  0.50222578  1
  I  I77  1  0.82983336  0.33003644  0.83587394  1
  I  I78  1  0.83074395  0.66692195  0.16545123  1
  I  I79  1  0.83679827  0.66316510  0.50356418  1
  I  I80  1  0.83261309  0.66898219  0.82972965  1
  I  I81  1  0.17041963  0.16292570  0.00224944  1
  I  I82  1  0.17091367  0.17068541  0.33382465  1
  I  I83  1  0.17057299  0.16862860  0.66389354  1
  I  I84  1  0.16830985  0.49942588  -0.00010637  1
  I  I85  1  0.16604065  0.49867694  0.33774014  1
  I  I86  1  0.16463046  0.49184575  0.66334064  1
  I  I87  1  0.16729888  0.83616682  -0.00344316  1
  I  I88  1  0.16697156  0.83164191  0.33317935  1
  I  I89  1  0.16780968  0.83634067  0.66919112  1
  I  I90  1  0.50021070  0.16550287  0.00013329  1
  I  I91  1  0.49986910  0.16246555  0.33342049  1
  I  I92  1  0.49994830  0.16616367  0.66658347  1
  I  I93  1  0.50150272  0.49715156  -0.00408857  1
  I  I94  1  0.50018848  0.49856932  0.33338028  1
  I  I95  1  0.50054934  0.49702367  0.66913721  1
  I  I96  1  0.49948005  0.83772435  0.00209889  1
  I  I97  1  0.49937385  0.84146157  0.33357437  1
  I  I98  1  0.49933704  0.83605428  0.66495405  1
  I  I99  1  0.82870651  0.16274193  -0.00057167  1
  I  I100  1  0.82988964  0.16999218  0.33098892  1
  I  I101  1  0.82921024  0.16479397  0.66941082  1
  I  I102  1  0.83095715  0.50149565  -0.00003726  1
  I  I103  1  0.83414642  0.49764941  0.33745945  1
  I  I104  1  0.83480637  0.49670280  0.66413496  1
  I  I105  1  0.83295498  0.83491562  -0.00384781  1
  I  I106  1  0.83358463  0.83379144  0.33317123  1
  I  I107  1  0.83301372  0.84085864  0.66999720  1
  I  I108  1  0.00001138  0.16817729  0.16648090  1
  I  I109  1  0.00258197  0.16976477  0.49801941  1
  I  I110  1  -0.00269057  0.16374761  0.83577890  1
  I  I111  1  0.00004670  0.49815744  0.16303751  1
  I  I112  1  0.00082476  0.49157047  0.50284115  1
  I  I113  1  0.00012895  0.49800106  0.83222045  1
  I  I114  1  -0.00009202  0.83541753  0.16694541  1
  I  I115  1  -0.00008089  0.83520579  0.50123756  1
  I  I116  1  -0.00077442  0.84084084  0.83087233  1
  I  I117  1  0.33446677  0.16320814  0.16671046  1
  I  I118  1  0.33425119  0.16896925  0.49816639  1
  I  I119  1  0.33621201  0.16742225  0.83487026  1
  I  I120  1  0.33348148  0.49831138  0.16815542  1
  I  I121  1  0.33119392  0.49781711  0.50218617  1
  I  I122  1  0.33688694  0.49480992  0.83058828  1
  I  I123  1  0.33693745  0.83964867  0.16673388  1
  I  I124  1  0.33676284  0.83325613  0.50120911  1
  I  I125  1  0.33220185  0.83390442  0.83229487  1
  I  I126  1  0.66554729  0.16314178  0.16588149  1
  I  I127  1  0.66371008  0.16543233  0.49878478  1
  I  I128  1  0.66575033  0.16437720  0.83525641  1
  I  I129  1  0.66653690  0.49801791  0.16968947  1
  I  I130  1  0.66807160  0.49922906  0.50283033  1
  I  I131  1  0.66387646  0.50073518  0.82925434  1
  I  I132  1  0.66289987  0.83992526  0.16766062  1
  I  I133  1  0.66245585  0.83935463  0.50035927  1
  I  I134  1  0.66851008  0.83498738  0.83282312  1
