# generated using pymatgen
data_Cs27Sn14Pb13I81
_symmetry_space_group_name_H-M   'P 1'
_cell_length_a   18.97254048
_cell_length_b   18.97570115
_cell_length_c   18.97900999
_cell_angle_alpha   90.00013896
_cell_angle_beta   89.99999811
_cell_angle_gamma   89.99929796
_symmetry_Int_Tables_number   1
_chemical_formula_structural   Cs27Sn14Pb13I81
_chemical_formula_sum   'Cs27 Sn14 Pb13 I81'
_cell_volume   6832.77114057
_cell_formula_units_Z   1
loop_
 _symmetry_equiv_pos_site_id
 _symmetry_equiv_pos_as_xyz
  1  'x, y, z'
loop_
 _atom_site_type_symbol
 _atom_site_label
 _atom_site_symmetry_multiplicity
 _atom_site_fract_x
 _atom_site_fract_y
 _atom_site_fract_z
 _atom_site_occupancy
  Cs  Cs0  1  0.00223491  0.00110378  -0.00188579  1
  Cs  Cs1  1  -0.00347362  0.00095101  0.33214046  1
  Cs  Cs2  1  -0.00305374  -0.00108695  0.66888403  1
  Cs  Cs3  1  0.00793723  0.33959261  0.00275550  1
  Cs  Cs4  1  0.00160666  0.33474517  0.33541939  1
  Cs  Cs5  1  0.00225407  0.33287600  0.66187170  1
  Cs  Cs6  1  0.00261050  0.65716188  0.00151233  1
  Cs  Cs7  1  -0.00005427  0.66368849  0.33305115  1
  Cs  Cs8  1  0.00007914  0.66890675  0.66652823  1
  Cs  Cs9  1  0.32749775  0.00106895  0.00167636  1
  Cs  Cs10  1  0.33437271  -0.00753621  0.33123897  1
  Cs  Cs11  1  0.33205383  -0.00175588  0.66716504  1
  Cs  Cs12  1  0.32990298  0.33187249  -0.00089499  1
  Cs  Cs13  1  0.33570574  0.33244687  0.33529572  1
  Cs  Cs14  1  0.33567455  0.33435472  0.66525798  1
  Cs  Cs15  1  0.32523974  0.66696558  -0.00046066  1
  Cs  Cs16  1  0.33511473  0.67532176  0.33448618  1
  Cs  Cs17  1  0.33046822  0.66732178  0.66557681  1
  Cs  Cs18  1  0.66721024  0.00071648  -0.00104778  1
  Cs  Cs19  1  0.66689684  0.00079014  0.33129943  1
  Cs  Cs20  1  0.66852137  0.00135097  0.66930338  1
  Cs  Cs21  1  0.66539705  0.33355548  0.00053467  1
  Cs  Cs22  1  0.66544416  0.33147722  0.33372470  1
  Cs  Cs23  1  0.66463618  0.33177368  0.66647477  1
  Cs  Cs24  1  0.66875754  0.66619477  -0.00267934  1
  Cs  Cs25  1  0.66585853  0.66778633  0.33233847  1
  Cs  Cs26  1  0.66720725  0.66712882  0.66913041  1
  Sn  Sn27  1  0.50034193  0.49964195  0.16728644  1
  Sn  Sn28  1  0.50011167  0.49973641  0.49905021  1
  Sn  Sn29  1  0.83285718  0.16677797  0.83493778  1
  Sn  Sn30  1  0.83284712  0.16645003  0.16507549  1
  Sn  Sn31  1  0.83290765  0.83382007  0.16591029  1
  Sn  Sn32  1  0.16818201  0.16655500  0.49981350  1
  Sn  Sn33  1  0.83253546  0.50091633  0.50018824  1
  Sn  Sn34  1  0.83260072  0.83240075  0.49990534  1
  Sn  Sn35  1  0.50077517  0.16566995  0.83357413  1
  Sn  Sn36  1  0.16748513  0.49935693  0.49966584  1
  Sn  Sn37  1  0.50077893  0.16722090  0.16661687  1
  Sn  Sn38  1  0.83255410  0.83393399  0.83417494  1
  Sn  Sn39  1  0.49899060  0.16667435  0.49981179  1
  Sn  Sn40  1  0.50056205  0.83415145  0.83360274  1
  Pb  Pb41  1  0.50184151  0.83338016  0.16376644  1
  Pb  Pb42  1  0.83273138  0.16667830  0.49995276  1
  Pb  Pb43  1  0.16597029  0.83357712  0.83337440  1
  Pb  Pb44  1  0.16680303  0.49972104  0.83041002  1
  Pb  Pb45  1  0.83331231  0.49917114  0.83108014  1
  Pb  Pb46  1  0.50228108  0.83358849  0.50199753  1
  Pb  Pb47  1  0.49998561  0.49980301  0.83345492  1
  Pb  Pb48  1  0.16374876  0.83370401  0.49990201  1
  Pb  Pb49  1  0.16678150  0.16659207  0.16947384  1
  Pb  Pb50  1  0.16656038  0.16671895  0.83082522  1
  Pb  Pb51  1  0.17055968  0.49976434  0.16987775  1
  Pb  Pb52  1  0.83133592  0.49922791  0.16880620  1
  Pb  Pb53  1  0.16281433  0.83345186  0.16663407  1
  I  I54  1  0.17175348  0.00026988  0.17094005  1
  I  I55  1  0.17059507  0.00300826  0.50060681  1
  I  I56  1  0.16655920  0.00024892  0.82849478  1
  I  I57  1  0.15976708  0.33324798  0.16517261  1
  I  I58  1  0.16392326  0.33361732  0.50066735  1
  I  I59  1  0.16581467  0.33294338  0.83430099  1
  I  I60  1  0.16730074  0.66641267  0.16912476  1
  I  I61  1  0.16937511  0.66356627  0.50008343  1
  I  I62  1  0.16735684  0.66679522  0.83061220  1
  I  I63  1  0.50240514  0.00329514  0.17089597  1
  I  I64  1  0.49727387  0.00330268  0.49740575  1
  I  I65  1  0.50534103  0.00154789  0.83132261  1
  I  I66  1  0.50673885  0.33164741  0.16695443  1
  I  I67  1  0.50190054  0.33283931  0.50164125  1
  I  I68  1  0.50498713  0.32973315  0.83174868  1
  I  I69  1  0.50168672  0.66435629  0.17263077  1
  I  I70  1  0.49795736  0.66383494  0.49671568  1
  I  I71  1  0.50599044  0.66949641  0.83194328  1
  I  I72  1  0.82737333  0.00064641  0.17007758  1
  I  I73  1  0.83336050  -0.00205569  0.50039668  1
  I  I74  1  0.82916740  0.00009199  0.83004485  1
  I  I75  1  0.83044344  0.33003758  0.16426453  1
  I  I76  1  0.83353839  0.33545796  0.50002058  1
  I  I77  1  0.82706454  0.32956269  0.83519721  1
  I  I78  1  0.83156540  0.66908383  0.16526478  1
  I  I79  1  0.83345066  0.66659700  0.50031966  1
  I  I80  1  0.82861844  0.66986257  0.83423371  1
  I  I81  1  0.16845975  0.16556760  0.00009693  1
  I  I82  1  0.16845330  0.17194699  0.33748711  1
  I  I83  1  0.16944602  0.17180797  0.66279564  1
  I  I84  1  0.16673723  0.50165323  0.00059788  1
  I  I85  1  0.16186680  0.49460031  0.33775644  1
  I  I86  1  0.16964403  0.49577219  0.66177800  1
  I  I87  1  0.16719102  0.83357974  -0.00009909  1
  I  I88  1  0.16676549  0.83353372  0.33368620  1
  I  I89  1  0.16396344  0.83221006  0.66638262  1
  I  I90  1  0.50632807  0.16744429  0.00013759  1
  I  I91  1  0.50140404  0.17228964  0.33351639  1
  I  I92  1  0.50111377  0.16765630  0.66638013  1
  I  I93  1  0.50314138  0.49660944  0.00286594  1
  I  I94  1  0.50102533  0.49156131  0.33483680  1
  I  I95  1  0.49977170  0.49650572  0.66317988  1
  I  I96  1  0.50724609  0.83651452  -0.00381489  1
  I  I97  1  0.50175088  0.83513250  0.33316335  1
  I  I98  1  0.50691408  0.83716580  0.66968014  1
  I  I99  1  0.82393789  0.15742528  0.00000692  1
  I  I100  1  0.83038676  0.16347992  0.33129486  1
  I  I101  1  0.83043303  0.16370745  0.66864488  1
  I  I102  1  0.83112491  0.50324898  0.00028074  1
  I  I103  1  0.83504954  0.50331854  0.33716674  1
  I  I104  1  0.83062472  0.50298518  0.66236526  1
  I  I105  1  0.82773977  0.83963135  -0.00053303  1
  I  I106  1  0.83410943  0.83440269  0.33324680  1
  I  I107  1  0.83031153  0.83387200  0.66710544  1
  I  I108  1  -0.00348215  0.16090715  0.16433567  1
  I  I109  1  0.00131034  0.16986956  0.50028640  1
  I  I110  1  -0.00356879  0.16106508  0.83459826  1
  I  I111  1  -0.00002357  0.50110941  0.16804124  1
  I  I112  1  -0.00023970  0.49904996  0.50201070  1
  I  I113  1  -0.00027435  0.50057059  0.83163832  1
  I  I114  1  -0.00580431  0.84010656  0.16593867  1
  I  I115  1  -0.00462990  0.83055126  0.50272625  1
  I  I116  1  -0.00435628  0.83877557  0.83117649  1
  I  I117  1  0.33712655  0.17179525  0.16356255  1
  I  I118  1  0.33517912  0.17530192  0.50125472  1
  I  I119  1  0.33710824  0.16320495  0.83547171  1
  I  I120  1  0.33846710  0.49279486  0.17030871  1
  I  I121  1  0.33441222  0.49343739  0.49727005  1
  I  I122  1  0.33384441  0.50076175  0.83175774  1
  I  I123  1  0.33379139  0.83313051  0.16575374  1
  I  I124  1  0.33366770  0.83089366  0.50252566  1
  I  I125  1  0.33650556  0.83742429  0.83178067  1
  I  I126  1  0.66617744  0.16653882  0.16945283  1
  I  I127  1  0.66380942  0.16996596  0.50027514  1
  I  I128  1  0.66610669  0.16259027  0.83055251  1
  I  I129  1  0.66361557  0.49777299  0.17437439  1
  I  I130  1  0.66575450  0.49887156  0.49692490  1
  I  I131  1  0.66654430  0.50072220  0.82846194  1
  I  I132  1  0.66999836  0.83478304  0.17013064  1
  I  I133  1  0.67042473  0.82979564  0.49868643  1
  I  I134  1  0.66793099  0.83768245  0.83175107  1
