# generated using pymatgen
data_Cs27Sn13Pb14I81
_symmetry_space_group_name_H-M   'P 1'
_cell_length_a   18.97274198
_cell_length_b   18.98215819
_cell_length_c   18.97723543
_cell_angle_alpha   89.99965000
_cell_angle_beta   90.00226906
_cell_angle_gamma   89.99922411
_symmetry_Int_Tables_number   1
_chemical_formula_structural   Cs27Sn13Pb14I81
_chemical_formula_sum   'Cs27 Sn13 Pb14 I81'
_cell_volume   6834.52968421
_cell_formula_units_Z   1
loop_
 _symmetry_equiv_pos_site_id
 _symmetry_equiv_pos_as_xyz
  1  'x, y, z'
loop_
 _atom_site_type_symbol
 _atom_site_label
 _atom_site_symmetry_multiplicity
 _atom_site_fract_x
 _atom_site_fract_y
 _atom_site_fract_z
 _atom_site_occupancy
  Cs  Cs0  1  0.00033379  -0.00312230  0.00129308  1
  Cs  Cs1  1  0.00059395  -0.00389957  0.33272311  1
  Cs  Cs2  1  0.00003436  0.00230464  0.66551268  1
  Cs  Cs3  1  0.00082648  0.33708542  0.00001889  1
  Cs  Cs4  1  0.00131762  0.33643217  0.33212390  1
  Cs  Cs5  1  0.00031031  0.33145443  0.66720742  1
  Cs  Cs6  1  0.00090130  0.66728183  0.00132286  1
  Cs  Cs7  1  0.00076672  0.66869190  0.33073535  1
  Cs  Cs8  1  -0.00036533  0.66676261  0.66765894  1
  Cs  Cs9  1  0.33405336  0.00014750  0.00068371  1
  Cs  Cs10  1  0.33014171  -0.00115463  0.33186428  1
  Cs  Cs11  1  0.33355906  0.00016218  0.66759943  1
  Cs  Cs12  1  0.33221848  0.33016240  -0.00233400  1
  Cs  Cs13  1  0.33505216  0.33440723  0.33518166  1
  Cs  Cs14  1  0.32670904  0.33148723  0.66625394  1
  Cs  Cs15  1  0.33252266  0.66784880  0.00182018  1
  Cs  Cs16  1  0.33275580  0.66658330  0.33242794  1
  Cs  Cs17  1  0.33575414  0.66800376  0.66398795  1
  Cs  Cs18  1  0.66424830  0.00456699  0.00053526  1
  Cs  Cs19  1  0.67021004  0.00201562  0.33322150  1
  Cs  Cs20  1  0.66580902  -0.00098107  0.66711958  1
  Cs  Cs21  1  0.66681026  0.33160161  0.00148009  1
  Cs  Cs22  1  0.66519595  0.33233999  0.33583489  1
  Cs  Cs23  1  0.66884190  0.33550534  0.66355942  1
  Cs  Cs24  1  0.66668165  0.66560579  -0.00201886  1
  Cs  Cs25  1  0.66706609  0.66711456  0.33453837  1
  Cs  Cs26  1  0.66552535  0.66467294  0.66710686  1
  Sn  Sn27  1  0.16632813  0.83318279  0.83360105  1
  Sn  Sn28  1  0.50031342  0.49968284  0.83315247  1
  Sn  Sn29  1  0.83375987  0.83337341  0.83348019  1
  Sn  Sn30  1  0.83284161  0.49944388  0.50065553  1
  Sn  Sn31  1  0.49992169  0.83293197  0.16671898  1
  Sn  Sn32  1  0.50018787  0.50053749  0.16644240  1
  Sn  Sn33  1  0.50042243  0.16706231  0.50031725  1
  Sn  Sn34  1  0.83311521  0.16694034  0.83297959  1
  Sn  Sn35  1  0.83252506  0.16741601  0.50069630  1
  Sn  Sn36  1  0.16650830  0.16636756  0.16657146  1
  Sn  Sn37  1  0.16763053  0.83415450  0.16560797  1
  Sn  Sn38  1  0.83257588  0.49980224  0.83273603  1
  Sn  Sn39  1  0.50060038  0.49913962  0.50033363  1
  Pb  Pb40  1  0.16638988  0.50233580  0.83319811  1
  Pb  Pb41  1  0.16619962  0.50004611  0.50021297  1
  Pb  Pb42  1  0.83296033  0.83326497  0.16418651  1
  Pb  Pb43  1  0.16665034  0.83330789  0.50008568  1
  Pb  Pb44  1  0.83569774  0.16684234  0.16726054  1
  Pb  Pb45  1  0.16605227  0.16668449  0.49792485  1
  Pb  Pb46  1  0.16935330  0.50041620  0.16656628  1
  Pb  Pb47  1  0.83078511  0.49994063  0.16692296  1
  Pb  Pb48  1  0.50194246  0.16932557  0.83081024  1
  Pb  Pb49  1  0.49842244  0.16676360  0.16879626  1
  Pb  Pb50  1  0.50014467  0.83157252  0.83524277  1
  Pb  Pb51  1  0.16411512  0.16433925  0.83527153  1
  Pb  Pb52  1  0.50015765  0.83328506  0.49739487  1
  Pb  Pb53  1  0.83322431  0.83312129  0.50260901  1
  I  I54  1  0.17266546  -0.00152819  0.16317914  1
  I  I55  1  0.16702601  0.00017200  0.50099976  1
  I  I56  1  0.16213667  -0.00365425  0.83548629  1
  I  I57  1  0.16651466  0.33102537  0.16842178  1
  I  I58  1  0.16750485  0.33322128  0.49680470  1
  I  I59  1  0.16633005  0.33319727  0.83552933  1
  I  I60  1  0.16858156  0.66997882  0.16270936  1
  I  I61  1  0.16684318  0.66665399  0.49718251  1
  I  I62  1  0.16085766  0.67018314  0.84111376  1
  I  I63  1  0.49726814  -0.00239831  0.16740942  1
  I  I64  1  0.50450916  0.00303478  0.49795269  1
  I  I65  1  0.50119834  0.00015643  0.83365155  1
  I  I66  1  0.49901097  0.33625326  0.16569775  1
  I  I67  1  0.50455622  0.33462434  0.49689467  1
  I  I68  1  0.50470601  0.33760074  0.83966510  1
  I  I69  1  0.49446828  0.66614538  0.16822288  1
  I  I70  1  0.50437894  0.66302378  0.50164431  1
  I  I71  1  0.50530821  0.66327370  0.82907052  1
  I  I72  1  0.82889956  0.00000485  0.16670467  1
  I  I73  1  0.82930503  0.00324354  0.50339092  1
  I  I74  1  0.83874930  0.00012981  0.82991690  1
  I  I75  1  0.83526255  0.33338236  0.16125609  1
  I  I76  1  0.82847027  0.33364080  0.50836666  1
  I  I77  1  0.82845376  0.33395910  0.82944462  1
  I  I78  1  0.83740840  0.66660889  0.16731353  1
  I  I79  1  0.82821043  0.66317925  0.50364277  1
  I  I80  1  0.83328512  0.66580251  0.83025136  1
  I  I81  1  0.16707973  0.16480452  0.00305029  1
  I  I82  1  0.16556672  0.15897047  0.33016891  1
  I  I83  1  0.16843607  0.16512245  0.66678202  1
  I  I84  1  0.16612260  0.49798356  -0.00003063  1
  I  I85  1  0.16568841  0.50254335  0.33316386  1
  I  I86  1  0.17180457  0.50258714  0.66687249  1
  I  I87  1  0.16598690  0.83673533  0.00061079  1
  I  I88  1  0.17084974  0.83655242  0.32960180  1
  I  I89  1  0.16177718  0.83155341  0.67017280  1
  I  I90  1  0.50077638  0.16789431  -0.00008067  1
  I  I91  1  0.50635786  0.17247903  0.33658028  1
  I  I92  1  0.50056706  0.17055459  0.66281131  1
  I  I93  1  0.50370296  0.50563491  -0.00022819  1
  I  I94  1  0.50301214  0.50006521  0.33395249  1
  I  I95  1  0.50520209  0.49721151  0.66638801  1
  I  I96  1  0.49870244  0.82779703  0.00318053  1
  I  I97  1  0.49303081  0.82771543  0.32939176  1
  I  I98  1  0.49885785  0.83222918  0.66685656  1
  I  I99  1  0.83500634  0.16725089  -0.00311602  1
  I  I100  1  0.83012808  0.17216737  0.33696946  1
  I  I101  1  0.83026119  0.16716674  0.66673249  1
  I  I102  1  0.82977271  0.49958948  -0.00345776  1
  I  I103  1  0.82968908  0.49434012  0.33680376  1
  I  I104  1  0.82529456  0.50032207  0.66727602  1
  I  I105  1  0.83487306  0.83225817  -0.00416946  1
  I  I106  1  0.83466811  0.83323334  0.33333354  1
  I  I107  1  0.83882496  0.83271211  0.67091107  1
  I  I108  1  0.00338829  0.15866756  0.16775506  1
  I  I109  1  -0.00376710  0.17120026  0.50381354  1
  I  I110  1  -0.00419226  0.17188745  0.82704409  1
  I  I111  1  0.00000243  0.50090805  0.16718679  1
  I  I112  1  -0.00409523  0.49545948  0.50561094  1
  I  I113  1  -0.00377629  0.49828569  0.82834224  1
  I  I114  1  0.00297097  0.83753283  0.16498232  1
  I  I115  1  -0.00026936  0.83287716  0.49504141  1
  I  I116  1  -0.00064931  0.83123942  0.83938671  1
  I  I117  1  0.33066888  0.16472998  0.16828694  1
  I  I118  1  0.33614620  0.17196163  0.49732822  1
  I  I119  1  0.33336882  0.16679542  0.83228873  1
  I  I120  1  0.33769124  0.50182112  0.16735145  1
  I  I121  1  0.33726112  0.49616359  0.50027858  1
  I  I122  1  0.33659713  0.50234160  0.83297569  1
  I  I123  1  0.33285583  0.83285462  0.16089763  1
  I  I124  1  0.33361385  0.83298256  0.50456069  1
  I  I125  1  0.33101362  0.83104447  0.83653606  1
  I  I126  1  0.66660564  0.16573215  0.16521317  1
  I  I127  1  0.66734039  0.17122018  0.50198464  1
  I  I128  1  0.67037745  0.16069282  0.83409027  1
  I  I129  1  0.66254147  0.50557493  0.16646060  1
  I  I130  1  0.66632244  0.49618042  0.50052000  1
  I  I131  1  0.66741750  0.50319665  0.83288722  1
  I  I132  1  0.66364973  0.82824519  0.16644901  1
  I  I133  1  0.66668113  0.83387343  0.49885882  1
  I  I134  1  0.66958724  0.83378121  0.83418477  1
