# generated using pymatgen
data_Cs27Sn13Pb14I81
_symmetry_space_group_name_H-M   'P 1'
_cell_length_a   18.97700837
_cell_length_b   18.97796461
_cell_length_c   18.97600868
_cell_angle_alpha   90.00067435
_cell_angle_beta   89.99915945
_cell_angle_gamma   90.00240951
_symmetry_Int_Tables_number   1
_chemical_formula_structural   Cs27Sn13Pb14I81
_chemical_formula_sum   'Cs27 Sn13 Pb14 I81'
_cell_volume   6834.11451195
_cell_formula_units_Z   1
loop_
 _symmetry_equiv_pos_site_id
 _symmetry_equiv_pos_as_xyz
  1  'x, y, z'
loop_
 _atom_site_type_symbol
 _atom_site_label
 _atom_site_symmetry_multiplicity
 _atom_site_fract_x
 _atom_site_fract_y
 _atom_site_fract_z
 _atom_site_occupancy
  Cs  Cs0  1  0.00080737  -0.00386337  -0.00393296  1
  Cs  Cs1  1  0.00083377  0.00273518  0.33317280  1
  Cs  Cs2  1  0.00171981  -0.00164449  0.67366584  1
  Cs  Cs3  1  -0.00281554  0.33535760  -0.00109158  1
  Cs  Cs4  1  -0.00171306  0.33192584  0.33537466  1
  Cs  Cs5  1  0.00159153  0.33196533  0.66331260  1
  Cs  Cs6  1  0.00719510  0.66754117  -0.00080274  1
  Cs  Cs7  1  0.00038155  0.66651112  0.33387892  1
  Cs  Cs8  1  -0.00149018  0.66840953  0.66617319  1
  Cs  Cs9  1  0.33611335  -0.00278120  0.00042209  1
  Cs  Cs10  1  0.33330396  0.00190765  0.33279740  1
  Cs  Cs11  1  0.33030123  0.00454417  0.66702378  1
  Cs  Cs12  1  0.33481987  0.34225534  -0.00671764  1
  Cs  Cs13  1  0.33405090  0.33146061  0.33302612  1
  Cs  Cs14  1  0.33210667  0.33236974  0.67429881  1
  Cs  Cs15  1  0.32585629  0.66303108  -0.00069572  1
  Cs  Cs16  1  0.33360447  0.66428436  0.33400755  1
  Cs  Cs17  1  0.33652938  0.66404671  0.66382944  1
  Cs  Cs18  1  0.66559425  0.00091349  0.00066264  1
  Cs  Cs19  1  0.66587567  0.00002577  0.33197115  1
  Cs  Cs20  1  0.66755478  -0.00439290  0.66982540  1
  Cs  Cs21  1  0.66684421  0.33201213  -0.00063259  1
  Cs  Cs22  1  0.66865104  0.33258017  0.33211080  1
  Cs  Cs23  1  0.66595140  0.33387347  0.66968431  1
  Cs  Cs24  1  0.66633449  0.66753602  0.00173345  1
  Cs  Cs25  1  0.66530447  0.66756112  0.33581054  1
  Cs  Cs26  1  0.66594325  0.67005228  0.66166725  1
  Sn  Sn27  1  0.83299548  0.83353236  0.16705595  1
  Sn  Sn28  1  0.50039743  0.83356499  0.16593632  1
  Sn  Sn29  1  0.16610184  0.50067575  0.49944370  1
  Sn  Sn30  1  0.83309157  0.50027709  0.83300730  1
  Sn  Sn31  1  0.83324859  0.50025662  0.16674488  1
  Sn  Sn32  1  0.16654136  0.83285826  0.49952145  1
  Sn  Sn33  1  0.50126279  0.16676379  0.49951346  1
  Sn  Sn34  1  0.49993663  0.83316366  0.83437108  1
  Sn  Sn35  1  0.49974263  0.16633982  0.16727196  1
  Sn  Sn36  1  0.83381796  0.49934799  0.50004143  1
  Sn  Sn37  1  0.83227459  0.16683454  0.49970280  1
  Sn  Sn38  1  0.83352578  0.16625097  0.16730615  1
  Sn  Sn39  1  0.16684568  0.16695659  0.16624453  1
  Pb  Pb40  1  0.50030840  0.16491805  0.83389026  1
  Pb  Pb41  1  0.16659398  0.16668986  0.83738279  1
  Pb  Pb42  1  0.83484619  0.83402993  0.49800467  1
  Pb  Pb43  1  0.16957811  0.83316999  0.83052437  1
  Pb  Pb44  1  0.49793213  0.83587958  0.49911116  1
  Pb  Pb45  1  0.16708048  0.83495187  0.16826205  1
  Pb  Pb46  1  0.83172176  0.83078878  0.83630069  1
  Pb  Pb47  1  0.50251762  0.50296438  0.83335782  1
  Pb  Pb48  1  0.83333403  0.16828789  0.83332663  1
  Pb  Pb49  1  0.50033586  0.49692236  0.49991198  1
  Pb  Pb50  1  0.16397557  0.50008117  0.83025616  1
  Pb  Pb51  1  0.50194184  0.49994333  0.16676857  1
  Pb  Pb52  1  0.16634367  0.16706302  0.49888601  1
  Pb  Pb53  1  0.16409801  0.49742652  0.16887091  1
  I  I54  1  0.16202948  0.00283297  0.17175324  1
  I  I55  1  0.16771350  -0.00146440  0.49736849  1
  I  I56  1  0.16486081  -0.00023212  0.82840976  1
  I  I57  1  0.16727754  0.32949806  0.17075773  1
  I  I58  1  0.16335321  0.33569391  0.49766452  1
  I  I59  1  0.16789676  0.33356119  0.83063475  1
  I  I60  1  0.16627116  0.66641952  0.16670612  1
  I  I61  1  0.16081077  0.66585235  0.49886726  1
  I  I62  1  0.16652765  0.66660541  0.83687779  1
  I  I63  1  0.50521831  0.00067591  0.16693924  1
  I  I64  1  0.50432100  0.00366255  0.49743882  1
  I  I65  1  0.50181240  -0.00283451  0.83537035  1
  I  I66  1  0.50123153  0.32971534  0.17194623  1
  I  I67  1  0.50005994  0.32902828  0.49229127  1
  I  I68  1  0.49969060  0.33347379  0.83338579  1
  I  I69  1  0.50536405  0.66990820  0.16360918  1
  I  I70  1  0.50138533  0.66682629  0.50019358  1
  I  I71  1  0.50089272  0.67066076  0.83963902  1
  I  I72  1  0.83221635  0.00106786  0.17221033  1
  I  I73  1  0.83135011  0.00316529  0.49372645  1
  I  I74  1  0.83268754  -0.00044581  0.83268437  1
  I  I75  1  0.83353696  0.33276194  0.16774128  1
  I  I76  1  0.83551371  0.33352510  0.49509415  1
  I  I77  1  0.83300685  0.33637767  0.83769454  1
  I  I78  1  0.82803165  0.66657345  0.16754849  1
  I  I79  1  0.83602987  0.66393315  0.49869302  1
  I  I80  1  0.83172204  0.66295045  0.83124285  1
  I  I81  1  0.16481431  0.16480453  0.00549627  1
  I  I82  1  0.16585856  0.16626056  0.33087131  1
  I  I83  1  0.16708795  0.16657285  0.66638764  1
  I  I84  1  0.16543174  0.49841940  0.00016954  1
  I  I85  1  0.16033223  0.50324247  0.33665806  1
  I  I86  1  0.16108533  0.50210159  0.66225795  1
  I  I87  1  0.16455910  0.83545373  0.00024042  1
  I  I88  1  0.16779200  0.83008426  0.33596589  1
  I  I89  1  0.16631370  0.83114388  0.66262078  1
  I  I90  1  0.50225664  0.16417049  0.00395490  1
  I  I91  1  0.50153216  0.16118535  0.33195182  1
  I  I92  1  0.50430906  0.16572854  0.66368414  1
  I  I93  1  0.50283161  0.49484063  0.00022045  1
  I  I94  1  0.50203303  0.50510783  0.33339494  1
  I  I95  1  0.50256352  0.50049727  0.66643093  1
  I  I96  1  0.50521387  0.84030966  0.00216020  1
  I  I97  1  0.50338133  0.83620837  0.33009909  1
  I  I98  1  0.49835183  0.83405005  0.66825871  1
  I  I99  1  0.83210942  0.16783234  0.00398984  1
  I  I100  1  0.83254126  0.17129973  0.33233173  1
  I  I101  1  0.82942660  0.17162832  0.66307365  1
  I  I102  1  0.83077378  0.49863240  0.00137868  1
  I  I103  1  0.83702992  0.49796001  0.33340709  1
  I  I104  1  0.83732327  0.49473160  0.66510886  1
  I  I105  1  0.83248603  0.83573908  0.00468822  1
  I  I106  1  0.82750322  0.83009425  0.32971623  1
  I  I107  1  0.83244882  0.83310732  0.66661443  1
  I  I108  1  -0.00181737  0.16730157  0.17224528  1
  I  I109  1  -0.00298550  0.16907934  0.49407566  1
  I  I110  1  -0.00027150  0.16581899  0.83178740  1
  I  I111  1  -0.00457937  0.50066853  0.16508351  1
  I  I112  1  -0.00185630  0.49753544  0.49922114  1
  I  I113  1  -0.00402769  0.50063381  0.83752588  1
  I  I114  1  -0.00287325  0.83414796  0.16951943  1
  I  I115  1  0.00247433  0.83386145  0.49680912  1
  I  I116  1  -0.00007672  0.83289526  0.83405016  1
  I  I117  1  0.33467158  0.15952490  0.17323185  1
  I  I118  1  0.33547309  0.16498806  0.49448287  1
  I  I119  1  0.33358412  0.16673205  0.83009959  1
  I  I120  1  0.33301485  0.49964920  0.16820953  1
  I  I121  1  0.33066360  0.50326927  0.49905971  1
  I  I122  1  0.33324992  0.49984926  0.83204892  1
  I  I123  1  0.33642094  0.83977994  0.16495960  1
  I  I124  1  0.33033116  0.82881335  0.49805547  1
  I  I125  1  0.33719384  0.83413633  0.84179055  1
  I  I126  1  0.66734137  0.16608465  0.17080158  1
  I  I127  1  0.66787995  0.17162582  0.49146007  1
  I  I128  1  0.66682907  0.16759259  0.83612004  1
  I  I129  1  0.67098043  0.49607122  0.17005054  1
  I  I130  1  0.67050720  0.49812719  0.49912778  1
  I  I131  1  0.67057727  0.49849018  0.83138127  1
  I  I132  1  0.66698094  0.83769153  0.16443541  1
  I  I133  1  0.66658043  0.83099716  0.50139355  1
  I  I134  1  0.66389147  0.83347876  0.83376315  1
