# generated using pymatgen
data_Cs27Sn14Pb13I81
_symmetry_space_group_name_H-M   'P 1'
_cell_length_a   18.97143202
_cell_length_b   18.98110242
_cell_length_c   18.97373985
_cell_angle_alpha   89.99878294
_cell_angle_beta   90.00105607
_cell_angle_gamma   90.00076389
_symmetry_Int_Tables_number   1
_chemical_formula_structural   Cs27Sn14Pb13I81
_chemical_formula_sum   'Cs27 Sn14 Pb13 I81'
_cell_volume   6832.41894045
_cell_formula_units_Z   1
loop_
 _symmetry_equiv_pos_site_id
 _symmetry_equiv_pos_as_xyz
  1  'x, y, z'
loop_
 _atom_site_type_symbol
 _atom_site_label
 _atom_site_symmetry_multiplicity
 _atom_site_fract_x
 _atom_site_fract_y
 _atom_site_fract_z
 _atom_site_occupancy
  Cs  Cs0  1  -0.00028125  0.00050954  0.00072107  1
  Cs  Cs1  1  0.00244860  0.00156727  0.33229448  1
  Cs  Cs2  1  -0.00021275  -0.00168052  0.66710764  1
  Cs  Cs3  1  -0.00330737  0.33341040  0.00347301  1
  Cs  Cs4  1  0.00236638  0.33295555  0.33686020  1
  Cs  Cs5  1  0.00186811  0.33731270  0.65517984  1
  Cs  Cs6  1  -0.00122724  0.66636228  0.00031761  1
  Cs  Cs7  1  0.00043944  0.66640032  0.33198515  1
  Cs  Cs8  1  0.00199025  0.66628266  0.66746083  1
  Cs  Cs9  1  0.32784792  0.00471351  -0.00430805  1
  Cs  Cs10  1  0.33379147  -0.00011677  0.33336719  1
  Cs  Cs11  1  0.33587856  -0.00229392  0.66951210  1
  Cs  Cs12  1  0.33478311  0.33232726  -0.00735751  1
  Cs  Cs13  1  0.33151829  0.33083304  0.33246817  1
  Cs  Cs14  1  0.32989804  0.33578446  0.67483121  1
  Cs  Cs15  1  0.33307449  0.66191015  0.00031742  1
  Cs  Cs16  1  0.33594948  0.66747368  0.33285888  1
  Cs  Cs17  1  0.33077162  0.66814738  0.66711675  1
  Cs  Cs18  1  0.66886764  0.00010319  0.00063720  1
  Cs  Cs19  1  0.66553303  -0.00117171  0.33313934  1
  Cs  Cs20  1  0.66631623  -0.00059407  0.66587488  1
  Cs  Cs21  1  0.66699478  0.33334533  -0.00115895  1
  Cs  Cs22  1  0.66692593  0.33204031  0.33433956  1
  Cs  Cs23  1  0.66768952  0.33184917  0.66713716  1
  Cs  Cs24  1  0.66763500  0.66515795  0.00386384  1
  Cs  Cs25  1  0.66366092  0.66895982  0.33151894  1
  Cs  Cs26  1  0.66769966  0.66941968  0.66456061  1
  Sn  Sn27  1  0.16630396  0.50066007  0.16675682  1
  Sn  Sn28  1  0.16676251  0.83253478  0.16709961  1
  Sn  Sn29  1  0.50067303  0.16646036  0.16698765  1
  Sn  Sn30  1  0.83239835  0.16752191  0.16640561  1
  Sn  Sn31  1  0.83221843  0.83322974  0.83265532  1
  Sn  Sn32  1  0.50107367  0.83306255  0.83339183  1
  Sn  Sn33  1  0.83346532  0.16687710  0.83347135  1
  Sn  Sn34  1  0.83336748  0.83335024  0.50033514  1
  Sn  Sn35  1  0.16680633  0.83339053  0.49887427  1
  Sn  Sn36  1  0.83320384  0.49995893  0.83349665  1
  Sn  Sn37  1  0.49998721  0.49974445  0.50014010  1
  Sn  Sn38  1  0.50012939  0.83335561  0.50048524  1
  Sn  Sn39  1  0.83372049  0.49923444  0.16650704  1
  Sn  Sn40  1  0.49990148  0.16697938  0.49967453  1
  Pb  Pb41  1  0.16646842  0.16715161  0.16661847  1
  Pb  Pb42  1  0.50261402  0.50265022  0.83099169  1
  Pb  Pb43  1  0.17003196  0.16418280  0.50025236  1
  Pb  Pb44  1  0.16637495  0.83323370  0.83349919  1
  Pb  Pb45  1  0.16255085  0.16698068  0.83305041  1
  Pb  Pb46  1  0.50015842  0.49752808  0.16823545  1
  Pb  Pb47  1  0.83167582  0.16438822  0.49967521  1
  Pb  Pb48  1  0.83482835  0.83348071  0.16648592  1
  Pb  Pb49  1  0.49748216  0.83556997  0.16593968  1
  Pb  Pb50  1  0.16360035  0.50001530  0.83592068  1
  Pb  Pb51  1  0.16936088  0.50227850  0.49767639  1
  Pb  Pb52  1  0.50204669  0.16462462  0.83319288  1
  Pb  Pb53  1  0.83169515  0.50233202  0.49934443  1
  I  I54  1  0.16648860  -0.00249086  0.17091716  1
  I  I55  1  0.16705337  -0.00450099  0.49278977  1
  I  I56  1  0.16494098  -0.00042316  0.83626667  1
  I  I57  1  0.16439318  0.33615380  0.16631949  1
  I  I58  1  0.16684420  0.33363841  0.49831910  1
  I  I59  1  0.16971287  0.33360233  0.83601266  1
  I  I60  1  0.16075489  0.66685607  0.17046759  1
  I  I61  1  0.16861428  0.67054771  0.49849472  1
  I  I62  1  0.16460589  0.66687107  0.83200967  1
  I  I63  1  0.50617063  0.00309793  0.17256301  1
  I  I64  1  0.50029049  -0.00121345  0.49957900  1
  I  I65  1  0.50561300  -0.00329162  0.82758047  1
  I  I66  1  0.50019847  0.32972785  0.17275114  1
  I  I67  1  0.50298775  0.33273524  0.49312385  1
  I  I68  1  0.50075615  0.33330286  0.83193229  1
  I  I69  1  0.50216683  0.66677995  0.16802961  1
  I  I70  1  0.50032227  0.66843174  0.50387827  1
  I  I71  1  0.50534007  0.67068153  0.82806556  1
  I  I72  1  0.83101904  0.00231138  0.16423856  1
  I  I73  1  0.83088001  -0.00385079  0.50315203  1
  I  I74  1  0.82921104  -0.00064765  0.83376773  1
  I  I75  1  0.83456170  0.33343365  0.15880003  1
  I  I76  1  0.83061777  0.33335191  0.50303131  1
  I  I77  1  0.83298576  0.33330430  0.84056634  1
  I  I78  1  0.83600639  0.66451235  0.16399340  1
  I  I79  1  0.83060336  0.67054443  0.50324383  1
  I  I80  1  0.82981936  0.66732462  0.83379635  1
  I  I81  1  0.17312697  0.16222267  0.00032520  1
  I  I82  1  0.16175765  0.16709787  0.33331474  1
  I  I83  1  0.16697293  0.16414218  0.66649728  1
  I  I84  1  0.16669025  0.50802843  0.00405945  1
  I  I85  1  0.15863443  0.50188912  0.32995747  1
  I  I86  1  0.16595255  0.50104410  0.66644086  1
  I  I87  1  0.16576352  0.83059343  0.00279783  1
  I  I88  1  0.16645838  0.82998167  0.33402346  1
  I  I89  1  0.16734022  0.83448811  0.66368254  1
  I  I90  1  0.50185123  0.16467676  0.00236204  1
  I  I91  1  0.50638673  0.16371134  0.33363908  1
  I  I92  1  0.50181526  0.16564023  0.66390216  1
  I  I93  1  0.49779067  0.50051995  -0.00007397  1
  I  I94  1  0.50269322  0.50673759  0.33614861  1
  I  I95  1  0.50230374  0.49627746  0.66296351  1
  I  I96  1  0.50538892  0.83525570  -0.00263598  1
  I  I97  1  0.50269743  0.83231387  0.33637842  1
  I  I98  1  0.49907166  0.83579869  0.66493159  1
  I  I99  1  0.82760505  0.16475346  0.00064101  1
  I  I100  1  0.83133765  0.16977161  0.33048907  1
  I  I101  1  0.83124889  0.16754366  0.66920359  1
  I  I102  1  0.83649867  0.50212926  0.00036791  1
  I  I103  1  0.83616718  0.49641585  0.33025215  1
  I  I104  1  0.82975098  0.49825007  0.66906599  1
  I  I105  1  0.83032231  0.83353665  -0.00277773  1
  I  I106  1  0.83019087  0.83314261  0.33577999  1
  I  I107  1  0.83378659  0.83372004  0.66700052  1
  I  I108  1  -0.00326605  0.16646644  0.16109004  1
  I  I109  1  -0.00018418  0.16457314  0.49997763  1
  I  I110  1  -0.00579788  0.16108872  0.84177613  1
  I  I111  1  -0.00133771  0.49902787  0.16275301  1
  I  I112  1  -0.00007094  0.50207358  0.50215430  1
  I  I113  1  -0.00480570  0.50422668  0.83363466  1
  I  I114  1  0.00261864  0.83423368  0.17094015  1
  I  I115  1  -0.00044445  0.83303321  0.50058759  1
  I  I116  1  -0.00366699  0.83367182  0.83004994  1
  I  I117  1  0.33601769  0.16453035  0.17299990  1
  I  I118  1  0.33832827  0.16404572  0.49160551  1
  I  I119  1  0.33375718  0.16362396  0.83443467  1
  I  I120  1  0.33108873  0.50438086  0.17102483  1
  I  I121  1  0.33723441  0.50269804  0.49730008  1
  I  I122  1  0.33360845  0.50204436  0.83397893  1
  I  I123  1  0.32987505  0.82884383  0.17150842  1
  I  I124  1  0.33450220  0.83367778  0.49961086  1
  I  I125  1  0.33603554  0.83466180  0.82930884  1
  I  I126  1  0.66774181  0.17106376  0.16693803  1
  I  I127  1  0.66359902  0.16263091  0.49844014  1
  I  I128  1  0.67016421  0.16738712  0.83505717  1
  I  I129  1  0.66970350  0.49825487  0.16362678  1
  I  I130  1  0.66386689  0.50385340  0.49775122  1
  I  I131  1  0.67061714  0.49879260  0.84080047  1
  I  I132  1  0.66663463  0.83133948  0.16928550  1
  I  I133  1  0.66589053  0.83361463  0.50504274  1
  I  I134  1  0.66790830  0.83390322  0.82461358  1
