# generated using pymatgen
data_Cs27Sn14Pb13I81
_symmetry_space_group_name_H-M   'P 1'
_cell_length_a   18.96491636
_cell_length_b   18.98259771
_cell_length_c   18.98474606
_cell_angle_alpha   89.99975157
_cell_angle_beta   89.99929997
_cell_angle_gamma   89.99961548
_symmetry_Int_Tables_number   1
_chemical_formula_structural   Cs27Sn14Pb13I81
_chemical_formula_sum   'Cs27 Sn14 Pb13 I81'
_cell_volume   6834.57270701
_cell_formula_units_Z   1
loop_
 _symmetry_equiv_pos_site_id
 _symmetry_equiv_pos_as_xyz
  1  'x, y, z'
loop_
 _atom_site_type_symbol
 _atom_site_label
 _atom_site_symmetry_multiplicity
 _atom_site_fract_x
 _atom_site_fract_y
 _atom_site_fract_z
 _atom_site_occupancy
  Cs  Cs0  1  -0.00366066  -0.00038451  0.00213675  1
  Cs  Cs1  1  0.00165128  0.00195580  0.32770522  1
  Cs  Cs2  1  0.00231497  0.00205682  0.67184776  1
  Cs  Cs3  1  -0.00870298  0.32405805  -0.00093291  1
  Cs  Cs4  1  0.00054674  0.33117912  0.33186982  1
  Cs  Cs5  1  -0.00075245  0.33371613  0.66891053  1
  Cs  Cs6  1  -0.00367138  0.67718716  -0.00104476  1
  Cs  Cs7  1  -0.00040335  0.66676249  0.33427291  1
  Cs  Cs8  1  -0.00165408  0.66473250  0.66648895  1
  Cs  Cs9  1  0.33078091  -0.00165793  0.00010739  1
  Cs  Cs10  1  0.33378743  0.00052024  0.33411513  1
  Cs  Cs11  1  0.33504877  0.00065473  0.66622294  1
  Cs  Cs12  1  0.33507841  0.33805569  -0.00099329  1
  Cs  Cs13  1  0.33267854  0.33505423  0.33312067  1
  Cs  Cs14  1  0.33310274  0.33448459  0.66664382  1
  Cs  Cs15  1  0.33254021  0.66399694  -0.00012934  1
  Cs  Cs16  1  0.33360294  0.66517154  0.33360304  1
  Cs  Cs17  1  0.33367214  0.66571886  0.66618393  1
  Cs  Cs18  1  0.66889561  0.00099852  0.00069891  1
  Cs  Cs19  1  0.66452008  -0.00057925  0.33647335  1
  Cs  Cs20  1  0.66373012  -0.00067307  0.66356254  1
  Cs  Cs21  1  0.67090232  0.33331731  0.00331448  1
  Cs  Cs22  1  0.66724434  0.33500735  0.33250475  1
  Cs  Cs23  1  0.66666804  0.33302352  0.66595036  1
  Cs  Cs24  1  0.67134843  0.66567726  0.00322913  1
  Cs  Cs25  1  0.66736199  0.66512100  0.33394066  1
  Cs  Cs26  1  0.66690265  0.66746561  0.66501075  1
  Sn  Sn27  1  0.49968544  0.83304954  0.50000004  1
  Sn  Sn28  1  0.16638796  0.49989275  0.16586032  1
  Sn  Sn29  1  0.83387311  0.83466891  0.50015291  1
  Sn  Sn30  1  0.49976674  0.83295080  0.83365835  1
  Sn  Sn31  1  0.16665040  0.83284762  0.50013002  1
  Sn  Sn32  1  0.50002908  0.50016851  0.83251506  1
  Sn  Sn33  1  0.49967090  0.16685246  0.83356706  1
  Sn  Sn34  1  0.16700323  0.49997860  0.83383454  1
  Sn  Sn35  1  0.50049966  0.16697173  0.49991896  1
  Sn  Sn36  1  0.49959715  0.83389562  0.16666260  1
  Sn  Sn37  1  0.49925168  0.50000348  0.50079301  1
  Sn  Sn38  1  0.16755289  0.50075187  0.50008680  1
  Sn  Sn39  1  0.83266934  0.16566995  0.50017147  1
  Sn  Sn40  1  0.49940615  0.16596578  0.16671559  1
  Pb  Pb41  1  0.16894526  0.83160754  0.16869754  1
  Pb  Pb42  1  0.83078545  0.83348043  0.83066281  1
  Pb  Pb43  1  0.83057365  0.16638861  0.83054050  1
  Pb  Pb44  1  0.83056920  0.16642739  0.16952899  1
  Pb  Pb45  1  0.16919573  0.16873957  0.16643047  1
  Pb  Pb46  1  0.16895153  0.16888717  0.83347086  1
  Pb  Pb47  1  0.49924410  0.50014688  0.16651127  1
  Pb  Pb48  1  0.16874421  0.83141653  0.83120567  1
  Pb  Pb49  1  0.83076788  0.83342677  0.16944239  1
  Pb  Pb50  1  0.83348242  0.49979683  0.49993739  1
  Pb  Pb51  1  0.83313075  0.50014901  0.83322523  1
  Pb  Pb52  1  0.83740883  0.50018701  0.16671735  1
  Pb  Pb53  1  0.16680567  0.16670464  0.50004174  1
  I  I54  1  0.16685886  -0.00022517  0.17002119  1
  I  I55  1  0.17124381  -0.00295614  0.49944905  1
  I  I56  1  0.16943369  -0.00026551  0.83001153  1
  I  I57  1  0.17142615  0.33716804  0.17226787  1
  I  I58  1  0.17112218  0.33679543  0.50019260  1
  I  I59  1  0.17430918  0.33771048  0.82774948  1
  I  I60  1  0.17251862  0.66348428  0.16652078  1
  I  I61  1  0.17126098  0.66587751  0.49984668  1
  I  I62  1  0.17500918  0.66302910  0.83379600  1
  I  I63  1  0.50004452  -0.00018148  0.16902983  1
  I  I64  1  0.50034491  -0.00061341  0.50172728  1
  I  I65  1  0.50163202  -0.00013436  0.82892810  1
  I  I66  1  0.49793404  0.33099617  0.16825903  1
  I  I67  1  0.50014414  0.33347143  0.50186502  1
  I  I68  1  0.49555660  0.33377359  0.82922048  1
  I  I69  1  0.49807982  0.66920182  0.16866766  1
  I  I70  1  0.49983569  0.66716146  0.50169248  1
  I  I71  1  0.49587103  0.66634918  0.82890611  1
  I  I72  1  0.83638086  -0.00003264  0.16562525  1
  I  I73  1  0.82590856  -0.00054408  0.50012614  1
  I  I74  1  0.83204130  -0.00003223  0.83349987  1
  I  I75  1  0.82975407  0.33311159  0.16992900  1
  I  I76  1  0.82783004  0.33069948  0.49993229  1
  I  I77  1  0.83135545  0.33320067  0.82996529  1
  I  I78  1  0.82802798  0.66694965  0.16995128  1
  I  I79  1  0.82938694  0.66948023  0.49990717  1
  I  I80  1  0.82966219  0.66684216  0.83013541  1
  I  I81  1  0.17030809  0.16949143  -0.00007688  1
  I  I82  1  0.16978041  0.17031921  0.33367448  1
  I  I83  1  0.16895216  0.16892160  0.66637371  1
  I  I84  1  0.17644476  0.49838026  -0.00083224  1
  I  I85  1  0.17247437  0.50356169  0.33508341  1
  I  I86  1  0.17243054  0.50378299  0.66569067  1
  I  I87  1  0.17031468  0.82974261  -0.00009741  1
  I  I88  1  0.17012375  0.82716943  0.33735597  1
  I  I89  1  0.16985286  0.82796593  0.66256648  1
  I  I90  1  0.49673946  0.16499505  -0.00036781  1
  I  I91  1  0.50341940  0.16421753  0.33464627  1
  I  I92  1  0.50354141  0.16516559  0.66577273  1
  I  I93  1  0.49510517  0.49999348  -0.00282271  1
  I  I94  1  0.49636349  0.50011552  0.33646057  1
  I  I95  1  0.49349327  0.49985419  0.66552704  1
  I  I96  1  0.49865474  0.83534329  -0.00036896  1
  I  I97  1  0.50009738  0.83559605  0.33516559  1
  I  I98  1  0.50019276  0.83480347  0.66524423  1
  I  I99  1  0.83205294  0.16903838  0.00002857  1
  I  I100  1  0.82652987  0.16343179  0.33744924  1
  I  I101  1  0.82630202  0.16363148  0.66260261  1
  I  I102  1  0.82916828  0.49902325  -0.00007137  1
  I  I103  1  0.83054427  0.49999793  0.33385278  1
  I  I104  1  0.83652064  0.49981325  0.66623088  1
  I  I105  1  0.83188964  0.83151884  0.00002709  1
  I  I106  1  0.83001501  0.83622990  0.33788003  1
  I  I107  1  0.82960000  0.83574393  0.66220446  1
  I  I108  1  -0.00021211  0.16996388  0.16932689  1
  I  I109  1  -0.00273831  0.16446421  0.49942330  1
  I  I110  1  -0.00021918  0.17021356  0.83075205  1
  I  I111  1  0.00549462  0.50056484  0.17169544  1
  I  I112  1  0.00353921  0.50338634  0.50045294  1
  I  I113  1  0.00352237  0.50029890  0.82927059  1
  I  I114  1  0.00016067  0.83007697  0.16889045  1
  I  I115  1  0.00032805  0.83092302  0.49968726  1
  I  I116  1  0.00017303  0.82977843  0.83083697  1
  I  I117  1  0.33794248  0.16264756  0.17213626  1
  I  I118  1  0.33722396  0.16474622  0.50033814  1
  I  I119  1  0.33826157  0.16457722  0.82761504  1
  I  I120  1  0.33149660  0.49987731  0.16859991  1
  I  I121  1  0.33448820  0.50258930  0.50051092  1
  I  I122  1  0.33499545  0.49956491  0.83123902  1
  I  I123  1  0.33752922  0.83691247  0.17037343  1
  I  I124  1  0.33525277  0.83228849  0.49990794  1
  I  I125  1  0.33784228  0.83548266  0.82969049  1
  I  I126  1  0.66192405  0.16468102  0.16432170  1
  I  I127  1  0.66388402  0.16369318  0.50034357  1
  I  I128  1  0.66147494  0.16996459  0.83503863  1
  I  I129  1  0.66647449  0.49964835  0.16725446  1
  I  I130  1  0.66308541  0.50220727  0.50445116  1
  I  I131  1  0.66219545  0.49984200  0.82679178  1
  I  I132  1  0.66193816  0.83565642  0.16868540  1
  I  I133  1  0.66442736  0.83367096  0.50029181  1
  I  I134  1  0.66144886  0.83046798  0.83035970  1
