# generated using pymatgen
data_Cs27Sn14Pb13I81
_symmetry_space_group_name_H-M   'P 1'
_cell_length_a   18.97850684
_cell_length_b   18.97647066
_cell_length_c   18.97423672
_cell_angle_alpha   89.99980817
_cell_angle_beta   90.00144922
_cell_angle_gamma   90.00000668
_symmetry_Int_Tables_number   1
_chemical_formula_structural   Cs27Sn14Pb13I81
_chemical_formula_sum   'Cs27 Sn14 Pb13 I81'
_cell_volume   6833.47796347
_cell_formula_units_Z   1
loop_
 _symmetry_equiv_pos_site_id
 _symmetry_equiv_pos_as_xyz
  1  'x, y, z'
loop_
 _atom_site_type_symbol
 _atom_site_label
 _atom_site_symmetry_multiplicity
 _atom_site_fract_x
 _atom_site_fract_y
 _atom_site_fract_z
 _atom_site_occupancy
  Cs  Cs0  1  0.00037948  -0.00256205  0.00332740  1
  Cs  Cs1  1  -0.00067306  -0.00120889  0.33140895  1
  Cs  Cs2  1  0.00099327  0.00709002  0.66556095  1
  Cs  Cs3  1  -0.00066849  0.33500137  0.00127332  1
  Cs  Cs4  1  -0.00059081  0.33469215  0.33364054  1
  Cs  Cs5  1  -0.00001093  0.32812089  0.66539627  1
  Cs  Cs6  1  0.00049301  0.66675556  -0.00057693  1
  Cs  Cs7  1  0.00032245  0.66656533  0.33331851  1
  Cs  Cs8  1  0.00107428  0.66605990  0.66569815  1
  Cs  Cs9  1  0.33289721  -0.00143825  -0.00060528  1
  Cs  Cs10  1  0.33348431  -0.00206591  0.33487421  1
  Cs  Cs11  1  0.33194100  0.00458032  0.66634410  1
  Cs  Cs12  1  0.33752988  0.33417915  0.00100524  1
  Cs  Cs13  1  0.34315458  0.33701946  0.33106842  1
  Cs  Cs14  1  0.33170289  0.32728824  0.66807776  1
  Cs  Cs15  1  0.33195607  0.66648423  -0.00121485  1
  Cs  Cs16  1  0.33354564  0.66494570  0.33536002  1
  Cs  Cs17  1  0.33286930  0.66709262  0.66749493  1
  Cs  Cs18  1  0.66585714  -0.00125629  0.00027137  1
  Cs  Cs19  1  0.66702486  -0.00110772  0.33301814  1
  Cs  Cs20  1  0.66753058  0.00868551  0.66523224  1
  Cs  Cs21  1  0.66419936  0.33060832  -0.00146111  1
  Cs  Cs22  1  0.66147665  0.33370871  0.33352144  1
  Cs  Cs23  1  0.66802581  0.32511845  0.66763002  1
  Cs  Cs24  1  0.66849291  0.66943868  -0.00391804  1
  Cs  Cs25  1  0.66767512  0.66706153  0.33640932  1
  Cs  Cs26  1  0.66583403  0.66608999  0.66767138  1
  Sn  Sn27  1  0.16724696  0.50076697  0.83239812  1
  Sn  Sn28  1  0.83416526  0.50099569  0.49938805  1
  Sn  Sn29  1  0.49921380  0.83248775  0.83367525  1
  Sn  Sn30  1  0.83427901  0.16664874  0.16691283  1
  Sn  Sn31  1  0.16628440  0.16640876  0.16700919  1
  Sn  Sn32  1  0.83330134  0.50034556  0.16728433  1
  Sn  Sn33  1  0.16691428  0.83374585  0.16683234  1
  Sn  Sn34  1  0.49976753  0.83264664  0.16614084  1
  Sn  Sn35  1  0.49919854  0.50106644  0.83282857  1
  Sn  Sn36  1  0.16711020  0.83259674  0.83299073  1
  Sn  Sn37  1  0.16607116  0.50064214  0.50076235  1
  Sn  Sn38  1  0.16564254  0.83251343  0.50020058  1
  Sn  Sn39  1  0.83428121  0.83240759  0.49966313  1
  Sn  Sn40  1  0.83325158  0.83280021  0.16738059  1
  Pb  Pb41  1  0.49958439  0.16589053  0.83362782  1
  Pb  Pb42  1  0.49979362  0.16378840  0.16665758  1
  Pb  Pb43  1  0.16541393  0.50021622  0.16681611  1
  Pb  Pb44  1  0.83377779  0.16652369  0.83666438  1
  Pb  Pb45  1  0.83378085  0.50013557  0.83241466  1
  Pb  Pb46  1  0.50008446  0.50024959  0.50303416  1
  Pb  Pb47  1  0.16652577  0.16671202  0.83621514  1
  Pb  Pb48  1  0.83375706  0.83346295  0.83231749  1
  Pb  Pb49  1  0.49973310  0.16664950  0.49965529  1
  Pb  Pb50  1  0.50322636  0.50302197  0.16437092  1
  Pb  Pb51  1  0.16676950  0.16716832  0.49668723  1
  Pb  Pb52  1  0.83358458  0.16675441  0.49713325  1
  Pb  Pb53  1  0.49997983  0.83332457  0.50083700  1
  I  I54  1  0.16196018  -0.00260247  0.16593006  1
  I  I55  1  0.16292181  -0.00365012  0.50268855  1
  I  I56  1  0.17075841  -0.00372518  0.83113926  1
  I  I57  1  0.15982698  0.33146178  0.16584097  1
  I  I58  1  0.16169827  0.33697747  0.50481744  1
  I  I59  1  0.16994460  0.33681164  0.82989016  1
  I  I60  1  0.16569185  0.67002718  0.16583430  1
  I  I61  1  0.16240275  0.66778226  0.49839472  1
  I  I62  1  0.17059897  0.66778021  0.83552997  1
  I  I63  1  0.50422097  -0.00450044  0.16031233  1
  I  I64  1  0.50075392  -0.00081366  0.50186829  1
  I  I65  1  0.49592469  -0.00399373  0.83821318  1
  I  I66  1  0.49996590  0.33370082  0.16529563  1
  I  I67  1  0.50020295  0.33403264  0.50100776  1
  I  I68  1  0.49621467  0.33638887  0.83261621  1
  I  I69  1  0.49766519  0.67096711  0.16501009  1
  I  I70  1  0.50116823  0.66689318  0.49673141  1
  I  I71  1  0.49566139  0.66775629  0.83819433  1
  I  I72  1  0.83390047  -0.00171949  0.16950756  1
  I  I73  1  0.83689422  -0.00341584  0.49677537  1
  I  I74  1  0.83240288  -0.00048819  0.83239278  1
  I  I75  1  0.83991506  0.33363641  0.16907982  1
  I  I76  1  0.83748505  0.33674138  0.49706393  1
  I  I77  1  0.83253614  0.33369772  0.83371320  1
  I  I78  1  0.83398499  0.66789866  0.17015997  1
  I  I79  1  0.83759527  0.66717615  0.49033066  1
  I  I80  1  0.83251518  0.66684154  0.84014133  1
  I  I81  1  0.16163130  0.16153981  0.00396004  1
  I  I82  1  0.16098218  0.16073947  0.32904517  1
  I  I83  1  0.16793676  0.16399365  0.66653317  1
  I  I84  1  0.16827602  0.50309119  -0.00230044  1
  I  I85  1  0.16278970  0.50332893  0.33590355  1
  I  I86  1  0.16461187  0.50898441  0.66646972  1
  I  I87  1  0.16666902  0.83352454  0.00051338  1
  I  I88  1  0.16586206  0.83377988  0.33291218  1
  I  I89  1  0.16698611  0.82771451  0.66659078  1
  I  I90  1  0.50171215  0.16920702  0.00028250  1
  I  I91  1  0.49953045  0.16601329  0.33247905  1
  I  I92  1  0.50120562  0.16402187  0.66708058  1
  I  I93  1  0.49368823  0.50180158  -0.00327328  1
  I  I94  1  0.49757534  0.49966433  0.33328692  1
  I  I95  1  0.50078116  0.50945415  0.67073712  1
  I  I96  1  0.49776508  0.83021945  0.00036952  1
  I  I97  1  0.49840594  0.83547240  0.33057756  1
  I  I98  1  0.49692224  0.82849785  0.67010651  1
  I  I99  1  0.83702257  0.16587199  0.00517358  1
  I  I100  1  0.83852503  0.16481151  0.32927602  1
  I  I101  1  0.83090050  0.16651180  0.66616666  1
  I  I102  1  0.83392529  0.50073830  0.00278908  1
  I  I103  1  0.83991656  0.50139970  0.33325917  1
  I  I104  1  0.83396251  0.50758538  0.66318033  1
  I  I105  1  0.83544482  0.83317290  0.00325870  1
  I  I106  1  0.83596652  0.83335134  0.33196636  1
  I  I107  1  0.83573962  0.82610860  0.66304119  1
  I  I108  1  -0.00044401  0.16017522  0.16607105  1
  I  I109  1  0.00013567  0.16653891  0.50234741  1
  I  I110  1  0.00044699  0.16692687  0.83177387  1
  I  I111  1  -0.00276656  0.50434503  0.16485015  1
  I  I112  1  0.00029056  0.50486574  0.50151252  1
  I  I113  1  0.00324415  0.50588285  0.83395024  1
  I  I114  1  -0.00000283  0.83447036  0.16639666  1
  I  I115  1  0.00059493  0.82931737  0.49591441  1
  I  I116  1  0.00356350  0.82819109  0.83742672  1
  I  I117  1  0.33025244  0.16170960  0.16620001  1
  I  I118  1  0.33261226  0.16563885  0.49704935  1
  I  I119  1  0.33297483  0.16703681  0.83663942  1
  I  I120  1  0.33351498  0.49853199  0.16935848  1
  I  I121  1  0.32991483  0.50544308  0.50057876  1
  I  I122  1  0.33195045  0.50498865  0.82919055  1
  I  I123  1  0.33208235  0.83879636  0.16603901  1
  I  I124  1  0.32972618  0.82921553  0.49618141  1
  I  I125  1  0.33219580  0.82933679  0.83795985  1
  I  I126  1  0.66985738  0.16602464  0.16705837  1
  I  I127  1  0.66725891  0.16583793  0.49835396  1
  I  I128  1  0.66651544  0.16714514  0.83449734  1
  I  I129  1  0.67133887  0.49902184  0.17158515  1
  I  I130  1  0.67011728  0.50481333  0.49567258  1
  I  I131  1  0.66412518  0.50529578  0.83588314  1
  I  I132  1  0.66778163  0.83328352  0.16611012  1
  I  I133  1  0.67000354  0.82939035  0.49516826  1
  I  I134  1  0.66391404  0.82859707  0.83864239  1
