# generated using pymatgen
data_Cs27Sn13Pb14I81
_symmetry_space_group_name_H-M   'P 1'
_cell_length_a   18.99148746
_cell_length_b   18.99252374
_cell_length_c   18.99288006
_cell_angle_alpha   90.00010672
_cell_angle_beta   90.00043077
_cell_angle_gamma   90.00063955
_symmetry_Int_Tables_number   1
_chemical_formula_structural   Cs27Sn13Pb14I81
_chemical_formula_sum   'Cs27 Sn13 Pb14 I81'
_cell_volume   6850.66112082
_cell_formula_units_Z   1
loop_
 _symmetry_equiv_pos_site_id
 _symmetry_equiv_pos_as_xyz
  1  'x, y, z'
loop_
 _atom_site_type_symbol
 _atom_site_label
 _atom_site_symmetry_multiplicity
 _atom_site_fract_x
 _atom_site_fract_y
 _atom_site_fract_z
 _atom_site_occupancy
  Cs  Cs0  1  -0.00516638  -0.00045858  0.00136139  1
  Cs  Cs1  1  0.00014490  -0.00718311  0.33224617  1
  Cs  Cs2  1  0.00251174  -0.00059117  0.66551694  1
  Cs  Cs3  1  -0.00516718  0.33569494  0.00134591  1
  Cs  Cs4  1  0.00049972  0.33387917  0.33645595  1
  Cs  Cs5  1  0.00184617  0.33349348  0.66468148  1
  Cs  Cs6  1  -0.00597302  0.66637486  0.00826899  1
  Cs  Cs7  1  0.00052080  0.67506829  0.32440654  1
  Cs  Cs8  1  -0.00072303  0.66723527  0.66728061  1
  Cs  Cs9  1  0.33573784  0.00321603  -0.00301301  1
  Cs  Cs10  1  0.33270005  -0.00054143  0.33353465  1
  Cs  Cs11  1  0.33257613  -0.00272554  0.66880071  1
  Cs  Cs12  1  0.33317639  0.33296172  -0.00003903  1
  Cs  Cs13  1  0.33397624  0.33387233  0.33456929  1
  Cs  Cs14  1  0.33173452  0.33505350  0.66539295  1
  Cs  Cs15  1  0.33263798  0.66546969  0.00207141  1
  Cs  Cs16  1  0.33440138  0.66819254  0.32974008  1
  Cs  Cs17  1  0.33422787  0.66462044  0.66724392  1
  Cs  Cs18  1  0.67106732  0.00786375  -0.00594495  1
  Cs  Cs19  1  0.66887888  -0.00059877  0.33153708  1
  Cs  Cs20  1  0.66578392  -0.00965193  0.67390286  1
  Cs  Cs21  1  0.67370462  0.32602579  0.00038247  1
  Cs  Cs22  1  0.66510734  0.33203664  0.33574166  1
  Cs  Cs23  1  0.66832162  0.33438771  0.66320501  1
  Cs  Cs24  1  0.67246607  0.66663064  -0.00076291  1
  Cs  Cs25  1  0.66323280  0.66883780  0.33363528  1
  Cs  Cs26  1  0.66671595  0.67160921  0.66899234  1
  Sn  Sn27  1  0.16687105  0.16722004  0.83340306  1
  Sn  Sn28  1  0.16675134  0.16717485  0.16693855  1
  Sn  Sn29  1  0.49998029  0.16681012  0.50053943  1
  Sn  Sn30  1  0.83324680  0.16698498  0.50041614  1
  Sn  Sn31  1  0.83376935  0.50001033  0.49976318  1
  Sn  Sn32  1  0.49969033  0.49942956  0.83356808  1
  Sn  Sn33  1  0.16725263  0.50024075  0.83310435  1
  Sn  Sn34  1  0.49999819  0.50011693  0.16614240  1
  Sn  Sn35  1  0.49990726  0.49940833  0.50025562  1
  Sn  Sn36  1  0.16682019  0.83243277  0.83354730  1
  Sn  Sn37  1  0.16687314  0.16728245  0.49982582  1
  Sn  Sn38  1  0.49995612  0.83349123  0.16601931  1
  Sn  Sn39  1  0.16637404  0.49998242  0.50000047  1
  Pb  Pb40  1  0.16830582  0.49831232  0.16674678  1
  Pb  Pb41  1  0.83631813  0.16696948  0.16977666  1
  Pb  Pb42  1  0.49818042  0.16924155  0.83052286  1
  Pb  Pb43  1  0.83369606  0.49987023  0.83092979  1
  Pb  Pb44  1  0.83334998  0.83313381  0.50005951  1
  Pb  Pb45  1  0.82973696  0.83359329  0.16660698  1
  Pb  Pb46  1  0.49972319  0.83310528  0.49858206  1
  Pb  Pb47  1  0.83623112  0.16692999  0.83000733  1
  Pb  Pb48  1  0.16695008  0.83269729  0.50163161  1
  Pb  Pb49  1  0.82992039  0.49973671  0.17002806  1
  Pb  Pb50  1  0.16873871  0.83609805  0.16364495  1
  Pb  Pb51  1  0.83635767  0.83313045  0.83320801  1
  Pb  Pb52  1  0.49849678  0.16709517  0.16856919  1
  Pb  Pb53  1  0.49812545  0.83059965  0.83602759  1
  I  I54  1  0.16971767  0.00381605  0.17046416  1
  I  I55  1  0.16642603  0.00367983  0.50082849  1
  I  I56  1  0.16609927  0.00111332  0.83187020  1
  I  I57  1  0.17044096  0.33051927  0.16444892  1
  I  I58  1  0.16735672  0.33314477  0.50404398  1
  I  I59  1  0.17133431  0.33371886  0.83046961  1
  I  I60  1  0.16604964  0.66665144  0.16744399  1
  I  I61  1  0.16810464  0.66270735  0.50514074  1
  I  I62  1  0.17205939  0.66495580  0.82619495  1
  I  I63  1  0.49593804  -0.00185480  0.17064587  1
  I  I64  1  0.49820393  0.00325184  0.49681446  1
  I  I65  1  0.49782295  0.00015297  0.83317539  1
  I  I66  1  0.49733702  0.33638153  0.16708513  1
  I  I67  1  0.49889636  0.33466947  0.49747831  1
  I  I68  1  0.49313050  0.33731813  0.83727802  1
  I  I69  1  0.49734122  0.66486003  0.17053861  1
  I  I70  1  0.49958246  0.66254029  0.50182058  1
  I  I71  1  0.49307997  0.66249898  0.82574170  1
  I  I72  1  0.83217082  0.00033902  0.17014058  1
  I  I73  1  0.83554791  0.00355033  0.49918861  1
  I  I74  1  0.83383034  0.00021807  0.83054214  1
  I  I75  1  0.83090200  0.33335190  0.16375673  1
  I  I76  1  0.83362415  0.33356961  0.50023384  1
  I  I77  1  0.83471856  0.33336092  0.83612947  1
  I  I78  1  0.83787371  0.66647399  0.16957953  1
  I  I79  1  0.83219134  0.66296398  0.50132995  1
  I  I80  1  0.83493391  0.66629195  0.82925069  1
  I  I81  1  0.17004033  0.16661225  -0.00082106  1
  I  I82  1  0.16737769  0.17233313  0.33529836  1
  I  I83  1  0.16626581  0.16744172  0.66580773  1
  I  I84  1  0.17288954  0.49817162  -0.00307012  1
  I  I85  1  0.16803232  0.49377123  0.33671507  1
  I  I86  1  0.17141186  0.49554806  0.66606668  1
  I  I87  1  0.16896875  0.83139847  -0.00391404  1
  I  I88  1  0.16635013  0.83377947  0.33282638  1
  I  I89  1  0.16822047  0.83787625  0.66949145  1
  I  I90  1  0.49654398  0.16746774  -0.00023185  1
  I  I91  1  0.49657353  0.17274409  0.33692615  1
  I  I92  1  0.49725239  0.17251624  0.66223219  1
  I  I93  1  0.49093906  0.50597567  -0.00047320  1
  I  I94  1  0.49969837  0.50006585  0.33474391  1
  I  I95  1  0.49795592  0.49461277  0.66565363  1
  I  I96  1  0.49611980  0.82756134  0.00343413  1
  I  I97  1  0.49824620  0.82668342  0.33091561  1
  I  I98  1  0.49995691  0.83367113  0.66719854  1
  I  I99  1  0.83400996  0.16492481  -0.00011804  1
  I  I100  1  0.83466423  0.17223800  0.33783526  1
  I  I101  1  0.83562695  0.17294647  0.66214742  1
  I  I102  1  0.83421528  0.50186832  0.00016656  1
  I  I103  1  0.83539748  0.49423854  0.33814139  1
  I  I104  1  0.82991663  0.49474376  0.66278316  1
  I  I105  1  0.83464303  0.83249303  0.00001986  1
  I  I106  1  0.83565186  0.83346331  0.33331521  1
  I  I107  1  0.83146315  0.83359677  0.66659211  1
  I  I108  1  0.00451577  0.16706998  0.16695455  1
  I  I109  1  0.00146412  0.17370555  0.50101401  1
  I  I110  1  0.00510622  0.16987158  0.83137448  1
  I  I111  1  -0.00005727  0.49898692  0.16619182  1
  I  I112  1  0.00140379  0.49169335  0.50714262  1
  I  I113  1  0.00396917  0.49881097  0.82761250  1
  I  I114  1  0.00019962  0.83440305  0.16609378  1
  I  I115  1  0.00023265  0.83331631  0.50040789  1
  I  I116  1  0.00486378  0.83176602  0.83187396  1
  I  I117  1  0.33046000  0.16725561  0.16971082  1
  I  I118  1  0.33231644  0.17300132  0.49953496  1
  I  I119  1  0.32952213  0.16471349  0.83056444  1
  I  I120  1  0.33626165  0.50236612  0.17224180  1
  I  I121  1  0.33335001  0.49383880  0.50117249  1
  I  I122  1  0.33239425  0.49956792  0.82759848  1
  I  I123  1  0.33595555  0.82768522  0.16835828  1
  I  I124  1  0.33327374  0.83466892  0.49949676  1
  I  I125  1  0.33020396  0.83657248  0.83236164  1
  I  I126  1  0.66666719  0.16584397  0.16869795  1
  I  I127  1  0.66611353  0.17556350  0.49751499  1
  I  I128  1  0.66659893  0.16709467  0.83335598  1
  I  I129  1  0.66164088  0.50373662  0.16593154  1
  I  I130  1  0.66552637  0.49293765  0.49884091  1
  I  I131  1  0.66346242  0.50144529  0.83193468  1
  I  I132  1  0.66204139  0.82733872  0.16921914  1
  I  I133  1  0.66652312  0.83389665  0.49936745  1
  I  I134  1  0.66628301  0.83198969  0.83369602  1
