# generated using pymatgen
data_Cs27Sn13Pb14I81
_symmetry_space_group_name_H-M   'P 1'
_cell_length_a   18.97682669
_cell_length_b   18.97551734
_cell_length_c   18.97661069
_cell_angle_alpha   89.99942493
_cell_angle_beta   89.99727654
_cell_angle_gamma   90.00099849
_symmetry_Int_Tables_number   1
_chemical_formula_structural   Cs27Sn13Pb14I81
_chemical_formula_sum   'Cs27 Sn13 Pb14 I81'
_cell_volume   6833.38458810
_cell_formula_units_Z   1
loop_
 _symmetry_equiv_pos_site_id
 _symmetry_equiv_pos_as_xyz
  1  'x, y, z'
loop_
 _atom_site_type_symbol
 _atom_site_label
 _atom_site_symmetry_multiplicity
 _atom_site_fract_x
 _atom_site_fract_y
 _atom_site_fract_z
 _atom_site_occupancy
  Cs  Cs0  1  -0.00026862  0.00049340  0.00161397  1
  Cs  Cs1  1  0.00399597  -0.00053521  0.33338763  1
  Cs  Cs2  1  0.00064414  0.00298958  0.66424444  1
  Cs  Cs3  1  -0.00139630  0.33391360  -0.00185460  1
  Cs  Cs4  1  -0.00182286  0.33083553  0.34072027  1
  Cs  Cs5  1  -0.00839964  0.33808628  0.66050097  1
  Cs  Cs6  1  0.00219254  0.66431035  0.00331253  1
  Cs  Cs7  1  0.00902855  0.66938229  0.32845073  1
  Cs  Cs8  1  0.00071995  0.66002993  0.66716527  1
  Cs  Cs9  1  0.33515771  0.00256279  -0.00273059  1
  Cs  Cs10  1  0.33224062  0.00081193  0.33620785  1
  Cs  Cs11  1  0.33499335  -0.00051588  0.66836373  1
  Cs  Cs12  1  0.33359545  0.33153156  0.00229409  1
  Cs  Cs13  1  0.33507745  0.34064637  0.33132913  1
  Cs  Cs14  1  0.33194492  0.33364335  0.66628851  1
  Cs  Cs15  1  0.33114950  0.66443938  -0.00188680  1
  Cs  Cs16  1  0.32675524  0.65953925  0.33323916  1
  Cs  Cs17  1  0.33405692  0.66677135  0.66758517  1
  Cs  Cs18  1  0.66616046  -0.00033866  -0.00037696  1
  Cs  Cs19  1  0.66555014  -0.00143794  0.33233291  1
  Cs  Cs20  1  0.66566180  -0.00114796  0.66745081  1
  Cs  Cs21  1  0.66827057  0.33189541  0.00250616  1
  Cs  Cs22  1  0.66513578  0.33812948  0.33126818  1
  Cs  Cs23  1  0.67376188  0.33461419  0.66495855  1
  Cs  Cs24  1  0.66744573  0.67095750  -0.00088370  1
  Cs  Cs25  1  0.66678378  0.66659667  0.33528945  1
  Cs  Cs26  1  0.66514672  0.66875343  0.66591812  1
  Sn  Sn27  1  0.83323763  0.49939791  0.16658413  1
  Sn  Sn28  1  0.16636196  0.83425108  0.83328843  1
  Sn  Sn29  1  0.16674659  0.16618976  0.83365941  1
  Sn  Sn30  1  0.50040135  0.83405096  0.49967814  1
  Sn  Sn31  1  0.49991835  0.83348220  0.83331963  1
  Sn  Sn32  1  0.83412326  0.16718079  0.16652921  1
  Sn  Sn33  1  0.16589506  0.16644782  0.16603855  1
  Sn  Sn34  1  0.49973241  0.16704750  0.83235195  1
  Sn  Sn35  1  0.50045873  0.49936687  0.83350230  1
  Sn  Sn36  1  0.83396300  0.83362431  0.83248522  1
  Sn  Sn37  1  0.83307926  0.83355880  0.50064764  1
  Sn  Sn38  1  0.50010656  0.16619087  0.50084695  1
  Sn  Sn39  1  0.49938777  0.83315865  0.16710878  1
  Pb  Pb40  1  0.16976171  0.83557480  0.16418577  1
  Pb  Pb41  1  0.83214726  0.83363484  0.16695778  1
  Pb  Pb42  1  0.50014222  0.50028371  0.50250692  1
  Pb  Pb43  1  0.16404041  0.49649508  0.16624246  1
  Pb  Pb44  1  0.16928631  0.16667981  0.50077468  1
  Pb  Pb45  1  0.50163072  0.50298093  0.16427274  1
  Pb  Pb46  1  0.83055764  0.16426385  0.49726650  1
  Pb  Pb47  1  0.83105958  0.50284578  0.83502642  1
  Pb  Pb48  1  0.49977298  0.16526727  0.16686600  1
  Pb  Pb49  1  0.83342208  0.16482084  0.83454064  1
  Pb  Pb50  1  0.16708547  0.83338803  0.50292907  1
  Pb  Pb51  1  0.83308814  0.50362375  0.49714838  1
  Pb  Pb52  1  0.16858785  0.49889573  0.83331761  1
  Pb  Pb53  1  0.16667619  0.49984404  0.50026853  1
  I  I54  1  0.15985697  0.00322339  0.16443698  1
  I  I55  1  0.16478519  -0.00003539  0.49719186  1
  I  I56  1  0.17273582  -0.00005439  0.83728436  1
  I  I57  1  0.16880630  0.32869164  0.15891969  1
  I  I58  1  0.16901517  0.33268009  0.50176149  1
  I  I59  1  0.17366506  0.32930413  0.83840628  1
  I  I60  1  0.16575819  0.66677182  0.16596645  1
  I  I61  1  0.16885823  0.66729596  0.50077647  1
  I  I62  1  0.16857282  0.66972227  0.83250869  1
  I  I63  1  0.50335832  -0.00266948  0.16156632  1
  I  I64  1  0.50316653  -0.00125510  0.50480125  1
  I  I65  1  0.49931326  -0.00094096  0.83311504  1
  I  I66  1  0.49899165  0.33327312  0.16636982  1
  I  I67  1  0.49837385  0.33023002  0.50375571  1
  I  I68  1  0.49444461  0.33181010  0.83021100  1
  I  I69  1  0.50377133  0.67108851  0.16576413  1
  I  I70  1  0.50440083  0.67044047  0.50156332  1
  I  I71  1  0.50054956  0.66894053  0.83399020  1
  I  I72  1  0.83494944  0.00223502  0.16571081  1
  I  I73  1  0.82992358  -0.00359269  0.50231774  1
  I  I74  1  0.82744617  -0.00347922  0.83380621  1
  I  I75  1  0.83513906  0.33219743  0.16415876  1
  I  I76  1  0.83244005  0.33325764  0.50064076  1
  I  I77  1  0.83227426  0.33329207  0.83408106  1
  I  I78  1  0.82833895  0.66528811  0.16560908  1
  I  I79  1  0.82430708  0.67139422  0.50340448  1
  I  I80  1  0.83193037  0.67122927  0.83278497  1
  I  I81  1  0.16982867  0.16211133  -0.00120487  1
  I  I82  1  0.16354122  0.16637360  0.33069327  1
  I  I83  1  0.17129711  0.16082508  0.67046071  1
  I  I84  1  0.16717580  0.50333818  -0.00015868  1
  I  I85  1  0.16825783  0.50016653  0.33273766  1
  I  I86  1  0.16697432  0.49935848  0.66736117  1
  I  I87  1  0.16665158  0.83502668  -0.00400138  1
  I  I88  1  0.16641961  0.83405046  0.33318436  1
  I  I89  1  0.17189000  0.83996806  0.67119894  1
  I  I90  1  0.49943819  0.16411645  -0.00300720  1
  I  I91  1  0.50104971  0.15954782  0.33554330  1
  I  I92  1  0.49477018  0.16081121  0.66846428  1
  I  I93  1  0.50053281  0.50045405  -0.00362669  1
  I  I94  1  0.50066190  0.49991694  0.33317662  1
  I  I95  1  0.50010074  0.50539634  0.67051526  1
  I  I96  1  0.50166074  0.83423902  -0.00193455  1
  I  I97  1  0.50761701  0.84010192  0.33432992  1
  I  I98  1  0.50093155  0.83406964  0.66807899  1
  I  I99  1  0.83111254  0.16602130  0.00257506  1
  I  I100  1  0.83744607  0.16738442  0.32942308  1
  I  I101  1  0.83541208  0.16711844  0.66650997  1
  I  I102  1  0.83163589  0.49869496  0.00270191  1
  I  I103  1  0.83054509  0.49637348  0.32961261  1
  I  I104  1  0.83292747  0.49908046  0.66665828  1
  I  I105  1  0.83009249  0.83383007  -0.00259055  1
  I  I106  1  0.82550565  0.83363783  0.33565282  1
  I  I107  1  0.82668403  0.83439918  0.66768921  1
  I  I108  1  0.00010648  0.16867659  0.15966564  1
  I  I109  1  -0.00027172  0.16563986  0.50126249  1
  I  I110  1  0.00269232  0.15996442  0.83789293  1
  I  I111  1  -0.00366687  0.50306238  0.16459391  1
  I  I112  1  -0.00062881  0.50076801  0.50154494  1
  I  I113  1  -0.00031237  0.50141983  0.83450435  1
  I  I114  1  0.00028461  0.83151631  0.16643343  1
  I  I115  1  -0.00284915  0.83267558  0.50320610  1
  I  I116  1  -0.00002267  0.83898181  0.83005251  1
  I  I117  1  0.33131814  0.16237314  0.16413488  1
  I  I118  1  0.33743242  0.15850621  0.50029472  1
  I  I119  1  0.33449297  0.16120549  0.83617147  1
  I  I120  1  0.33331157  0.50001405  0.16649569  1
  I  I121  1  0.33404526  0.50214144  0.49881252  1
  I  I122  1  0.33692795  0.50589973  0.83403058  1
  I  I123  1  0.33774619  0.83569893  0.16639050  1
  I  I124  1  0.33704283  0.83770534  0.50127945  1
  I  I125  1  0.33496290  0.83408210  0.83402642  1
  I  I126  1  0.66852053  0.16783225  0.16593898  1
  I  I127  1  0.66269966  0.16319629  0.50587196  1
  I  I128  1  0.66344299  0.16421723  0.83239504  1
  I  I129  1  0.66921384  0.49283771  0.16540340  1
  I  I130  1  0.66658452  0.49844905  0.49967892  1
  I  I131  1  0.66299435  0.50038227  0.83435073  1
  I  I132  1  0.66413662  0.83633460  0.16110829  1
  I  I133  1  0.66512564  0.83677651  0.50494960  1
  I  I134  1  0.66508463  0.83338837  0.83352532  1
