# generated using pymatgen
data_Cs27Sn13Pb14I81
_symmetry_space_group_name_H-M   'P 1'
_cell_length_a   18.98076628
_cell_length_b   18.97602482
_cell_length_c   18.97491016
_cell_angle_alpha   90.00007924
_cell_angle_beta   89.99951721
_cell_angle_gamma   90.00229216
_symmetry_Int_Tables_number   1
_chemical_formula_structural   Cs27Sn13Pb14I81
_chemical_formula_sum   'Cs27 Sn13 Pb14 I81'
_cell_volume   6834.37349916
_cell_formula_units_Z   1
loop_
 _symmetry_equiv_pos_site_id
 _symmetry_equiv_pos_as_xyz
  1  'x, y, z'
loop_
 _atom_site_type_symbol
 _atom_site_label
 _atom_site_symmetry_multiplicity
 _atom_site_fract_x
 _atom_site_fract_y
 _atom_site_fract_z
 _atom_site_occupancy
  Cs  Cs0  1  -0.00052752  -0.00193238  0.00120076  1
  Cs  Cs1  1  0.00131711  0.00020552  0.33820242  1
  Cs  Cs2  1  0.00180570  -0.00019943  0.65736983  1
  Cs  Cs3  1  0.00338794  0.33452954  -0.00144614  1
  Cs  Cs4  1  -0.00315014  0.33515115  0.33606628  1
  Cs  Cs5  1  0.00356629  0.33133415  0.66567492  1
  Cs  Cs6  1  -0.00085411  0.66796055  0.00212002  1
  Cs  Cs7  1  -0.00839836  0.66355318  0.33355252  1
  Cs  Cs8  1  -0.00045202  0.67061863  0.66543838  1
  Cs  Cs9  1  0.33440153  -0.00042400  0.00137656  1
  Cs  Cs10  1  0.33268251  -0.00139005  0.33053536  1
  Cs  Cs11  1  0.33204697  -0.00104180  0.66491736  1
  Cs  Cs12  1  0.33176858  0.33429097  -0.00087679  1
  Cs  Cs13  1  0.33584781  0.33648712  0.32991008  1
  Cs  Cs14  1  0.32978002  0.33226901  0.67003350  1
  Cs  Cs15  1  0.33190075  0.66811259  -0.00008205  1
  Cs  Cs16  1  0.33532801  0.66534073  0.33692738  1
  Cs  Cs17  1  0.33371999  0.66850864  0.66452936  1
  Cs  Cs18  1  0.66502281  0.00119244  -0.00032566  1
  Cs  Cs19  1  0.66597270  0.00148533  0.33182655  1
  Cs  Cs20  1  0.66671996  -0.00041644  0.66837876  1
  Cs  Cs21  1  0.66489270  0.33068462  -0.00170797  1
  Cs  Cs22  1  0.66742705  0.33753665  0.33582177  1
  Cs  Cs23  1  0.66680827  0.33311647  0.66883793  1
  Cs  Cs24  1  0.66975228  0.66833332  -0.00124498  1
  Cs  Cs25  1  0.67283779  0.65668178  0.34072067  1
  Cs  Cs26  1  0.66688560  0.66661404  0.66466828  1
  Sn  Sn27  1  0.83326109  0.16657079  0.16568586  1
  Sn  Sn28  1  0.16665620  0.16621452  0.16619342  1
  Sn  Sn29  1  0.83321198  0.16724274  0.83418745  1
  Sn  Sn30  1  0.49999423  0.16617680  0.16669449  1
  Sn  Sn31  1  0.49909178  0.83340650  0.83425125  1
  Sn  Sn32  1  0.49987882  0.83330241  0.16629239  1
  Sn  Sn33  1  0.83300739  0.49907149  0.83374505  1
  Sn  Sn34  1  0.16732093  0.83389807  0.83404263  1
  Sn  Sn35  1  0.49970354  0.16648061  0.50000841  1
  Sn  Sn36  1  0.16741193  0.83401331  0.16587009  1
  Sn  Sn37  1  0.50018316  0.16650500  0.83326293  1
  Sn  Sn38  1  0.50038145  0.50016309  0.83379856  1
  Sn  Sn39  1  0.16707636  0.49991546  0.50000504  1
  Pb  Pb40  1  0.83304019  0.83423418  0.83327700  1
  Pb  Pb41  1  0.16641152  0.16439317  0.83497525  1
  Pb  Pb42  1  0.49846568  0.49742645  0.50309161  1
  Pb  Pb43  1  0.16928962  0.16834123  0.49670614  1
  Pb  Pb44  1  0.83285411  0.83357964  0.49970849  1
  Pb  Pb45  1  0.50016423  0.83530033  0.49940091  1
  Pb  Pb46  1  0.83313911  0.49699088  0.16375050  1
  Pb  Pb47  1  0.16646770  0.50263375  0.83223700  1
  Pb  Pb48  1  0.83259679  0.83558282  0.16674641  1
  Pb  Pb49  1  0.16692783  0.83141052  0.49871796  1
  Pb  Pb50  1  0.50007087  0.50066302  0.16434608  1
  Pb  Pb51  1  0.16678019  0.50086712  0.16855709  1
  Pb  Pb52  1  0.83085991  0.16664554  0.50032733  1
  Pb  Pb53  1  0.83554810  0.49945067  0.50359964  1
  I  I54  1  0.16832030  0.00032351  0.16256527  1
  I  I55  1  0.16661452  0.00005672  0.50208959  1
  I  I56  1  0.17105665  -0.00345381  0.83474668  1
  I  I57  1  0.16816891  0.33019706  0.16775319  1
  I  I58  1  0.16741682  0.33568990  0.50151551  1
  I  I59  1  0.16906139  0.33315874  0.83373498  1
  I  I60  1  0.17287513  0.67061281  0.16308915  1
  I  I61  1  0.16817330  0.66400944  0.50102328  1
  I  I62  1  0.17060130  0.67040122  0.83863740  1
  I  I63  1  0.49918701  0.00139130  0.16203221  1
  I  I64  1  0.49929532  0.00348999  0.50447329  1
  I  I65  1  0.50070465  0.00085616  0.83405050  1
  I  I66  1  0.49913131  0.32964540  0.16589517  1
  I  I67  1  0.49936070  0.32953412  0.49775439  1
  I  I68  1  0.50448090  0.33206581  0.83310094  1
  I  I69  1  0.49234058  0.67041988  0.16078446  1
  I  I70  1  0.49888305  0.66636802  0.50005309  1
  I  I71  1  0.49976511  0.66744065  0.83793531  1
  I  I72  1  0.83197483  0.00403460  0.15856697  1
  I  I73  1  0.83509679  0.00078678  0.50364624  1
  I  I74  1  0.82859425  0.00359286  0.83804168  1
  I  I75  1  0.83244277  0.32851049  0.16560997  1
  I  I76  1  0.83390871  0.33305399  0.49737702  1
  I  I77  1  0.82481067  0.33212644  0.83696486  1
  I  I78  1  0.83477862  0.66664860  0.16632137  1
  I  I79  1  0.83329183  0.66604341  0.50114310  1
  I  I80  1  0.83010712  0.66434809  0.83121506  1
  I  I81  1  0.17092151  0.16658079  0.00319227  1
  I  I82  1  0.16602544  0.16012671  0.32858902  1
  I  I83  1  0.16674290  0.16579951  0.66667094  1
  I  I84  1  0.16655227  0.49856639  -0.00013925  1
  I  I85  1  0.16815979  0.49960956  0.33614281  1
  I  I86  1  0.16744289  0.50042449  0.66468845  1
  I  I87  1  0.17124750  0.83603381  0.00037940  1
  I  I88  1  0.17219858  0.83803226  0.32925122  1
  I  I89  1  0.17046170  0.83155915  0.66924865  1
  I  I90  1  0.50123124  0.16601255  -0.00021456  1
  I  I91  1  0.49933653  0.16146119  0.33154504  1
  I  I92  1  0.50475717  0.16701145  0.66861640  1
  I  I93  1  0.50169798  0.49476915  -0.00404367  1
  I  I94  1  0.49830919  0.49947105  0.33351982  1
  I  I95  1  0.50327654  0.50069553  0.67127874  1
  I  I96  1  0.49572506  0.83867384  -0.00077421  1
  I  I97  1  0.49377910  0.84065260  0.32940118  1
  I  I98  1  0.49639895  0.83439241  0.67023559  1
  I  I99  1  0.82781053  0.17009473  -0.00049618  1
  I  I100  1  0.83283722  0.16418661  0.33000814  1
  I  I101  1  0.82820486  0.17004554  0.67038306  1
  I  I102  1  0.83033295  0.49882825  -0.00411690  1
  I  I103  1  0.83472162  0.50011873  0.33353062  1
  I  I104  1  0.82841562  0.49321461  0.67126115  1
  I  I105  1  0.83474721  0.83042274  -0.00016966  1
  I  I106  1  0.83440056  0.83554887  0.33266967  1
  I  I107  1  0.83452150  0.83567079  0.66742682  1
  I  I108  1  0.00004785  0.16350784  0.16095959  1
  I  I109  1  0.00026096  0.16746275  0.50060036  1
  I  I110  1  -0.00271853  0.17090391  0.83845414  1
  I  I111  1  -0.00001608  0.49980863  0.16482940  1
  I  I112  1  0.00298051  0.49961756  0.50073663  1
  I  I113  1  -0.00259392  0.49510558  0.83162631  1
  I  I114  1  0.00312044  0.83729032  0.16174948  1
  I  I115  1  0.00052268  0.83375821  0.50208646  1
  I  I116  1  0.00277524  0.83190866  0.83770167  1
  I  I117  1  0.33444533  0.16305909  0.16666434  1
  I  I118  1  0.33699425  0.16715739  0.50303405  1
  I  I119  1  0.33662766  0.16967595  0.83394246  1
  I  I120  1  0.33346816  0.49367793  0.16429806  1
  I  I121  1  0.33106595  0.49980849  0.50177329  1
  I  I122  1  0.33621311  0.49649851  0.83192773  1
  I  I123  1  0.33383998  0.84286126  0.16131057  1
  I  I124  1  0.33348392  0.83291520  0.50185818  1
  I  I125  1  0.33483218  0.83328098  0.83678727  1
  I  I126  1  0.66529880  0.16261390  0.16508326  1
  I  I127  1  0.66287506  0.16713657  0.49660928  1
  I  I128  1  0.66503224  0.16594697  0.83716819  1
  I  I129  1  0.66653972  0.50129509  0.16979237  1
  I  I130  1  0.66660899  0.49965141  0.49846900  1
  I  I131  1  0.66558612  0.50003333  0.83369035  1
  I  I132  1  0.66278257  0.83945869  0.15986780  1
  I  I133  1  0.66595299  0.83318115  0.50126905  1
  I  I134  1  0.66298993  0.83394665  0.83760140  1
